AV-unprocessed.smi:3330|AV-procd|sdf|12802|dock7
  -GOLD-   2272019163D 1   1.00000     0.00000
 Structure written by MMmdl.
 39 40  0  0  0  0  0  0  0  0  2 V2000
  149.5489  145.1826  160.5111 C   0  0  0  0  0  0  0  0  0  0  0  0
  150.1791  143.9861  159.7662 C   0  0  1  0  0  0  0  0  0  0  0  0
  149.5315  143.8029  158.4465 N   0  3  0  0  0  0  0  0  0  0  0  0
  148.6406  142.6303  158.3291 C   0  0  0  0  0  0  0  0  0  0  0  0
  149.3682  141.4629  157.6450 C   0  0  0  0  0  0  0  0  0  0  0  0
  148.9762  141.3378  156.2387 N   0  0  0  0  0  0  0  0  0  0  0  0
  147.7479  141.5993  155.7736 C   0  0  0  0  0  0  0  0  0  0  0  0
  146.7693  141.9751  156.4179 O   0  0  0  0  0  0  0  0  0  0  0  0
  147.7355  141.3447  154.2821 C   0  0  0  0  0  0  0  0  0  0  0  0
  149.1062  140.9148  154.1067 N   0  0  0  0  0  0  0  0  0  0  0  0
  149.7943  140.9195  155.2558 C   0  0  0  0  0  0  0  0  0  0  0  0
  150.9726  140.5890  155.3792 O   0  0  0  0  0  0  0  0  0  0  0  0
  151.7127  144.1356  159.5761 C   0  0  2  0  0  0  0  0  0  0  0  0
  152.0802  144.8151  158.2423 C   0  0  0  0  0  0  0  0  0  0  0  0
  152.4128  142.8627  159.6974 N   0  0  0  0  0  0  0  0  0  0  0  0
  153.3301  142.4802  160.6548 C   0  0  0  0  0  0  0  0  0  0  0  0
  153.7148  141.2027  160.3655 C   0  0  0  0  0  0  0  0  0  0  0  0
  152.9714  140.8824  159.1956 C   0  0  0  0  0  0  0  0  0  0  0  0
  152.1929  141.8761  158.7988 N   0  0  0  0  0  0  0  0  0  0  0  0
  149.9651  145.3023  161.5114 H   0  0  0  0  0  0  0  0  0  0  0  0
  148.4739  145.0608  160.6406 H   0  0  0  0  0  0  0  0  0  0  0  0
  149.7140  146.1153  159.9710 H   0  0  0  0  0  0  0  0  0  0  0  0
  150.0020  143.0860  160.3575 H   0  0  0  0  0  0  0  0  0  0  0  0
  149.0156  144.6398  158.2154 H   0  0  0  0  0  0  0  0  0  0  0  0
  148.3081  142.3296  159.3237 H   0  0  0  0  0  0  0  0  0  0  0  0
  147.7517  142.8959  157.7570 H   0  0  0  0  0  0  0  0  0  0  0  0
  150.4483  141.6040  157.7165 H   0  0  0  0  0  0  0  0  0  0  0  0
  149.1575  140.5309  158.1729 H   0  0  0  0  0  0  0  0  0  0  0  0
  147.0287  140.5596  154.0119 H   0  0  0  0  0  0  0  0  0  0  0  0
  147.5240  142.2545  153.7194 H   0  0  0  0  0  0  0  0  0  0  0  0
  149.4866  140.6417  153.2118 H   0  0  0  0  0  0  0  0  0  0  0  0
  152.0876  144.7710  160.3803 H   0  0  0  0  0  0  0  0  0  0  0  0
  151.6730  145.8240  158.1784 H   0  0  0  0  0  0  0  0  0  0  0  0
  151.7030  144.2521  157.3879 H   0  0  0  0  0  0  0  0  0  0  0  0
  153.1620  144.8972  158.1322 H   0  0  0  0  0  0  0  0  0  0  0  0
  153.6295  143.1409  161.4552 H   0  0  0  0  0  0  0  0  0  0  0  0
  154.4210  140.5903  160.9063 H   0  0  0  0  0  0  0  0  0  0  0  0
  152.9739  139.9638  158.6275 H   0  0  0  0  0  0  0  0  0  0  0  0
  150.2673  143.6837  157.7647 H   0  0  0  0  0  0  0  0  0  0  0  0
  1  2  1  0  0  0  0
  1 20  1  0  0  0  0
  1 21  1  0  0  0  0
  1 22  1  0  0  0  0
  2  3  1  0  0  0  0
  2 13  1  0  0  0  0
  2 23  1  0  0  0  0
  3  4  1  0  0  0  0
  3 24  1  0  0  0  0
  3 39  1  0  0  0  0
  4  5  1  0  0  0  0
  4 25  1  0  0  0  0
  4 26  1  0  0  0  0
  5  6  1  0  0  0  0
  5 27  1  0  0  0  0
  5 28  1  0  0  0  0
  6 11  1  0  0  0  0
  6  7  1  0  0  0  0
  7  8  2  0  0  0  0
  7  9  1  0  0  0  0
  9 10  1  0  0  0  0
  9 29  1  0  0  0  0
  9 30  1  0  0  0  0
 10 11  1  0  0  0  0
 10 31  1  0  0  0  0
 11 12  2  0  0  0  0
 13 14  1  0  0  0  0
 13 15  1  0  0  0  0
 13 32  1  0  0  0  0
 14 33  1  0  0  0  0
 14 34  1  0  0  0  0
 14 35  1  0  0  0  0
 15 19  1  0  0  0  0
 15 16  1  0  0  0  0
 16 17  2  0  0  0  0
 16 36  1  0  0  0  0
 17 18  1  0  0  0  0
 17 37  1  0  0  0  0
 18 19  2  0  0  0  0
 18 38  1  0  0  0  0
M  CHG  1   3   1
M  END
> <s_m_source_file>
AV-unprocessed.smi

> <i_m_source_file_index>
3330

> <i_lp_mmshare_version>
43012

> <i_f3d_flags>
0

> <s_epik_input>
bjFbY0hdW2NIXVtjSF1uMVtDQEBIXShbQ0gzXSlbQ0BIXShbQ0gzXSlbTkhdW0NIMl1bQ0gyXU4yQyg9TylbQ0gyXVtOSF1DMj1P

> <s_epik_cmdline>
J2VwaWtfcHl0aG9uJywgJy1waCcsICc3LjAnLCAnLXRuJywgJzgnLCAnLW1hJywgJzIwMCcsICctbWV0YWxfYmluZGluZycsICctaW1hZScsICc8aW5maWxlLm1hZT4nLCAnLW9tYWUnLCAnPG91dGZpbGUubWFlPic=

> <r_lp_tautomer_probability>
1

> <r_epik_Ionization_Penalty>
0.0124905

> <r_epik_Ionization_Penalty_Charging>
0.0123685

> <r_epik_Ionization_Penalty_Neutral>
0.000122059

> <r_epik_State_Penalty>
0.00957041

> <r_epik_Charging_Adjusted_Penalty>
0.0219389

> <i_epik_Tot_Q>
1

> <i_epik_Tot_abs_Q>
1

> <r_epik_Metal_State_Penalty>
0.0858301

> <b_epik_Metal_Only>
0

> <s_lp_Force_Field>
OPLS_2005

> <r_lp_Energy>
24.6959

> <b_lp_Chiralities_Consistent>
1

> <s_lp_Variant>
AV-unprocessed.smi:3330-2

> <Gold.Version>
5.8.1

> <Gold.Id.Protein>
6NUR|6NUR_protein|mol2

> <Gold.PLP.Fitness>
46.9681

> <Gold.PLP.PLP>
-40.3994

> <Gold.PLP.part.hbond>
-4.0000

> <Gold.PLP.part.metal>
0.0000

> <Gold.PLP.part.buried>
-4.2246

> <Gold.PLP.part.nonpolar>
-33.1707

> <Gold.PLP.part.repulsive>
0.8536

> <Gold.PLP.ligand.clash>
0.0028

> <Gold.PLP.ligand.torsion>
2.4939

> <Gold.PLP.Chemscore.Hbond>
3.8280

> <Gold.PLP.Chemscore.CHOScore>
0.0000

> <Gold.PLP.Chemscore.Metal>
0.0000

> <Gold.Chemscore.Hbonds>
donor molecule, donor type, donor heavy atom, donor atom, acceptor molecule, acceptor atom, score
      L1  H     3    24       P1  8029  2.00
      L1  H    10    31       P1  7957  0.73
      P1  H  7989  7998       L1    12  0.91

> <Gold.PLP.Chemscore.Internal.Correction>
0.0753

> <Gold.Rescore>
     Score         DG    S(hbond)    S(metal)    S(lipo)     H(rot)  DE(clash)    DE(int)     intcor
     11.07     -15.27       2.06        0.00      83.12       2.67       0.00       4.20       ----

> <Gold.Chemscore.Fitness>
11.0724

> <Gold.Chemscore.DG>
-15.2735

> <Gold.Chemscore.ZeroCoef>
-5.4800

> <Gold.Chemscore.Hbond>
2.0642

> <Gold.Chemscore.Metal>
0.0000

> <Gold.Chemscore.Lipo>
83.1228

> <Gold.Chemscore.Internal_Hbond>
0.0000

> <Gold.Chemscore.DEClash>
0.0000

> <Gold.Chemscore.DEInternal>
4.2011

> <Gold.Chemscore.Rot>
2.6666

> <Gold.Chemscore.Internal.Correction>
   9.000000E+99

> <Gold.Chemscore.Hbonds>
donor molecule, donor type, donor heavy atom, donor atom, acceptor molecule, acceptor atom, score
      L1  H     3    24       P1  8029  0.34
      L1  H    10    31       P1  7957  0.73
      P1  H  7989  7998       L1    12  0.26

> <Gold.Chemscore.Hbond.Weighted>
-6.8946

> <Gold.Chemscore.Metal.Weighted>
-0.0000

> <Gold.Chemscore.Lipo.Weighted>
-9.7254

> <Gold.Chemscore.Internal_Hbond.Weighted>
0.0000

> <Gold.Chemscore.DEClash.Weighted>
0.0000

> <Gold.Chemscore.DEInternal.Weighted>
4.2011

> <Gold.Chemscore.Rot.Weighted>
6.8265

> <Gold.Chemscore.Internal.Correction.Weighted>
   9.000000E+99

> <Gold.Protein.RotatedTorsions>
[ 6907 6896 6895 6894 ] final   22.51 input  -60.11 | X-H torsion
[ 7974 7965 7964 7962 ] final -112.56 input  175.53 | X-H torsion
[ 8008 7997 7996 7995 ] final -134.07 input   59.86 | X-H torsion
[ 10167 10162 10161 10158 ] final  116.63 input  -65.29 | X-H torsion
[ 10718 10713 10712 10709 ] final   13.48 input   66.30 | X-H torsion
[ 10763 10752 10751 10750 ] final -156.28 input  -60.55 | X-H torsion
[ 11005 11000 10999 10996 ] final  -49.32 input  -57.11 | X-H torsion

> <Gold.Protein.ActiveResidues>
 VAL166  LYS551  ARG553  GLY616  TRP617  ASP618  TYR619  PRO620  LYS621  CYS622 
 ASP623  PHE694  ASN695  SER759  ASP760  ASP761  ALA762  ILE779  LEU786  VAL792 
 PHE793  MET794  SER795  GLU796  ALA797  LYS798  CYS799  TRP800  GLU811  SER814 

> <Gold.Protein.RotatedAtoms>
  151.9283  135.0268  160.0527 H   0  0  0  0  0  0  0  0  0  0  0  0  # atno 6907 bound_to 6896
  152.2140  133.4928  159.5134 H   0  0  0  0  0  0  0  0  0  0  0  0  # atno 6908 bound_to 6896
  150.6983  134.1346  159.4125 H   0  0  0  0  0  0  0  0  0  0  0  0  # atno 6909 bound_to 6896
  145.1425  140.8786  143.3693 H   0  0  0  0  0  0  0  0  0  0  0  0  # atno 7974 bound_to 7965
  155.3561  140.0480  157.3046 H   0  0  0  0  0  0  0  0  0  0  0  0  # atno 8008 bound_to 7997
  154.5202  140.2222  155.8954 H   0  0  0  0  0  0  0  0  0  0  0  0  # atno 8009 bound_to 7997
  156.1681  140.3102  155.8931 H   0  0  0  0  0  0  0  0  0  0  0  0  # atno 8010 bound_to 7997
  139.6234  144.7104  151.2586 H   0  0  0  0  0  0  0  0  0  0  0  0  # atno 10167 bound_to 10162
  157.0252  130.6171  149.5727 H   0  0  0  0  0  0  0  0  0  0  0  0  # atno 10718 bound_to 10713
  154.7724  135.3149  154.8161 H   0  0  0  0  0  0  0  0  0  0  0  0  # atno 10763 bound_to 10752
  153.8893  135.6827  153.4766 H   0  0  0  0  0  0  0  0  0  0  0  0  # atno 10764 bound_to 10752
  153.1341  135.4767  154.9330 H   0  0  0  0  0  0  0  0  0  0  0  0  # atno 10765 bound_to 10752
  141.0752  133.6668  156.3569 H   0  0  0  0  0  0  0  0  0  0  0  0  # atno 11005 bound_to 11000
  145.0516  139.3177  143.5925 LP  0  0  0  0  0  0  0  0  0  0  0  0  # atno 17320 bound_to 7965
  146.3503  139.9927  142.8684 LP  0  0  0  0  0  0  0  0  0  0  0  0  # atno 17321 bound_to 7965
  140.7396  143.6614  150.8161 LP  0  0  0  0  0  0  0  0  0  0  0  0  # atno 17342 bound_to 10162
  140.0228  143.5525  152.2793 LP  0  0  0  0  0  0  0  0  0  0  0  0  # atno 17343 bound_to 10162
  156.0088  130.5178  150.7921 LP  0  0  0  0  0  0  0  0  0  0  0  0  # atno 17370 bound_to 10713
  157.5219  131.0932  151.0067 LP  0  0  0  0  0  0  0  0  0  0  0  0  # atno 17371 bound_to 10713
  140.5588  134.5955  157.5428 LP  0  0  0  0  0  0  0  0  0  0  0  0  # atno 17394 bound_to 11000
  139.9565  134.7527  156.0331 LP  0  0  0  0  0  0  0  0  0  0  0  0  # atno 17395 bound_to 11000

$$$$
