#       Name:                AV-unprocessed.smi:1506
#       Creating user name   scv26
#       Creation time:       Fri Mar 27 06:20:11 2020


#       File generated by GOLD software.
#

@<TRIPOS>MOLECULE
AV-unprocessed.smi:1506
    44    46     1
SMALL
NO_CHARGES


@<TRIPOS>ATOM
      1 ****        -5.3802   3.3319  -1.4572 C.3            1 S1                 0.0000
      2 ****        -4.8244   1.9566  -1.1502 C.ar           1 S1                 0.0000
      3 ****        -5.6919   0.8932  -0.8319 C.ar           1 S1                 0.0000
      4 ****        -5.1662  -0.3805  -0.5475 C.ar           1 S1                 0.0000
      5 ****        -3.7749  -0.5961  -0.5781 C.ar           1 S1                 0.0000
      6 ****        -2.8912   0.4669  -0.8938 C.ar           1 S1                 0.0000
      7 ****        -1.5188   0.3458  -0.9432 O.3            1 S1                 0.0000
      8 ****        -0.9440  -0.9210  -0.6502 C.3            1 S1                 0.0000
      9 ****         0.5861  -0.8042  -0.7132 C.3            1 S1                 0.0000
     10 ****         1.1352  -2.1047  -0.6313 O.3            1 S1                 0.0000
     11 ****         1.1511   0.0856   0.4127 C.3            1 S1                 0.0000
     12 ****         2.6160   0.2018   0.3721 N.pl3          1 S1                 0.0000
     13 ****         3.3994   1.0510  -0.3466 C.2            1 S1                 0.0000
     14 ****         4.6970   0.7756  -0.0375 N.pl3          1 S1                 1.0000
     15 ****         4.7443  -0.2668   0.8906 C.ar           1 S1                 0.0000
     16 ****         5.8259  -0.8943   1.5012 C.ar           1 S1                 0.0000
     17 ****         5.5266  -1.9350   2.4049 C.ar           1 S1                 0.0000
     18 ****         4.1954  -2.3155   2.6719 C.ar           1 S1                 0.0000
     19 ****         3.1066  -1.6709   2.0487 C.ar           1 S1                 0.0000
     20 ****         3.4103  -0.6422   1.1573 C.ar           1 S1                 0.0000
     21 ****        -3.4319   1.7380  -1.1784 C.ar           1 S1                 0.0000
     22 ****        -6.4540   3.2924  -1.6434 H              1 S1                 0.0000
     23 ****        -4.8989   3.7498  -2.3418 H              1 S1                 0.0000
     24 ****        -5.2029   4.0053  -0.6184 H              1 S1                 0.0000
     25 ****        -6.7605   1.0492  -0.8047 H              1 S1                 0.0000
     26 ****        -5.8319  -1.1955  -0.3047 H              1 S1                 0.0000
     27 ****        -3.4116  -1.5875  -0.3547 H              1 S1                 0.0000
     28 ****        -1.2491  -1.2677   0.3387 H              1 S1                 0.0000
     29 ****        -1.2889  -1.6499  -1.3860 H              1 S1                 0.0000
     30 ****         0.8730  -0.3905  -1.6809 H              1 S1                 0.0000
     31 ****         0.8056  -2.6151  -1.3554 H              1 S1                 0.0000
     32 ****         0.7494   1.0957   0.3234 H              1 S1                 0.0000
     33 ****         0.8456  -0.2757   1.3949 H              1 S1                 0.0000
     34 ****         3.0539   1.8082  -1.0357 H              1 S1                 0.0000
     35 ****         6.8467  -0.6058   1.2976 H              1 S1                 0.0000
     36 ****         6.3340  -2.4531   2.9017 H              1 S1                 0.0000
     37 ****         4.0048  -3.1195   3.3679 H              1 S1                 0.0000
     38 ****         2.0914  -1.9752   2.2561 H              1 S1                 0.0000
     39 ****        -2.7678   2.5550  -1.4210 H              1 S1                 0.0000
     40 ****         5.4900   1.2651  -0.4321 H              1 S1                 0.0000
     41 ****        -1.1398   1.0013  -0.2900 LP             1 S1                 0.0000
     42 ****        -1.2326   0.5941  -1.8687 LP             1 S1                 0.0000
     43 ****         0.8658  -2.5310   0.2322 LP             1 S1                 0.0000
     44 ****         2.1327  -2.0536  -0.6809 LP             1 S1                 0.0000
@<TRIPOS>BOND
    1    1    2 1     
    2    1   22 1     
    3    1   23 1     
    4    1   24 1     
    5    2   21 ar    
    6    2    3 ar    
    7    3    4 ar    
    8    3   25 1     
    9    4    5 ar    
   10    4   26 1     
   11    5    6 ar    
   12    5   27 1     
   13    6    7 1     
   14    6   21 ar    
   15    7    8 1     
   16    8    9 1     
   17    8   28 1     
   18    8   29 1     
   19    9   10 1     
   20    9   11 1     
   21    9   30 1     
   22   10   31 1     
   23   11   12 1     
   24   11   32 1     
   25   11   33 1     
   26   12   20 1     
   27   12   13 1     
   28   13   14 2     
   29   13   34 1     
   30   14   15 1     
   31   14   40 1     
   32   15   20 ar    
   33   15   16 ar    
   34   16   17 ar    
   35   16   35 1     
   36   17   18 ar    
   37   17   36 1     
   38   18   19 ar    
   39   18   37 1     
   40   19   20 ar    
   41   19   38 1     
   42   21   39 1     
   43    7   41 1     
   44    7   42 1     
   45   10   43 1     
   46   10   44 1     
@<TRIPOS>SUBSTRUCTURE
      1 S1             1
@<TRIPOS>SET
LONE_PAIRS      STATIC     ATOMS    <user>   **** ""
4 41 42 43 44
DONOR_HYDROGENS      STATIC     ATOMS    <user>   **** ""
2 31 40
ATOM$BLUE        STATIC     ATOMS    COLORGROUP SYSTEM
4 41 42 43 44
ATOM$RED        STATIC     ATOMS    COLORGROUP SYSTEM
2 31 40
