AV-unprocessed.smi:2784|AV-procd|sdf|10741|dock3
  -GOLD-   2272015173D 1   1.00000     0.00000
 Structure written by MMmdl.
 31 32  0  0  0  0  0  0  0  0  1 V2000
  153.4707  141.8031  161.0773 C   0  0  0  0  0  0  0  0  0  0  0  0
  153.3115  142.4237  159.8120 O   0  0  0  0  0  0  0  0  0  0  0  0
  152.0756  143.1100  159.6644 C   0  0  1  0  0  0  0  0  0  0  0  0
  151.9065  144.2181  160.7127 C   0  0  0  0  0  0  0  0  0  0  0  0
  151.0775  145.2855  160.0076 C   0  0  0  0  0  0  0  0  0  0  0  0
  151.6110  145.2750  158.5758 C   0  0  0  0  0  0  0  0  0  0  0  0
  152.0234  143.8195  158.2914 C   0  0  2  0  0  0  0  0  0  0  0  0
  151.0591  143.1888  157.3934 N   0  0  0  0  0  0  0  0  0  0  0  0
  150.9873  141.8745  157.1344 C   0  0  0  0  0  0  0  0  0  0  0  0
  151.7690  141.0650  157.6430 O   0  0  0  0  0  0  0  0  0  0  0  0
  149.9804  141.6123  156.2211 N   0  0  0  0  0  0  0  0  0  0  0  0
  150.0791  140.5421  155.4958 C   0  0  0  0  0  0  0  0  0  0  0  0
  149.1871  140.0749  154.5438 N   0  0  0  0  0  0  0  0  0  0  0  0
  149.6950  138.9196  154.0171 C   0  0  0  0  0  0  0  0  0  0  0  0
  150.8592  138.6703  154.6099 C   0  0  0  0  0  0  0  0  0  0  0  0
  151.1247  139.6474  155.5213 O   0  0  0  0  0  0  0  0  0  0  0  0
  154.4310  141.2889  161.1119 H   0  0  0  0  0  0  0  0  0  0  0  0
  152.6890  141.0634  161.2537 H   0  0  0  0  0  0  0  0  0  0  0  0
  153.4532  142.5320  161.8879 H   0  0  0  0  0  0  0  0  0  0  0  0
  151.2419  142.4093  159.7476 H   0  0  0  0  0  0  0  0  0  0  0  0
  151.4391  143.8617  161.6310 H   0  0  0  0  0  0  0  0  0  0  0  0
  152.8805  144.6342  160.9746 H   0  0  0  0  0  0  0  0  0  0  0  0
  150.0251  144.9986  160.0126 H   0  0  0  0  0  0  0  0  0  0  0  0
  151.1612  146.2643  160.4805 H   0  0  0  0  0  0  0  0  0  0  0  0
  150.8860  145.6695  157.8624 H   0  0  0  0  0  0  0  0  0  0  0  0
  152.4933  145.9142  158.5203 H   0  0  0  0  0  0  0  0  0  0  0  0
  153.0065  143.8222  157.8163 H   0  0  0  0  0  0  0  0  0  0  0  0
  150.3972  143.7975  156.9343 H   0  0  0  0  0  0  0  0  0  0  0  0
  148.3083  140.4813  154.2569 H   0  0  0  0  0  0  0  0  0  0  0  0
  149.1528  138.3834  153.2520 H   0  0  0  0  0  0  0  0  0  0  0  0
  151.5838  137.8769  154.5003 H   0  0  0  0  0  0  0  0  0  0  0  0
  1  2  1  0  0  0  0
  1 17  1  0  0  0  0
  1 18  1  0  0  0  0
  1 19  1  0  0  0  0
  2  3  1  0  0  0  0
  3  7  1  0  0  0  0
  3  4  1  0  0  0  0
  3 20  1  0  0  0  0
  4  5  1  0  0  0  0
  4 21  1  0  0  0  0
  4 22  1  0  0  0  0
  5  6  1  0  0  0  0
  5 23  1  0  0  0  0
  5 24  1  0  0  0  0
  6  7  1  0  0  0  0
  6 25  1  0  0  0  0
  6 26  1  0  0  0  0
  7  8  1  0  0  0  0
  7 27  1  0  0  0  0
  8 28  1  0  0  0  0
  8  9  1  0  0  0  0
  9 11  1  0  0  0  0
  9 10  2  0  0  0  0
 11 12  2  0  0  0  0
 12 16  1  0  0  0  0
 12 13  1  0  0  0  0
 13 29  1  0  0  0  0
 13 14  1  0  0  0  0
 14 30  1  0  0  0  0
 14 15  2  0  0  0  0
 15 31  1  0  0  0  0
 15 16  1  0  0  0  0
M  END
> <s_m_source_file>
AV-unprocessed.smi

> <i_m_source_file_index>
2784

> <i_lp_mmshare_version>
43012

> <i_f3d_flags>
0

> <s_epik_input>
W0NIM11PW0NAQEhdMVtDSDJdW0NIMl1bQ0gyXVtDQEhdMVtOSF1DKD1PKVtOSF1jMm5bY0hdW2NIXW8y

> <s_epik_cmdline>
J2VwaWtfcHl0aG9uJywgJy1waCcsICc3LjAnLCAnLXRuJywgJzgnLCAnLW1hJywgJzIwMCcsICctbWV0YWxfYmluZGluZycsICctaW1hZScsICc8aW5maWxlLm1hZT4nLCAnLW9tYWUnLCAnPG91dGZpbGUubWFlPic=

> <r_lp_tautomer_probability>
0.107061

> <r_epik_Ionization_Penalty>
1.29244

> <r_epik_Ionization_Penalty_Charging>
1.29208

> <r_epik_Ionization_Penalty_Neutral>
0.000359742

> <r_epik_State_Penalty>
2.59896

> <r_epik_Charging_Adjusted_Penalty>
3.89105

> <i_epik_Tot_Q>
0

> <i_epik_Tot_abs_Q>
0

> <r_epik_Metal_State_Penalty>
3.62496

> <b_epik_Metal_Only>
0

> <s_lp_Force_Field>
OPLS_2005

> <r_lp_Energy>
42.0799

> <b_lp_Chiralities_Consistent>
1

> <s_lp_Variant>
AV-unprocessed.smi:2784-16

> <Gold.Version>
5.8.1

> <Gold.Id.Protein>
6NUR|6NUR_protein|mol2

> <Gold.PLP.Fitness>
41.6895

> <Gold.PLP.PLP>
-35.9935

> <Gold.PLP.part.hbond>
-0.9476

> <Gold.PLP.part.metal>
0.0000

> <Gold.PLP.part.buried>
-4.6360

> <Gold.PLP.part.nonpolar>
-30.5693

> <Gold.PLP.part.repulsive>
0.2430

> <Gold.PLP.ligand.clash>
0.0000

> <Gold.PLP.ligand.torsion>
0.2456

> <Gold.PLP.Chemscore.Hbond>
0.6175

> <Gold.PLP.Chemscore.CHOScore>
1.4432

> <Gold.PLP.Chemscore.Metal>
0.0000

> <Gold.Chemscore.Hbonds>
donor molecule, donor type, donor heavy atom, donor atom, acceptor molecule, acceptor atom, score
      L1  H     8    28       P1  8028  0.67
      L1  C    14    30       P1  7948  0.98
      L1  C    14    30       P1  7957  0.23

> <Gold.PLP.Chemscore.Internal.Correction>
0.0050

> <Gold.Rescore>
     Score         DG    S(hbond)    S(metal)    S(lipo)     H(rot)  DE(clash)    DE(int)     intcor
     10.73     -15.00       0.98        0.00      82.44       1.32       0.14       4.14       ----

> <Gold.Chemscore.Fitness>
10.7276

> <Gold.Chemscore.DG>
-15.0046

> <Gold.Chemscore.ZeroCoef>
-5.4800

> <Gold.Chemscore.Hbond>
0.9784

> <Gold.Chemscore.Metal>
0.0000

> <Gold.Chemscore.Lipo>
82.4350

> <Gold.Chemscore.Internal_Hbond>
0.0000

> <Gold.Chemscore.DEClash>
0.1378

> <Gold.Chemscore.DEInternal>
4.1393

> <Gold.Chemscore.Rot>
1.3235

> <Gold.Chemscore.Internal.Correction>
   9.000000E+99

> <Gold.Chemscore.Hbonds>
donor molecule, donor type, donor heavy atom, donor atom, acceptor molecule, acceptor atom, score
      L1  H     8    28       P1  8028  0.67

> <Gold.Chemscore.Hbond.Weighted>
-3.2679

> <Gold.Chemscore.Metal.Weighted>
-0.0000

> <Gold.Chemscore.Lipo.Weighted>
-9.6449

> <Gold.Chemscore.Internal_Hbond.Weighted>
0.0000

> <Gold.Chemscore.DEClash.Weighted>
0.1378

> <Gold.Chemscore.DEInternal.Weighted>
4.1393

> <Gold.Chemscore.Rot.Weighted>
3.3882

> <Gold.Chemscore.Internal.Correction.Weighted>
   9.000000E+99

> <Gold.Protein.RotatedTorsions>
[ 6907 6896 6895 6894 ] final  -52.17 input  -60.11 | X-H torsion
[ 7974 7965 7964 7962 ] final    2.06 input  175.53 | X-H torsion
[ 8008 7997 7996 7995 ] final  -46.20 input   59.86 | X-H torsion
[ 10167 10162 10161 10158 ] final  146.40 input  -65.29 | X-H torsion
[ 10718 10713 10712 10709 ] final  -46.80 input   66.30 | X-H torsion
[ 10763 10752 10751 10750 ] final  109.40 input  -60.55 | X-H torsion
[ 11005 11000 10999 10996 ] final  -28.72 input  -57.11 | X-H torsion

> <Gold.Protein.ActiveResidues>
 VAL166  LYS551  ARG553  GLY616  TRP617  ASP618  TYR619  PRO620  LYS621  CYS622 
 ASP623  PHE694  ASN695  SER759  ASP760  ASP761  ALA762  ILE779  LEU786  VAL792 
 PHE793  MET794  SER795  GLU796  ALA797  LYS798  CYS799  TRP800  GLU811  SER814 

> <Gold.Protein.RotatedAtoms>
  150.8543  134.7877  159.7032 H   0  0  0  0  0  0  0  0  0  0  0  0  # atno 6907 bound_to 6896
  152.4599  134.5204  159.9791 H   0  0  0  0  0  0  0  0  0  0  0  0  # atno 6908 bound_to 6896
  151.5320  133.3409  159.2955 H   0  0  0  0  0  0  0  0  0  0  0  0  # atno 6909 bound_to 6896
  146.2442  140.0893  142.8353 H   0  0  0  0  0  0  0  0  0  0  0  0  # atno 7974 bound_to 7965
  154.4006  140.1377  156.3972 H   0  0  0  0  0  0  0  0  0  0  0  0  # atno 8008 bound_to 7997
  155.7858  140.3480  155.5302 H   0  0  0  0  0  0  0  0  0  0  0  0  # atno 8009 bound_to 7997
  155.8628  140.0959  157.1592 H   0  0  0  0  0  0  0  0  0  0  0  0  # atno 8010 bound_to 7997
  139.4908  144.5832  151.6831 H   0  0  0  0  0  0  0  0  0  0  0  0  # atno 10167 bound_to 10162
  156.2147  130.4162  149.9069 H   0  0  0  0  0  0  0  0  0  0  0  0  # atno 10718 bound_to 10713
  153.4343  135.3781  155.2189 H   0  0  0  0  0  0  0  0  0  0  0  0  # atno 10763 bound_to 10752
  154.8751  135.3847  154.4230 H   0  0  0  0  0  0  0  0  0  0  0  0  # atno 10764 bound_to 10752
  153.4767  135.7088  153.6025 H   0  0  0  0  0  0  0  0  0  0  0  0  # atno 10765 bound_to 10752
  140.9234  133.7384  156.0833 H   0  0  0  0  0  0  0  0  0  0  0  0  # atno 11005 bound_to 11000
  145.0664  140.9124  143.4908 LP  0  0  0  0  0  0  0  0  0  0  0  0  # atno 17320 bound_to 7965
  145.1019  139.2817  143.5682 LP  0  0  0  0  0  0  0  0  0  0  0  0  # atno 17321 bound_to 7965
  140.5442  144.0530  150.6100 LP  0  0  0  0  0  0  0  0  0  0  0  0  # atno 17342 bound_to 10162
  140.3562  143.2934  152.0433 LP  0  0  0  0  0  0  0  0  0  0  0  0  # atno 17343 bound_to 10162
  156.6736  130.8830  151.3566 LP  0  0  0  0  0  0  0  0  0  0  0  0  # atno 17370 bound_to 10713
  157.7057  130.9382  150.0923 LP  0  0  0  0  0  0  0  0  0  0  0  0  # atno 17371 bound_to 10713
  140.7958  134.3565  157.5452 LP  0  0  0  0  0  0  0  0  0  0  0  0  # atno 17394 bound_to 11000
  139.8780  134.9168  156.3163 LP  0  0  0  0  0  0  0  0  0  0  0  0  # atno 17395 bound_to 11000

$$$$
