AV-unprocessed.smi:2905|AV-procd|sdf|11161|dock4
  -GOLD-   2272016 43D 1   1.00000     0.00000
 Structure written by MMmdl.
 39 40  0  0  0  0  0  0  0  0  1 V2000
  143.6764  132.0919  149.0133 C   0  0  0  0  0  0  0  0  0  0  0  0
  144.8928  132.2024  149.9652 C   0  0  0  0  0  0  0  0  0  0  0  0
  144.6630  131.2069  151.1207 C   0  0  0  0  0  0  0  0  0  0  0  0
  146.1446  131.8089  149.1546 C   0  0  0  0  0  0  0  0  0  0  0  0
  145.0611  133.6253  150.5281 C   0  0  0  0  0  0  0  0  0  0  0  0
  146.0883  133.8643  151.3540 N   0  0  0  0  0  0  0  0  0  0  0  0
  146.2247  135.1161  151.8412 C   0  0  0  0  0  0  0  0  0  0  0  0
  145.3208  136.1492  151.4961 C   0  0  0  0  0  0  0  0  0  0  0  0
  145.3745  137.4822  151.9833 N   0  0  0  0  0  0  0  0  0  0  0  0
  146.0999  137.9762  153.0052 C   0  0  0  0  0  0  0  0  0  0  0  0
  146.9216  137.3334  153.6548 O   0  0  0  0  0  0  0  0  0  0  0  0
  145.8829  139.2804  153.2537 N   0  0  0  0  0  0  0  0  0  0  0  0
  146.5006  140.1184  154.2832 C   0  0  0  0  0  0  0  0  0  0  0  0
  145.4729  140.6884  155.2944 C   0  0  0  0  0  0  0  0  0  0  0  0
  145.8655  142.1351  155.4220 C   0  0  0  0  0  0  0  0  0  0  0  0
  146.8073  142.4845  154.5482 C   0  0  0  0  0  0  0  0  0  0  0  0
  147.2262  141.3389  153.6673 C   0  0  0  0  0  0  0  0  0  0  0  0
  144.2726  135.7825  150.6288 C   0  0  0  0  0  0  0  0  0  0  0  0
  144.1485  134.5281  150.1463 N   0  0  0  0  0  0  0  0  0  0  0  0
  143.5706  131.0799  148.6208 H   0  0  0  0  0  0  0  0  0  0  0  0
  143.7735  132.7594  148.1559 H   0  0  0  0  0  0  0  0  0  0  0  0
  142.7430  132.3375  149.5217 H   0  0  0  0  0  0  0  0  0  0  0  0
  143.7784  131.4726  151.7003 H   0  0  0  0  0  0  0  0  0  0  0  0
  145.5100  131.1831  151.8072 H   0  0  0  0  0  0  0  0  0  0  0  0
  144.5214  130.1914  150.7492 H   0  0  0  0  0  0  0  0  0  0  0  0
  146.0419  130.8134  148.7213 H   0  0  0  0  0  0  0  0  0  0  0  0
  147.0408  131.7982  149.7755 H   0  0  0  0  0  0  0  0  0  0  0  0
  146.3208  132.5082  148.3364 H   0  0  0  0  0  0  0  0  0  0  0  0
  147.0489  135.2618  152.5216 H   0  0  0  0  0  0  0  0  0  0  0  0
  144.8079  138.1503  151.4815 H   0  0  0  0  0  0  0  0  0  0  0  0
  145.2407  139.7532  152.6342 H   0  0  0  0  0  0  0  0  0  0  0  0
  147.2465  139.5382  154.8298 H   0  0  0  0  0  0  0  0  0  0  0  0
  144.4473  140.6268  154.9276 H   0  0  0  0  0  0  0  0  0  0  0  0
  145.5287  140.1815  156.2581 H   0  0  0  0  0  0  0  0  0  0  0  0
  145.4019  142.7985  156.1371 H   0  0  0  0  0  0  0  0  0  0  0  0
  147.2261  143.4747  154.4448 H   0  0  0  0  0  0  0  0  0  0  0  0
  148.3094  141.2143  153.6776 H   0  0  0  0  0  0  0  0  0  0  0  0
  146.9094  141.5415  152.6434 H   0  0  0  0  0  0  0  0  0  0  0  0
  143.5268  136.4992  150.3172 H   0  0  0  0  0  0  0  0  0  0  0  0
  1  2  1  0  0  0  0
  1 20  1  0  0  0  0
  1 21  1  0  0  0  0
  1 22  1  0  0  0  0
  2  3  1  0  0  0  0
  2  4  1  0  0  0  0
  2  5  1  0  0  0  0
  3 23  1  0  0  0  0
  3 24  1  0  0  0  0
  3 25  1  0  0  0  0
  4 26  1  0  0  0  0
  4 27  1  0  0  0  0
  4 28  1  0  0  0  0
  5 19  1  0  0  0  0
  5  6  2  0  0  0  0
  6  7  1  0  0  0  0
  7  8  2  0  0  0  0
  7 29  1  0  0  0  0
  8  9  1  0  0  0  0
  8 18  1  0  0  0  0
  9 10  1  0  0  0  0
  9 30  1  0  0  0  0
 10 11  2  0  0  0  0
 10 12  1  0  0  0  0
 12 13  1  0  0  0  0
 12 31  1  0  0  0  0
 13 17  1  0  0  0  0
 13 14  1  0  0  0  0
 13 32  1  0  0  0  0
 14 15  1  0  0  0  0
 14 33  1  0  0  0  0
 14 34  1  0  0  0  0
 15 16  2  0  0  0  0
 15 35  1  0  0  0  0
 16 17  1  0  0  0  0
 16 36  1  0  0  0  0
 17 37  1  0  0  0  0
 17 38  1  0  0  0  0
 18 19  2  0  0  0  0
 18 39  1  0  0  0  0
M  END
> <s_m_source_file>
AV-unprocessed.smi

> <i_m_source_file_index>
2905

> <i_lp_mmshare_version>
43012

> <i_f3d_flags>
0

> <s_epik_input>
W0NIM11DKFtDSDNdKShbQ0gzXSljMW5bY0hdYyhbY0hdbjEpW05IXUMoPU8pW05IXVtDSF0yW0NIMl1bQ0hdPVtDSF1bQ0gyXTI=

> <s_epik_cmdline>
J2VwaWtfcHl0aG9uJywgJy1waCcsICc3LjAnLCAnLXRuJywgJzgnLCAnLW1hJywgJzIwMCcsICctbWV0YWxfYmluZGluZycsICctaW1hZScsICc8aW5maWxlLm1hZT4nLCAnLW9tYWUnLCAnPG91dGZpbGUubWFlPic=

> <r_lp_tautomer_probability>
1

> <r_epik_Ionization_Penalty>
2.65275e-05

> <r_epik_Ionization_Penalty_Charging>
0

> <r_epik_Ionization_Penalty_Neutral>
2.65275e-05

> <r_epik_State_Penalty>
-0

> <r_epik_Charging_Adjusted_Penalty>
0

> <i_epik_Tot_Q>
0

> <i_epik_Tot_abs_Q>
0

> <r_epik_Metal_State_Penalty>
-0

> <b_epik_Metal_Only>
0

> <s_lp_Force_Field>
OPLS_2005

> <r_lp_Energy>
27.7511

> <b_lp_Chiralities_Consistent>
1

> <s_lp_Variant>
AV-unprocessed.smi:2905-1

> <Gold.Version>
5.8.1

> <Gold.Id.Protein>
6NUR|6NUR_protein|mol2

> <Gold.PLP.Fitness>
40.9033

> <Gold.PLP.PLP>
-29.9551

> <Gold.PLP.part.hbond>
-2.0000

> <Gold.PLP.part.metal>
0.0000

> <Gold.PLP.part.buried>
0.9956

> <Gold.PLP.part.nonpolar>
-31.3205

> <Gold.PLP.part.repulsive>
2.0128

> <Gold.PLP.ligand.clash>
0.0000

> <Gold.PLP.ligand.torsion>
0.0506

> <Gold.PLP.Chemscore.Hbond>
1.9040

> <Gold.PLP.Chemscore.CHOScore>
1.7772

> <Gold.PLP.Chemscore.Metal>
0.0000

> <Gold.Chemscore.Hbonds>
donor molecule, donor type, donor heavy atom, donor atom, acceptor molecule, acceptor atom, score
      L1  H     9    30       P1 10171  0.94
      L1  H    12    31       P1 10175  0.93
      L1  C     7    29       P1  7948  0.82
      L1  C    18    39       P1 10171  0.95

> <Gold.PLP.Chemscore.Internal.Correction>
0.0061

> <Gold.Rescore>
     Score         DG    S(hbond)    S(metal)    S(lipo)     H(rot)  DE(clash)    DE(int)     intcor
     15.41     -18.10       1.74        0.00      83.83       1.17       1.44       1.25       ----

> <Gold.Chemscore.Fitness>
15.4131

> <Gold.Chemscore.DG>
-18.1014

> <Gold.Chemscore.ZeroCoef>
-5.4800

> <Gold.Chemscore.Hbond>
1.7388

> <Gold.Chemscore.Metal>
0.0000

> <Gold.Chemscore.Lipo>
83.8338

> <Gold.Chemscore.Internal_Hbond>
0.0000

> <Gold.Chemscore.DEClash>
1.4357

> <Gold.Chemscore.DEInternal>
1.2526

> <Gold.Chemscore.Rot>
1.1699

> <Gold.Chemscore.Internal.Correction>
   9.000000E+99

> <Gold.Chemscore.Hbonds>
donor molecule, donor type, donor heavy atom, donor atom, acceptor molecule, acceptor atom, score
      L1  H     9    30       P1 10171  0.90
      L1  H    12    31       P1 10175  0.91

> <Gold.Chemscore.Hbond.Weighted>
-5.8077

> <Gold.Chemscore.Metal.Weighted>
-0.0000

> <Gold.Chemscore.Lipo.Weighted>
-9.8085

> <Gold.Chemscore.Internal_Hbond.Weighted>
0.0000

> <Gold.Chemscore.DEClash.Weighted>
1.4357

> <Gold.Chemscore.DEInternal.Weighted>
1.2526

> <Gold.Chemscore.Rot.Weighted>
2.9949

> <Gold.Chemscore.Internal.Correction.Weighted>
   9.000000E+99

> <Gold.Protein.RotatedTorsions>
[ 6907 6896 6895 6894 ] final -137.94 input  -60.11 | X-H torsion
[ 7974 7965 7964 7962 ] final  -60.60 input  175.53 | X-H torsion
[ 8008 7997 7996 7995 ] final  -92.20 input   59.86 | X-H torsion
[ 10167 10162 10161 10158 ] final  175.85 input  -65.29 | X-H torsion
[ 10718 10713 10712 10709 ] final -110.55 input   66.30 | X-H torsion
[ 10763 10752 10751 10750 ] final  -94.79 input  -60.55 | X-H torsion
[ 11005 11000 10999 10996 ] final   -0.83 input  -57.11 | X-H torsion

> <Gold.Protein.ActiveResidues>
 VAL166  LYS551  ARG553  GLY616  TRP617  ASP618  TYR619  PRO620  LYS621  CYS622 
 ASP623  PHE694  ASN695  SER759  ASP760  ASP761  ALA762  ILE779  LEU786  VAL792 
 PHE793  MET794  SER795  GLU796  ALA797  LYS798  CYS799  TRP800  GLU811  SER814 

> <Gold.Protein.RotatedAtoms>
  151.0288  133.5809  159.2662 H   0  0  0  0  0  0  0  0  0  0  0  0  # atno 6907 bound_to 6896
  151.2898  135.0738  159.9210 H   0  0  0  0  0  0  0  0  0  0  0  0  # atno 6908 bound_to 6896
  152.5340  133.9988  159.7939 H   0  0  0  0  0  0  0  0  0  0  0  0  # atno 6909 bound_to 6896
  145.8136  140.8584  143.0169 H   0  0  0  0  0  0  0  0  0  0  0  0  # atno 7974 bound_to 7965
  154.7201  140.0511  157.0632 H   0  0  0  0  0  0  0  0  0  0  0  0  # atno 8008 bound_to 7997
  155.0438  140.3171  155.4696 H   0  0  0  0  0  0  0  0  0  0  0  0  # atno 8009 bound_to 7997
  156.2814  140.2128  156.5562 H   0  0  0  0  0  0  0  0  0  0  0  0  # atno 8010 bound_to 7997
  139.5192  144.2984  152.0401 H   0  0  0  0  0  0  0  0  0  0  0  0  # atno 10167 bound_to 10162
  156.0597  130.5821  150.8253 H   0  0  0  0  0  0  0  0  0  0  0  0  # atno 10718 bound_to 10713
  154.7088  135.5144  153.8636 H   0  0  0  0  0  0  0  0  0  0  0  0  # atno 10763 bound_to 10752
  153.0763  135.6617  154.0147 H   0  0  0  0  0  0  0  0  0  0  0  0  # atno 10764 bound_to 10752
  153.9993  135.3012  155.3384 H   0  0  0  0  0  0  0  0  0  0  0  0  # atno 10765 bound_to 10752
  140.6406  133.9493  155.8324 H   0  0  0  0  0  0  0  0  0  0  0  0  # atno 11005 bound_to 11000
  144.6755  140.0431  143.7480 LP  0  0  0  0  0  0  0  0  0  0  0  0  # atno 17320 bound_to 7965
  145.9751  139.2899  143.1075 LP  0  0  0  0  0  0  0  0  0  0  0  0  # atno 17321 bound_to 7965
  140.2432  144.4247  150.6251 LP  0  0  0  0  0  0  0  0  0  0  0  0  # atno 17342 bound_to 10162
  140.6276  143.2183  151.6564 LP  0  0  0  0  0  0  0  0  0  0  0  0  # atno 17343 bound_to 10162
  157.5596  131.0945  150.9578 LP  0  0  0  0  0  0  0  0  0  0  0  0  # atno 17370 bound_to 10713
  156.9819  130.5530  149.5297 LP  0  0  0  0  0  0  0  0  0  0  0  0  # atno 17371 bound_to 10713
  141.0610  134.0347  157.3659 LP  0  0  0  0  0  0  0  0  0  0  0  0  # atno 17394 bound_to 11000
  139.9082  135.0184  156.7577 LP  0  0  0  0  0  0  0  0  0  0  0  0  # atno 17395 bound_to 11000

$$$$
