AV-unprocessed.smi:3161|AV-procd|sdf|12057|dock2
  -GOLD-   2272017483D 1   1.00000     0.00000
 Structure written by MMmdl.
 41 42  0  0  0  0  0  0  0  0  2 V2000
  144.0642  143.6589  154.7931 C   0  0  0  0  0  0  0  0  0  0  0  0
  145.0983  142.7107  155.3283 C   0  0  0  0  0  0  0  0  0  0  0  0
  145.1168  142.0638  156.5967 C   0  0  0  0  0  0  0  0  0  0  0  0
  146.1780  141.2917  156.7642 N   0  0  0  0  0  0  0  0  0  0  0  0
  146.8706  141.4151  155.6117 N   0  0  0  0  0  0  0  0  0  0  0  0
  148.1288  140.7077  155.4460 C   0  0  0  0  0  0  0  0  0  0  0  0
  149.2822  141.6583  155.0716 C   0  0  2  0  0  0  0  0  0  0  0  0
  150.4485  140.8896  154.4305 C   0  0  0  0  0  0  0  0  0  0  0  0
  149.7369  142.4008  156.2686 N   0  3  0  0  0  0  0  0  0  0  0  0
  150.4073  141.5866  157.3023 C   0  0  0  0  0  0  0  0  0  0  0  0
  151.4884  142.4068  158.0192 C   0  0  1  0  0  0  0  0  0  0  0  0
  150.9937  143.8203  158.3818 C   0  0  0  0  0  0  0  0  0  0  0  0
  152.0568  144.5740  159.1894 C   0  0  0  0  0  0  0  0  0  0  0  0
  152.4880  143.7295  160.3933 C   0  0  0  0  0  0  0  0  0  0  0  0
  152.9035  142.3227  159.9362 C   0  0  0  0  0  0  0  0  0  0  0  0
  151.8350  141.7143  159.2175 O   0  0  0  0  0  0  0  0  0  0  0  0
  146.2411  142.2646  154.7267 C   0  0  0  0  0  0  0  0  0  0  0  0
  143.0845  143.4818  155.2373 H   0  0  0  0  0  0  0  0  0  0  0  0
  143.9481  143.5642  153.7133 H   0  0  0  0  0  0  0  0  0  0  0  0
  144.3276  144.6964  154.9986 H   0  0  0  0  0  0  0  0  0  0  0  0
  144.3955  142.1352  157.3975 H   0  0  0  0  0  0  0  0  0  0  0  0
  148.3564  140.1636  156.3644 H   0  0  0  0  0  0  0  0  0  0  0  0
  147.9914  139.9575  154.6660 H   0  0  0  0  0  0  0  0  0  0  0  0
  148.8972  142.3739  154.3431 H   0  0  0  0  0  0  0  0  0  0  0  0
  150.1160  140.3383  153.5506 H   0  0  0  0  0  0  0  0  0  0  0  0
  150.8803  140.1708  155.1278 H   0  0  0  0  0  0  0  0  0  0  0  0
  151.2444  141.5612  154.1085 H   0  0  0  0  0  0  0  0  0  0  0  0
  150.4121  143.0840  155.9531 H   0  0  0  0  0  0  0  0  0  0  0  0
  149.6644  141.2379  158.0199 H   0  0  0  0  0  0  0  0  0  0  0  0
  150.8566  140.7036  156.8461 H   0  0  0  0  0  0  0  0  0  0  0  0
  152.3668  142.4836  157.3754 H   0  0  0  0  0  0  0  0  0  0  0  0
  150.7479  144.3796  157.4784 H   0  0  0  0  0  0  0  0  0  0  0  0
  150.0751  143.7509  158.9660 H   0  0  0  0  0  0  0  0  0  0  0  0
  152.9208  144.7807  158.5567 H   0  0  0  0  0  0  0  0  0  0  0  0
  151.6714  145.5391  159.5195 H   0  0  0  0  0  0  0  0  0  0  0  0
  153.3096  144.2149  160.9209 H   0  0  0  0  0  0  0  0  0  0  0  0
  151.6626  143.6519  161.1020 H   0  0  0  0  0  0  0  0  0  0  0  0
  153.7991  142.3628  159.3142 H   0  0  0  0  0  0  0  0  0  0  0  0
  153.1446  141.7034  160.8004 H   0  0  0  0  0  0  0  0  0  0  0  0
  146.6563  142.4836  153.7538 H   0  0  0  0  0  0  0  0  0  0  0  0
  148.9547  142.8938  156.6751 H   0  0  0  0  0  0  0  0  0  0  0  0
  1  2  1  0  0  0  0
  1 18  1  0  0  0  0
  1 19  1  0  0  0  0
  1 20  1  0  0  0  0
  2 17  2  0  0  0  0
  2  3  1  0  0  0  0
  3  4  2  0  0  0  0
  3 21  1  0  0  0  0
  4  5  1  0  0  0  0
  5  6  1  0  0  0  0
  5 17  1  0  0  0  0
  6  7  1  0  0  0  0
  6 22  1  0  0  0  0
  6 23  1  0  0  0  0
  7  8  1  0  0  0  0
  7  9  1  0  0  0  0
  7 24  1  0  0  0  0
  8 25  1  0  0  0  0
  8 26  1  0  0  0  0
  8 27  1  0  0  0  0
  9 10  1  0  0  0  0
  9 28  1  0  0  0  0
  9 41  1  0  0  0  0
 10 11  1  0  0  0  0
 10 29  1  0  0  0  0
 10 30  1  0  0  0  0
 11 16  1  0  0  0  0
 11 12  1  0  0  0  0
 11 31  1  0  0  0  0
 12 13  1  0  0  0  0
 12 32  1  0  0  0  0
 12 33  1  0  0  0  0
 13 14  1  0  0  0  0
 13 34  1  0  0  0  0
 13 35  1  0  0  0  0
 14 15  1  0  0  0  0
 14 36  1  0  0  0  0
 14 37  1  0  0  0  0
 15 16  1  0  0  0  0
 15 38  1  0  0  0  0
 15 39  1  0  0  0  0
 17 40  1  0  0  0  0
M  CHG  1   9   1
M  END
> <s_m_source_file>
AV-unprocessed.smi

> <i_m_source_file_index>
3161

> <i_lp_mmshare_version>
43012

> <i_f3d_flags>
0

> <s_epik_input>
W0NIM11jMVtjSF1ubihbY0hdMSlbQ0gyXVtDQEhdKFtDSDNdKVtOSF1bQ0gyXVtDQEBIXTJbQ0gyXVtDSDJdW0NIMl1bQ0gyXU8y

> <s_epik_cmdline>
J2VwaWtfcHl0aG9uJywgJy1waCcsICc3LjAnLCAnLXRuJywgJzgnLCAnLW1hJywgJzIwMCcsICctbWV0YWxfYmluZGluZycsICctaW1hZScsICc8aW5maWxlLm1hZT4nLCAnLW9tYWUnLCAnPG91dGZpbGUubWFlPic=

> <r_lp_tautomer_probability>
1

> <r_epik_Ionization_Penalty>
0.00849661

> <r_epik_Ionization_Penalty_Charging>
0.00848754

> <r_epik_Ionization_Penalty_Neutral>
9.06711e-06

> <r_epik_State_Penalty>
0.00639836

> <r_epik_Charging_Adjusted_Penalty>
0.0148859

> <i_epik_Tot_Q>
1

> <i_epik_Tot_abs_Q>
1

> <r_epik_Metal_State_Penalty>
0.00639921

> <b_epik_Metal_Only>
0

> <s_lp_Force_Field>
OPLS_2005

> <r_lp_Energy>
12.1076

> <b_lp_Chiralities_Consistent>
1

> <s_lp_Variant>
AV-unprocessed.smi:3161-3

> <Gold.Version>
5.8.1

> <Gold.Id.Protein>
6NUR|6NUR_protein|mol2

> <Gold.PLP.Fitness>
48.4106

> <Gold.PLP.PLP>
-43.4205

> <Gold.PLP.part.hbond>
-1.3020

> <Gold.PLP.part.metal>
0.0000

> <Gold.PLP.part.buried>
-5.0544

> <Gold.PLP.part.nonpolar>
-36.9185

> <Gold.PLP.part.repulsive>
0.2704

> <Gold.PLP.ligand.clash>
0.0000

> <Gold.PLP.ligand.torsion>
0.5464

> <Gold.PLP.Chemscore.Hbond>
2.0000

> <Gold.PLP.Chemscore.CHOScore>
0.0000

> <Gold.PLP.Chemscore.Metal>
0.0000

> <Gold.Chemscore.Hbonds>
donor molecule, donor type, donor heavy atom, donor atom, acceptor molecule, acceptor atom, score
      L1  H     9    41       P1  8028  0.19

> <Gold.PLP.Chemscore.Internal.Correction>
0.0830

> <Gold.Rescore>
     Score         DG    S(hbond)    S(metal)    S(lipo)     H(rot)  DE(clash)    DE(int)     intcor
     16.75     -17.25       0.98        0.00     106.93       1.57       0.00       0.49       ----

> <Gold.Chemscore.Fitness>
16.7548

> <Gold.Chemscore.DG>
-17.2466

> <Gold.Chemscore.ZeroCoef>
-5.4800

> <Gold.Chemscore.Hbond>
0.9817

> <Gold.Chemscore.Metal>
0.0000

> <Gold.Chemscore.Lipo>
106.9283

> <Gold.Chemscore.Internal_Hbond>
0.0000

> <Gold.Chemscore.DEClash>
0.0038

> <Gold.Chemscore.DEInternal>
0.4880

> <Gold.Chemscore.Rot>
1.5714

> <Gold.Chemscore.Internal.Correction>
   9.000000E+99

> <Gold.Chemscore.Hbonds>
donor molecule, donor type, donor heavy atom, donor atom, acceptor molecule, acceptor atom, score
      L1  H     9    28       P1  8028  0.01
      L1  H     9    41       P1  8028  0.11

> <Gold.Chemscore.Hbond.Weighted>
-3.2788

> <Gold.Chemscore.Metal.Weighted>
-0.0000

> <Gold.Chemscore.Lipo.Weighted>
-12.5106

> <Gold.Chemscore.Internal_Hbond.Weighted>
0.0000

> <Gold.Chemscore.DEClash.Weighted>
0.0038

> <Gold.Chemscore.DEInternal.Weighted>
0.4880

> <Gold.Chemscore.Rot.Weighted>
4.0228

> <Gold.Chemscore.Internal.Correction.Weighted>
   9.000000E+99

> <Gold.Protein.RotatedTorsions>
[ 6907 6896 6895 6894 ] final   60.87 input  -60.11 | X-H torsion
[ 7974 7965 7964 7962 ] final -175.67 input  175.53 | X-H torsion
[ 8008 7997 7996 7995 ] final  -54.23 input   59.86 | X-H torsion
[ 10167 10162 10161 10158 ] final    0.79 input  -65.29 | X-H torsion
[ 10718 10713 10712 10709 ] final  172.52 input   66.30 | X-H torsion
[ 10763 10752 10751 10750 ] final -104.34 input  -60.55 | X-H torsion
[ 11005 11000 10999 10996 ] final  -51.46 input  -57.11 | X-H torsion

> <Gold.Protein.ActiveResidues>
 VAL166  LYS551  ARG553  GLY616  TRP617  ASP618  TYR619  PRO620  LYS621  CYS622 
 ASP623  PHE694  ASN695  SER759  ASP760  ASP761  ALA762  ILE779  LEU786  VAL792 
 PHE793  MET794  SER795  GLU796  ALA797  LYS798  CYS799  TRP800  GLU811  SER814 

> <Gold.Protein.RotatedAtoms>
  152.4040  134.6239  160.0057 H   0  0  0  0  0  0  0  0  0  0  0  0  # atno 6907 bound_to 6896
  151.6435  133.3319  159.3143 H   0  0  0  0  0  0  0  0  0  0  0  0  # atno 6908 bound_to 6896
  150.7937  134.7022  159.6601 H   0  0  0  0  0  0  0  0  0  0  0  0  # atno 6909 bound_to 6896
  144.7127  140.1285  143.6400 H   0  0  0  0  0  0  0  0  0  0  0  0  # atno 7974 bound_to 7965
  154.4156  140.1181  156.5282 H   0  0  0  0  0  0  0  0  0  0  0  0  # atno 8008 bound_to 7997
  155.6632  140.3496  155.4771 H   0  0  0  0  0  0  0  0  0  0  0  0  # atno 8009 bound_to 7997
  155.9695  140.1138  157.0814 H   0  0  0  0  0  0  0  0  0  0  0  0  # atno 8010 bound_to 7997
  140.6713  143.7041  150.7928 H   0  0  0  0  0  0  0  0  0  0  0  0  # atno 10167 bound_to 10162
  156.9777  131.0109  151.2889 H   0  0  0  0  0  0  0  0  0  0  0  0  # atno 10718 bound_to 10713
  154.7872  135.4789  153.9971 H   0  0  0  0  0  0  0  0  0  0  0  0  # atno 10763 bound_to 10752
  153.1577  135.6803  153.8795 H   0  0  0  0  0  0  0  0  0  0  0  0  # atno 10764 bound_to 10752
  153.8419  135.3178  155.3405 H   0  0  0  0  0  0  0  0  0  0  0  0  # atno 10765 bound_to 10752
  141.0872  133.6640  156.3880 H   0  0  0  0  0  0  0  0  0  0  0  0  # atno 11005 bound_to 11000
  145.9307  139.2605  143.1326 LP  0  0  0  0  0  0  0  0  0  0  0  0  # atno 17320 bound_to 7965
  145.9525  140.8898  143.0252 LP  0  0  0  0  0  0  0  0  0  0  0  0  # atno 17321 bound_to 7965
  140.0727  143.5045  152.2571 LP  0  0  0  0  0  0  0  0  0  0  0  0  # atno 17342 bound_to 10162
  139.5982  144.7574  151.3234 LP  0  0  0  0  0  0  0  0  0  0  0  0  # atno 17343 bound_to 10162
  157.5548  130.8206  149.8191 LP  0  0  0  0  0  0  0  0  0  0  0  0  # atno 17370 bound_to 10713
  156.0257  130.3780  150.1830 LP  0  0  0  0  0  0  0  0  0  0  0  0  # atno 17371 bound_to 10713
  140.5336  134.6189  157.5358 LP  0  0  0  0  0  0  0  0  0  0  0  0  # atno 17394 bound_to 11000
  139.9692  134.7321  156.0076 LP  0  0  0  0  0  0  0  0  0  0  0  0  # atno 17395 bound_to 11000

$$$$
