#       Name:                AV-unprocessed.smi:2822
#       Creating user name   scv26
#       Creation time:       Fri Mar 27 15:31:18 2020


#       File generated by GOLD software.
#

@<TRIPOS>MOLECULE
AV-unprocessed.smi:2822
    43    45     1
SMALL
NO_CHARGES


@<TRIPOS>ATOM
      1 ****        -5.3004  -0.2468  -1.1684 Cl             1 S1                 0.0000
      2 ****        -4.4564   1.2602  -1.2529 C.ar           1 S1                 0.0000
      3 ****        -5.1787   2.4701  -1.2010 C.ar           1 S1                 0.0000
      4 ****        -4.5966   3.6865  -1.2568 N.ar           1 S1                 0.0000
      5 ****        -3.2531   3.7356  -1.3702 C.ar           1 S1                 0.0000
      6 ****        -2.4368   2.5883  -1.4309 C.ar           1 S1                 0.0000
      7 ****        -3.0484   1.3140  -1.3697 C.ar           1 S1                 0.0000
      8 ****        -2.3127   0.1205  -1.4206 N.pl3          1 S1                 0.0000
      9 ****        -0.8616   0.1275  -1.3227 C.3            1 S1                 0.0000
     10 ****        -0.3021  -1.3008  -1.1697 C.3            1 S1                 0.0000
     11 ****         1.2370  -1.3544  -1.1892 C.3            1 S1                 0.0000
     12 ****         1.8136  -0.7994   0.0579 N.4            1 S1                 1.0000
     13 ****         3.2987  -0.8098   0.0397 C.3            1 S1                 0.0000
     14 ****         3.8757  -0.1527   1.3032 C.3            1 S1                 0.0000
     15 ****         3.3376  -0.8356   2.5663 C.3            1 S1                 0.0000
     16 ****         1.8034  -0.8321   2.5504 C.3            1 S1                 0.0000
     17 ****         1.2519  -1.4728   1.2603 C.3            1 S1                 0.0000
     18 ****        -0.2871  -1.4127   1.2279 C.3            1 S1                 0.0000
     19 ****        -0.7814  -1.9528   0.0069 O.3            1 S1                 0.0000
     20 ****        -6.2549   2.4611  -1.1105 H              1 S1                 0.0000
     21 ****        -2.8130   4.7209  -1.4146 H              1 S1                 0.0000
     22 ****        -1.3679   2.7059  -1.5258 H              1 S1                 0.0000
     23 ****        -2.7999  -0.7599  -1.3250 H              1 S1                 0.0000
     24 ****        -0.4616   0.5756  -2.2331 H              1 S1                 0.0000
     25 ****        -0.5455   0.7638  -0.4966 H              1 S1                 0.0000
     26 ****        -0.6611  -1.8846  -2.0184 H              1 S1                 0.0000
     27 ****         1.5627  -2.3900  -1.3014 H              1 S1                 0.0000
     28 ****         1.6207  -0.8086  -2.0521 H              1 S1                 0.0000
     29 ****         3.6561  -1.8376  -0.0430 H              1 S1                 0.0000
     30 ****         3.6562  -0.2782  -0.8429 H              1 S1                 0.0000
     31 ****         4.9647  -0.2058   1.2865 H              1 S1                 0.0000
     32 ****         3.6171   0.9069   1.3185 H              1 S1                 0.0000
     33 ****         3.7045  -1.8615   2.6175 H              1 S1                 0.0000
     34 ****         3.7069  -0.3260   3.4569 H              1 S1                 0.0000
     35 ****         1.4261  -1.3647   3.4244 H              1 S1                 0.0000
     36 ****         1.4446   0.1947   2.6369 H              1 S1                 0.0000
     37 ****         1.5560  -2.5210   1.2329 H              1 S1                 0.0000
     38 ****        -0.6989  -1.9982   2.0503 H              1 S1                 0.0000
     39 ****        -0.6462  -0.3932   1.3705 H              1 S1                 0.0000
     40 ****         1.5290   0.1685   0.1067 H              1 S1                 0.0000
     41 ****        -5.1427   4.5232  -1.2154 LP             1 S1                 0.0000
     42 ****        -0.5139  -2.9153  -0.0391 LP             1 S1                 0.0000
     43 ****        -1.7789  -1.8842   0.0170 LP             1 S1                 0.0000
@<TRIPOS>BOND
    1    1    2 1     
    2    2    7 ar    
    3    2    3 ar    
    4    3    4 ar    
    5    3   20 1     
    6    4    5 ar    
    7    5    6 ar    
    8    5   21 1     
    9    6    7 ar    
   10    6   22 1     
   11    7    8 1     
   12    8    9 1     
   13    8   23 1     
   14    9   10 1     
   15    9   24 1     
   16    9   25 1     
   17   10   19 1     
   18   10   11 1     
   19   10   26 1     
   20   11   12 1     
   21   11   27 1     
   22   11   28 1     
   23   12   17 1     
   24   12   13 1     
   25   12   40 1     
   26   13   14 1     
   27   13   29 1     
   28   13   30 1     
   29   14   15 1     
   30   14   31 1     
   31   14   32 1     
   32   15   16 1     
   33   15   33 1     
   34   15   34 1     
   35   16   17 1     
   36   16   35 1     
   37   16   36 1     
   38   17   18 1     
   39   17   37 1     
   40   18   19 1     
   41   18   38 1     
   42   18   39 1     
   43    4   41 1     
   44   19   42 1     
   45   19   43 1     
@<TRIPOS>SUBSTRUCTURE
      1 S1             1
@<TRIPOS>SET
LONE_PAIRS      STATIC     ATOMS    <user>   **** ""
3 41 42 43
DONOR_HYDROGENS      STATIC     ATOMS    <user>   **** ""
2 23 40
ATOM$BLUE        STATIC     ATOMS    COLORGROUP SYSTEM
3 41 42 43
ATOM$RED        STATIC     ATOMS    COLORGROUP SYSTEM
2 23 40
