AV-unprocessed.smi:45|AV-procd|sdf|413|dock9
  -GOLD-   2262016283D 1   1.00000     0.00000
 Structure written by MMmdl.
 59 62  0  0  0  0  0  0  0  0  2 V2000
  147.2801  129.4137  152.4721 C   0  0  0  0  0  0  0  0  0  0  0  0
  148.4902  129.8260  153.0898 O   0  0  0  0  0  0  0  0  0  0  0  0
  148.5634  131.1109  153.5862 C   0  0  0  0  0  0  0  0  0  0  0  0
  147.6426  132.1368  153.2558 C   0  0  0  0  0  0  0  0  0  0  0  0
  147.7678  133.4198  153.8211 C   0  0  0  0  0  0  0  0  0  0  0  0
  148.8123  133.7032  154.7222 C   0  0  0  0  0  0  0  0  0  0  0  0
  148.9037  135.0872  155.3524 C   0  0  0  0  0  0  0  0  0  0  0  0
  149.8482  135.2215  156.4568 N   0  0  0  0  0  0  0  0  0  0  0  0
  149.4356  135.8956  157.6199 C   0  0  0  0  0  0  0  0  0  0  0  0
  148.5687  135.2591  158.4438 N   0  0  0  0  0  0  0  0  0  0  0  0
  148.2315  135.8723  159.5796 C   0  0  0  0  0  0  0  0  0  0  0  0
  147.4178  135.1495  160.4348 N   0  0  0  0  0  0  0  0  0  0  0  0
  146.8845  135.8141  161.6187 C   0  0  0  0  0  0  0  0  0  0  0  0
  146.7003  134.7325  162.6917 C   0  0  0  0  0  0  0  0  0  0  0  0
  146.8650  133.4188  161.9325 C   0  0  0  0  0  0  0  0  0  0  0  0
  147.8366  133.8075  160.8187 C   0  0  1  0  0  0  0  0  0  0  0  0
  147.8679  132.8267  159.6313 C   0  0  0  0  0  0  0  0  0  0  0  0
  148.1937  131.5270  160.0746 O   0  0  0  0  0  0  0  0  0  0  0  0
  148.6481  137.0742  159.9882 N   0  0  0  0  0  0  0  0  0  0  0  0
  149.5062  137.7279  159.1758 C   0  0  0  0  0  0  0  0  0  0  0  0
  149.9552  137.1746  157.9544 C   0  0  0  0  0  0  0  0  0  0  0  0
  150.9340  137.9085  157.0797 C   0  0  0  0  0  0  0  0  0  0  0  0
  151.5860  137.2587  156.2550 O   0  0  0  0  0  0  0  0  0  0  0  0
  150.9830  139.2344  157.3865 N   0  5  0  0  0  0  0  0  0  0  0  0
  152.1335  140.0935  157.1033 C   0  0  0  0  0  0  0  0  0  0  0  0
  152.0617  141.4168  157.8587 C   0  0  0  0  0  0  0  0  0  0  0  0
  152.8143  141.5264  158.9603 N   0  0  0  0  0  0  0  0  0  0  0  0
  152.7824  142.7093  159.6111 C   0  0  0  0  0  0  0  0  0  0  0  0
  151.9921  143.7845  159.1583 C   0  0  0  0  0  0  0  0  0  0  0  0
  151.2366  143.5530  157.9917 C   0  0  0  0  0  0  0  0  0  0  0  0
  151.2712  142.3679  157.3452 N   0  0  0  0  0  0  0  0  0  0  0  0
  149.7494  132.6947  155.0330 C   0  0  0  0  0  0  0  0  0  0  0  0
  149.6194  131.4078  154.4763 C   0  0  0  0  0  0  0  0  0  0  0  0
  150.7609  130.1854  154.9056 Cl  0  0  0  0  0  0  0  0  0  0  0  0
  148.8406  133.8824  161.2402 H   0  0  0  0  0  0  0  0  0  0  0  0
  147.3686  128.3704  152.1701 H   0  0  0  0  0  0  0  0  0  0  0  0
  147.0702  129.9995  151.5762 H   0  0  0  0  0  0  0  0  0  0  0  0
  146.4362  129.4872  153.1595 H   0  0  0  0  0  0  0  0  0  0  0  0
  146.8204  131.9620  152.5790 H   0  0  0  0  0  0  0  0  0  0  0  0
  147.0467  134.1841  153.5710 H   0  0  0  0  0  0  0  0  0  0  0  0
  149.1916  135.7948  154.5750 H   0  0  0  0  0  0  0  0  0  0  0  0
  147.9172  135.3966  155.7001 H   0  0  0  0  0  0  0  0  0  0  0  0
  150.4454  134.4219  156.6159 H   0  0  0  0  0  0  0  0  0  0  0  0
  147.5368  136.6138  161.9718 H   0  0  0  0  0  0  0  0  0  0  0  0
  145.9243  136.2604  161.3592 H   0  0  0  0  0  0  0  0  0  0  0  0
  147.4877  134.8244  163.4408 H   0  0  0  0  0  0  0  0  0  0  0  0
  145.7405  134.8052  163.2038 H   0  0  0  0  0  0  0  0  0  0  0  0
  147.2386  132.6096  162.5606 H   0  0  0  0  0  0  0  0  0  0  0  0
  145.9071  133.1092  161.5117 H   0  0  0  0  0  0  0  0  0  0  0  0
  146.9072  132.8043  159.1163 H   0  0  0  0  0  0  0  0  0  0  0  0
  148.6199  133.1277  158.9015 H   0  0  0  0  0  0  0  0  0  0  0  0
  147.5328  131.2469  160.6894 H   0  0  0  0  0  0  0  0  0  0  0  0
  149.8414  138.6979  159.5133 H   0  0  0  0  0  0  0  0  0  0  0  0
  153.0792  139.6025  157.3405 H   0  0  0  0  0  0  0  0  0  0  0  0
  152.1991  140.3154  156.0374 H   0  0  0  0  0  0  0  0  0  0  0  0
  153.3935  142.7994  160.4969 H   0  0  0  0  0  0  0  0  0  0  0  0
  151.9665  144.7315  159.6759 H   0  0  0  0  0  0  0  0  0  0  0  0
  150.6022  144.3213  157.5755 H   0  0  0  0  0  0  0  0  0  0  0  0
  150.5610  132.8968  155.7176 H   0  0  0  0  0  0  0  0  0  0  0  0
  1  2  1  0  0  0  0
  1 36  1  0  0  0  0
  1 37  1  0  0  0  0
  1 38  1  0  0  0  0
  2  3  1  0  0  0  0
  3 33  1  0  0  0  0
  3  4  2  0  0  0  0
  4  5  1  0  0  0  0
  4 39  1  0  0  0  0
  5  6  2  0  0  0  0
  5 40  1  0  0  0  0
  6  7  1  0  0  0  0
  6 32  1  0  0  0  0
  7  8  1  0  0  0  0
  7 41  1  0  0  0  0
  7 42  1  0  0  0  0
  8  9  1  0  0  0  0
  8 43  1  0  0  0  0
  9 21  1  0  0  0  0
  9 10  2  0  0  0  0
 10 11  1  0  0  0  0
 11 12  1  0  0  0  0
 11 19  2  0  0  0  0
 12 16  1  0  0  0  0
 12 13  1  0  0  0  0
 13 14  1  0  0  0  0
 13 44  1  0  0  0  0
 13 45  1  0  0  0  0
 14 15  1  0  0  0  0
 14 46  1  0  0  0  0
 14 47  1  0  0  0  0
 15 16  1  0  0  0  0
 15 48  1  0  0  0  0
 15 49  1  0  0  0  0
 16 35  1  0  0  0  0
 16 17  1  0  0  0  0
 17 18  1  0  0  0  0
 17 50  1  0  0  0  0
 17 51  1  0  0  0  0
 18 52  1  0  0  0  0
 19 20  1  0  0  0  0
 20 21  2  0  0  0  0
 20 53  1  0  0  0  0
 21 22  1  0  0  0  0
 22 23  2  0  0  0  0
 22 24  1  0  0  0  0
 24 25  1  0  0  0  0
 25 26  1  0  0  0  0
 25 54  1  0  0  0  0
 25 55  1  0  0  0  0
 26 31  1  0  0  0  0
 26 27  2  0  0  0  0
 27 28  1  0  0  0  0
 28 29  2  0  0  0  0
 28 56  1  0  0  0  0
 29 30  1  0  0  0  0
 29 57  1  0  0  0  0
 30 31  2  0  0  0  0
 30 58  1  0  0  0  0
 32 33  2  0  0  0  0
 32 59  1  0  0  0  0
 33 34  1  0  0  0  0
M  CHG  1  24  -1
M  END
> <s_m_source_file>
AV-unprocessed.smi

> <i_m_source_file_index>
45

> <i_lp_mmshare_version>
43012

> <i_f3d_flags>
0

> <s_epik_input>
W0NIM11PYzFbY0hdW2NIXWMoW2NIXWMxQ2wpW0NIMl1bTkhdYzJuYyhOM1tDSDJdW0NIMl1bQ0gyXVtDQEhdM1tDSDJdW09IXSluW2NIXWMyQyg9TylbTkhdW0NIMl1jNG5bY0hdW2NIXVtjSF1uNA==

> <s_epik_cmdline>
J2VwaWtfcHl0aG9uJywgJy1waCcsICc3LjAnLCAnLXRuJywgJzgnLCAnLW1hJywgJzIwMCcsICctbWV0YWxfYmluZGluZycsICctaW1hZScsICc8aW5maWxlLm1hZT4nLCAnLW9tYWUnLCAnPG91dGZpbGUubWFlPic=

> <r_lp_tautomer_probability>
1

> <r_epik_Ionization_Penalty>
7.35269

> <r_epik_Ionization_Penalty_Charging>
6.82087

> <r_epik_Ionization_Penalty_Neutral>
0.53182

> <r_epik_State_Penalty>
6.85781

> <r_epik_Charging_Adjusted_Penalty>
13.6787

> <i_epik_Tot_Q>
-1

> <i_epik_Tot_abs_Q>
1

> <r_epik_Metal_State_Penalty>
2.8146

> <b_epik_Metal_Only>
1

> <s_epik_Chemistry_Notes>
This compound contains an electron-poor aromatic ring that is susceptible to covalent hydrolysis at low pH, typically resulting in measured values for nitrogen ring protonation that are around two units higher than predicted values.

> <s_lp_Force_Field>
OPLS_2005

> <r_lp_Energy>
41.892

> <b_lp_Chiralities_Consistent>
1

> <s_lp_Variant>
AV-unprocessed.smi:45-7

> <Gold.Version>
5.8.1

> <Gold.Id.Protein>
6NUR|6NUR_protein|mol2

> <Gold.PLP.Fitness>
51.4162

> <Gold.PLP.PLP>
-49.5124

> <Gold.PLP.part.hbond>
-1.3315

> <Gold.PLP.part.metal>
0.0000

> <Gold.PLP.part.buried>
-4.6012

> <Gold.PLP.part.nonpolar>
-42.4805

> <Gold.PLP.part.repulsive>
0.3833

> <Gold.PLP.ligand.clash>
0.0000

> <Gold.PLP.ligand.torsion>
1.5061

> <Gold.PLP.Chemscore.Hbond>
0.4023

> <Gold.PLP.Chemscore.CHOScore>
1.0000

> <Gold.PLP.Chemscore.Metal>
0.0000

> <Gold.Chemscore.Hbonds>
donor molecule, donor type, donor heavy atom, donor atom, acceptor molecule, acceptor atom, score
      P1  H  6931  6943       L1    19  0.21
      L1  C    30    58       P1  8028  0.90

> <Gold.PLP.Chemscore.Internal.Correction>
0.7092

> <Gold.Rescore>
     Score         DG    S(hbond)    S(metal)    S(lipo)     H(rot)  DE(clash)    DE(int)     intcor
      8.23     -12.67       0.12        0.00     131.43       3.36       0.20       4.24       ----

> <Gold.Chemscore.Fitness>
8.2320

> <Gold.Chemscore.DG>
-12.6658

> <Gold.Chemscore.ZeroCoef>
-5.4800

> <Gold.Chemscore.Hbond>
0.1196

> <Gold.Chemscore.Metal>
0.0000

> <Gold.Chemscore.Lipo>
131.4326

> <Gold.Chemscore.Internal_Hbond>
0.0000

> <Gold.Chemscore.DEClash>
0.1952

> <Gold.Chemscore.DEInternal>
4.2386

> <Gold.Chemscore.Rot>
3.3560

> <Gold.Chemscore.Internal.Correction>
   9.000000E+99

> <Gold.Chemscore.Hbonds>
donor molecule, donor type, donor heavy atom, donor atom, acceptor molecule, acceptor atom, score
      P1  H  6931  6943       L1    19  0.04

> <Gold.Chemscore.Hbond.Weighted>
-0.3994

> <Gold.Chemscore.Metal.Weighted>
-0.0000

> <Gold.Chemscore.Lipo.Weighted>
-15.3776

> <Gold.Chemscore.Internal_Hbond.Weighted>
0.0000

> <Gold.Chemscore.DEClash.Weighted>
0.1952

> <Gold.Chemscore.DEInternal.Weighted>
4.2386

> <Gold.Chemscore.Rot.Weighted>
8.5912

> <Gold.Chemscore.Internal.Correction.Weighted>
   9.000000E+99

> <Gold.Protein.RotatedTorsions>
[ 6907 6896 6895 6894 ] final   50.88 input  -60.11 | X-H torsion
[ 7974 7965 7964 7962 ] final -165.57 input  175.53 | X-H torsion
[ 8008 7997 7996 7995 ] final  -65.37 input   59.86 | X-H torsion
[ 10167 10162 10161 10158 ] final -179.51 input  -65.29 | X-H torsion
[ 10718 10713 10712 10709 ] final -156.23 input   66.30 | X-H torsion
[ 10763 10752 10751 10750 ] final  153.48 input  -60.55 | X-H torsion
[ 11005 11000 10999 10996 ] final -152.94 input  -57.11 | X-H torsion

> <Gold.Protein.ActiveResidues>
 VAL166  LYS551  ARG553  GLY616  TRP617  ASP618  TYR619  PRO620  LYS621  CYS622 
 ASP623  PHE694  ASN695  SER759  ASP760  ASP761  ALA762  ILE779  LEU786  VAL792 
 PHE793  MET794  SER795  GLU796  ALA797  LYS798  CYS799  TRP800  GLU811  SER814 

> <Gold.Protein.RotatedAtoms>
  152.3066  134.7548  160.0345 H   0  0  0  0  0  0  0  0  0  0  0  0  # atno 6907 bound_to 6896
  151.8043  133.3368  159.3544 H   0  0  0  0  0  0  0  0  0  0  0  0  # atno 6908 bound_to 6896
  150.7299  134.5654  159.5908 H   0  0  0  0  0  0  0  0  0  0  0  0  # atno 6909 bound_to 6896
  144.7266  140.2794  143.6238 H   0  0  0  0  0  0  0  0  0  0  0  0  # atno 7974 bound_to 7965
  154.4668  140.0934  156.7040 H   0  0  0  0  0  0  0  0  0  0  0  0  # atno 8008 bound_to 7997
  155.4837  140.3468  155.4325 H   0  0  0  0  0  0  0  0  0  0  0  0  # atno 8009 bound_to 7997
  156.0969  140.1412  156.9507 H   0  0  0  0  0  0  0  0  0  0  0  0  # atno 8010 bound_to 7997
  139.5383  144.2434  152.0842 H   0  0  0  0  0  0  0  0  0  0  0  0  # atno 10167 bound_to 10162
  156.5236  130.8489  151.2691 H   0  0  0  0  0  0  0  0  0  0  0  0  # atno 10718 bound_to 10713
  154.1370  135.2823  155.3171 H   0  0  0  0  0  0  0  0  0  0  0  0  # atno 10763 bound_to 10752
  154.6315  135.5433  153.7689 H   0  0  0  0  0  0  0  0  0  0  0  0  # atno 10764 bound_to 10752
  153.0263  135.6464  154.1518 H   0  0  0  0  0  0  0  0  0  0  0  0  # atno 10765 bound_to 10752
  140.7135  134.3806  157.5194 H   0  0  0  0  0  0  0  0  0  0  0  0  # atno 11005 bound_to 11000
  145.7965  139.1947  143.2073 LP  0  0  0  0  0  0  0  0  0  0  0  0  # atno 17320 bound_to 7965
  146.0713  140.7866  142.9687 LP  0  0  0  0  0  0  0  0  0  0  0  0  # atno 17321 bound_to 7965
  140.1909  144.4753  150.6480 LP  0  0  0  0  0  0  0  0  0  0  0  0  # atno 17342 bound_to 10162
  140.6601  143.2249  151.5876 LP  0  0  0  0  0  0  0  0  0  0  0  0  # atno 17343 bound_to 10162
  157.7433  130.9909  150.2581 LP  0  0  0  0  0  0  0  0  0  0  0  0  # atno 17370 bound_to 10713
  156.3126  130.3774  149.7648 LP  0  0  0  0  0  0  0  0  0  0  0  0  # atno 17371 bound_to 10713
  139.8866  134.8906  156.2577 LP  0  0  0  0  0  0  0  0  0  0  0  0  # atno 17394 bound_to 11000
  141.0064  133.7121  156.1042 LP  0  0  0  0  0  0  0  0  0  0  0  0  # atno 17395 bound_to 11000

$$$$
