AV-unprocessed.smi:1752|AV-procd|sdf|7059|dock6
  -GOLD-   22720 8273D 1   1.00000     0.00000
 Structure written by MMmdl.
 43 44  0  0  0  0  0  0  0  0  2 V2000
  150.5898  142.1048  157.1051 C   0  0  0  0  0  0  0  0  0  0  0  0
  151.8196  141.3435  157.6179 C   0  0  1  0  0  0  0  0  0  0  0  0
  151.9479  141.4509  159.1526 C   0  0  0  0  0  0  0  0  0  0  0  0
  152.0402  142.8248  159.6143 N   0  0  0  0  0  0  0  0  0  0  0  0
  152.2577  143.9658  158.8707 C   0  0  0  0  0  0  0  0  0  0  0  0
  152.2475  145.0222  159.7353 C   0  0  0  0  0  0  0  0  0  0  0  0
  152.0193  144.4183  161.0035 C   0  0  0  0  0  0  0  0  0  0  0  0
  151.8976  143.1028  160.9279 N   0  0  0  0  0  0  0  0  0  0  0  0
  151.7178  139.9438  157.2058 N   0  0  0  0  0  0  0  0  0  0  0  0
  151.5504  139.5018  155.9461 C   0  0  0  0  0  0  0  0  0  0  0  0
  151.4484  140.2631  154.9835 O   0  0  0  0  0  0  0  0  0  0  0  0
  151.5911  138.1522  155.8168 N   0  0  0  0  0  0  0  0  0  0  0  0
  152.0850  137.2392  156.8716 C   0  0  0  0  0  0  0  0  0  0  0  0
  151.4081  135.8477  156.8764 C   0  0  0  0  0  0  0  0  0  0  0  0
  149.8729  135.8630  157.0430 C   0  0  0  0  0  0  0  0  0  0  0  0
  149.1654  136.9219  156.2734 N   0  3  2  0  0  0  0  0  0  0  0  0
  147.6986  136.8392  156.4481 C   0  0  0  0  0  0  0  0  0  0  0  0
  149.5544  137.0420  154.8424 C   0  0  0  0  0  0  0  0  0  0  0  0
  151.0146  137.5041  154.6263 C   0  0  0  0  0  0  0  0  0  0  0  0
  150.6464  143.1615  157.3682 H   0  0  0  0  0  0  0  0  0  0  0  0
  149.6681  141.7061  157.5304 H   0  0  0  0  0  0  0  0  0  0  0  0
  150.5119  142.0411  156.0191 H   0  0  0  0  0  0  0  0  0  0  0  0
  152.6961  141.8051  157.1596 H   0  0  0  0  0  0  0  0  0  0  0  0
  151.0845  140.9902  159.6351 H   0  0  0  0  0  0  0  0  0  0  0  0
  152.8257  140.9058  159.5026 H   0  0  0  0  0  0  0  0  0  0  0  0
  152.3929  143.9315  157.7997 H   0  0  0  0  0  0  0  0  0  0  0  0
  152.3828  146.0670  159.4988 H   0  0  0  0  0  0  0  0  0  0  0  0
  151.9391  144.8938  161.9700 H   0  0  0  0  0  0  0  0  0  0  0  0
  151.8191  139.2528  157.9348 H   0  0  0  0  0  0  0  0  0  0  0  0
  153.1624  137.1210  156.7492 H   0  0  0  0  0  0  0  0  0  0  0  0
  151.9304  137.6745  157.8603 H   0  0  0  0  0  0  0  0  0  0  0  0
  151.6751  135.2858  155.9821 H   0  0  0  0  0  0  0  0  0  0  0  0
  151.8321  135.2603  157.6916 H   0  0  0  0  0  0  0  0  0  0  0  0
  149.4739  134.8846  156.7711 H   0  0  0  0  0  0  0  0  0  0  0  0
  149.6378  136.0098  158.0979 H   0  0  0  0  0  0  0  0  0  0  0  0
  147.3010  135.9347  155.9862 H   0  0  0  0  0  0  0  0  0  0  0  0
  147.2045  137.7002  155.9965 H   0  0  0  0  0  0  0  0  0  0  0  0
  147.4353  136.8276  157.5064 H   0  0  0  0  0  0  0  0  0  0  0  0
  149.3662  136.1038  154.3186 H   0  0  0  0  0  0  0  0  0  0  0  0
  148.9028  137.7857  154.3809 H   0  0  0  0  0  0  0  0  0  0  0  0
  151.0605  138.1609  153.7554 H   0  0  0  0  0  0  0  0  0  0  0  0
  151.6419  136.6634  154.3318 H   0  0  0  0  0  0  0  0  0  0  0  0
  149.4415  137.7970  156.6960 H   0  0  0  0  0  0  0  0  0  0  0  0
  1  2  1  0  0  0  0
  1 20  1  0  0  0  0
  1 21  1  0  0  0  0
  1 22  1  0  0  0  0
  2  3  1  0  0  0  0
  2  9  1  0  0  0  0
  2 23  1  0  0  0  0
  3  4  1  0  0  0  0
  3 24  1  0  0  0  0
  3 25  1  0  0  0  0
  4  8  1  0  0  0  0
  4  5  1  0  0  0  0
  5  6  2  0  0  0  0
  5 26  1  0  0  0  0
  6  7  1  0  0  0  0
  6 27  1  0  0  0  0
  7  8  2  0  0  0  0
  7 28  1  0  0  0  0
  9 10  1  0  0  0  0
  9 29  1  0  0  0  0
 10 11  2  0  0  0  0
 10 12  1  0  0  0  0
 12 19  1  0  0  0  0
 12 13  1  0  0  0  0
 13 14  1  0  0  0  0
 13 30  1  0  0  0  0
 13 31  1  0  0  0  0
 14 15  1  0  0  0  0
 14 32  1  0  0  0  0
 14 33  1  0  0  0  0
 15 16  1  0  0  0  0
 15 34  1  0  0  0  0
 15 35  1  0  0  0  0
 16 17  1  0  0  0  0
 16 18  1  0  0  0  0
 16 43  1  0  0  0  0
 17 36  1  0  0  0  0
 17 37  1  0  0  0  0
 17 38  1  0  0  0  0
 18 19  1  0  0  0  0
 18 39  1  0  0  0  0
 18 40  1  0  0  0  0
 19 41  1  0  0  0  0
 19 42  1  0  0  0  0
M  CHG  1  16   1
M  END
> <s_m_source_file>
AV-unprocessed.smi

> <i_m_source_file_index>
1752

> <i_lp_mmshare_version>
43012

> <i_f3d_flags>
0

> <s_epik_input>
bjFbY0hdW2NIXVtjSF1uMVtDSDJdW0NAQEhdKFtDSDNdKVtOSF1DKD1PKU4yW0NIMl1bQ0gyXVtDSDJdTihbQ0gzXSlbQ0gyXVtDSDJdMg==

> <s_epik_cmdline>
J2VwaWtfcHl0aG9uJywgJy1waCcsICc3LjAnLCAnLXRuJywgJzgnLCAnLW1hJywgJzIwMCcsICctbWV0YWxfYmluZGluZycsICctaW1hZScsICc8aW5maWxlLm1hZT4nLCAnLW9tYWUnLCAnPG91dGZpbGUubWFlPic=

> <r_lp_tautomer_probability>
1

> <r_epik_Ionization_Penalty>
0.00208423

> <r_epik_Ionization_Penalty_Charging>
0.00203643

> <r_epik_Ionization_Penalty_Neutral>
4.77939e-05

> <r_epik_State_Penalty>
0.00139278

> <r_epik_Charging_Adjusted_Penalty>
0.00342922

> <i_epik_Tot_Q>
1

> <i_epik_Tot_abs_Q>
1

> <r_epik_Metal_State_Penalty>
-0

> <b_epik_Metal_Only>
0

> <s_lp_Force_Field>
OPLS_2005

> <r_lp_Energy>
45.8522

> <b_lp_Chiralities_Consistent>
1

> <s_lp_Variant>
AV-unprocessed.smi:1752-2

> <Gold.Version>
5.8.1

> <Gold.Id.Protein>
6NUR|6NUR_protein|mol2

> <Gold.PLP.Fitness>
36.4279

> <Gold.PLP.PLP>
-33.9748

> <Gold.PLP.part.hbond>
-1.3020

> <Gold.PLP.part.metal>
0.0000

> <Gold.PLP.part.buried>
-3.9665

> <Gold.PLP.part.nonpolar>
-28.5627

> <Gold.PLP.part.repulsive>
0.2426

> <Gold.PLP.ligand.clash>
0.0078

> <Gold.PLP.ligand.torsion>
0.3171

> <Gold.PLP.Chemscore.Hbond>
1.0000

> <Gold.PLP.Chemscore.CHOScore>
0.0000

> <Gold.PLP.Chemscore.Metal>
0.0000

> <Gold.Chemscore.Hbonds>
donor molecule, donor type, donor heavy atom, donor atom, acceptor molecule, acceptor atom, score
      P1  H  7989  7998       L1    11  1.00

> <Gold.PLP.Chemscore.Internal.Correction>
0.0952

> <Gold.Rescore>
     Score         DG    S(hbond)    S(metal)    S(lipo)     H(rot)  DE(clash)    DE(int)     intcor
     14.27     -15.86       1.38        0.00      80.06       1.41       0.07       1.51       ----

> <Gold.Chemscore.Fitness>
14.2748

> <Gold.Chemscore.DG>
-15.8567

> <Gold.Chemscore.ZeroCoef>
-5.4800

> <Gold.Chemscore.Hbond>
1.3849

> <Gold.Chemscore.Metal>
0.0000

> <Gold.Chemscore.Lipo>
80.0609

> <Gold.Chemscore.Internal_Hbond>
0.0000

> <Gold.Chemscore.DEClash>
0.0717

> <Gold.Chemscore.DEInternal>
1.5102

> <Gold.Chemscore.Rot>
1.4125

> <Gold.Chemscore.Internal.Correction>
   9.000000E+99

> <Gold.Chemscore.Hbonds>
donor molecule, donor type, donor heavy atom, donor atom, acceptor molecule, acceptor atom, score
      P1  H  7989  7998       L1    11  0.95

> <Gold.Chemscore.Hbond.Weighted>
-4.6255

> <Gold.Chemscore.Metal.Weighted>
-0.0000

> <Gold.Chemscore.Lipo.Weighted>
-9.3671

> <Gold.Chemscore.Internal_Hbond.Weighted>
0.0000

> <Gold.Chemscore.DEClash.Weighted>
0.0717

> <Gold.Chemscore.DEInternal.Weighted>
1.5102

> <Gold.Chemscore.Rot.Weighted>
3.6160

> <Gold.Chemscore.Internal.Correction.Weighted>
   9.000000E+99

> <Gold.Protein.RotatedTorsions>
[ 6907 6896 6895 6894 ] final -165.98 input  -60.11 | X-H torsion
[ 7974 7965 7964 7962 ] final -122.32 input  175.53 | X-H torsion
[ 8008 7997 7996 7995 ] final  -33.94 input   59.86 | X-H torsion
[ 10167 10162 10161 10158 ] final   64.63 input  -65.29 | X-H torsion
[ 10718 10713 10712 10709 ] final   -0.75 input   66.30 | X-H torsion
[ 10763 10752 10751 10750 ] final   83.47 input  -60.55 | X-H torsion
[ 11005 11000 10999 10996 ] final   11.34 input  -57.11 | X-H torsion

> <Gold.Protein.ActiveResidues>
 VAL166  LYS551  ARG553  GLY616  TRP617  ASP618  TYR619  PRO620  LYS621  CYS622 
 ASP623  PHE694  ASN695  SER759  ASP760  ASP761  ALA762  ILE779  LEU786  VAL792 
 PHE793  MET794  SER795  GLU796  ALA797  LYS798  CYS799  TRP800  GLU811  SER814 

> <Gold.Protein.RotatedAtoms>
  151.4363  133.3656  159.2775 H   0  0  0  0  0  0  0  0  0  0  0  0  # atno 6907 bound_to 6896
  150.9189  134.8608  159.7486 H   0  0  0  0  0  0  0  0  0  0  0  0  # atno 6908 bound_to 6896
  152.4971  134.4299  159.9561 H   0  0  0  0  0  0  0  0  0  0  0  0  # atno 6909 bound_to 6896
  145.0308  140.8066  143.4325 H   0  0  0  0  0  0  0  0  0  0  0  0  # atno 7974 bound_to 7965
  154.4134  140.1697  156.1969 H   0  0  0  0  0  0  0  0  0  0  0  0  # atno 8008 bound_to 7997
  155.9557  140.3397  155.6423 H   0  0  0  0  0  0  0  0  0  0  0  0  # atno 8009 bound_to 7997
  155.6813  140.0723  157.2474 H   0  0  0  0  0  0  0  0  0  0  0  0  # atno 8010 bound_to 7997
  140.1200  144.4740  150.6926 H   0  0  0  0  0  0  0  0  0  0  0  0  # atno 10167 bound_to 10162
  156.8158  130.5440  149.5703 H   0  0  0  0  0  0  0  0  0  0  0  0  # atno 10718 bound_to 10713
  153.1294  135.4690  154.9324 H   0  0  0  0  0  0  0  0  0  0  0  0  # atno 10763 bound_to 10752
  154.7650  135.3142  154.8306 H   0  0  0  0  0  0  0  0  0  0  0  0  # atno 10764 bound_to 10752
  153.8852  135.6890  153.4818 H   0  0  0  0  0  0  0  0  0  0  0  0  # atno 10765 bound_to 10752
  140.5044  134.0714  155.7802 H   0  0  0  0  0  0  0  0  0  0  0  0  # atno 11005 bound_to 11000
  145.1773  139.2371  143.5310 LP  0  0  0  0  0  0  0  0  0  0  0  0  # atno 17320 bound_to 7965
  146.3498  140.1539  142.8592 LP  0  0  0  0  0  0  0  0  0  0  0  0  # atno 17321 bound_to 7965
  140.6877  143.2359  151.5216 LP  0  0  0  0  0  0  0  0  0  0  0  0  # atno 17342 bound_to 10162
  139.5573  144.2243  152.1634 LP  0  0  0  0  0  0  0  0  0  0  0  0  # atno 17343 bound_to 10162
  156.1017  130.5974  150.9905 LP  0  0  0  0  0  0  0  0  0  0  0  0  # atno 17370 bound_to 10713
  157.6482  131.0901  150.8107 LP  0  0  0  0  0  0  0  0  0  0  0  0  # atno 17371 bound_to 10713
  141.1419  133.9124  157.2307 LP  0  0  0  0  0  0  0  0  0  0  0  0  # atno 17394 bound_to 11000
  139.9695  135.0132  156.9474 LP  0  0  0  0  0  0  0  0  0  0  0  0  # atno 17395 bound_to 11000

$$$$
