#       Name:                AV-unprocessed.smi:3179
#       Creating user name   scv26
#       Creation time:       Fri Mar 27 17:57:26 2020


#       File generated by GOLD software.
#

@<TRIPOS>MOLECULE
AV-unprocessed.smi:3179
    35    35     1
SMALL
NO_CHARGES


@<TRIPOS>ATOM
      1 ****        -1.8286   4.4080  -0.1842 C.3            1 S1                 0.0000
      2 ****        -0.8452   3.2348  -0.2016 C.3            1 S1                 0.0000
      3 ****        -1.5521   1.9479  -0.1589 N.pl3          1 S1                 1.0000
      4 ****        -0.9708   0.7341  -0.0935 C.cat          1 S1                 0.0000
      5 ****        -1.7323  -0.3770  -0.0607 N.pl3          1 S1                 0.0000
      6 ****        -3.2003  -0.4105  -0.0909 C.3            1 S1                 0.0000
      7 ****        -3.7233  -1.8470  -0.0050 C.3            1 S1                 0.0000
      8 ****         0.3722   0.6313  -0.0606 N.pl3          1 S1                 0.0000
      9 ****         1.1338  -0.6228   0.0112 C.3            1 S1                 0.0000
     10 ****         2.6426  -0.3549   0.0588 C.3            1 S1                 0.0000
     11 ****         3.4404  -1.6137   0.1251 C.2            1 S1                 0.0000
     12 ****         3.7513  -2.2293   1.2692 N.2            1 S1                 0.0000
     13 ****         4.4802  -3.4034   1.0632 C.2            1 S1                 0.0000
     14 ****         4.7059  -3.6820  -0.2608 C.2            1 S1                 0.0000
     15 ****         4.0072  -2.4731  -1.3030 S.3            1 S1                 0.0000
     16 ****        -1.2960   5.3590  -0.1604 H              1 S1                 0.0000
     17 ****        -2.4755   4.3681   0.6926 H              1 S1                 0.0000
     18 ****        -2.4624   4.4043  -1.0714 H              1 S1                 0.0000
     19 ****        -0.2254   3.2749  -1.0974 H              1 S1                 0.0000
     20 ****        -0.1778   3.2989   0.6580 H              1 S1                 0.0000
     21 ****        -1.2652  -1.2713  -0.0129 H              1 S1                 0.0000
     22 ****        -3.5849   0.1759   0.7438 H              1 S1                 0.0000
     23 ****        -3.5503   0.0626  -1.0085 H              1 S1                 0.0000
     24 ****        -4.8133  -1.8616   0.0043 H              1 S1                 0.0000
     25 ****        -3.3769  -2.3393   0.9043 H              1 S1                 0.0000
     26 ****        -3.3903  -2.4400  -0.8573 H              1 S1                 0.0000
     27 ****         0.9138   1.4833  -0.0885 H              1 S1                 0.0000
     28 ****         0.8228  -1.1752   0.8986 H              1 S1                 0.0000
     29 ****         0.8875  -1.2360  -0.8561 H              1 S1                 0.0000
     30 ****         2.9529   0.2059  -0.8236 H              1 S1                 0.0000
     31 ****         2.8884   0.2621   0.9241 H              1 S1                 0.0000
     32 ****         4.7967  -3.9825   1.9180 H              1 S1                 0.0000
     33 ****         5.2364  -4.5222  -0.6840 H              1 S1                 0.0000
     34 ****        -2.5607   1.9900  -0.1918 H              1 S1                 0.0000
     35 ****         3.4913  -1.8878   2.1724 LP             1 S1                 0.0000
@<TRIPOS>BOND
    1    1    2 1     
    2    1   16 1     
    3    1   17 1     
    4    1   18 1     
    5    2    3 1     
    6    2   19 1     
    7    2   20 1     
    8    3    4 ar    
    9    3   34 1     
   10    4    5 ar    
   11    4    8 ar    
   12    5    6 1     
   13    5   21 1     
   14    6    7 1     
   15    6   22 1     
   16    6   23 1     
   17    7   24 1     
   18    7   25 1     
   19    7   26 1     
   20    8    9 1     
   21    8   27 1     
   22    9   10 1     
   23    9   28 1     
   24    9   29 1     
   25   10   11 1     
   26   10   30 1     
   27   10   31 1     
   28   11   15 1     
   29   11   12 2     
   30   12   13 1     
   31   13   14 2     
   32   13   32 1     
   33   14   15 1     
   34   14   33 1     
   35   12   35 1     
@<TRIPOS>SUBSTRUCTURE
      1 S1             1
@<TRIPOS>SET
LONE_PAIRS      STATIC     ATOMS    <user>   **** ""
1 35
DONOR_HYDROGENS      STATIC     ATOMS    <user>   **** ""
3 34 21 27
ATOM$BLUE        STATIC     ATOMS    COLORGROUP SYSTEM
1 35
ATOM$RED        STATIC     ATOMS    COLORGROUP SYSTEM
3 34 21 27
