#       Name:                AV-unprocessed.smi:139
#       Creating user name   scv26
#       Creation time:       Thu Mar 26 18:33:38 2020


#       File generated by GOLD software.
#

@<TRIPOS>MOLECULE
AV-unprocessed.smi:139
    58    61     1
SMALL
NO_CHARGES


@<TRIPOS>ATOM
      1 ****        -0.8038   0.4492   1.8276 O.2            1 S1                 0.0000
      2 ****        -0.1002  -0.5590   1.9013 C.2            1 S1                 0.0000
      3 ****         1.4308  -0.4453   1.9117 C.3            1 S1                 0.0000
      4 ****         1.9228   0.7157   1.1388 N.am           1 S1                 0.0000
      5 ****         2.2257   1.9194   1.8221 C.2            1 S1                 0.0000
      6 ****         2.1008   2.0106   3.0440 O.2            1 S1                 0.0000
      7 ****         2.6792   3.0223   0.9823 C.2            1 S1                 0.0000
      8 ****         2.9871   4.2034   1.5445 F              1 S1                 0.0000
      9 ****         2.7931   2.8784  -0.3541 C.2            1 S1                 0.0000
     10 ****         2.4966   1.6958  -1.0085 N.am           1 S1                 0.0000
     11 ****         2.6113   1.5555  -2.5125 C.3            1 S1                 0.0000
     12 ****         3.8057   0.6559  -2.8857 C.3            1 S1                 0.0000
     13 ****         4.5766   1.5103  -3.8728 C.3            1 S1                 0.0000
     14 ****         4.2291   2.9176  -3.4122 C.3            1 S1                 0.0000
     15 ****         2.8492   2.8073  -3.0910 O.3            1 S1                 0.0000
     16 ****         2.0382   0.5860  -0.2661 C.2            1 S1                 0.0000
     17 ****         1.7433  -0.4694  -0.8324 O.2            1 S1                 0.0000
     18 ****        -0.5963  -1.8056   1.9729 N.am           1 S1                 0.0000
     19 ****        -2.0089  -2.1899   1.9180 C.3            1 S1                 0.0000
     20 ****        -2.7560  -1.7763   3.2029 C.3            1 S1                 0.0000
     21 ****        -4.2597  -2.0309   3.0817 C.3            1 S1                 0.0000
     22 ****        -4.8608  -1.2246   1.9251 C.3            1 S1                 0.0000
     23 ****        -4.0703  -1.3428   0.6306 C.ar           1 S1                 0.0000
     24 ****        -4.7009  -0.9862  -0.5802 C.ar           1 S1                 0.0000
     25 ****        -4.0046  -1.0687  -1.7998 C.ar           1 S1                 0.0000
     26 ****        -2.6701  -1.5111  -1.8157 C.ar           1 S1                 0.0000
     27 ****        -2.0342  -1.8686  -0.6124 C.ar           1 S1                 0.0000
     28 ****        -2.7197  -1.7798   0.6219 C.ar           1 S1                 0.0000
     29 ****         1.7614  -0.4146   2.9505 H              1 S1                 0.0000
     30 ****         1.8669  -1.3666   1.5205 H              1 S1                 0.0000
     31 ****         3.1289   3.7363  -0.9163 H              1 S1                 0.0000
     32 ****         1.6438   1.1770  -2.8466 H              1 S1                 0.0000
     33 ****         4.4149   0.4491  -2.0045 H              1 S1                 0.0000
     34 ****         3.4655  -0.2885  -3.3109 H              1 S1                 0.0000
     35 ****         5.6481   1.3100  -3.8657 H              1 S1                 0.0000
     36 ****         4.2029   1.3458  -4.8843 H              1 S1                 0.0000
     37 ****         4.8029   3.1892  -2.5251 H              1 S1                 0.0000
     38 ****         4.4041   3.6699  -4.1813 H              1 S1                 0.0000
     39 ****         0.0676  -2.5635   2.0368 H              1 S1                 0.0000
     40 ****        -2.0057  -3.2803   1.8951 H              1 S1                 0.0000
     41 ****        -2.3471  -2.3083   4.0625 H              1 S1                 0.0000
     42 ****        -2.6106  -0.7143   3.4035 H              1 S1                 0.0000
     43 ****        -4.4289  -3.0949   2.9112 H              1 S1                 0.0000
     44 ****        -4.7668  -1.7815   4.0143 H              1 S1                 0.0000
     45 ****        -5.8917  -1.5378   1.7554 H              1 S1                 0.0000
     46 ****        -4.8959  -0.1690   2.1965 H              1 S1                 0.0000
     47 ****        -5.7257  -0.6446  -0.5757 H              1 S1                 0.0000
     48 ****        -4.4943  -0.7937  -2.7223 H              1 S1                 0.0000
     49 ****        -2.1338  -1.5779  -2.7507 H              1 S1                 0.0000
     50 ****        -1.0106  -2.2115  -0.6446 H              1 S1                 0.0000
     51 ****        -0.3787   1.3528   1.7738 LP             1 S1                 0.0000
     52 ****        -1.8002   0.3642   1.8215 LP             1 S1                 0.0000
     53 ****         1.7800   1.2255   3.5738 LP             1 S1                 0.0000
     54 ****         2.3202   2.8698   3.5063 LP             1 S1                 0.0000
     55 ****         2.5973   3.5279  -2.4450 LP             1 S1                 0.0000
     56 ****         2.3033   2.9004  -3.9237 LP             1 S1                 0.0000
     57 ****         1.4172  -1.2493  -0.2982 LP             1 S1                 0.0000
     58 ****         1.8303  -0.5451  -1.8257 LP             1 S1                 0.0000
@<TRIPOS>BOND
    1    1    2 2     
    2    2    3 1     
    3    2   18 am    
    4    3    4 1     
    5    3   29 1     
    6    3   30 1     
    7    4   16 am    
    8    4    5 am    
    9    5    6 2     
   10    5    7 1     
   11    7    8 1     
   12    7    9 2     
   13    9   10 1     
   14    9   31 1     
   15   10   11 1     
   16   10   16 am    
   17   11   15 1     
   18   11   12 1     
   19   11   32 1     
   20   12   13 1     
   21   12   33 1     
   22   12   34 1     
   23   13   14 1     
   24   13   35 1     
   25   13   36 1     
   26   14   15 1     
   27   14   37 1     
   28   14   38 1     
   29   16   17 2     
   30   18   19 1     
   31   18   39 1     
   32   19   28 1     
   33   19   20 1     
   34   19   40 1     
   35   20   21 1     
   36   20   41 1     
   37   20   42 1     
   38   21   22 1     
   39   21   43 1     
   40   21   44 1     
   41   22   23 1     
   42   22   45 1     
   43   22   46 1     
   44   23   28 ar    
   45   23   24 ar    
   46   24   25 ar    
   47   24   47 1     
   48   25   26 ar    
   49   25   48 1     
   50   26   27 ar    
   51   26   49 1     
   52   27   28 ar    
   53   27   50 1     
   54    1   51 1     
   55    1   52 1     
   56    6   53 1     
   57    6   54 1     
   58   15   55 1     
   59   15   56 1     
   60   17   57 1     
   61   17   58 1     
@<TRIPOS>SUBSTRUCTURE
      1 S1             1
@<TRIPOS>SET
LONE_PAIRS      STATIC     ATOMS    <user>   **** ""
8 51 52 53 54 55 56 57 58
DONOR_HYDROGENS      STATIC     ATOMS    <user>   **** ""
1 39
ATOM$BLUE        STATIC     ATOMS    COLORGROUP SYSTEM
8 51 52 53 54 55 56 57 58
ATOM$RED        STATIC     ATOMS    COLORGROUP SYSTEM
1 39
