AV-unprocessed.smi:1723|AV-procd|sdf|6945|dock4
  -GOLD-   22720 8153D 1   1.00000     0.00000
 Structure written by MMmdl.
 38 38  0  0  0  0  0  0  0  0  1 V2000
  152.1531  144.0184  161.3728 C   0  0  0  0  0  0  0  0  0  0  0  0
  152.9995  142.8039  160.9759 C   0  0  0  0  0  0  0  0  0  0  0  0
  152.7185  142.3332  159.5420 C   0  0  0  0  0  0  0  0  0  0  0  0
  153.3004  140.9451  159.2520 C   0  0  0  0  0  0  0  0  0  0  0  0
  152.6693  140.4258  158.0874 O   0  0  0  0  0  0  0  0  0  0  0  0
  151.5512  139.5745  158.3239 C   0  0  2  0  0  0  0  0  0  0  0  0
  152.0964  138.1891  158.7026 C   0  0  0  0  0  0  0  0  0  0  0  0
  150.6620  139.5035  157.0717 C   0  0  0  0  0  0  0  0  0  0  0  0
  150.5455  138.4338  156.4746 O   0  0  0  0  0  0  0  0  0  0  0  0
  150.0908  140.6673  156.7024 N   0  0  0  0  0  0  0  0  0  0  0  0
  149.2384  140.9462  155.6203 C   0  0  0  0  0  0  0  0  0  0  0  0
  148.0977  141.6814  155.6933 C   0  0  0  0  0  0  0  0  0  0  0  0
  147.2685  141.9380  154.5276 C   0  0  0  0  0  0  0  0  0  0  0  0
  145.9499  142.6879  154.6383 C   0  0  0  0  0  0  0  0  0  0  0  0
  145.8236  143.5913  153.6652 F   0  0  0  0  0  0  0  0  0  0  0  0
  144.9155  141.8498  154.5679 F   0  0  0  0  0  0  0  0  0  0  0  0
  145.8888  143.3255  155.8066 F   0  0  0  0  0  0  0  0  0  0  0  0
  147.6856  141.4042  153.3649 C   0  0  0  0  0  0  0  0  0  0  0  0
  148.8686  140.6677  153.2759 N   0  0  0  0  0  0  0  0  0  0  0  0
  149.6768  140.3985  154.3256 C   0  0  0  0  0  0  0  0  0  0  0  0
  150.7019  139.7365  154.1657 O   0  0  0  0  0  0  0  0  0  0  0  0
  149.1227  140.3166  152.3637 H   0  0  0  0  0  0  0  0  0  0  0  0
  152.3771  144.3313  162.3928 H   0  0  0  0  0  0  0  0  0  0  0  0
  151.0883  143.7897  161.3215 H   0  0  0  0  0  0  0  0  0  0  0  0
  152.3465  144.8659  160.7149 H   0  0  0  0  0  0  0  0  0  0  0  0
  154.0564  143.0526  161.0781 H   0  0  0  0  0  0  0  0  0  0  0  0
  152.8047  141.9886  161.6736 H   0  0  0  0  0  0  0  0  0  0  0  0
  151.6418  142.3137  159.3694 H   0  0  0  0  0  0  0  0  0  0  0  0
  153.1323  143.0526  158.8346 H   0  0  0  0  0  0  0  0  0  0  0  0
  154.3770  141.0164  159.0904 H   0  0  0  0  0  0  0  0  0  0  0  0
  153.1381  140.2934  160.1112 H   0  0  0  0  0  0  0  0  0  0  0  0
  150.9763  139.9578  159.1693 H   0  0  0  0  0  0  0  0  0  0  0  0
  151.2879  137.4780  158.8763 H   0  0  0  0  0  0  0  0  0  0  0  0
  152.6871  138.2443  159.6172 H   0  0  0  0  0  0  0  0  0  0  0  0
  152.7394  137.7823  157.9209 H   0  0  0  0  0  0  0  0  0  0  0  0
  150.3306  141.4736  157.2618 H   0  0  0  0  0  0  0  0  0  0  0  0
  147.7746  142.1197  156.6228 H   0  0  0  0  0  0  0  0  0  0  0  0
  147.1525  141.4918  152.4296 H   0  0  0  0  0  0  0  0  0  0  0  0
  1  2  1  0  0  0  0
  1 23  1  0  0  0  0
  1 24  1  0  0  0  0
  1 25  1  0  0  0  0
  2  3  1  0  0  0  0
  2 26  1  0  0  0  0
  2 27  1  0  0  0  0
  3  4  1  0  0  0  0
  3 28  1  0  0  0  0
  3 29  1  0  0  0  0
  4  5  1  0  0  0  0
  4 30  1  0  0  0  0
  4 31  1  0  0  0  0
  5  6  1  0  0  0  0
  6  7  1  0  0  0  0
  6  8  1  0  0  0  0
  6 32  1  0  0  0  0
  7 33  1  0  0  0  0
  7 34  1  0  0  0  0
  7 35  1  0  0  0  0
  8  9  2  0  0  0  0
  8 10  1  0  0  0  0
 10 11  1  0  0  0  0
 10 36  1  0  0  0  0
 11 20  1  0  0  0  0
 11 12  2  0  0  0  0
 12 13  1  0  0  0  0
 12 37  1  0  0  0  0
 13 14  1  0  0  0  0
 13 18  2  0  0  0  0
 14 15  1  0  0  0  0
 14 16  1  0  0  0  0
 14 17  1  0  0  0  0
 18 19  1  0  0  0  0
 18 38  1  0  0  0  0
 19 22  1  0  0  0  0
 19 20  1  0  0  0  0
 20 21  2  0  0  0  0
M  END
> <s_m_source_file>
AV-unprocessed.smi

> <i_m_source_file_index>
1723

> <i_lp_mmshare_version>
43012

> <i_f3d_flags>
0

> <s_epik_input>
W0NIM11bQ0gyXVtDSDJdW0NIMl1PW0NASF0oW0NIM10pQyg9TylbTkhdYzFbY0hdYyhDKEYpKEYpRilbY0hdW25IXWMxPU8=

> <s_epik_cmdline>
J2VwaWtfcHl0aG9uJywgJy1waCcsICc3LjAnLCAnLXRuJywgJzgnLCAnLW1hJywgJzIwMCcsICctbWV0YWxfYmluZGluZycsICctaW1hZScsICc8aW5maWxlLm1hZT4nLCAnLW9tYWUnLCAnPG91dGZpbGUubWFlPic=

> <r_lp_tautomer_probability>
0.999

> <r_epik_Ionization_Penalty>
0.00763408

> <r_epik_Ionization_Penalty_Charging>
0.00763398

> <r_epik_Ionization_Penalty_Neutral>
9.29819e-08

> <r_epik_State_Penalty>
0.00571302

> <r_epik_Charging_Adjusted_Penalty>
0.013347

> <i_epik_Tot_Q>
0

> <i_epik_Tot_abs_Q>
0

> <r_epik_Metal_State_Penalty>
0.392814

> <b_epik_Metal_Only>
0

> <s_lp_Force_Field>
OPLS_2005

> <r_lp_Energy>
19.1413

> <b_lp_Chiralities_Consistent>
1

> <s_lp_Variant>
AV-unprocessed.smi:1723-1

> <Gold.Version>
5.8.1

> <Gold.Id.Protein>
6NUR|6NUR_protein|mol2

> <Gold.PLP.Fitness>
44.7012

> <Gold.PLP.PLP>
-38.4446

> <Gold.PLP.part.hbond>
-3.0000

> <Gold.PLP.part.metal>
0.0000

> <Gold.PLP.part.buried>
-5.0105

> <Gold.PLP.part.nonpolar>
-30.0109

> <Gold.PLP.part.repulsive>
0.3148

> <Gold.PLP.ligand.clash>
0.0000

> <Gold.PLP.ligand.torsion>
1.4637

> <Gold.PLP.Chemscore.Hbond>
2.9760

> <Gold.PLP.Chemscore.CHOScore>
0.0000

> <Gold.PLP.Chemscore.Metal>
0.0000

> <Gold.Chemscore.Hbonds>
donor molecule, donor type, donor heavy atom, donor atom, acceptor molecule, acceptor atom, score
      L1  H    19    22       P1  7957  0.49
      P1  H  7989  7998       L1    21  0.95
      P1  H  7997  8008       L1     5  0.30

> <Gold.PLP.Chemscore.Internal.Correction>
0.2559

> <Gold.Rescore>
     Score         DG    S(hbond)    S(metal)    S(lipo)     H(rot)  DE(clash)    DE(int)     intcor
     13.10     -17.23       2.45        0.00      74.05       1.99       0.01       4.12       ----

> <Gold.Chemscore.Fitness>
13.0996

> <Gold.Chemscore.DG>
-17.2274

> <Gold.Chemscore.ZeroCoef>
-5.4800

> <Gold.Chemscore.Hbond>
2.4519

> <Gold.Chemscore.Metal>
0.0000

> <Gold.Chemscore.Lipo>
74.0543

> <Gold.Chemscore.Internal_Hbond>
0.0000

> <Gold.Chemscore.DEClash>
0.0073

> <Gold.Chemscore.DEInternal>
4.1204

> <Gold.Chemscore.Rot>
1.9946

> <Gold.Chemscore.Internal.Correction>
   9.000000E+99

> <Gold.Chemscore.Hbonds>
donor molecule, donor type, donor heavy atom, donor atom, acceptor molecule, acceptor atom, score
      L1  H    19    22       P1  7957  0.48
      P1  H  7989  7998       L1    21  0.21
      P1  H  7997  8008       L1     5  0.03

> <Gold.Chemscore.Hbond.Weighted>
-8.1893

> <Gold.Chemscore.Metal.Weighted>
-0.0000

> <Gold.Chemscore.Lipo.Weighted>
-8.6644

> <Gold.Chemscore.Internal_Hbond.Weighted>
0.0000

> <Gold.Chemscore.DEClash.Weighted>
0.0073

> <Gold.Chemscore.DEInternal.Weighted>
4.1204

> <Gold.Chemscore.Rot.Weighted>
5.1062

> <Gold.Chemscore.Internal.Correction.Weighted>
   9.000000E+99

> <Gold.Protein.RotatedTorsions>
[ 6907 6896 6895 6894 ] final   23.94 input  -60.11 | X-H torsion
[ 7974 7965 7964 7962 ] final  158.45 input  175.53 | X-H torsion
[ 8008 7997 7996 7995 ] final  -85.57 input   59.86 | X-H torsion
[ 10167 10162 10161 10158 ] final   11.61 input  -65.29 | X-H torsion
[ 10718 10713 10712 10709 ] final -162.28 input   66.30 | X-H torsion
[ 10763 10752 10751 10750 ] final  -28.64 input  -60.55 | X-H torsion
[ 11005 11000 10999 10996 ] final  -85.86 input  -57.11 | X-H torsion

> <Gold.Protein.ActiveResidues>
 VAL166  LYS551  ARG553  GLY616  TRP617  ASP618  TYR619  PRO620  LYS621  CYS622 
 ASP623  PHE694  ASN695  SER759  ASP760  ASP761  ALA762  ILE779  LEU786  VAL792 
 PHE793  MET794  SER795  GLU796  ALA797  LYS798  CYS799  TRP800  GLU811  SER814 

> <Gold.Protein.RotatedAtoms>
  151.9499  135.0174  160.0541 H   0  0  0  0  0  0  0  0  0  0  0  0  # atno 6907 bound_to 6896
  152.1962  133.4803  159.5042 H   0  0  0  0  0  0  0  0  0  0  0  0  # atno 6908 bound_to 6896
  150.6945  134.1566  159.4203 H   0  0  0  0  0  0  0  0  0  0  0  0  # atno 6909 bound_to 6896
  144.7845  139.7481  143.6246 H   0  0  0  0  0  0  0  0  0  0  0  0  # atno 7974 bound_to 7965
  154.6422  140.0590  156.9859 H   0  0  0  0  0  0  0  0  0  0  0  0  # atno 8008 bound_to 7997
  155.1499  140.3273  155.4415 H   0  0  0  0  0  0  0  0  0  0  0  0  # atno 8009 bound_to 7997
  156.2536  140.1949  156.6611 H   0  0  0  0  0  0  0  0  0  0  0  0  # atno 8010 bound_to 7997
  140.6121  143.8386  150.7077 H   0  0  0  0  0  0  0  0  0  0  0  0  # atno 10167 bound_to 10162
  156.6082  130.8839  151.2930 H   0  0  0  0  0  0  0  0  0  0  0  0  # atno 10718 bound_to 10713
  153.7517  135.6925  153.4944 H   0  0  0  0  0  0  0  0  0  0  0  0  # atno 10763 bound_to 10752
  153.1999  135.4440  155.0252 H   0  0  0  0  0  0  0  0  0  0  0  0  # atno 10764 bound_to 10752
  154.8185  135.3410  154.7037 H   0  0  0  0  0  0  0  0  0  0  0  0  # atno 10765 bound_to 10752
  141.1637  133.7422  156.9076 H   0  0  0  0  0  0  0  0  0  0  0  0  # atno 11005 bound_to 11000
  146.2070  139.5400  142.9706 LP  0  0  0  0  0  0  0  0  0  0  0  0  # atno 17320 bound_to 7965
  145.5960  141.0362  143.2044 LP  0  0  0  0  0  0  0  0  0  0  0  0  # atno 17321 bound_to 7965
  140.1957  143.4000  152.1830 LP  0  0  0  0  0  0  0  0  0  0  0  0  # atno 17342 bound_to 10162
  139.5369  144.7218  151.4863 LP  0  0  0  0  0  0  0  0  0  0  0  0  # atno 17343 bound_to 10162
  157.7261  130.9625  150.1643 LP  0  0  0  0  0  0  0  0  0  0  0  0  # atno 17370 bound_to 10713
  156.2412  130.3691  149.8335 LP  0  0  0  0  0  0  0  0  0  0  0  0  # atno 17371 bound_to 10713
  140.1539  134.9211  157.2628 LP  0  0  0  0  0  0  0  0  0  0  0  0  # atno 17394 bound_to 11000
  140.2690  134.3482  155.7380 LP  0  0  0  0  0  0  0  0  0  0  0  0  # atno 17395 bound_to 11000

$$$$
