AV-unprocessed.smi:2275|AV-procd|sdf|9170|dock2
  -GOLD-   2272012383D 1   1.00000     0.00000
 Structure written by MMmdl.
 38 39  0  0  0  0  0  0  0  0  1 V2000
  154.9668  139.9871  160.3647 C   0  0  0  0  0  0  0  0  0  0  0  0
  153.6874  140.5227  159.7466 C   0  0  0  0  0  0  0  0  0  0  0  0
  153.2574  139.8693  158.5879 N   0  0  0  0  0  0  0  0  0  0  0  0
  152.1812  140.2614  157.9883 C   0  0  0  0  0  0  0  0  0  0  0  0
  151.4181  141.3370  158.4709 N   0  0  0  0  0  0  0  0  0  0  0  0
  150.2179  141.6856  157.6926 C   0  0  0  0  0  0  0  0  0  0  0  0
  149.1050  140.6217  157.8233 C   0  0  2  0  0  0  0  0  0  0  0  0
  149.3613  139.5282  156.9647 O   0  0  0  0  0  0  0  0  0  0  0  0
  147.7075  141.1677  157.4836 C   0  0  0  0  0  0  0  0  0  0  0  0
  147.6220  141.4568  156.0930 O   0  0  0  0  0  0  0  0  0  0  0  0
  146.6644  142.3528  155.6688 C   0  0  0  0  0  0  0  0  0  0  0  0
  146.6057  142.6176  154.2847 C   0  0  0  0  0  0  0  0  0  0  0  0
  145.6585  143.5188  153.7619 C   0  0  0  0  0  0  0  0  0  0  0  0
  144.7550  144.1676  154.6237 C   0  0  0  0  0  0  0  0  0  0  0  0
  144.8027  143.9140  156.0070 C   0  0  0  0  0  0  0  0  0  0  0  0
  145.7509  143.0129  156.5297 C   0  0  0  0  0  0  0  0  0  0  0  0
  151.7574  142.0191  159.6030 C   0  0  0  0  0  0  0  0  0  0  0  0
  151.0679  142.9474  160.0295 O   0  0  0  0  0  0  0  0  0  0  0  0
  152.9898  141.5679  160.2694 C   0  0  0  0  0  0  0  0  0  0  0  0
  153.4109  142.3187  161.5265 C   0  0  0  0  0  0  0  0  0  0  0  0
  155.7365  140.7593  160.3778 H   0  0  0  0  0  0  0  0  0  0  0  0
  155.3549  139.1374  159.8015 H   0  0  0  0  0  0  0  0  0  0  0  0
  154.7876  139.6549  161.3875 H   0  0  0  0  0  0  0  0  0  0  0  0
  151.8014  139.7839  157.0833 H   0  0  0  0  0  0  0  0  0  0  0  0
  149.8413  142.6446  158.0538 H   0  0  0  0  0  0  0  0  0  0  0  0
  150.4495  141.8687  156.6411 H   0  0  0  0  0  0  0  0  0  0  0  0
  149.0699  140.2327  158.8417 H   0  0  0  0  0  0  0  0  0  0  0  0
  150.2716  139.2886  157.0451 H   0  0  0  0  0  0  0  0  0  0  0  0
  146.9370  140.4565  157.7870 H   0  0  0  0  0  0  0  0  0  0  0  0
  147.5472  142.0887  158.0463 H   0  0  0  0  0  0  0  0  0  0  0  0
  147.2949  142.1230  153.6160 H   0  0  0  0  0  0  0  0  0  0  0  0
  145.6254  143.7116  152.6998 H   0  0  0  0  0  0  0  0  0  0  0  0
  144.0275  144.8587  154.2240 H   0  0  0  0  0  0  0  0  0  0  0  0
  144.1101  144.4115  156.6701 H   0  0  0  0  0  0  0  0  0  0  0  0
  145.7568  142.8455  157.5960 H   0  0  0  0  0  0  0  0  0  0  0  0
  152.6384  142.2348  162.2914 H   0  0  0  0  0  0  0  0  0  0  0  0
  153.5530  143.3767  161.3035 H   0  0  0  0  0  0  0  0  0  0  0  0
  154.3400  141.9489  161.9567 H   0  0  0  0  0  0  0  0  0  0  0  0
  1  2  1  0  0  0  0
  1 21  1  0  0  0  0
  1 22  1  0  0  0  0
  1 23  1  0  0  0  0
  2 19  2  0  0  0  0
  2  3  1  0  0  0  0
  3  4  2  0  0  0  0
  4  5  1  0  0  0  0
  4 24  1  0  0  0  0
  5  6  1  0  0  0  0
  5 17  1  0  0  0  0
  6  7  1  0  0  0  0
  6 25  1  0  0  0  0
  6 26  1  0  0  0  0
  7  8  1  0  0  0  0
  7  9  1  0  0  0  0
  7 27  1  0  0  0  0
  8 28  1  0  0  0  0
  9 10  1  0  0  0  0
  9 29  1  0  0  0  0
  9 30  1  0  0  0  0
 10 11  1  0  0  0  0
 11 16  1  0  0  0  0
 11 12  2  0  0  0  0
 12 13  1  0  0  0  0
 12 31  1  0  0  0  0
 13 14  2  0  0  0  0
 13 32  1  0  0  0  0
 14 15  1  0  0  0  0
 14 33  1  0  0  0  0
 15 16  2  0  0  0  0
 15 34  1  0  0  0  0
 16 35  1  0  0  0  0
 17 18  2  0  0  0  0
 17 19  1  0  0  0  0
 19 20  1  0  0  0  0
 20 36  1  0  0  0  0
 20 37  1  0  0  0  0
 20 38  1  0  0  0  0
M  END
> <s_m_source_file>
AV-unprocessed.smi

> <i_m_source_file_index>
2275

> <i_lp_mmshare_version>
43012

> <i_f3d_flags>
0

> <s_epik_input>
W0NIM11jMW5bY0hdbihjKD1PKWMxW0NIM10pW0NIMl1bQ0BIXShbT0hdKVtDSDJdT2MyW2NIXVtjSF1bY0hdW2NIXVtjSF0y

> <s_epik_cmdline>
J2VwaWtfcHl0aG9uJywgJy1waCcsICc3LjAnLCAnLXRuJywgJzgnLCAnLW1hJywgJzIwMCcsICctbWV0YWxfYmluZGluZycsICctaW1hZScsICc8aW5maWxlLm1hZT4nLCAnLW9tYWUnLCAnPG91dGZpbGUubWFlPic=

> <r_lp_tautomer_probability>
1

> <r_epik_Ionization_Penalty>
4.18311e-05

> <r_epik_Ionization_Penalty_Charging>
1.04093e-07

> <r_epik_Ionization_Penalty_Neutral>
4.1727e-05

> <r_epik_State_Penalty>
-0

> <r_epik_Charging_Adjusted_Penalty>
1.04093e-07

> <i_epik_Tot_Q>
0

> <i_epik_Tot_abs_Q>
0

> <r_epik_Metal_State_Penalty>
-0

> <b_epik_Metal_Only>
0

> <s_lp_Force_Field>
OPLS_2005

> <r_lp_Energy>
24.2901

> <b_lp_Chiralities_Consistent>
1

> <s_lp_Variant>
AV-unprocessed.smi:2275-1

> <Gold.Version>
5.8.1

> <Gold.Id.Protein>
6NUR|6NUR_protein|mol2

> <Gold.PLP.Fitness>
39.9822

> <Gold.PLP.PLP>
-37.8092

> <Gold.PLP.part.hbond>
-2.0000

> <Gold.PLP.part.metal>
0.0000

> <Gold.PLP.part.buried>
-5.0706

> <Gold.PLP.part.nonpolar>
-29.7756

> <Gold.PLP.part.repulsive>
0.0999

> <Gold.PLP.ligand.clash>
0.0000

> <Gold.PLP.ligand.torsion>
0.4519

> <Gold.PLP.Chemscore.Hbond>
1.0000

> <Gold.PLP.Chemscore.CHOScore>
0.0000

> <Gold.PLP.Chemscore.Metal>
0.0000

> <Gold.Chemscore.Hbonds>
donor molecule, donor type, donor heavy atom, donor atom, acceptor molecule, acceptor atom, score
      P1  H  7997  8009       L1     3  0.81

> <Gold.PLP.Chemscore.Internal.Correction>
0.0767

> <Gold.Rescore>
     Score         DG    S(hbond)    S(metal)    S(lipo)     H(rot)  DE(clash)    DE(int)     intcor
      8.84      -9.36       0.32        0.00      76.12       2.38       0.03       0.49       ----

> <Gold.Chemscore.Fitness>
8.8437

> <Gold.Chemscore.DG>
-9.3557

> <Gold.Chemscore.ZeroCoef>
-5.4800

> <Gold.Chemscore.Hbond>
0.3202

> <Gold.Chemscore.Metal>
0.0000

> <Gold.Chemscore.Lipo>
76.1170

> <Gold.Chemscore.Internal_Hbond>
0.0000

> <Gold.Chemscore.DEClash>
0.0270

> <Gold.Chemscore.DEInternal>
0.4850

> <Gold.Chemscore.Rot>
2.3826

> <Gold.Chemscore.Internal.Correction>
   9.000000E+99

> <Gold.Chemscore.Hbonds>
donor molecule, donor type, donor heavy atom, donor atom, acceptor molecule, acceptor atom, score
      P1  H  7997  8009       L1     3  0.25

> <Gold.Chemscore.Hbond.Weighted>
-1.0696

> <Gold.Chemscore.Metal.Weighted>
-0.0000

> <Gold.Chemscore.Lipo.Weighted>
-8.9057

> <Gold.Chemscore.Internal_Hbond.Weighted>
0.0000

> <Gold.Chemscore.DEClash.Weighted>
0.0270

> <Gold.Chemscore.DEInternal.Weighted>
0.4850

> <Gold.Chemscore.Rot.Weighted>
6.0996

> <Gold.Chemscore.Internal.Correction.Weighted>
   9.000000E+99

> <Gold.Protein.RotatedTorsions>
[ 6907 6896 6895 6894 ] final    0.70 input  -60.11 | X-H torsion
[ 7974 7965 7964 7962 ] final -161.66 input  175.53 | X-H torsion
[ 8008 7997 7996 7995 ] final  134.35 input   59.86 | X-H torsion
[ 10167 10162 10161 10158 ] final -150.14 input  -65.29 | X-H torsion
[ 10718 10713 10712 10709 ] final -178.50 input   66.30 | X-H torsion
[ 10763 10752 10751 10750 ] final -153.67 input  -60.55 | X-H torsion
[ 11005 11000 10999 10996 ] final  114.51 input  -57.11 | X-H torsion

> <Gold.Protein.ActiveResidues>
 VAL166  LYS551  ARG553  GLY616  TRP617  ASP618  TYR619  PRO620  LYS621  CYS622 
 ASP623  PHE694  ASN695  SER759  ASP760  ASP761  ALA762  ILE779  LEU786  VAL792 
 PHE793  MET794  SER795  GLU796  ALA797  LYS798  CYS799  TRP800  GLU811  SER814 

> <Gold.Protein.RotatedAtoms>
  151.5807  135.1058  160.0016 H   0  0  0  0  0  0  0  0  0  0  0  0  # atno 6907 bound_to 6896
  152.4355  133.7350  159.6619 H   0  0  0  0  0  0  0  0  0  0  0  0  # atno 6908 bound_to 6896
  150.8253  133.8113  159.3144 H   0  0  0  0  0  0  0  0  0  0  0  0  # atno 6909 bound_to 6896
  144.7383  140.3366  143.6143 H   0  0  0  0  0  0  0  0  0  0  0  0  # atno 7974 bound_to 7965
  156.2998  140.2498  156.3402 H   0  0  0  0  0  0  0  0  0  0  0  0  # atno 8008 bound_to 7997
  154.9062  140.0404  157.1940 H   0  0  0  0  0  0  0  0  0  0  0  0  # atno 8009 bound_to 7997
  154.8451  140.2897  155.5638 H   0  0  0  0  0  0  0  0  0  0  0  0  # atno 8010 bound_to 7997
  139.7380  143.8705  152.2554 H   0  0  0  0  0  0  0  0  0  0  0  0  # atno 10167 bound_to 10162
  156.8451  130.9700  151.3097 H   0  0  0  0  0  0  0  0  0  0  0  0  # atno 10718 bound_to 10713
  154.7912  135.3207  154.7773 H   0  0  0  0  0  0  0  0  0  0  0  0  # atno 10763 bound_to 10752
  153.8461  135.6866  153.4801 H   0  0  0  0  0  0  0  0  0  0  0  0  # atno 10764 bound_to 10752
  153.1583  135.4671  154.9676 H   0  0  0  0  0  0  0  0  0  0  0  0  # atno 10765 bound_to 10752
  139.8983  134.9569  156.6903 H   0  0  0  0  0  0  0  0  0  0  0  0  # atno 11005 bound_to 11000
  145.7418  139.1766  143.2372 LP  0  0  0  0  0  0  0  0  0  0  0  0  # atno 17320 bound_to 7965
  146.1128  140.7406  142.9495 LP  0  0  0  0  0  0  0  0  0  0  0  0  # atno 17321 bound_to 7965
  139.8648  144.7099  150.9057 LP  0  0  0  0  0  0  0  0  0  0  0  0  # atno 17342 bound_to 10162
  140.7782  143.3787  151.1515 LP  0  0  0  0  0  0  0  0  0  0  0  0  # atno 17343 bound_to 10162
  157.6334  130.8747  149.9315 LP  0  0  0  0  0  0  0  0  0  0  0  0  # atno 17370 bound_to 10713
  156.0859  130.3668  150.0489 LP  0  0  0  0  0  0  0  0  0  0  0  0  # atno 17371 bound_to 10713
  140.7230  133.9124  155.8159 LP  0  0  0  0  0  0  0  0  0  0  0  0  # atno 17394 bound_to 11000
  141.0213  134.0885  157.4117 LP  0  0  0  0  0  0  0  0  0  0  0  0  # atno 17395 bound_to 11000

$$$$
