AV-unprocessed.smi:1780|AV-procd|sdf|7183|dock5
  -GOLD-   22720 8423D 1   1.00000     0.00000
 Structure written by MMmdl.
 43 44  0  0  0  0  0  0  0  0  1 V2000
  152.9008  142.6201  162.2179 C   0  0  0  0  0  0  0  0  0  0  0  0
  153.3157  142.0177  160.8702 C   0  0  0  0  0  0  0  0  0  0  0  0
  152.6267  142.6508  159.7625 N   0  0  0  0  0  0  0  0  0  0  0  0
  151.8025  142.0653  158.8220 C   0  0  0  0  0  0  0  0  0  0  0  0
  151.4022  143.0743  157.9985 C   0  0  0  0  0  0  0  0  0  0  0  0
  150.5429  142.9158  156.8827 N   0  0  0  0  0  0  0  0  0  0  0  0
  150.4037  141.8236  156.1143 C   0  0  0  0  0  0  0  0  0  0  0  0
  151.0535  140.7855  156.2375 O   0  0  0  0  0  0  0  0  0  0  0  0
  149.4502  141.9997  155.1877 N   0  0  0  0  0  0  0  0  0  0  0  0
  149.0293  141.0071  154.2007 C   0  0  0  0  0  0  0  0  0  0  0  0
  147.6002  140.4498  154.4613 C   0  0  2  0  0  0  0  0  0  0  0  0
  147.0798  139.7574  153.1759 C   0  0  0  0  0  0  0  0  0  0  0  0
  146.6607  141.4736  154.9778 N   0  0  0  0  0  0  0  0  0  0  0  0
  145.3798  140.9048  155.4134 C   0  0  0  0  0  0  0  0  0  0  0  0
  144.3934  141.9705  155.9216 C   0  0  0  0  0  0  0  0  0  0  0  0
  144.1749  142.9435  154.9099 O   0  0  0  0  0  0  0  0  0  0  0  0
  145.3821  143.5793  154.5148 C   0  0  0  0  0  0  0  0  0  0  0  0
  146.3763  142.5264  153.9950 C   0  0  0  0  0  0  0  0  0  0  0  0
  152.0248  144.2533  158.4978 C   0  0  0  0  0  0  0  0  0  0  0  0
  152.7632  143.9852  159.5644 N   0  0  0  0  0  0  0  0  0  0  0  0
  153.4191  142.1251  163.0391 H   0  0  0  0  0  0  0  0  0  0  0  0
  151.8291  142.5097  162.3852 H   0  0  0  0  0  0  0  0  0  0  0  0
  153.1403  143.6828  162.2669 H   0  0  0  0  0  0  0  0  0  0  0  0
  154.3911  142.1238  160.7218 H   0  0  0  0  0  0  0  0  0  0  0  0
  153.0968  140.9495  160.8530 H   0  0  0  0  0  0  0  0  0  0  0  0
  151.5793  141.0086  158.8222 H   0  0  0  0  0  0  0  0  0  0  0  0
  149.9554  143.7065  156.6626 H   0  0  0  0  0  0  0  0  0  0  0  0
  148.9713  142.8879  155.1653 H   0  0  0  0  0  0  0  0  0  0  0  0
  149.0769  141.5352  153.2503 H   0  0  0  0  0  0  0  0  0  0  0  0
  149.7453  140.1865  154.1302 H   0  0  0  0  0  0  0  0  0  0  0  0
  147.6975  139.6724  155.2209 H   0  0  0  0  0  0  0  0  0  0  0  0
  147.7769  139.0132  152.7940 H   0  0  0  0  0  0  0  0  0  0  0  0
  146.9060  140.4830  152.3805 H   0  0  0  0  0  0  0  0  0  0  0  0
  146.1544  139.2086  153.3411 H   0  0  0  0  0  0  0  0  0  0  0  0
  144.9227  140.3498  154.5928 H   0  0  0  0  0  0  0  0  0  0  0  0
  145.5286  140.2015  156.2301 H   0  0  0  0  0  0  0  0  0  0  0  0
  143.4408  141.5097  156.1832 H   0  0  0  0  0  0  0  0  0  0  0  0
  144.7749  142.4513  156.8238 H   0  0  0  0  0  0  0  0  0  0  0  0
  145.1608  144.3083  153.7352 H   0  0  0  0  0  0  0  0  0  0  0  0
  145.8062  144.1300  155.3559 H   0  0  0  0  0  0  0  0  0  0  0  0
  147.2866  143.0581  153.7256 H   0  0  0  0  0  0  0  0  0  0  0  0
  145.9847  142.0812  153.0792 H   0  0  0  0  0  0  0  0  0  0  0  0
  151.9751  145.2705  158.1393 H   0  0  0  0  0  0  0  0  0  0  0  0
  1  2  1  0  0  0  0
  1 21  1  0  0  0  0
  1 22  1  0  0  0  0
  1 23  1  0  0  0  0
  2  3  1  0  0  0  0
  2 24  1  0  0  0  0
  2 25  1  0  0  0  0
  3 20  1  0  0  0  0
  3  4  1  0  0  0  0
  4  5  2  0  0  0  0
  4 26  1  0  0  0  0
  5  6  1  0  0  0  0
  5 19  1  0  0  0  0
  6  7  1  0  0  0  0
  6 27  1  0  0  0  0
  7  8  2  0  0  0  0
  7  9  1  0  0  0  0
  9 10  1  0  0  0  0
  9 28  1  0  0  0  0
 10 11  1  0  0  0  0
 10 29  1  0  0  0  0
 10 30  1  0  0  0  0
 11 12  1  0  0  0  0
 11 13  1  0  0  0  0
 11 31  1  0  0  0  0
 12 32  1  0  0  0  0
 12 33  1  0  0  0  0
 12 34  1  0  0  0  0
 13 18  1  0  0  0  0
 13 14  1  0  0  0  0
 14 15  1  0  0  0  0
 14 35  1  0  0  0  0
 14 36  1  0  0  0  0
 15 16  1  0  0  0  0
 15 37  1  0  0  0  0
 15 38  1  0  0  0  0
 16 17  1  0  0  0  0
 17 18  1  0  0  0  0
 17 39  1  0  0  0  0
 17 40  1  0  0  0  0
 18 41  1  0  0  0  0
 18 42  1  0  0  0  0
 19 20  2  0  0  0  0
 19 43  1  0  0  0  0
M  END
> <s_m_source_file>
AV-unprocessed.smi

> <i_m_source_file_index>
1780

> <i_lp_mmshare_version>
43012

> <i_f3d_flags>
0

> <s_epik_input>
W0NIM11bQ0gyXW4xW2NIXWMoW2NIXW4xKVtOSF1DKD1PKVtOSF1bQ0gyXVtDQEhdKFtDSDNdKU4yW0NIMl1bQ0gyXU9bQ0gyXVtDSDJdMg==

> <s_epik_cmdline>
J2VwaWtfcHl0aG9uJywgJy1waCcsICc3LjAnLCAnLXRuJywgJzgnLCAnLW1hJywgJzIwMCcsICctbWV0YWxfYmluZGluZycsICctaW1hZScsICc8aW5maWxlLm1hZT4nLCAnLW9tYWUnLCAnPG91dGZpbGUubWFlPic=

> <r_lp_tautomer_probability>
1

> <r_epik_Ionization_Penalty>
0.242902

> <r_epik_Ionization_Penalty_Charging>
0

> <r_epik_Ionization_Penalty_Neutral>
0.242902

> <r_epik_State_Penalty>
0.233765

> <r_epik_Charging_Adjusted_Penalty>
0.233765

> <i_epik_Tot_Q>
0

> <i_epik_Tot_abs_Q>
0

> <r_epik_Metal_State_Penalty>
0.233759

> <b_epik_Metal_Only>
0

> <s_lp_Force_Field>
OPLS_2005

> <r_lp_Energy>
32.6304

> <b_lp_Chiralities_Consistent>
1

> <s_lp_Variant>
AV-unprocessed.smi:1780-1

> <Gold.Version>
5.8.1

> <Gold.Id.Protein>
6NUR|6NUR_protein|mol2

> <Gold.PLP.Fitness>
48.6429

> <Gold.PLP.PLP>
-43.5011

> <Gold.PLP.part.hbond>
-2.0000

> <Gold.PLP.part.metal>
0.0000

> <Gold.PLP.part.buried>
-6.9420

> <Gold.PLP.part.nonpolar>
-36.0265

> <Gold.PLP.part.repulsive>
0.5337

> <Gold.PLP.ligand.clash>
0.0000

> <Gold.PLP.ligand.torsion>
0.4481

> <Gold.PLP.Chemscore.Hbond>
2.0000

> <Gold.PLP.Chemscore.CHOScore>
0.0000

> <Gold.PLP.Chemscore.Metal>
0.0000

> <Gold.Chemscore.Hbonds>
donor molecule, donor type, donor heavy atom, donor atom, acceptor molecule, acceptor atom, score
      L1  H     6    27       P1  8028  1.00
      L1  H     9    28       P1  8028  1.00

> <Gold.PLP.Chemscore.Internal.Correction>
0.0381

> <Gold.Rescore>
     Score         DG    S(hbond)    S(metal)    S(lipo)     H(rot)  DE(clash)    DE(int)     intcor
     18.26     -18.99       1.94        0.00      95.20       1.61       0.08       0.64       ----

> <Gold.Chemscore.Fitness>
18.2629

> <Gold.Chemscore.DG>
-18.9851

> <Gold.Chemscore.ZeroCoef>
-5.4800

> <Gold.Chemscore.Hbond>
1.9438

> <Gold.Chemscore.Metal>
0.0000

> <Gold.Chemscore.Lipo>
95.2046

> <Gold.Chemscore.Internal_Hbond>
0.0000

> <Gold.Chemscore.DEClash>
0.0808

> <Gold.Chemscore.DEInternal>
0.6413

> <Gold.Chemscore.Rot>
1.6117

> <Gold.Chemscore.Internal.Correction>
   9.000000E+99

> <Gold.Chemscore.Hbonds>
donor molecule, donor type, donor heavy atom, donor atom, acceptor molecule, acceptor atom, score
      L1  H     6    27       P1  8028  0.99
      L1  H     9    28       P1  8028  0.95

> <Gold.Chemscore.Hbond.Weighted>
-6.4922

> <Gold.Chemscore.Metal.Weighted>
-0.0000

> <Gold.Chemscore.Lipo.Weighted>
-11.1389

> <Gold.Chemscore.Internal_Hbond.Weighted>
0.0000

> <Gold.Chemscore.DEClash.Weighted>
0.0808

> <Gold.Chemscore.DEInternal.Weighted>
0.6413

> <Gold.Chemscore.Rot.Weighted>
4.1260

> <Gold.Chemscore.Internal.Correction.Weighted>
   9.000000E+99

> <Gold.Protein.RotatedTorsions>
[ 6907 6896 6895 6894 ] final  106.46 input  -60.11 | X-H torsion
[ 7974 7965 7964 7962 ] final   90.65 input  175.53 | X-H torsion
[ 8008 7997 7996 7995 ] final -150.16 input   59.86 | X-H torsion
[ 10167 10162 10161 10158 ] final  -60.05 input  -65.29 | X-H torsion
[ 10718 10713 10712 10709 ] final -142.59 input   66.30 | X-H torsion
[ 10763 10752 10751 10750 ] final -119.22 input  -60.55 | X-H torsion
[ 11005 11000 10999 10996 ] final -136.46 input  -57.11 | X-H torsion

> <Gold.Protein.ActiveResidues>
 VAL166  LYS551  ARG553  GLY616  TRP617  ASP618  TYR619  PRO620  LYS621  CYS622 
 ASP623  PHE694  ASN695  SER759  ASP760  ASP761  ALA762  ILE779  LEU786  VAL792 
 PHE793  MET794  SER795  GLU796  ALA797  LYS798  CYS799  TRP800  GLU811  SER814 

> <Gold.Protein.RotatedAtoms>
  152.5192  133.9377  159.7611 H   0  0  0  0  0  0  0  0  0  0  0  0  # atno 6907 bound_to 6896
  150.9714  133.6332  159.2744 H   0  0  0  0  0  0  0  0  0  0  0  0  # atno 6908 bound_to 6896
  151.3542  135.0896  159.9466 H   0  0  0  0  0  0  0  0  0  0  0  0  # atno 6909 bound_to 6896
  145.5162  139.2278  143.2697 H   0  0  0  0  0  0  0  0  0  0  0  0  # atno 7974 bound_to 7965
  155.6192  140.0679  157.2683 H   0  0  0  0  0  0  0  0  0  0  0  0  # atno 8008 bound_to 7997
  154.4233  140.1787  156.1402 H   0  0  0  0  0  0  0  0  0  0  0  0  # atno 8009 bound_to 7997
  156.0023  140.3335  155.6861 H   0  0  0  0  0  0  0  0  0  0  0  0  # atno 8010 bound_to 7997
  140.6096  143.2383  151.5740 H   0  0  0  0  0  0  0  0  0  0  0  0  # atno 10167 bound_to 10162
  156.3477  130.7671  151.1819 H   0  0  0  0  0  0  0  0  0  0  0  0  # atno 10718 bound_to 10713
  154.8611  135.4246  154.2264 H   0  0  0  0  0  0  0  0  0  0  0  0  # atno 10763 bound_to 10752
  153.3258  135.6985  153.6996 H   0  0  0  0  0  0  0  0  0  0  0  0  # atno 10764 bound_to 10752
  153.6033  135.3533  155.2926 H   0  0  0  0  0  0  0  0  0  0  0  0  # atno 10765 bound_to 10752
  140.8803  134.1940  157.4595 H   0  0  0  0  0  0  0  0  0  0  0  0  # atno 11005 bound_to 11000
  146.2135  140.5971  142.9049 LP  0  0  0  0  0  0  0  0  0  0  0  0  # atno 17320 bound_to 7965
  144.7701  140.5618  143.6676 LP  0  0  0  0  0  0  0  0  0  0  0  0  # atno 17321 bound_to 7965
  139.5351  144.2804  152.1234 LP  0  0  0  0  0  0  0  0  0  0  0  0  # atno 17342 bound_to 10162
  140.2000  144.4667  150.6436 LP  0  0  0  0  0  0  0  0  0  0  0  0  # atno 17343 bound_to 10162
  157.7456  131.0436  150.4753 LP  0  0  0  0  0  0  0  0  0  0  0  0  # atno 17370 bound_to 10713
  156.4943  130.4102  149.6388 LP  0  0  0  0  0  0  0  0  0  0  0  0  # atno 17371 bound_to 10713
  139.8719  134.9814  156.5115 LP  0  0  0  0  0  0  0  0  0  0  0  0  # atno 17394 bound_to 11000
  140.8469  133.8162  155.9130 LP  0  0  0  0  0  0  0  0  0  0  0  0  # atno 17395 bound_to 11000

$$$$
