#       Name:                AV-unprocessed.smi:907
#       Creating user name   scv26
#       Creation time:       Fri Mar 27 02:00:38 2020


#       File generated by GOLD software.
#

@<TRIPOS>MOLECULE
AV-unprocessed.smi:907
    56    59     1
SMALL
NO_CHARGES


@<TRIPOS>ATOM
      1 ****         1.4428   0.9662  -1.6566 O.2            1 S1                 0.0000
      2 ****         0.9387  -0.0751  -1.2343 C.2            1 S1                 0.0000
      3 ****         1.6378  -1.2194  -1.1395 N.am           1 S1                 0.0000
      4 ****         3.0483  -1.3653  -1.4818 C.3            1 S1                 0.0000
      5 ****         3.2529  -1.5017  -3.0001 C.3            1 S1                 0.0000
      6 ****         4.7199  -1.5693  -3.3764 C.ar           1 S1                 0.0000
      7 ****         5.4233  -0.4377  -3.8431 C.ar           1 S1                 0.0000
      8 ****         6.7896  -0.5619  -4.1703 C.ar           1 S1                 0.0000
      9 ****         7.4232  -1.8133  -4.0229 C.ar           1 S1                 0.0000
     10 ****         6.6737  -2.9097  -3.5495 C.ar           1 S1                 0.0000
     11 ****         5.3663  -2.7507  -3.2463 N.pl3          1 S1                 1.0000
     12 ****        -0.3703  -0.1793  -0.8954 N.am           1 S1                 0.0000
     13 ****        -0.9660  -1.2299  -0.0597 C.3            1 S1                 0.0000
     14 ****        -1.2674  -0.6483   1.3344 C.3            1 S1                 0.0000
     15 ****        -2.1397   0.5592   1.2552 N.4            1 S1                 1.0000
     16 ****        -2.4422   1.1359   2.5968 C.3            1 S1                 0.0000
     17 ****        -3.2078   0.1810   3.5457 C.3            1 S1                 0.0000
     18 ****        -4.3714   1.0526   4.0553 C.3            1 S1                 0.0000
     19 ****        -5.4222   1.1749   2.9389 C.3            1 S1                 0.0000
     20 ****        -4.7189   2.0868   1.9181 C.3            1 S1                 0.0000
     21 ****        -3.3615   2.3832   2.5932 C.3            1 S1                 0.0000
     22 ****        -3.7623   2.4497   4.0630 C.3            1 S1                 0.0000
     23 ****        -1.6167   1.5658   0.2872 C.3            1 S1                 0.0000
     24 ****        -1.3084   0.9300  -1.0800 C.3            1 S1                 0.0000
     25 ****         1.1578  -2.0445  -0.8100 H              1 S1                 0.0000
     26 ****         3.6100  -0.5121  -1.0973 H              1 S1                 0.0000
     27 ****         3.4363  -2.2468  -0.9706 H              1 S1                 0.0000
     28 ****         2.7477  -2.3958  -3.3684 H              1 S1                 0.0000
     29 ****         2.7994  -0.6577  -3.5218 H              1 S1                 0.0000
     30 ****         4.9240   0.5149  -3.9473 H              1 S1                 0.0000
     31 ****         7.3445   0.2928  -4.5287 H              1 S1                 0.0000
     32 ****         8.4690  -1.9293  -4.2681 H              1 S1                 0.0000
     33 ****         7.0774  -3.9012  -3.4052 H              1 S1                 0.0000
     34 ****        -1.8899  -1.5751  -0.5263 H              1 S1                 0.0000
     35 ****        -0.3426  -2.1180   0.0434 H              1 S1                 0.0000
     36 ****        -1.7358  -1.4206   1.9432 H              1 S1                 0.0000
     37 ****        -0.3319  -0.3836   1.8302 H              1 S1                 0.0000
     38 ****        -1.4942   1.4121   3.0629 H              1 S1                 0.0000
     39 ****        -3.5828  -0.7171   3.0538 H              1 S1                 0.0000
     40 ****        -2.5646  -0.1356   4.3679 H              1 S1                 0.0000
     41 ****        -4.7842   0.7221   5.0089 H              1 S1                 0.0000
     42 ****        -5.6973   0.2079   2.5159 H              1 S1                 0.0000
     43 ****        -6.3324   1.6465   3.3118 H              1 S1                 0.0000
     44 ****        -4.6159   1.6141   0.9413 H              1 S1                 0.0000
     45 ****        -5.2872   3.0074   1.7789 H              1 S1                 0.0000
     46 ****        -2.8771   3.2889   2.2270 H              1 S1                 0.0000
     47 ****        -4.4870   3.2368   4.2796 H              1 S1                 0.0000
     48 ****        -2.9140   2.5487   4.7429 H              1 S1                 0.0000
     49 ****        -2.3411   2.3659   0.1390 H              1 S1                 0.0000
     50 ****        -0.7144   2.0252   0.6946 H              1 S1                 0.0000
     51 ****        -0.9329   1.6881  -1.7689 H              1 S1                 0.0000
     52 ****        -2.2264   0.5523  -1.5330 H              1 S1                 0.0000
     53 ****        -3.0219   0.2458   0.8765 H              1 S1                 0.0000
     54 ****         4.8440  -3.5578  -2.9052 H              1 S1                 0.0000
     55 ****         2.4011   0.9779  -1.9421 LP             1 S1                 0.0000
     56 ****         0.8938   1.8001  -1.7140 LP             1 S1                 0.0000
@<TRIPOS>BOND
    1    1    2 2     
    2    2    3 am    
    3    2   12 am    
    4    3    4 1     
    5    3   25 1     
    6    4    5 1     
    7    4   26 1     
    8    4   27 1     
    9    5    6 1     
   10    5   28 1     
   11    5   29 1     
   12    6   11 ar    
   13    6    7 ar    
   14    7    8 ar    
   15    7   30 1     
   16    8    9 ar    
   17    8   31 1     
   18    9   10 ar    
   19    9   32 1     
   20   10   11 ar    
   21   10   33 1     
   22   11   54 1     
   23   12   24 1     
   24   12   13 1     
   25   13   14 1     
   26   13   34 1     
   27   13   35 1     
   28   14   15 1     
   29   14   36 1     
   30   14   37 1     
   31   15   16 1     
   32   15   23 1     
   33   15   53 1     
   34   16   21 1     
   35   16   17 1     
   36   16   38 1     
   37   17   18 1     
   38   17   39 1     
   39   17   40 1     
   40   18   22 1     
   41   18   19 1     
   42   18   41 1     
   43   19   20 1     
   44   19   42 1     
   45   19   43 1     
   46   20   21 1     
   47   20   44 1     
   48   20   45 1     
   49   21   22 1     
   50   21   46 1     
   51   22   47 1     
   52   22   48 1     
   53   23   24 1     
   54   23   49 1     
   55   23   50 1     
   56   24   51 1     
   57   24   52 1     
   58    1   55 1     
   59    1   56 1     
@<TRIPOS>SUBSTRUCTURE
      1 S1             1
@<TRIPOS>SET
LONE_PAIRS      STATIC     ATOMS    <user>   **** ""
2 55 56
DONOR_HYDROGENS      STATIC     ATOMS    <user>   **** ""
3 25 54 53
ATOM$BLUE        STATIC     ATOMS    COLORGROUP SYSTEM
2 55 56
ATOM$RED        STATIC     ATOMS    COLORGROUP SYSTEM
3 25 54 53
