AV-unprocessed.smi:211|AV-procd|sdf|1615|dock5
  -GOLD-   2262019543D 1   1.00000     0.00000
 Structure written by MMmdl.
 59 62  0  0  0  0  0  0  0  0  1 V2000
  153.2829  141.9462  161.5876 C   0  0  0  0  0  0  0  0  0  0  0  0
  153.0845  142.2393  160.1045 C   0  0  0  0  0  0  0  0  0  0  0  0
  153.6893  141.5813  159.2586 O   0  0  0  0  0  0  0  0  0  0  0  0
  152.2320  143.2319  159.8074 N   0  0  0  0  0  0  0  0  0  0  0  0
  151.8791  143.6801  158.4608 C   0  0  2  0  0  0  0  0  0  0  0  0
  150.9616  144.9120  158.5781 C   0  0  0  0  0  0  0  0  0  0  0  0
  151.2450  142.5119  157.6596 C   0  0  0  0  0  0  0  0  0  0  0  0
  150.8806  142.9226  156.2126 C   0  0  0  0  0  0  0  0  0  0  0  0
  150.2361  141.7654  155.4337 C   0  0  0  0  0  0  0  0  0  0  0  0
  149.0748  141.2387  156.1461 N   0  0  0  0  0  0  0  0  0  0  0  0
  148.2632  140.4550  155.3907 C   0  0  0  0  0  0  0  0  0  0  0  0
  148.5968  140.1740  154.1022 N   0  0  0  0  0  0  0  0  0  0  0  0
  147.7932  139.4219  153.3447 C   0  0  0  0  0  0  0  0  0  0  0  0
  146.6309  138.8542  153.6705 N   0  0  0  0  0  0  0  0  0  0  0  0
  146.2960  139.1199  154.9654 C   0  0  0  0  0  0  0  0  0  0  0  0
  147.0455  139.9070  155.8851 C   0  0  0  0  0  0  0  0  0  0  0  0
  146.3866  139.9589  157.1080 N   0  0  0  0  0  0  0  0  0  0  0  0
  145.3025  139.2580  156.9166 C   0  0  0  0  0  0  0  0  0  0  0  0
  145.1810  138.6944  155.6664 N   0  0  0  0  0  0  0  0  0  0  0  0
  144.0802  137.9177  155.1768 C   0  0  0  0  0  0  0  0  0  0  0  0
  143.3329  138.3112  153.8995 C   0  0  0  0  0  0  0  0  0  0  0  0
  142.0301  137.7284  154.4936 C   0  0  0  0  0  0  0  0  0  0  0  0
  140.7704  138.5645  154.2070 C   0  0  0  0  0  0  0  0  0  0  0  0
  141.0563  139.9464  154.1385 O   0  0  0  0  0  0  0  0  0  0  0  0
  141.7671  136.2588  154.1012 C   0  0  0  0  0  0  0  0  0  0  0  0
  140.6508  135.7158  154.7754 O   0  0  0  0  0  0  0  0  0  0  0  0
  142.7126  137.9647  155.8607 C   0  0  0  0  0  0  0  0  0  0  0  0
  149.3478  140.8082  157.5169 C   0  0  0  0  0  0  0  0  0  0  0  0
  149.9772  141.9454  158.3382 C   0  0  0  0  0  0  0  0  0  0  0  0
  153.5431  142.8577  162.1270 H   0  0  0  0  0  0  0  0  0  0  0  0
  154.0846  141.2221  161.7362 H   0  0  0  0  0  0  0  0  0  0  0  0
  152.3685  141.5375  162.0185 H   0  0  0  0  0  0  0  0  0  0  0  0
  151.7857  143.7133  160.5748 H   0  0  0  0  0  0  0  0  0  0  0  0
  152.7897  143.9836  157.9406 H   0  0  0  0  0  0  0  0  0  0  0  0
  150.7662  145.3674  157.6082 H   0  0  0  0  0  0  0  0  0  0  0  0
  151.4179  145.6842  159.1985 H   0  0  0  0  0  0  0  0  0  0  0  0
  150.0028  144.6514  159.0277 H   0  0  0  0  0  0  0  0  0  0  0  0
  151.9796  141.7069  157.6012 H   0  0  0  0  0  0  0  0  0  0  0  0
  150.1943  143.7704  156.2334 H   0  0  0  0  0  0  0  0  0  0  0  0
  151.7636  143.2556  155.6672 H   0  0  0  0  0  0  0  0  0  0  0  0
  149.9684  142.1119  154.4361 H   0  0  0  0  0  0  0  0  0  0  0  0
  150.9593  140.9600  155.2994 H   0  0  0  0  0  0  0  0  0  0  0  0
  148.1293  139.2507  152.3326 H   0  0  0  0  0  0  0  0  0  0  0  0
  144.5606  139.1282  157.6910 H   0  0  0  0  0  0  0  0  0  0  0  0
  144.4427  136.8903  155.1133 H   0  0  0  0  0  0  0  0  0  0  0  0
  143.2944  139.3932  153.7586 H   0  0  0  0  0  0  0  0  0  0  0  0
  143.6903  137.8150  152.9967 H   0  0  0  0  0  0  0  0  0  0  0  0
  140.3252  138.2786  153.2537 H   0  0  0  0  0  0  0  0  0  0  0  0
  140.0033  138.3990  154.9641 H   0  0  0  0  0  0  0  0  0  0  0  0
  140.6216  140.3062  153.3809 H   0  0  0  0  0  0  0  0  0  0  0  0
  141.6075  136.1613  153.0270 H   0  0  0  0  0  0  0  0  0  0  0  0
  142.6258  135.6290  154.3349 H   0  0  0  0  0  0  0  0  0  0  0  0
  139.8997  136.2626  154.6034 H   0  0  0  0  0  0  0  0  0  0  0  0
  142.5531  137.1804  156.6015 H   0  0  0  0  0  0  0  0  0  0  0  0
  142.4900  138.9471  156.2815 H   0  0  0  0  0  0  0  0  0  0  0  0
  148.4232  140.4855  157.9975 H   0  0  0  0  0  0  0  0  0  0  0  0
  150.0195  139.9487  157.4986 H   0  0  0  0  0  0  0  0  0  0  0  0
  150.2068  141.5624  159.3318 H   0  0  0  0  0  0  0  0  0  0  0  0
  149.2456  142.7431  158.4741 H   0  0  0  0  0  0  0  0  0  0  0  0
  1  2  1  0  0  0  0
  1 30  1  0  0  0  0
  1 31  1  0  0  0  0
  1 32  1  0  0  0  0
  2  3  2  0  0  0  0
  2  4  1  0  0  0  0
  4  5  1  0  0  0  0
  4 33  1  0  0  0  0
  5  6  1  0  0  0  0
  5  7  1  0  0  0  0
  5 34  1  0  0  0  0
  6 35  1  0  0  0  0
  6 36  1  0  0  0  0
  6 37  1  0  0  0  0
  7 29  1  0  0  0  0
  7  8  1  0  0  0  0
  7 38  1  0  0  0  0
  8  9  1  0  0  0  0
  8 39  1  0  0  0  0
  8 40  1  0  0  0  0
  9 10  1  0  0  0  0
  9 41  1  0  0  0  0
  9 42  1  0  0  0  0
 10 11  1  0  0  0  0
 10 28  1  0  0  0  0
 11 16  1  0  0  0  0
 11 12  2  0  0  0  0
 12 13  1  0  0  0  0
 13 14  2  0  0  0  0
 13 43  1  0  0  0  0
 14 15  1  0  0  0  0
 15 19  1  0  0  0  0
 15 16  2  0  0  0  0
 16 17  1  0  0  0  0
 17 18  2  0  0  0  0
 18 19  1  0  0  0  0
 18 44  1  0  0  0  0
 19 20  1  0  0  0  0
 20 27  1  0  0  0  0
 20 21  1  0  0  0  0
 20 45  1  0  0  0  0
 21 22  1  0  0  0  0
 21 46  1  0  0  0  0
 21 47  1  0  0  0  0
 22 23  1  0  0  0  0
 22 25  1  0  0  0  0
 22 27  1  0  0  0  0
 23 24  1  0  0  0  0
 23 48  1  0  0  0  0
 23 49  1  0  0  0  0
 24 50  1  0  0  0  0
 25 26  1  0  0  0  0
 25 51  1  0  0  0  0
 25 52  1  0  0  0  0
 26 53  1  0  0  0  0
 27 54  1  0  0  0  0
 27 55  1  0  0  0  0
 28 29  1  0  0  0  0
 28 56  1  0  0  0  0
 28 57  1  0  0  0  0
 29 58  1  0  0  0  0
 29 59  1  0  0  0  0
M  END
> <s_m_source_file>
AV-unprocessed.smi

> <i_m_source_file_index>
211

> <i_lp_mmshare_version>
43012

> <i_f3d_flags>
0

> <s_epik_input>
W0NIM11DKD1PKVtOSF1bQ0BIXShbQ0gzXSlbQ0hdMVtDSDJdW0NIMl1OKFtDSDJdW0NIMl0xKWMobltjSF1uMiljKGMyMyluW2NIXW4zW0NIXShbQ0gyXTQpW0NIMl1DNChbQ0gyXVtPSF0pW0NIMl1bT0hd

> <s_epik_cmdline>
J2VwaWtfcHl0aG9uJywgJy1waCcsICc3LjAnLCAnLXRuJywgJzgnLCAnLW1hJywgJzIwMCcsICctbWV0YWxfYmluZGluZycsICctaW1hZScsICc8aW5maWxlLm1hZT4nLCAnLW9tYWUnLCAnPG91dGZpbGUubWFlPic=

> <r_lp_tautomer_probability>
1

> <r_epik_Ionization_Penalty>
0.00335435

> <r_epik_Ionization_Penalty_Charging>
0

> <r_epik_Ionization_Penalty_Neutral>
0.00335435

> <r_epik_State_Penalty>
0.00231338

> <r_epik_Charging_Adjusted_Penalty>
0.00231338

> <i_epik_Tot_Q>
0

> <i_epik_Tot_abs_Q>
0

> <r_epik_Metal_State_Penalty>
-0

> <b_epik_Metal_Only>
0

> <s_lp_Force_Field>
OPLS_2005

> <r_lp_Energy>
41.9303

> <b_lp_Chiralities_Consistent>
1

> <s_lp_Variant>
AV-unprocessed.smi:211-1

> <Gold.Version>
5.8.1

> <Gold.Id.Protein>
6NUR|6NUR_protein|mol2

> <Gold.PLP.Fitness>
43.5962

> <Gold.PLP.PLP>
-33.2271

> <Gold.PLP.part.hbond>
-3.7859

> <Gold.PLP.part.metal>
0.0000

> <Gold.PLP.part.buried>
-0.1284

> <Gold.PLP.part.nonpolar>
-27.8716

> <Gold.PLP.part.repulsive>
0.4247

> <Gold.PLP.ligand.clash>
0.0000

> <Gold.PLP.ligand.torsion>
0.8943

> <Gold.PLP.Chemscore.Hbond>
1.8640

> <Gold.PLP.Chemscore.CHOScore>
1.8866

> <Gold.PLP.Chemscore.Metal>
0.0000

> <Gold.Chemscore.Hbonds>
donor molecule, donor type, donor heavy atom, donor atom, acceptor molecule, acceptor atom, score
      P1  H 11000 11005       L1    26  0.82
      L1  C    13    43       P1  7957  0.99

> <Gold.PLP.Chemscore.Internal.Correction>
0.9059

> <Gold.Rescore>
     Score         DG    S(hbond)    S(metal)    S(lipo)     H(rot)  DE(clash)    DE(int)     intcor
      8.50     -11.00       1.79        0.00      81.67       3.92       1.56       0.94       ----

> <Gold.Chemscore.Fitness>
8.5044

> <Gold.Chemscore.DG>
-10.9986

> <Gold.Chemscore.ZeroCoef>
-5.4800

> <Gold.Chemscore.Hbond>
1.7926

> <Gold.Chemscore.Metal>
0.0000

> <Gold.Chemscore.Lipo>
81.6655

> <Gold.Chemscore.Internal_Hbond>
0.0000

> <Gold.Chemscore.DEClash>
1.5570

> <Gold.Chemscore.DEInternal>
0.9372

> <Gold.Chemscore.Rot>
3.9155

> <Gold.Chemscore.Internal.Correction>
   9.000000E+99

> <Gold.Chemscore.Hbonds>
donor molecule, donor type, donor heavy atom, donor atom, acceptor molecule, acceptor atom, score
      L1  H    24    50       P1 10160  0.01
      P1  H 11000 11005       L1    26  0.56

> <Gold.Chemscore.Hbond.Weighted>
-5.9873

> <Gold.Chemscore.Metal.Weighted>
-0.0000

> <Gold.Chemscore.Lipo.Weighted>
-9.5549

> <Gold.Chemscore.Internal_Hbond.Weighted>
0.0000

> <Gold.Chemscore.DEClash.Weighted>
1.5570

> <Gold.Chemscore.DEInternal.Weighted>
0.9372

> <Gold.Chemscore.Rot.Weighted>
10.0236

> <Gold.Chemscore.Internal.Correction.Weighted>
   9.000000E+99

> <Gold.Protein.RotatedTorsions>
[ 6907 6896 6895 6894 ] final -128.68 input  -60.11 | X-H torsion
[ 7974 7965 7964 7962 ] final   70.80 input  175.53 | X-H torsion
[ 8008 7997 7996 7995 ] final  -49.34 input   59.86 | X-H torsion
[ 10167 10162 10161 10158 ] final  -74.82 input  -65.29 | X-H torsion
[ 10718 10713 10712 10709 ] final   -2.60 input   66.30 | X-H torsion
[ 10763 10752 10751 10750 ] final  170.19 input  -60.55 | X-H torsion
[ 11005 11000 10999 10996 ] final   42.41 input  -57.11 | X-H torsion

> <Gold.Protein.ActiveResidues>
 VAL166  LYS551  ARG553  GLY616  TRP617  ASP618  TYR619  PRO620  LYS621  CYS622 
 ASP623  PHE694  ASN695  SER759  ASP760  ASP761  ALA762  ILE779  LEU786  VAL792 
 PHE793  MET794  SER795  GLU796  ALA797  LYS798  CYS799  TRP800  GLU811  SER814 

> <Gold.Protein.RotatedAtoms>
  150.9205  133.6887  159.2833 H   0  0  0  0  0  0  0  0  0  0  0  0  # atno 6907 bound_to 6896
  151.4343  135.1012  159.9661 H   0  0  0  0  0  0  0  0  0  0  0  0  # atno 6908 bound_to 6896
  152.4977  133.8627  159.7313 H   0  0  0  0  0  0  0  0  0  0  0  0  # atno 6909 bound_to 6896
  145.7737  139.2855  143.1306 H   0  0  0  0  0  0  0  0  0  0  0  0  # atno 7974 bound_to 7965
  154.4042  140.1299  156.4487 H   0  0  0  0  0  0  0  0  0  0  0  0  # atno 8008 bound_to 7997
  155.7388  140.3490  155.5074 H   0  0  0  0  0  0  0  0  0  0  0  0  # atno 8009 bound_to 7997
  155.9059  140.1027  157.1306 H   0  0  0  0  0  0  0  0  0  0  0  0  # atno 8010 bound_to 7997
  140.4995  143.2364  151.7776 H   0  0  0  0  0  0  0  0  0  0  0  0  # atno 10167 bound_to 10162
  156.7884  130.5353  149.5739 H   0  0  0  0  0  0  0  0  0  0  0  0  # atno 10718 bound_to 10713
  154.3940  135.2754  155.2137 H   0  0  0  0  0  0  0  0  0  0  0  0  # atno 10763 bound_to 10752
  154.4191  135.6004  153.6002 H   0  0  0  0  0  0  0  0  0  0  0  0  # atno 10764 bound_to 10752
  152.9831  135.5968  154.4199 H   0  0  0  0  0  0  0  0  0  0  0  0  # atno 10765 bound_to 10752
  140.1742  134.4184  155.8239 H   0  0  0  0  0  0  0  0  0  0  0  0  # atno 11005 bound_to 11000
  146.0144  140.8406  142.9954 LP  0  0  0  0  0  0  0  0  0  0  0  0  # atno 17320 bound_to 7965
  144.6808  140.2537  143.7328 LP  0  0  0  0  0  0  0  0  0  0  0  0  # atno 17321 bound_to 7965
  139.4869  144.4541  151.9619 LP  0  0  0  0  0  0  0  0  0  0  0  0  # atno 17342 bound_to 10162
  140.3630  144.2949  150.5930 LP  0  0  0  0  0  0  0  0  0  0  0  0  # atno 17343 bound_to 10162
  156.1174  130.6085  151.0141 LP  0  0  0  0  0  0  0  0  0  0  0  0  # atno 17370 bound_to 10713
  157.6612  131.0880  150.7833 LP  0  0  0  0  0  0  0  0  0  0  0  0  # atno 17371 bound_to 10713
  141.2219  133.6970  156.7817 LP  0  0  0  0  0  0  0  0  0  0  0  0  # atno 17394 bound_to 11000
  140.2342  134.8662  157.3508 LP  0  0  0  0  0  0  0  0  0  0  0  0  # atno 17395 bound_to 11000

$$$$
