AV-unprocessed.smi:1677|AV-procd|sdf|6727|dock2
  -GOLD-   22720 7473D 1   1.00000     0.00000
 Structure written by MMmdl.
 36 37  0  0  0  0  0  0  0  0  1 V2000
  155.7617  138.3360  160.6842 C   0  0  0  0  0  0  0  0  0  0  0  0
  156.5414  139.6478  160.4961 C   0  0  1  0  0  0  0  0  0  0  0  0
  157.2986  139.7201  159.1525 C   0  0  0  0  0  0  0  0  0  0  0  0
  158.3687  140.6995  159.1632 N   0  0  0  0  0  0  0  0  0  0  0  0
  159.3948  140.8059  160.0927 C   0  0  0  0  0  0  0  0  0  0  0  0
  160.1677  141.8769  159.7043 C   0  0  0  0  0  0  0  0  0  0  0  0
  159.6374  142.4425  158.5470 N   0  0  0  0  0  0  0  0  0  0  0  0
  158.5725  141.6944  158.2885 C   0  0  0  0  0  0  0  0  0  0  0  0
  155.6170  140.7716  160.6113 N   0  0  0  0  0  0  0  0  0  0  0  0
  154.4712  140.9118  159.9261 C   0  0  0  0  0  0  0  0  0  0  0  0
  154.0618  140.0791  159.1164 O   0  0  0  0  0  0  0  0  0  0  0  0
  153.6628  142.1863  160.2023 C   0  0  1  0  0  0  0  0  0  0  0  0
  152.5153  142.3504  159.1799 C   0  0  0  0  0  0  0  0  0  0  0  0
  151.5567  143.4615  159.5704 C   0  0  0  0  0  0  0  0  0  0  0  0
  151.5053  143.9937  160.8036 C   0  0  0  0  0  0  0  0  0  0  0  0
  152.3952  143.5400  161.9476 C   0  0  0  0  0  0  0  0  0  0  0  0
  153.1074  142.2083  161.6409 C   0  0  0  0  0  0  0  0  0  0  0  0
  156.4271  137.4727  160.6957 H   0  0  0  0  0  0  0  0  0  0  0  0
  155.0360  138.1873  159.8839 H   0  0  0  0  0  0  0  0  0  0  0  0
  155.2188  138.3360  161.6300 H   0  0  0  0  0  0  0  0  0  0  0  0
  157.2690  139.7107  161.3077 H   0  0  0  0  0  0  0  0  0  0  0  0
  157.7220  138.7461  158.9025 H   0  0  0  0  0  0  0  0  0  0  0  0
  156.6147  139.9794  158.3430 H   0  0  0  0  0  0  0  0  0  0  0  0
  159.4875  140.1284  160.9290 H   0  0  0  0  0  0  0  0  0  0  0  0
  161.0569  142.2808  160.1655 H   0  0  0  0  0  0  0  0  0  0  0  0
  157.9286  141.8709  157.4393 H   0  0  0  0  0  0  0  0  0  0  0  0
  155.8717  141.5040  161.2579 H   0  0  0  0  0  0  0  0  0  0  0  0
  154.3327  143.0421  160.0978 H   0  0  0  0  0  0  0  0  0  0  0  0
  152.9277  142.5772  158.1960 H   0  0  0  0  0  0  0  0  0  0  0  0
  151.9392  141.4295  159.0782 H   0  0  0  0  0  0  0  0  0  0  0  0
  150.8843  143.8172  158.8035 H   0  0  0  0  0  0  0  0  0  0  0  0
  150.8098  144.7927  161.0148 H   0  0  0  0  0  0  0  0  0  0  0  0
  153.1281  144.3251  162.1362 H   0  0  0  0  0  0  0  0  0  0  0  0
  151.7956  143.4406  162.8527 H   0  0  0  0  0  0  0  0  0  0  0  0
  152.3982  141.3888  161.7701 H   0  0  0  0  0  0  0  0  0  0  0  0
  153.9040  142.0422  162.3674 H   0  0  0  0  0  0  0  0  0  0  0  0
  1  2  1  0  0  0  0
  1 18  1  0  0  0  0
  1 19  1  0  0  0  0
  1 20  1  0  0  0  0
  2  3  1  0  0  0  0
  2  9  1  0  0  0  0
  2 21  1  0  0  0  0
  3  4  1  0  0  0  0
  3 22  1  0  0  0  0
  3 23  1  0  0  0  0
  4  8  1  0  0  0  0
  4  5  1  0  0  0  0
  5  6  2  0  0  0  0
  5 24  1  0  0  0  0
  6  7  1  0  0  0  0
  6 25  1  0  0  0  0
  7  8  2  0  0  0  0
  8 26  1  0  0  0  0
  9 10  1  0  0  0  0
  9 27  1  0  0  0  0
 10 11  2  0  0  0  0
 10 12  1  0  0  0  0
 12 17  1  0  0  0  0
 12 13  1  0  0  0  0
 12 28  1  0  0  0  0
 13 14  1  0  0  0  0
 13 29  1  0  0  0  0
 13 30  1  0  0  0  0
 14 15  2  0  0  0  0
 14 31  1  0  0  0  0
 15 16  1  0  0  0  0
 15 32  1  0  0  0  0
 16 17  1  0  0  0  0
 16 33  1  0  0  0  0
 16 34  1  0  0  0  0
 17 35  1  0  0  0  0
 17 36  1  0  0  0  0
M  END
> <s_m_source_file>
AV-unprocessed.smi

> <i_m_source_file_index>
1677

> <i_lp_mmshare_version>
43012

> <i_f3d_flags>
0

> <s_epik_input>
W2NIXTFuW2NIXVtjSF1uMVtDSDJdW0NAQEhdKFtDSDNdKVtOSF1DKD1PKVtDQEBIXTJbQ0gyXVtDSF09W0NIXVtDSDJdW0NIMl0y

> <s_epik_cmdline>
J2VwaWtfcHl0aG9uJywgJy1waCcsICc3LjAnLCAnLXRuJywgJzgnLCAnLW1hJywgJzIwMCcsICctbWV0YWxfYmluZGluZycsICctaW1hZScsICc8aW5maWxlLm1hZT4nLCAnLW9tYWUnLCAnPG91dGZpbGUubWFlPic=

> <r_lp_tautomer_probability>
1

> <r_epik_Ionization_Penalty>
0.640435

> <r_epik_Ionization_Penalty_Charging>
0.640435

> <r_epik_Ionization_Penalty_Neutral>
2.11108e-08

> <r_epik_State_Penalty>
0.658069

> <r_epik_Charging_Adjusted_Penalty>
1.2985

> <i_epik_Tot_Q>
0

> <i_epik_Tot_abs_Q>
0

> <r_epik_Metal_State_Penalty>
0.311689

> <b_epik_Metal_Only>
0

> <s_lp_Force_Field>
OPLS_2005

> <r_lp_Energy>
10.2331

> <b_lp_Chiralities_Consistent>
1

> <s_lp_Variant>
AV-unprocessed.smi:1677-8

> <Gold.Version>
5.8.1

> <Gold.Id.Protein>
6NUR|6NUR_protein|mol2

> <Gold.PLP.Fitness>
42.8208

> <Gold.PLP.PLP>
-40.8704

> <Gold.PLP.part.hbond>
-4.0000

> <Gold.PLP.part.metal>
0.0000

> <Gold.PLP.part.buried>
-3.3025

> <Gold.PLP.part.nonpolar>
-33.6592

> <Gold.PLP.part.repulsive>
0.1371

> <Gold.PLP.ligand.clash>
0.0000

> <Gold.PLP.ligand.torsion>
0.4637

> <Gold.PLP.Chemscore.Hbond>
0.9440

> <Gold.PLP.Chemscore.CHOScore>
0.0000

> <Gold.PLP.Chemscore.Metal>
0.0000

> <Gold.Chemscore.Hbonds>
donor molecule, donor type, donor heavy atom, donor atom, acceptor molecule, acceptor atom, score
      P1  H  7997  8009       L1    11  0.87

> <Gold.PLP.Chemscore.Internal.Correction>
0.0458

> <Gold.Rescore>
     Score         DG    S(hbond)    S(metal)    S(lipo)     H(rot)  DE(clash)    DE(int)     intcor
     11.87     -15.03       0.82        0.00      96.42       1.75       1.46       1.70       ----

> <Gold.Chemscore.Fitness>
11.8689

> <Gold.Chemscore.DG>
-15.0294

> <Gold.Chemscore.ZeroCoef>
-5.4800

> <Gold.Chemscore.Hbond>
0.8211

> <Gold.Chemscore.Metal>
0.0000

> <Gold.Chemscore.Lipo>
96.4155

> <Gold.Chemscore.Internal_Hbond>
0.0000

> <Gold.Chemscore.DEClash>
1.4582

> <Gold.Chemscore.DEInternal>
1.7023

> <Gold.Chemscore.Rot>
1.7475

> <Gold.Chemscore.Internal.Correction>
   9.000000E+99

> <Gold.Chemscore.Hbonds>
donor molecule, donor type, donor heavy atom, donor atom, acceptor molecule, acceptor atom, score
      P1  H  7997  8009       L1    11  0.74

> <Gold.Chemscore.Hbond.Weighted>
-2.7424

> <Gold.Chemscore.Metal.Weighted>
-0.0000

> <Gold.Chemscore.Lipo.Weighted>
-11.2806

> <Gold.Chemscore.Internal_Hbond.Weighted>
0.0000

> <Gold.Chemscore.DEClash.Weighted>
1.4582

> <Gold.Chemscore.DEInternal.Weighted>
1.7023

> <Gold.Chemscore.Rot.Weighted>
4.4735

> <Gold.Chemscore.Internal.Correction.Weighted>
   9.000000E+99

> <Gold.Protein.RotatedTorsions>
[ 6907 6896 6895 6894 ] final -103.82 input  -60.11 | X-H torsion
[ 7974 7965 7964 7962 ] final  -34.34 input  175.53 | X-H torsion
[ 8008 7997 7996 7995 ] final  120.73 input   59.86 | X-H torsion
[ 10167 10162 10161 10158 ] final  -28.14 input  -65.29 | X-H torsion
[ 10718 10713 10712 10709 ] final -166.23 input   66.30 | X-H torsion
[ 10763 10752 10751 10750 ] final  175.26 input  -60.55 | X-H torsion
[ 11005 11000 10999 10996 ] final  -89.05 input  -57.11 | X-H torsion

> <Gold.Protein.ActiveResidues>
 VAL166  LYS551  ARG553  GLY616  TRP617  ASP618  TYR619  PRO620  LYS621  CYS622 
 ASP623  PHE694  ASN695  SER759  ASP760  ASP761  ALA762  ILE779  LEU786  VAL792 
 PHE793  MET794  SER795  GLU796  ALA797  LYS798  CYS799  TRP800  GLU811  SER814 

> <Gold.Protein.RotatedAtoms>
  150.7258  134.0371  159.3752 H   0  0  0  0  0  0  0  0  0  0  0  0  # atno 6907 bound_to 6896
  151.8343  135.0609  160.0450 H   0  0  0  0  0  0  0  0  0  0  0  0  # atno 6908 bound_to 6896
  152.2910  133.5525  159.5594 H   0  0  0  0  0  0  0  0  0  0  0  0  # atno 6909 bound_to 6896
  146.0837  140.6027  142.8896 H   0  0  0  0  0  0  0  0  0  0  0  0  # atno 7974 bound_to 7965
  156.2656  140.2824  156.1196 H   0  0  0  0  0  0  0  0  0  0  0  0  # atno 8008 bound_to 7997
  155.1169  140.0391  157.2757 H   0  0  0  0  0  0  0  0  0  0  0  0  # atno 8009 bound_to 7997
  154.6700  140.2585  155.7024 H   0  0  0  0  0  0  0  0  0  0  0  0  # atno 8010 bound_to 7997
  140.7272  143.4034  151.1225 H   0  0  0  0  0  0  0  0  0  0  0  0  # atno 10167 bound_to 10162
  156.6648  130.9060  151.3035 H   0  0  0  0  0  0  0  0  0  0  0  0  # atno 10718 bound_to 10713
  154.4651  135.2769  155.1684 H   0  0  0  0  0  0  0  0  0  0  0  0  # atno 10763 bound_to 10752
  154.3456  135.6161  153.5621 H   0  0  0  0  0  0  0  0  0  0  0  0  # atno 10764 bound_to 10752
  152.9858  135.5799  154.5021 H   0  0  0  0  0  0  0  0  0  0  0  0  # atno 10765 bound_to 10752
  141.1591  133.7607  156.9540 H   0  0  0  0  0  0  0  0  0  0  0  0  # atno 11005 bound_to 11000
  144.7311  140.4673  143.6937 LP  0  0  0  0  0  0  0  0  0  0  0  0  # atno 17320 bound_to 7965
  145.6170  139.1519  143.3044 LP  0  0  0  0  0  0  0  0  0  0  0  0  # atno 17321 bound_to 7965
  139.7658  143.8568  152.3110 LP  0  0  0  0  0  0  0  0  0  0  0  0  # atno 17342 bound_to 10162
  139.8469  144.7183  150.9261 LP  0  0  0  0  0  0  0  0  0  0  0  0  # atno 17343 bound_to 10162
  157.7097  130.9426  150.1049 LP  0  0  0  0  0  0  0  0  0  0  0  0  # atno 17370 bound_to 10713
  156.1983  130.3658  149.8820 LP  0  0  0  0  0  0  0  0  0  0  0  0  # atno 17371 bound_to 10713
  140.1238  134.9400  157.2241 LP  0  0  0  0  0  0  0  0  0  0  0  0  # atno 17394 bound_to 11000
  140.3039  134.3101  155.7283 LP  0  0  0  0  0  0  0  0  0  0  0  0  # atno 17395 bound_to 11000

$$$$
