AV-unprocessed.smi:227|AV-procd|sdf|1732|dock7
  -GOLD-   2262020223D 1   1.00000     0.00000
 Structure written by MMmdl.
 54 58  0  0  0  0  0  0  0  0  1 V2000
  140.3888  142.4124  153.7225 O   0  0  0  0  0  0  0  0  0  0  0  0
  139.3661  141.5762  154.2235 C   0  0  0  0  0  0  0  0  0  0  0  0
  139.7296  140.0795  154.0646 C   0  0  1  0  0  0  0  0  0  0  0  0
  141.1082  139.7333  154.6799 C   0  0  0  0  0  0  0  0  0  0  0  0
  141.7039  138.5399  154.1047 N   0  0  0  0  0  0  0  0  0  0  0  0
  141.4469  138.0176  152.8586 C   0  0  0  0  0  0  0  0  0  0  0  0
  142.1145  136.9369  152.5613 N   0  0  0  0  0  0  0  0  0  0  0  0
  142.8833  136.6862  153.6924 C   0  0  0  0  0  0  0  0  0  0  0  0
  143.8270  135.6820  154.0534 C   0  0  0  0  0  0  0  0  0  0  0  0
  144.1737  134.6544  153.2360 N   0  0  0  0  0  0  0  0  0  0  0  0
  143.5145  134.4108  151.9647 C   0  0  2  0  0  0  0  0  0  0  0  0
  144.0426  133.0092  151.6046 C   0  0  0  0  0  0  0  0  0  0  0  0
  145.4640  133.0544  152.1994 C   0  0  0  0  0  0  0  0  0  0  0  0
  145.5265  134.5020  152.7210 C   0  0  1  0  0  0  0  0  0  0  0  0
  145.6092  135.4437  151.4899 C   0  0  2  0  0  0  0  0  0  0  0  0
  146.2755  136.8217  151.6989 C   0  0  0  0  0  0  0  0  0  0  0  0
  146.3312  137.6161  150.5345 O   0  0  0  0  0  0  0  0  0  0  0  0
  144.1416  135.4574  151.0193 C   0  0  0  0  0  0  0  0  0  0  0  0
  144.4206  135.7919  155.2714 N   0  0  0  0  0  0  0  0  0  0  0  0
  144.0916  136.7893  156.0967 C   0  0  0  0  0  0  0  0  0  0  0  0
  143.2182  137.7784  155.9028 N   0  0  0  0  0  0  0  0  0  0  0  0
  142.6369  137.6897  154.6727 C   0  0  0  0  0  0  0  0  0  0  0  0
  138.6137  139.1447  154.5965 C   0  0  2  0  0  0  0  0  0  0  0  0
  138.6909  137.7108  154.1017 C   0  0  0  0  0  0  0  0  0  0  0  0
  137.2836  137.1988  154.3854 C   0  0  0  0  0  0  0  0  0  0  0  0
  136.4259  138.3199  154.2078 O   0  0  0  0  0  0  0  0  0  0  0  0
  137.1964  139.5165  154.1468 C   0  0  0  0  0  0  0  0  0  0  0  0
  140.7232  142.9381  154.4330 H   0  0  0  0  0  0  0  0  0  0  0  0
  139.1945  141.8257  155.2703 H   0  0  0  0  0  0  0  0  0  0  0  0
  138.4363  141.8113  153.7057 H   0  0  0  0  0  0  0  0  0  0  0  0
  139.8115  139.8991  152.9917 H   0  0  0  0  0  0  0  0  0  0  0  0
  141.8007  140.5666  154.5548 H   0  0  0  0  0  0  0  0  0  0  0  0
  141.0190  139.5681  155.7535 H   0  0  0  0  0  0  0  0  0  0  0  0
  140.7485  138.4711  152.1704 H   0  0  0  0  0  0  0  0  0  0  0  0
  142.4251  134.4531  151.9977 H   0  0  0  0  0  0  0  0  0  0  0  0
  143.4508  132.2305  152.0872 H   0  0  0  0  0  0  0  0  0  0  0  0
  144.0376  132.8245  150.5297 H   0  0  0  0  0  0  0  0  0  0  0  0
  145.5547  132.3452  153.0234 H   0  0  0  0  0  0  0  0  0  0  0  0
  146.2416  132.8207  151.4712 H   0  0  0  0  0  0  0  0  0  0  0  0
  146.3317  134.6494  153.4389 H   0  0  0  0  0  0  0  0  0  0  0  0
  146.2113  134.9538  150.7231 H   0  0  0  0  0  0  0  0  0  0  0  0
  145.7442  137.3775  152.4720 H   0  0  0  0  0  0  0  0  0  0  0  0
  147.2957  136.6833  152.0576 H   0  0  0  0  0  0  0  0  0  0  0  0
  145.4535  137.8858  150.3108 H   0  0  0  0  0  0  0  0  0  0  0  0
  144.0330  135.1940  149.9667 H   0  0  0  0  0  0  0  0  0  0  0  0
  143.6795  136.4341  151.1651 H   0  0  0  0  0  0  0  0  0  0  0  0
  144.6015  136.7954  157.0486 H   0  0  0  0  0  0  0  0  0  0  0  0
  138.6383  139.1300  155.6875 H   0  0  0  0  0  0  0  0  0  0  0  0
  138.8889  137.6856  153.0291 H   0  0  0  0  0  0  0  0  0  0  0  0
  139.4560  137.1197  154.6054 H   0  0  0  0  0  0  0  0  0  0  0  0
  137.0006  136.3703  153.7359 H   0  0  0  0  0  0  0  0  0  0  0  0
  137.2040  136.8614  155.4195 H   0  0  0  0  0  0  0  0  0  0  0  0
  136.7550  140.2972  154.7665 H   0  0  0  0  0  0  0  0  0  0  0  0
  137.1968  139.8663  153.1136 H   0  0  0  0  0  0  0  0  0  0  0  0
  1  2  1  0  0  0  0
  1 28  1  0  0  0  0
  2  3  1  0  0  0  0
  2 29  1  0  0  0  0
  2 30  1  0  0  0  0
  3  4  1  0  0  0  0
  3 23  1  0  0  0  0
  3 31  1  0  0  0  0
  4  5  1  0  0  0  0
  4 32  1  0  0  0  0
  4 33  1  0  0  0  0
  5 22  1  0  0  0  0
  5  6  1  0  0  0  0
  6  7  2  0  0  0  0
  6 34  1  0  0  0  0
  7  8  1  0  0  0  0
  8 22  2  0  0  0  0
  8  9  1  0  0  0  0
  9 10  1  0  0  0  0
  9 19  2  0  0  0  0
 10 14  1  0  0  0  0
 10 11  1  0  0  0  0
 11 18  1  0  0  0  0
 11 12  1  0  0  0  0
 11 35  1  0  0  0  0
 12 13  1  0  0  0  0
 12 36  1  0  0  0  0
 12 37  1  0  0  0  0
 13 14  1  0  0  0  0
 13 38  1  0  0  0  0
 13 39  1  0  0  0  0
 14 15  1  0  0  0  0
 14 40  1  0  0  0  0
 15 16  1  0  0  0  0
 15 18  1  0  0  0  0
 15 41  1  0  0  0  0
 16 17  1  0  0  0  0
 16 42  1  0  0  0  0
 16 43  1  0  0  0  0
 17 44  1  0  0  0  0
 18 45  1  0  0  0  0
 18 46  1  0  0  0  0
 19 20  1  0  0  0  0
 20 21  2  0  0  0  0
 20 47  1  0  0  0  0
 21 22  1  0  0  0  0
 23 27  1  0  0  0  0
 23 24  1  0  0  0  0
 23 48  1  0  0  0  0
 24 25  1  0  0  0  0
 24 49  1  0  0  0  0
 24 50  1  0  0  0  0
 25 26  1  0  0  0  0
 25 51  1  0  0  0  0
 25 52  1  0  0  0  0
 26 27  1  0  0  0  0
 27 53  1  0  0  0  0
 27 54  1  0  0  0  0
M  END
> <s_m_source_file>
AV-unprocessed.smi

> <i_m_source_file_index>
227

> <i_lp_mmshare_version>
43012

> <i_f3d_flags>
0

> <s_epik_input>
W0NIMl0xT1tDSDJdW0NIMl1bQ0BIXTFbQ0BIXShbQ0gyXVtPSF0pW0NIMl1uKFtjSF1uMiljKGMyMyluW2NIXW5jM04oW0NASF00NSlbQ0BASF0oW0NIMl1bQ0gyXTQpW0NASF0oW0NIMl01KVtDSDJdW09IXQ==

> <s_epik_cmdline>
J2VwaWtfcHl0aG9uJywgJy1waCcsICc3LjAnLCAnLXRuJywgJzgnLCAnLW1hJywgJzIwMCcsICctbWV0YWxfYmluZGluZycsICctaW1hZScsICc8aW5maWxlLm1hZT4nLCAnLW9tYWUnLCAnPG91dGZpbGUubWFlPic=

> <r_lp_tautomer_probability>
1

> <r_epik_Ionization_Penalty>
0.0055791

> <r_epik_Ionization_Penalty_Charging>
0

> <r_epik_Ionization_Penalty_Neutral>
0.0055791

> <r_epik_State_Penalty>
0.00401299

> <r_epik_Charging_Adjusted_Penalty>
0.00401299

> <i_epik_Tot_Q>
0

> <i_epik_Tot_abs_Q>
0

> <r_epik_Metal_State_Penalty>
-0

> <b_epik_Metal_Only>
0

> <s_lp_Force_Field>
OPLS_2005

> <r_lp_Energy>
91.5057

> <b_lp_Chiralities_Consistent>
1

> <s_lp_Variant>
AV-unprocessed.smi:227-6

> <Gold.Version>
5.8.1

> <Gold.Id.Protein>
6NUR|6NUR_protein|mol2

> <Gold.PLP.Fitness>
41.7108

> <Gold.PLP.PLP>
-31.3660

> <Gold.PLP.part.hbond>
-4.1834

> <Gold.PLP.part.metal>
0.0000

> <Gold.PLP.part.buried>
-1.5300

> <Gold.PLP.part.nonpolar>
-26.1313

> <Gold.PLP.part.repulsive>
0.4198

> <Gold.PLP.ligand.clash>
0.0000

> <Gold.PLP.ligand.torsion>
0.7432

> <Gold.PLP.Chemscore.Hbond>
2.8960

> <Gold.PLP.Chemscore.CHOScore>
1.0000

> <Gold.PLP.Chemscore.Metal>
0.0000

> <Gold.Chemscore.Hbonds>
donor molecule, donor type, donor heavy atom, donor atom, acceptor molecule, acceptor atom, score
      L1  H    17    44       P1 10171  1.00
      P1  H  7954  7966       L1    17  0.93
      P1  H 10162 10167       L1     1  1.00
      L1  C     6    34       P1 10160  1.00

> <Gold.PLP.Chemscore.Internal.Correction>
0.1432

> <Gold.Rescore>
     Score         DG    S(hbond)    S(metal)    S(lipo)     H(rot)  DE(clash)    DE(int)     intcor
      8.36     -14.44       2.81        0.00      75.25       3.61       3.08       3.00       ----

> <Gold.Chemscore.Fitness>
8.3594

> <Gold.Chemscore.DG>
-14.4397

> <Gold.Chemscore.ZeroCoef>
-5.4800

> <Gold.Chemscore.Hbond>
2.8111

> <Gold.Chemscore.Metal>
0.0000

> <Gold.Chemscore.Lipo>
75.2535

> <Gold.Chemscore.Internal_Hbond>
0.0000

> <Gold.Chemscore.DEClash>
3.0753

> <Gold.Chemscore.DEInternal>
3.0050

> <Gold.Chemscore.Rot>
3.6071

> <Gold.Chemscore.Internal.Correction>
   9.000000E+99

> <Gold.Chemscore.Hbonds>
donor molecule, donor type, donor heavy atom, donor atom, acceptor molecule, acceptor atom, score
      L1  H    17    44       P1 10171  1.00
      P1  H  7954  7966       L1    17  0.77
      P1  H 10162 10167       L1     1  0.85

> <Gold.Chemscore.Hbond.Weighted>
-9.3892

> <Gold.Chemscore.Metal.Weighted>
-0.0000

> <Gold.Chemscore.Lipo.Weighted>
-8.8047

> <Gold.Chemscore.Internal_Hbond.Weighted>
0.0000

> <Gold.Chemscore.DEClash.Weighted>
3.0753

> <Gold.Chemscore.DEInternal.Weighted>
3.0050

> <Gold.Chemscore.Rot.Weighted>
9.2342

> <Gold.Chemscore.Internal.Correction.Weighted>
   9.000000E+99

> <Gold.Protein.RotatedTorsions>
[ 6907 6896 6895 6894 ] final -117.81 input  -60.11 | X-H torsion
[ 7974 7965 7964 7962 ] final  172.95 input  175.53 | X-H torsion
[ 8008 7997 7996 7995 ] final   10.96 input   59.86 | X-H torsion
[ 10167 10162 10161 10158 ] final -103.74 input  -65.29 | X-H torsion
[ 10718 10713 10712 10709 ] final  -55.02 input   66.30 | X-H torsion
[ 10763 10752 10751 10750 ] final  179.57 input  -60.55 | X-H torsion
[ 11005 11000 10999 10996 ] final -167.07 input  -57.11 | X-H torsion

> <Gold.Protein.ActiveResidues>
 VAL166  LYS551  ARG553  GLY616  TRP617  ASP618  TYR619  PRO620  LYS621  CYS622 
 ASP623  PHE694  ASN695  SER759  ASP760  ASP761  ALA762  ILE779  LEU786  VAL792 
 PHE793  MET794  SER795  GLU796  ALA797  LYS798  CYS799  TRP800  GLU811  SER814 

> <Gold.Protein.RotatedAtoms>
  150.8167  133.8325  159.3157 H   0  0  0  0  0  0  0  0  0  0  0  0  # atno 6907 bound_to 6896
  151.6095  135.1039  160.0087 H   0  0  0  0  0  0  0  0  0  0  0  0  # atno 6908 bound_to 6896
  152.4258  133.7152  159.6558 H   0  0  0  0  0  0  0  0  0  0  0  0  # atno 6909 bound_to 6896
  144.7255  139.9575  143.6434 H   0  0  0  0  0  0  0  0  0  0  0  0  # atno 7974 bound_to 7965
  154.8004  140.2851  155.5925 H   0  0  0  0  0  0  0  0  0  0  0  0  # atno 8008 bound_to 7997
  156.2976  140.2587  156.2800 H   0  0  0  0  0  0  0  0  0  0  0  0  # atno 8009 bound_to 7997
  154.9565  140.0378  157.2159 H   0  0  0  0  0  0  0  0  0  0  0  0  # atno 8010 bound_to 7997
  140.2167  143.3706  152.1004 H   0  0  0  0  0  0  0  0  0  0  0  0  # atno 10167 bound_to 10162
  156.1403  130.4155  150.0115 H   0  0  0  0  0  0  0  0  0  0  0  0  # atno 10718 bound_to 10713
  154.5224  135.2794  155.1251 H   0  0  0  0  0  0  0  0  0  0  0  0  # atno 10763 bound_to 10752
  154.2804  135.6286  153.5348 H   0  0  0  0  0  0  0  0  0  0  0  0  # atno 10764 bound_to 10752
  152.9939  135.5649  154.5716 H   0  0  0  0  0  0  0  0  0  0  0  0  # atno 10765 bound_to 10752
  140.5574  134.5367  157.5136 H   0  0  0  0  0  0  0  0  0  0  0  0  # atno 11005 bound_to 11000
  146.0664  139.3654  143.0550 LP  0  0  0  0  0  0  0  0  0  0  0  0  # atno 17320 bound_to 7965
  145.8026  140.9764  143.0991 LP  0  0  0  0  0  0  0  0  0  0  0  0  # atno 17321 bound_to 7965
  139.5159  144.6970  151.5602 LP  0  0  0  0  0  0  0  0  0  0  0  0  # atno 17342 bound_to 10162
  140.6284  143.9123  150.6584 LP  0  0  0  0  0  0  0  0  0  0  0  0  # atno 17343 bound_to 10162
  156.8003  130.9288  151.3646 LP  0  0  0  0  0  0  0  0  0  0  0  0  # atno 17370 bound_to 10713
  157.6569  130.8932  149.9748 LP  0  0  0  0  0  0  0  0  0  0  0  0  # atno 17371 bound_to 10713
  139.9424  134.7762  156.0644 LP  0  0  0  0  0  0  0  0  0  0  0  0  # atno 17394 bound_to 11000
  141.1135  133.6635  156.3036 LP  0  0  0  0  0  0  0  0  0  0  0  0  # atno 17395 bound_to 11000

$$$$
