#       Name:                AV-unprocessed.smi:2709
#       Creating user name   scv26
#       Creation time:       Fri Mar 27 14:50:15 2020


#       File generated by GOLD software.
#

@<TRIPOS>MOLECULE
AV-unprocessed.smi:2709
    46    48     1
SMALL
NO_CHARGES


@<TRIPOS>ATOM
      1 ****        -2.2729  -2.2953   1.5233 C.3            1 S1                 0.0000
      2 ****        -2.6314  -2.3390   0.1524 O.3            1 S1                 0.0000
      3 ****        -3.5420  -1.3126  -0.2331 C.3            1 S1                 0.0000
      4 ****        -4.7474  -2.0021  -0.8749 C.3            1 S1                 0.0000
      5 ****        -4.3121  -2.2573  -2.3154 C.3            1 S1                 0.0000
      6 ****        -3.4678  -1.0356  -2.6880 C.3            1 S1                 0.0000
      7 ****        -2.9439  -0.4445  -1.3643 C.3            1 S1                 0.0000
      8 ****        -1.4828  -0.4065  -1.3447 N.am           1 S1                 0.0000
      9 ****        -0.7481   0.3932  -0.5600 C.2            1 S1                 0.0000
     10 ****        -1.2361   1.1975   0.2334 O.2            1 S1                 0.0000
     11 ****         0.5656   0.1997  -0.7655 N.am           1 S1                 0.0000
     12 ****         1.6656   0.8568  -0.1511 C.ar           1 S1                 0.0000
     13 ****         2.9439   0.7325  -0.7346 C.ar           1 S1                 0.0000
     14 ****         4.0350   1.3256  -0.2045 N.ar           1 S1                 0.0000
     15 ****         3.8542   2.0276   0.9174 C.ar           1 S1                 0.0000
     16 ****         5.0546   2.7304   1.4722 C.3            1 S1                 0.0000
     17 ****         6.3235   1.9679   1.7944 C.3            1 S1                 0.0000
     18 ****         5.4818   2.5208   2.9108 C.3            1 S1                 0.0000
     19 ****         2.6991   2.2145   1.5614 N.ar           1 S1                 0.0000
     20 ****         1.6018   1.6262   1.0373 C.ar           1 S1                 0.0000
     21 ****        -1.5659  -3.0950   1.7435 H              1 S1                 0.0000
     22 ****        -3.1474  -2.4312   2.1610 H              1 S1                 0.0000
     23 ****        -1.7974  -1.3467   1.7762 H              1 S1                 0.0000
     24 ****        -3.8492  -0.6983   0.6160 H              1 S1                 0.0000
     25 ****        -5.0436  -2.9135  -0.3543 H              1 S1                 0.0000
     26 ****        -5.6027  -1.3250  -0.8685 H              1 S1                 0.0000
     27 ****        -3.6957  -3.1564  -2.3564 H              1 S1                 0.0000
     28 ****        -5.1570  -2.4042  -2.9888 H              1 S1                 0.0000
     29 ****        -2.6701  -1.3064  -3.3810 H              1 S1                 0.0000
     30 ****        -4.0909  -0.2966  -3.1935 H              1 S1                 0.0000
     31 ****        -3.3345   0.5714  -1.2769 H              1 S1                 0.0000
     32 ****        -1.0024  -1.0432  -1.9632 H              1 S1                 0.0000
     33 ****         0.8070  -0.4627  -1.4881 H              1 S1                 0.0000
     34 ****         3.0939   0.1588  -1.6377 H              1 S1                 0.0000
     35 ****         5.1553   3.7297   1.0528 H              1 S1                 0.0000
     36 ****         6.3193   0.8888   1.6526 H              1 S1                 0.0000
     37 ****         7.2703   2.4617   1.5855 H              1 S1                 0.0000
     38 ****         5.8647   3.3848   3.4501 H              1 S1                 0.0000
     39 ****         4.9180   1.8093   3.5110 H              1 S1                 0.0000
     40 ****         0.6895   1.7742   1.5927 H              1 S1                 0.0000
     41 ****        -3.0559  -3.2248  -0.0351 LP             1 S1                 0.0000
     42 ****        -1.7997  -2.2454  -0.3948 LP             1 S1                 0.0000
     43 ****        -2.2294   1.2782   0.3162 LP             1 S1                 0.0000
     44 ****        -0.6394   1.7704   0.7953 LP             1 S1                 0.0000
     45 ****         4.9355   1.2432  -0.6315 LP             1 S1                 0.0000
     46 ****         2.6488   2.7654   2.3945 LP             1 S1                 0.0000
@<TRIPOS>BOND
    1    1    2 1     
    2    1   21 1     
    3    1   22 1     
    4    1   23 1     
    5    2    3 1     
    6    3    7 1     
    7    3    4 1     
    8    3   24 1     
    9    4    5 1     
   10    4   25 1     
   11    4   26 1     
   12    5    6 1     
   13    5   27 1     
   14    5   28 1     
   15    6    7 1     
   16    6   29 1     
   17    6   30 1     
   18    7    8 1     
   19    7   31 1     
   20    8    9 am    
   21    8   32 1     
   22    9   10 2     
   23    9   11 am    
   24   11   12 1     
   25   11   33 1     
   26   12   20 ar    
   27   12   13 ar    
   28   13   14 ar    
   29   13   34 1     
   30   14   15 ar    
   31   15   16 1     
   32   15   19 ar    
   33   16   18 1     
   34   16   17 1     
   35   16   35 1     
   36   17   18 1     
   37   17   36 1     
   38   17   37 1     
   39   18   38 1     
   40   18   39 1     
   41   19   20 ar    
   42   20   40 1     
   43    2   41 1     
   44    2   42 1     
   45   10   43 1     
   46   10   44 1     
   47   14   45 1     
   48   19   46 1     
@<TRIPOS>SUBSTRUCTURE
      1 S1             1
@<TRIPOS>SET
LONE_PAIRS      STATIC     ATOMS    <user>   **** ""
6 41 42 43 44 45 46
DONOR_HYDROGENS      STATIC     ATOMS    <user>   **** ""
2 32 33
ATOM$BLUE        STATIC     ATOMS    COLORGROUP SYSTEM
6 41 42 43 44 45 46
ATOM$RED        STATIC     ATOMS    COLORGROUP SYSTEM
2 32 33
