AV-unprocessed.smi:1047|AV-procd|sdf|4587|dock1
  -GOLD-   22720 3 63D 1   1.00000     0.00000
 Structure written by MMmdl.
 58 60  0  0  0  0  0  0  0  0  4 V2000
  145.9938  133.2954  151.1169 C   0  0  0  0  0  0  0  0  0  0  0  0
  146.1207  131.9449  151.8357 C   0  0  0  0  0  0  0  0  0  0  0  0
  147.4167  131.7955  152.5441 N   0  3  2  0  0  0  0  0  0  0  0  0
  147.5783  130.4820  153.2147 C   0  0  0  0  0  0  0  0  0  0  0  0
  148.9480  130.3963  153.9080 C   0  0  0  0  0  0  0  0  0  0  0  0
  149.0920  131.4771  154.8221 O   0  0  0  0  0  0  0  0  0  0  0  0
  149.0434  132.7439  154.1738 C   0  0  2  0  0  0  0  0  0  0  0  0
  149.2918  133.8335  155.2285 C   0  0  0  0  0  0  0  0  0  0  0  0
  149.1704  135.1849  154.6457 N   0  3  0  0  0  0  0  0  0  0  0  0
  150.3084  136.0765  154.9482 C   0  0  0  0  0  0  0  0  0  0  0  0
  149.8725  137.5541  154.9589 C   0  0  1  0  0  0  0  0  0  0  0  0
  149.0526  137.7798  156.0873 O   0  0  0  0  0  0  0  0  0  0  0  0
  151.0409  138.5581  155.0247 C   0  0  0  0  0  0  0  0  0  0  0  0
  150.6233  139.9022  155.4478 N   0  0  0  0  0  0  0  0  0  0  0  0
  149.7414  140.7573  154.8617 C   0  0  0  0  0  0  0  0  0  0  0  0
  149.6796  141.8774  155.6332 N   0  3  0  0  0  0  0  0  0  0  0  0
  150.5299  141.7349  156.7312 C   0  0  0  0  0  0  0  0  0  0  0  0
  150.8049  142.5975  157.7853 C   0  0  0  0  0  0  0  0  0  0  0  0
  151.7295  142.1541  158.7574 C   0  0  0  0  0  0  0  0  0  0  0  0
  152.0508  143.0721  159.9244 C   0  0  0  0  0  0  0  0  0  0  0  0
  152.3457  140.8805  158.6511 C   0  0  0  0  0  0  0  0  0  0  0  0
  153.3396  140.4145  159.7018 C   0  0  0  0  0  0  0  0  0  0  0  0
  152.0522  140.0171  157.5713 C   0  0  0  0  0  0  0  0  0  0  0  0
  151.1378  140.4685  156.6215 C   0  0  0  0  0  0  0  0  0  0  0  0
  147.6630  132.8982  153.5045 C   0  0  0  0  0  0  0  0  0  0  0  0
  144.9969  133.4090  150.6905 H   0  0  0  0  0  0  0  0  0  0  0  0
  146.7062  133.3922  150.2983 H   0  0  0  0  0  0  0  0  0  0  0  0
  146.1538  134.1257  151.8050 H   0  0  0  0  0  0  0  0  0  0  0  0
  145.3092  131.8761  152.5611 H   0  0  0  0  0  0  0  0  0  0  0  0
  145.9787  131.1214  151.1343 H   0  0  0  0  0  0  0  0  0  0  0  0
  146.7816  130.3437  153.9473 H   0  0  0  0  0  0  0  0  0  0  0  0
  147.4920  129.6712  152.4918 H   0  0  0  0  0  0  0  0  0  0  0  0
  149.0326  129.4574  154.4555 H   0  0  0  0  0  0  0  0  0  0  0  0
  149.7573  130.4115  153.1762 H   0  0  0  0  0  0  0  0  0  0  0  0
  149.8239  132.7982  153.4121 H   0  0  0  0  0  0  0  0  0  0  0  0
  148.5622  133.7393  156.0341 H   0  0  0  0  0  0  0  0  0  0  0  0
  150.2798  133.7111  155.6748 H   0  0  0  0  0  0  0  0  0  0  0  0
  149.0884  135.0982  153.6424 H   0  0  0  0  0  0  0  0  0  0  0  0
  150.7505  135.8027  155.9073 H   0  0  0  0  0  0  0  0  0  0  0  0
  151.0702  135.9129  154.1856 H   0  0  0  0  0  0  0  0  0  0  0  0
  149.2802  137.7610  154.0662 H   0  0  0  0  0  0  0  0  0  0  0  0
  149.3373  138.5716  156.5187 H   0  0  0  0  0  0  0  0  0  0  0  0
  151.7810  138.2164  155.7498 H   0  0  0  0  0  0  0  0  0  0  0  0
  151.5627  138.6235  154.0699 H   0  0  0  0  0  0  0  0  0  0  0  0
  149.1879  140.5789  153.9507 H   0  0  0  0  0  0  0  0  0  0  0  0
  150.3313  143.5658  157.8598 H   0  0  0  0  0  0  0  0  0  0  0  0
  151.7846  142.5978  160.8692 H   0  0  0  0  0  0  0  0  0  0  0  0
  151.5005  144.0112  159.8569 H   0  0  0  0  0  0  0  0  0  0  0  0
  153.1146  143.3103  159.9434 H   0  0  0  0  0  0  0  0  0  0  0  0
  153.7181  139.4163  159.4791 H   0  0  0  0  0  0  0  0  0  0  0  0
  152.8699  140.3801  160.6852 H   0  0  0  0  0  0  0  0  0  0  0  0
  154.1932  141.0914  159.7490 H   0  0  0  0  0  0  0  0  0  0  0  0
  152.5239  139.0488  157.4960 H   0  0  0  0  0  0  0  0  0  0  0  0
  147.6139  133.8547  152.9820 H   0  0  0  0  0  0  0  0  0  0  0  0
  146.8756  132.9051  154.2602 H   0  0  0  0  0  0  0  0  0  0  0  0
  148.3290  135.6185  154.9995 H   0  0  0  0  0  0  0  0  0  0  0  0
  148.1387  131.8615  151.8407 H   0  0  0  0  0  0  0  0  0  0  0  0
  149.0944  142.6771  155.4262 H   0  0  0  0  0  0  0  0  0  0  0  0
  1  2  1  0  0  0  0
  1 26  1  0  0  0  0
  1 27  1  0  0  0  0
  1 28  1  0  0  0  0
  2  3  1  0  0  0  0
  2 29  1  0  0  0  0
  2 30  1  0  0  0  0
  3 25  1  0  0  0  0
  3  4  1  0  0  0  0
  3 57  1  0  0  0  0
  4  5  1  0  0  0  0
  4 31  1  0  0  0  0
  4 32  1  0  0  0  0
  5  6  1  0  0  0  0
  5 33  1  0  0  0  0
  5 34  1  0  0  0  0
  6  7  1  0  0  0  0
  7  8  1  0  0  0  0
  7 25  1  0  0  0  0
  7 35  1  0  0  0  0
  8  9  1  0  0  0  0
  8 36  1  0  0  0  0
  8 37  1  0  0  0  0
  9 10  1  0  0  0  0
  9 38  1  0  0  0  0
  9 56  1  0  0  0  0
 10 11  1  0  0  0  0
 10 39  1  0  0  0  0
 10 40  1  0  0  0  0
 11 12  1  0  0  0  0
 11 13  1  0  0  0  0
 11 41  1  0  0  0  0
 12 42  1  0  0  0  0
 13 14  1  0  0  0  0
 13 43  1  0  0  0  0
 13 44  1  0  0  0  0
 14 24  1  0  0  0  0
 14 15  1  0  0  0  0
 15 16  2  0  0  0  0
 15 45  1  0  0  0  0
 16 17  1  0  0  0  0
 16 58  1  0  0  0  0
 17 24  2  0  0  0  0
 17 18  1  0  0  0  0
 18 19  2  0  0  0  0
 18 46  1  0  0  0  0
 19 20  1  0  0  0  0
 19 21  1  0  0  0  0
 20 47  1  0  0  0  0
 20 48  1  0  0  0  0
 20 49  1  0  0  0  0
 21 22  1  0  0  0  0
 21 23  2  0  0  0  0
 22 50  1  0  0  0  0
 22 51  1  0  0  0  0
 22 52  1  0  0  0  0
 23 24  1  0  0  0  0
 23 53  1  0  0  0  0
 25 54  1  0  0  0  0
 25 55  1  0  0  0  0
M  CHG  1   3   1
M  CHG  1   9   1
M  CHG  1  16   1
M  END
> <s_m_source_file>
AV-unprocessed.smi

> <i_m_source_file_index>
1047

> <i_lp_mmshare_version>
43012

> <i_f3d_flags>
0

> <s_epik_input>
W0NIM11bQ0gyXU4xW0NIMl1bQ0gyXU9bQ0BIXShbQ0gyXTEpW0NIMl1bTkhdW0NIMl1bQ0BIXShbT0hdKVtDSDJdbihbY0hdbjIpYyhjMjMpW2NIXWMoW0NIM10pYyhbY0hdMylbQ0gzXQ==

> <s_epik_cmdline>
J2VwaWtfcHl0aG9uJywgJy1waCcsICc3LjAnLCAnLXRuJywgJzgnLCAnLW1hJywgJzIwMCcsICctbWV0YWxfYmluZGluZycsICctaW1hZScsICc8aW5maWxlLm1hZT4nLCAnLW9tYWUnLCAnPG91dGZpbGUubWFlPic=

> <r_epik_Ionization_Penalty>
1.6114

> <r_epik_Ionization_Penalty_Charging>
1.61139

> <r_epik_Ionization_Penalty_Neutral>
5.04732e-06

> <r_epik_State_Penalty>
1.63724

> <r_epik_Charging_Adjusted_Penalty>
3.24864

> <i_epik_Tot_Q>
3

> <i_epik_Tot_abs_Q>
3

> <r_epik_Metal_State_Penalty>
5.64594

> <b_epik_Metal_Only>
0

> <s_lp_Force_Field>
OPLS_2005

> <r_lp_Energy>
41.4775

> <b_lp_Chiralities_Consistent>
1

> <s_lp_Variant>
AV-unprocessed.smi:1047-28

> <Gold.Version>
5.8.1

> <Gold.Id.Protein>
6NUR|6NUR_protein|mol2

> <Gold.PLP.Fitness>
61.2953

> <Gold.PLP.PLP>
-47.6251

> <Gold.PLP.part.hbond>
-3.0000

> <Gold.PLP.part.metal>
0.0000

> <Gold.PLP.part.buried>
-1.4321

> <Gold.PLP.part.nonpolar>
-42.8262

> <Gold.PLP.part.repulsive>
0.2281

> <Gold.PLP.ligand.clash>
0.0000

> <Gold.PLP.ligand.torsion>
0.7416

> <Gold.PLP.Chemscore.Hbond>
4.3680

> <Gold.PLP.Chemscore.CHOScore>
0.6252

> <Gold.PLP.Chemscore.Metal>
0.0000

> <Gold.Chemscore.Hbonds>
donor molecule, donor type, donor heavy atom, donor atom, acceptor molecule, acceptor atom, score
      L1  H     3    57       P1 10747  0.86
      L1  H     9    38       P1  7948  1.54
      L1  H    16    58       P1  8028  1.69
      L1  C    15    45       P1  7957  0.15

> <Gold.PLP.Chemscore.Internal.Correction>
0.1739

> <Gold.Rescore>
     Score         DG    S(hbond)    S(metal)    S(lipo)     H(rot)  DE(clash)    DE(int)     intcor
     18.24     -19.37       1.97        0.00     123.32       2.78       0.38       0.75       ----

> <Gold.Chemscore.Fitness>
18.2386

> <Gold.Chemscore.DG>
-19.3664

> <Gold.Chemscore.ZeroCoef>
-5.4800

> <Gold.Chemscore.Hbond>
1.9722

> <Gold.Chemscore.Metal>
0.0000

> <Gold.Chemscore.Lipo>
123.3198

> <Gold.Chemscore.Internal_Hbond>
0.0000

> <Gold.Chemscore.DEClash>
0.3792

> <Gold.Chemscore.DEInternal>
0.7486

> <Gold.Chemscore.Rot>
2.7848

> <Gold.Chemscore.Internal.Correction>
   9.000000E+99

> <Gold.Chemscore.Hbonds>
donor molecule, donor type, donor heavy atom, donor atom, acceptor molecule, acceptor atom, score
      L1  H     3    57       P1 10747  0.78
      L1  H     9    38       P1  7948  0.29
      L1  H    16    58       P1  8028  0.78

> <Gold.Chemscore.Hbond.Weighted>
-6.5870

> <Gold.Chemscore.Metal.Weighted>
-0.0000

> <Gold.Chemscore.Lipo.Weighted>
-14.4284

> <Gold.Chemscore.Internal_Hbond.Weighted>
0.0000

> <Gold.Chemscore.DEClash.Weighted>
0.3792

> <Gold.Chemscore.DEInternal.Weighted>
0.7486

> <Gold.Chemscore.Rot.Weighted>
7.1291

> <Gold.Chemscore.Internal.Correction.Weighted>
   9.000000E+99

> <Gold.Protein.RotatedTorsions>
[ 6907 6896 6895 6894 ] final -103.49 input  -60.11 | X-H torsion
[ 7974 7965 7964 7962 ] final  136.63 input  175.53 | X-H torsion
[ 8008 7997 7996 7995 ] final  -33.48 input   59.86 | X-H torsion
[ 10167 10162 10161 10158 ] final  154.80 input  -65.29 | X-H torsion
[ 10718 10713 10712 10709 ] final  -95.52 input   66.30 | X-H torsion
[ 10763 10752 10751 10750 ] final  -43.03 input  -60.55 | X-H torsion
[ 11005 11000 10999 10996 ] final  -79.85 input  -57.11 | X-H torsion

> <Gold.Protein.ActiveResidues>
 VAL166  LYS551  ARG553  GLY616  TRP617  ASP618  TYR619  PRO620  LYS621  CYS622 
 ASP623  PHE694  ASN695  SER759  ASP760  ASP761  ALA762  ILE779  LEU786  VAL792 
 PHE793  MET794  SER795  GLU796  ALA797  LYS798  CYS799  TRP800  GLU811  SER814 

> <Gold.Protein.RotatedAtoms>
  150.7243  134.0421  159.3768 H   0  0  0  0  0  0  0  0  0  0  0  0  # atno 6907 bound_to 6896
  151.8395  135.0593  160.0455 H   0  0  0  0  0  0  0  0  0  0  0  0  # atno 6908 bound_to 6896
  152.2873  133.5491  159.5572 H   0  0  0  0  0  0  0  0  0  0  0  0  # atno 6909 bound_to 6896
  144.9546  139.4779  143.5509 H   0  0  0  0  0  0  0  0  0  0  0  0  # atno 7974 bound_to 7965
  154.4148  140.1709  156.1894 H   0  0  0  0  0  0  0  0  0  0  0  0  # atno 8008 bound_to 7997
  155.9616  140.3393  155.6472 H   0  0  0  0  0  0  0  0  0  0  0  0  # atno 8009 bound_to 7997
  155.6741  140.0715  157.2500 H   0  0  0  0  0  0  0  0  0  0  0  0  # atno 8010 bound_to 7997
  139.4822  144.5154  151.7959 H   0  0  0  0  0  0  0  0  0  0  0  0  # atno 10167 bound_to 10162
  156.0045  130.5112  150.6088 H   0  0  0  0  0  0  0  0  0  0  0  0  # atno 10718 bound_to 10713
  153.9889  135.6708  153.4753 H   0  0  0  0  0  0  0  0  0  0  0  0  # atno 10763 bound_to 10752
  153.0714  135.4972  154.8309 H   0  0  0  0  0  0  0  0  0  0  0  0  # atno 10764 bound_to 10752
  154.7121  135.3099  154.9143 H   0  0  0  0  0  0  0  0  0  0  0  0  # atno 10765 bound_to 10752
  141.1668  133.7124  156.8184 H   0  0  0  0  0  0  0  0  0  0  0  0  # atno 11005 bound_to 11000
  146.3333  139.8655  142.8849 LP  0  0  0  0  0  0  0  0  0  0  0  0  # atno 17320 bound_to 7965
  145.2791  141.0133  143.3727 LP  0  0  0  0  0  0  0  0  0  0  0  0  # atno 17321 bound_to 7965
  140.4662  144.1651  150.5912 LP  0  0  0  0  0  0  0  0  0  0  0  0  # atno 17342 bound_to 10162
  140.4431  143.2518  151.9447 LP  0  0  0  0  0  0  0  0  0  0  0  0  # atno 17343 bound_to 10162
  157.3924  131.0797  151.1382 LP  0  0  0  0  0  0  0  0  0  0  0  0  # atno 17370 bound_to 10713
  157.2069  130.6420  149.5759 LP  0  0  0  0  0  0  0  0  0  0  0  0  # atno 17371 bound_to 10713
  140.2137  134.8809  157.3302 LP  0  0  0  0  0  0  0  0  0  0  0  0  # atno 17394 bound_to 11000
  140.2060  134.4196  155.7637 LP  0  0  0  0  0  0  0  0  0  0  0  0  # atno 17395 bound_to 11000

$$$$
