#       Name:                AV-unprocessed.smi:473
#       Creating user name   scv26
#       Creation time:       Thu Mar 26 23:07:21 2020


#       File generated by GOLD software.
#

@<TRIPOS>MOLECULE
AV-unprocessed.smi:473
    49    51     1
SMALL
NO_CHARGES


@<TRIPOS>ATOM
      1 ****        -2.5681   4.8067   2.1436 C.3            1 S1                 0.0000
      2 ****        -2.2122   3.6756   1.1950 C.ar           1 S1                 0.0000
      3 ****        -2.5406   3.7981  -0.1741 C.ar           1 S1                 0.0000
      4 ****        -2.2243   2.7704  -1.0895 C.ar           1 S1                 0.0000
      5 ****        -2.4478   2.6802  -2.4529 N.2            1 S1                 0.0000
      6 ****        -1.9266   1.4886  -2.7311 C.2            1 S1                 0.0000
      7 ****        -1.3915   0.7952  -1.7077 N.pl3          1 S1                 0.0000
      8 ****        -0.7704  -0.5161  -1.7625 C.3            1 S1                 0.0000
      9 ****         0.7683  -0.4418  -1.7198 C.3            1 S1                 0.0000
     10 ****         1.2240   0.2801  -2.8477 O.3            1 S1                 0.0000
     11 ****         1.4101  -1.8379  -1.7360 C.3            1 S1                 0.0000
     12 ****         2.7273  -1.7477  -1.2090 O.3            1 S1                 0.0000
     13 ****         3.4001  -2.9968  -1.1108 C.3            1 S1                 0.0000
     14 ****         2.9005  -3.7261   0.0987 C.2            1 S1                 0.0000
     15 ****         2.8183  -5.0525   0.4209 C.2            1 S1                 0.0000
     16 ****         2.2631  -5.1158   1.7288 C.2            1 S1                 0.0000
     17 ****         2.0551  -3.8218   2.1126 C.2            1 S1                 0.0000
     18 ****         2.4426  -2.9615   1.1323 O.3            1 S1                 0.0000
     19 ****        -1.5667   1.6071  -0.5930 C.ar           1 S1                 0.0000
     20 ****        -1.2358   1.4728   0.7668 C.ar           1 S1                 0.0000
     21 ****        -1.5577   2.5096   1.6675 C.ar           1 S1                 0.0000
     22 ****        -1.1926   2.3572   3.1335 C.3            1 S1                 0.0000
     23 ****        -3.0641   5.6243   1.6199 H              1 S1                 0.0000
     24 ****        -1.6700   5.2071   2.6144 H              1 S1                 0.0000
     25 ****        -3.2412   4.4528   2.9247 H              1 S1                 0.0000
     26 ****        -3.0384   4.6861  -0.5347 H              1 S1                 0.0000
     27 ****        -1.9319   1.0971  -3.7380 H              1 S1                 0.0000
     28 ****        -1.1429  -1.0990  -0.9192 H              1 S1                 0.0000
     29 ****        -1.1049  -1.0267  -2.6669 H              1 S1                 0.0000
     30 ****         1.0725   0.0870  -0.8154 H              1 S1                 0.0000
     31 ****         0.9763  -0.1926  -3.6273 H              1 S1                 0.0000
     32 ****         0.8228  -2.5107  -1.1096 H              1 S1                 0.0000
     33 ****         1.4141  -2.2605  -2.7422 H              1 S1                 0.0000
     34 ****         3.2712  -3.5919  -2.0161 H              1 S1                 0.0000
     35 ****         4.4676  -2.8059  -1.0014 H              1 S1                 0.0000
     36 ****         3.1194  -5.8762  -0.2092 H              1 S1                 0.0000
     37 ****         2.0465  -5.9962   2.3157 H              1 S1                 0.0000
     38 ****         1.6625  -3.3570   3.0051 H              1 S1                 0.0000
     39 ****        -0.7360   0.5796   1.1118 H              1 S1                 0.0000
     40 ****        -0.7167   1.3954   3.3270 H              1 S1                 0.0000
     41 ****        -2.0834   2.4210   3.7586 H              1 S1                 0.0000
     42 ****        -0.4986   3.1412   3.4371 H              1 S1                 0.0000
     43 ****        -2.8855   3.3375  -3.0665 LP             1 S1                 0.0000
     44 ****         2.2192   0.3708  -2.8104 LP             1 S1                 0.0000
     45 ****         0.8066   1.1888  -2.8575 LP             1 S1                 0.0000
     46 ****         2.6728  -1.3475  -0.2942 LP             1 S1                 0.0000
     47 ****         3.2631  -1.1482  -1.8036 LP             1 S1                 0.0000
     48 ****         1.6659  -2.4071   0.8333 LP             1 S1                 0.0000
     49 ****         3.1703  -2.3627   1.4669 LP             1 S1                 0.0000
@<TRIPOS>BOND
    1    1    2 1     
    2    1   23 1     
    3    1   24 1     
    4    1   25 1     
    5    2   21 ar    
    6    2    3 ar    
    7    3    4 ar    
    8    3   26 1     
    9    4   19 ar    
   10    4    5 1     
   11    5    6 2     
   12    6    7 1     
   13    6   27 1     
   14    7    8 1     
   15    7   19 1     
   16    8    9 1     
   17    8   28 1     
   18    8   29 1     
   19    9   10 1     
   20    9   11 1     
   21    9   30 1     
   22   10   31 1     
   23   11   12 1     
   24   11   32 1     
   25   11   33 1     
   26   12   13 1     
   27   13   14 1     
   28   13   34 1     
   29   13   35 1     
   30   14   18 1     
   31   14   15 2     
   32   15   16 1     
   33   15   36 1     
   34   16   17 2     
   35   16   37 1     
   36   17   18 1     
   37   17   38 1     
   38   19   20 ar    
   39   20   21 ar    
   40   20   39 1     
   41   21   22 1     
   42   22   40 1     
   43   22   41 1     
   44   22   42 1     
   45    5   43 1     
   46   10   44 1     
   47   10   45 1     
   48   12   46 1     
   49   12   47 1     
   50   18   48 1     
   51   18   49 1     
@<TRIPOS>SUBSTRUCTURE
      1 S1             1
@<TRIPOS>SET
LONE_PAIRS      STATIC     ATOMS    <user>   **** ""
7 43 44 45 46 47 48 49
DONOR_HYDROGENS      STATIC     ATOMS    <user>   **** ""
1 31
ATOM$BLUE        STATIC     ATOMS    COLORGROUP SYSTEM
7 43 44 45 46 47 48 49
ATOM$RED        STATIC     ATOMS    COLORGROUP SYSTEM
1 31
