AV-unprocessed.smi:1060|AV-procd|sdf|4659|dock5
  -GOLD-   22720 3173D 1   1.00000     0.00000
 Structure written by MMmdl.
 36 37  0  0  0  0  0  0  0  0  2 V2000
  147.1314  137.2654  160.0042 O   0  0  0  0  0  0  0  0  0  0  0  0
  147.9970  136.4782  160.3847 C   0  0  0  0  0  0  0  0  0  0  0  0
  147.8045  135.7437  161.7093 C   0  0  0  0  0  0  0  0  0  0  0  0
  146.5230  135.1354  161.7149 O   0  0  0  0  0  0  0  0  0  0  0  0
  146.5038  133.9161  162.4382 C   0  0  0  0  0  0  0  0  0  0  0  0
  145.0753  133.3577  162.4459 C   0  0  1  0  0  0  0  0  0  0  0  0
  144.0427  134.3232  163.0191 C   0  0  0  0  0  0  0  0  0  0  0  0
  142.7437  133.7923  162.4440 C   0  0  0  0  0  0  0  0  0  0  0  0
  143.1787  133.0998  161.1487 C   0  0  0  0  0  0  0  0  0  0  0  0
  144.6006  133.1730  161.1207 O   0  0  0  0  0  0  0  0  0  0  0  0
  149.1523  136.2141  159.7428 N   0  0  0  0  0  0  0  0  0  0  0  0
  149.6372  136.7258  158.5267 C   0  0  0  0  0  0  0  0  0  0  0  0
  149.8910  138.0414  158.2822 C   0  0  0  0  0  0  0  0  0  0  0  0
  150.3904  138.5143  156.9971 C   0  0  0  0  0  0  0  0  0  0  0  0
  150.6126  139.9802  156.6687 C   0  0  0  0  0  0  0  0  0  0  0  0
  151.5236  140.5219  157.4775 F   0  0  0  0  0  0  0  0  0  0  0  0
  151.0262  140.1298  155.4102 F   0  0  0  0  0  0  0  0  0  0  0  0
  149.4735  140.6554  156.8141 F   0  0  0  0  0  0  0  0  0  0  0  0
  150.5357  137.4896  156.0819 C   0  0  0  0  0  0  0  0  0  0  0  0
  150.3127  136.1671  156.2432 N   0  5  0  0  0  0  0  0  0  0  0  0
  149.8532  135.7350  157.4516 C   0  0  0  0  0  0  0  0  0  0  0  0
  149.6181  134.5447  157.6628 O   0  0  0  0  0  0  0  0  0  0  0  0
  148.5883  134.9927  161.8213 H   0  0  0  0  0  0  0  0  0  0  0  0
  147.8950  136.4460  162.5400 H   0  0  0  0  0  0  0  0  0  0  0  0
  147.1724  133.2058  161.9491 H   0  0  0  0  0  0  0  0  0  0  0  0
  146.8646  134.0585  163.4583 H   0  0  0  0  0  0  0  0  0  0  0  0
  145.0330  132.4105  162.9868 H   0  0  0  0  0  0  0  0  0  0  0  0
  144.0457  134.3527  164.1092 H   0  0  0  0  0  0  0  0  0  0  0  0
  144.2245  135.3339  162.6504 H   0  0  0  0  0  0  0  0  0  0  0  0
  142.2980  133.0652  163.1240 H   0  0  0  0  0  0  0  0  0  0  0  0
  142.0148  134.5850  162.2720 H   0  0  0  0  0  0  0  0  0  0  0  0
  142.8605  132.0566  161.1410 H   0  0  0  0  0  0  0  0  0  0  0  0
  142.7652  133.5870  160.2654 H   0  0  0  0  0  0  0  0  0  0  0  0
  149.7923  135.5929  160.2164 H   0  0  0  0  0  0  0  0  0  0  0  0
  149.7158  138.7885  159.0384 H   0  0  0  0  0  0  0  0  0  0  0  0
  150.8787  137.7766  155.0650 H   0  0  0  0  0  0  0  0  0  0  0  0
  1  2  2  0  0  0  0
  2  3  1  0  0  0  0
  2 11  1  0  0  0  0
  3  4  1  0  0  0  0
  3 23  1  0  0  0  0
  3 24  1  0  0  0  0
  4  5  1  0  0  0  0
  5  6  1  0  0  0  0
  5 25  1  0  0  0  0
  5 26  1  0  0  0  0
  6 10  1  0  0  0  0
  6  7  1  0  0  0  0
  6 27  1  0  0  0  0
  7  8  1  0  0  0  0
  7 28  1  0  0  0  0
  7 29  1  0  0  0  0
  8  9  1  0  0  0  0
  8 30  1  0  0  0  0
  8 31  1  0  0  0  0
  9 10  1  0  0  0  0
  9 32  1  0  0  0  0
  9 33  1  0  0  0  0
 11 12  1  0  0  0  0
 11 34  1  0  0  0  0
 12 21  1  0  0  0  0
 12 13  2  0  0  0  0
 13 14  1  0  0  0  0
 13 35  1  0  0  0  0
 14 15  1  0  0  0  0
 14 19  2  0  0  0  0
 15 16  1  0  0  0  0
 15 17  1  0  0  0  0
 15 18  1  0  0  0  0
 19 20  1  0  0  0  0
 19 36  1  0  0  0  0
 20 21  1  0  0  0  0
 21 22  2  0  0  0  0
M  CHG  1  20  -1
M  END
> <s_m_source_file>
AV-unprocessed.smi

> <i_m_source_file_index>
1060

> <i_lp_mmshare_version>
43012

> <i_f3d_flags>
0

> <s_epik_input>
Tz1jMVtuSF1bY0hdYyhDKEYpKEYpRilbY0hdYzFbTkhdQyg9TylbQ0gyXU9bQ0gyXVtDQEBIXTJbQ0gyXVtDSDJdW0NIMl1PMg==

> <s_epik_cmdline>
J2VwaWtfcHl0aG9uJywgJy1waCcsICc3LjAnLCAnLXRuJywgJzgnLCAnLW1hJywgJzIwMCcsICctbWV0YWxfYmluZGluZycsICctaW1hZScsICc8aW5maWxlLm1hZT4nLCAnLW9tYWUnLCAnPG91dGZpbGUubWFlPic=

> <r_epik_Ionization_Penalty>
2.50578

> <r_epik_Ionization_Penalty_Charging>
0.0523173

> <r_epik_Ionization_Penalty_Neutral>
2.45346

> <r_epik_State_Penalty>
2.61512

> <r_epik_Charging_Adjusted_Penalty>
2.66744

> <i_epik_Tot_Q>
-1

> <i_epik_Tot_abs_Q>
1

> <r_epik_Metal_State_Penalty>
0.513209

> <b_epik_Metal_Only>
0

> <s_lp_Force_Field>
OPLS_2005

> <r_lp_Energy>
36.6163

> <b_lp_Chiralities_Consistent>
1

> <s_lp_Variant>
AV-unprocessed.smi:1060-4

> <Gold.Version>
5.8.1

> <Gold.Id.Protein>
6NUR|6NUR_protein|mol2

> <Gold.PLP.Fitness>
36.6418

> <Gold.PLP.PLP>
-32.3279

> <Gold.PLP.part.hbond>
-2.0000

> <Gold.PLP.part.metal>
0.0000

> <Gold.PLP.part.buried>
-4.2440

> <Gold.PLP.part.nonpolar>
-26.3347

> <Gold.PLP.part.repulsive>
0.2790

> <Gold.PLP.ligand.clash>
0.0000

> <Gold.PLP.ligand.torsion>
0.9103

> <Gold.PLP.Chemscore.Hbond>
2.0000

> <Gold.PLP.Chemscore.CHOScore>
0.0000

> <Gold.PLP.Chemscore.Metal>
0.0000

> <Gold.Chemscore.Hbonds>
donor molecule, donor type, donor heavy atom, donor atom, acceptor molecule, acceptor atom, score
      P1  H  6896  6907       L1    22  1.00
      P1  H  6934  6947       L1     1  1.00

> <Gold.PLP.Chemscore.Internal.Correction>
0.1344

> <Gold.Rescore>
     Score         DG    S(hbond)    S(metal)    S(lipo)     H(rot)  DE(clash)    DE(int)     intcor
     13.34     -14.20       1.79        0.00      65.52       1.92       0.03       0.83       ----

> <Gold.Chemscore.Fitness>
13.3359

> <Gold.Chemscore.DG>
-14.1953

> <Gold.Chemscore.ZeroCoef>
-5.4800

> <Gold.Chemscore.Hbond>
1.7850

> <Gold.Chemscore.Metal>
0.0000

> <Gold.Chemscore.Lipo>
65.5202

> <Gold.Chemscore.Internal_Hbond>
0.0000

> <Gold.Chemscore.DEClash>
0.0336

> <Gold.Chemscore.DEInternal>
0.8258

> <Gold.Chemscore.Rot>
1.9190

> <Gold.Chemscore.Internal.Correction>
   9.000000E+99

> <Gold.Chemscore.Hbonds>
donor molecule, donor type, donor heavy atom, donor atom, acceptor molecule, acceptor atom, score
      P1  H  6896  6907       L1    22  0.46
      P1  H  6934  6947       L1     1  0.85

> <Gold.Chemscore.Hbond.Weighted>
-5.9621

> <Gold.Chemscore.Metal.Weighted>
-0.0000

> <Gold.Chemscore.Lipo.Weighted>
-7.6659

> <Gold.Chemscore.Internal_Hbond.Weighted>
0.0000

> <Gold.Chemscore.DEClash.Weighted>
0.0336

> <Gold.Chemscore.DEInternal.Weighted>
0.8258

> <Gold.Chemscore.Rot.Weighted>
4.9126

> <Gold.Chemscore.Internal.Correction.Weighted>
   9.000000E+99

> <Gold.Protein.RotatedTorsions>
[ 6907 6896 6895 6894 ] final -100.51 input  -60.11 | X-H torsion
[ 7974 7965 7964 7962 ] final    7.29 input  175.53 | X-H torsion
[ 8008 7997 7996 7995 ] final   23.61 input   59.86 | X-H torsion
[ 10167 10162 10161 10158 ] final -104.42 input  -65.29 | X-H torsion
[ 10718 10713 10712 10709 ] final  121.78 input   66.30 | X-H torsion
[ 10763 10752 10751 10750 ] final  -63.75 input  -60.55 | X-H torsion
[ 11005 11000 10999 10996 ] final -112.69 input  -57.11 | X-H torsion

> <Gold.Protein.ActiveResidues>
 VAL166  LYS551  ARG553  GLY616  TRP617  ASP618  TYR619  PRO620  LYS621  CYS622 
 ASP623  PHE694  ASN695  SER759  ASP760  ASP761  ALA762  ILE779  LEU786  VAL792 
 PHE793  MET794  SER795  GLU796  ALA797  LYS798  CYS799  TRP800  GLU811  SER814 

> <Gold.Protein.RotatedAtoms>
  150.7119  134.0876  159.3919 H   0  0  0  0  0  0  0  0  0  0  0  0  # atno 6907 bound_to 6896
  151.8861  135.0432  160.0502 H   0  0  0  0  0  0  0  0  0  0  0  0  # atno 6908 bound_to 6896
  152.2529  133.5195  159.5373 H   0  0  0  0  0  0  0  0  0  0  0  0  # atno 6909 bound_to 6896
  146.2428  140.0106  142.8407 H   0  0  0  0  0  0  0  0  0  0  0  0  # atno 7974 bound_to 7965
  154.9836  140.3105  155.4936 H   0  0  0  0  0  0  0  0  0  0  0  0  # atno 8008 bound_to 7997
  156.2950  140.2262  156.4877 H   0  0  0  0  0  0  0  0  0  0  0  0  # atno 8009 bound_to 7997
  154.7767  140.0448  157.1083 H   0  0  0  0  0  0  0  0  0  0  0  0  # atno 8010 bound_to 7997
  140.2095  143.3757  152.1062 H   0  0  0  0  0  0  0  0  0  0  0  0  # atno 10167 bound_to 10162
  157.5792  131.1076  150.8221 H   0  0  0  0  0  0  0  0  0  0  0  0  # atno 10718 bound_to 10713
  154.3198  135.6198  153.5502 H   0  0  0  0  0  0  0  0  0  0  0  0  # atno 10763 bound_to 10752
  152.9821  135.5721  154.5083 H   0  0  0  0  0  0  0  0  0  0  0  0  # atno 10764 bound_to 10752
  154.4749  135.2861  155.1591 H   0  0  0  0  0  0  0  0  0  0  0  0  # atno 10765 bound_to 10752
  141.0660  133.9458  157.2577 H   0  0  0  0  0  0  0  0  0  0  0  0  # atno 11005 bound_to 11000
  145.1331  140.9529  143.4532 LP  0  0  0  0  0  0  0  0  0  0  0  0  # atno 17320 bound_to 7965
  145.0368  139.3294  143.5997 LP  0  0  0  0  0  0  0  0  0  0  0  0  # atno 17321 bound_to 7965
  139.5185  144.7007  151.5501 LP  0  0  0  0  0  0  0  0  0  0  0  0  # atno 17342 bound_to 10162
  140.6334  143.9032  150.6625 LP  0  0  0  0  0  0  0  0  0  0  0  0  # atno 17343 bound_to 10162
  156.8671  130.5133  149.5299 LP  0  0  0  0  0  0  0  0  0  0  0  0  # atno 17370 bound_to 10713
  156.0837  130.5841  150.9609 LP  0  0  0  0  0  0  0  0  0  0  0  0  # atno 17371 bound_to 10713
  139.9477  135.0181  156.8901 LP  0  0  0  0  0  0  0  0  0  0  0  0  # atno 17394 bound_to 11000
  140.5772  134.0387  155.7451 LP  0  0  0  0  0  0  0  0  0  0  0  0  # atno 17395 bound_to 11000

$$$$
