AV-unprocessed.smi:712|AV-procd|sdf|3473|dock9
  -GOLD-   22720 0463D 1   1.00000     0.00000
 Structure written by MMmdl.
 50 51  0  0  0  0  0  0  0  0  1 V2000
  151.4701  144.1191  161.0325 C   0  0  0  0  0  0  0  0  0  0  0  0
  152.4871  143.0086  160.8681 C   0  0  0  0  0  0  0  0  0  0  0  0
  152.6510  142.3363  159.5959 C   0  0  0  0  0  0  0  0  0  0  0  0
  153.5669  141.3613  159.4849 C   0  0  0  0  0  0  0  0  0  0  0  0
  154.3731  140.9720  160.5702 N   0  0  0  0  0  0  0  0  0  0  0  0
  155.3496  139.8958  160.3347 C   0  0  0  0  0  0  0  0  0  0  0  0
  154.7761  138.4960  160.5950 C   0  0  0  0  0  0  0  0  0  0  0  0
  154.7288  137.6602  159.6919 O   0  0  0  0  0  0  0  0  0  0  0  0
  154.3710  138.2504  161.8502 N   0  0  0  0  0  0  0  0  0  0  0  0
  153.8056  136.9940  162.3350 C   0  0  0  0  0  0  0  0  0  0  0  0
  154.7598  135.8043  162.1265 C   0  0  1  0  0  0  0  0  0  0  0  0
  154.6975  134.7447  163.2469 C   0  0  0  0  0  0  0  0  0  0  0  0
  155.5943  133.6215  162.9941 N   0  0  0  0  0  0  0  0  0  0  0  0
  155.5168  132.6477  164.0877 C   0  0  0  0  0  0  0  0  0  0  0  0
  155.4498  133.1944  165.5353 C   0  0  0  0  0  0  0  0  0  0  0  0
  156.1274  132.2861  166.5752 C   0  0  0  0  0  0  0  0  0  0  0  0
  154.0406  133.6389  165.9637 C   0  0  0  0  0  0  0  0  0  0  0  0
  155.2745  133.0506  161.6885 C   0  0  0  0  0  0  0  0  0  0  0  0
  155.3248  134.1044  160.5687 C   0  0  0  0  0  0  0  0  0  0  0  0
  154.4534  135.1857  160.8795 O   0  0  0  0  0  0  0  0  0  0  0  0
  154.2634  141.5613  161.7989 C   0  0  0  0  0  0  0  0  0  0  0  0
  154.9623  141.2208  162.7538 O   0  0  0  0  0  0  0  0  0  0  0  0
  153.2617  142.6281  161.9077 C   0  0  0  0  0  0  0  0  0  0  0  0
  150.8458  144.2173  160.1440 H   0  0  0  0  0  0  0  0  0  0  0  0
  151.9738  145.0707  161.2030 H   0  0  0  0  0  0  0  0  0  0  0  0
  150.8196  143.9162  161.8837 H   0  0  0  0  0  0  0  0  0  0  0  0
  152.0443  142.6114  158.7456 H   0  0  0  0  0  0  0  0  0  0  0  0
  153.7349  140.8172  158.5670 H   0  0  0  0  0  0  0  0  0  0  0  0
  155.7133  139.9243  159.3068 H   0  0  0  0  0  0  0  0  0  0  0  0
  156.2342  140.0544  160.9547 H   0  0  0  0  0  0  0  0  0  0  0  0
  154.4607  138.9939  162.5276 H   0  0  0  0  0  0  0  0  0  0  0  0
  153.5996  137.1106  163.3993 H   0  0  0  0  0  0  0  0  0  0  0  0
  152.8434  136.7878  161.8638 H   0  0  0  0  0  0  0  0  0  0  0  0
  155.7764  136.1982  162.0721 H   0  0  0  0  0  0  0  0  0  0  0  0
  154.9532  135.2151  164.1971 H   0  0  0  0  0  0  0  0  0  0  0  0
  153.6765  134.3746  163.3494 H   0  0  0  0  0  0  0  0  0  0  0  0
  154.6059  132.0650  163.9427 H   0  0  0  0  0  0  0  0  0  0  0  0
  156.3305  131.9259  164.0022 H   0  0  0  0  0  0  0  0  0  0  0  0
  156.0351  134.1148  165.5176 H   0  0  0  0  0  0  0  0  0  0  0  0
  155.5826  131.3524  166.7135 H   0  0  0  0  0  0  0  0  0  0  0  0
  156.1832  132.7794  167.5457 H   0  0  0  0  0  0  0  0  0  0  0  0
  157.1453  132.0374  166.2742 H   0  0  0  0  0  0  0  0  0  0  0  0
  153.3546  132.8043  166.0902 H   0  0  0  0  0  0  0  0  0  0  0  0
  153.6042  134.3188  165.2314 H   0  0  0  0  0  0  0  0  0  0  0  0
  154.0777  134.1695  166.9155 H   0  0  0  0  0  0  0  0  0  0  0  0
  155.9828  132.2648  161.4371 H   0  0  0  0  0  0  0  0  0  0  0  0
  154.2844  132.5928  161.7145 H   0  0  0  0  0  0  0  0  0  0  0  0
  156.3418  134.4765  160.4361 H   0  0  0  0  0  0  0  0  0  0  0  0
  155.0198  133.6638  159.6197 H   0  0  0  0  0  0  0  0  0  0  0  0
  153.1446  143.1262  162.8594 H   0  0  0  0  0  0  0  0  0  0  0  0
  1  2  1  0  0  0  0
  1 24  1  0  0  0  0
  1 25  1  0  0  0  0
  1 26  1  0  0  0  0
  2 23  2  0  0  0  0
  2  3  1  0  0  0  0
  3  4  2  0  0  0  0
  3 27  1  0  0  0  0
  4  5  1  0  0  0  0
  4 28  1  0  0  0  0
  5  6  1  0  0  0  0
  5 21  1  0  0  0  0
  6  7  1  0  0  0  0
  6 29  1  0  0  0  0
  6 30  1  0  0  0  0
  7  8  2  0  0  0  0
  7  9  1  0  0  0  0
  9 10  1  0  0  0  0
  9 31  1  0  0  0  0
 10 11  1  0  0  0  0
 10 32  1  0  0  0  0
 10 33  1  0  0  0  0
 11 20  1  0  0  0  0
 11 12  1  0  0  0  0
 11 34  1  0  0  0  0
 12 13  1  0  0  0  0
 12 35  1  0  0  0  0
 12 36  1  0  0  0  0
 13 14  1  0  0  0  0
 13 18  1  0  0  0  0
 14 15  1  0  0  0  0
 14 37  1  0  0  0  0
 14 38  1  0  0  0  0
 15 16  1  0  0  0  0
 15 17  1  0  0  0  0
 15 39  1  0  0  0  0
 16 40  1  0  0  0  0
 16 41  1  0  0  0  0
 16 42  1  0  0  0  0
 17 43  1  0  0  0  0
 17 44  1  0  0  0  0
 17 45  1  0  0  0  0
 18 19  1  0  0  0  0
 18 46  1  0  0  0  0
 18 47  1  0  0  0  0
 19 20  1  0  0  0  0
 19 48  1  0  0  0  0
 19 49  1  0  0  0  0
 21 22  2  0  0  0  0
 21 23  1  0  0  0  0
 23 50  1  0  0  0  0
M  END
> <s_m_source_file>
AV-unprocessed.smi

> <i_m_source_file_index>
712

> <i_lp_mmshare_version>
43012

> <i_f3d_flags>
0

> <s_epik_input>
W0NIM11jMVtjSF1bY0hdbihjKD1PKVtjSF0xKVtDSDJdQyg9TylbTkhdW0NIMl1bQ0BASF0yW0NIMl1OKFtDSDJdW0NIMl1PMilbQ0gyXVtDSF0oW0NIM10pW0NIM10=

> <s_epik_cmdline>
J2VwaWtfcHl0aG9uJywgJy1waCcsICc3LjAnLCAnLXRuJywgJzgnLCAnLW1hJywgJzIwMCcsICctbWV0YWxfYmluZGluZycsICctaW1hZScsICc8aW5maWxlLm1hZT4nLCAnLW9tYWUnLCAnPG91dGZpbGUubWFlPic=

> <r_lp_tautomer_probability>
1

> <r_epik_Ionization_Penalty>
1.11669

> <r_epik_Ionization_Penalty_Charging>
4.93496e-07

> <r_epik_Ionization_Penalty_Neutral>
1.11669

> <r_epik_State_Penalty>
1.17516

> <r_epik_Charging_Adjusted_Penalty>
1.17516

> <i_epik_Tot_Q>
0

> <i_epik_Tot_abs_Q>
0

> <r_epik_Metal_State_Penalty>
1.17513

> <b_epik_Metal_Only>
0

> <s_lp_Force_Field>
OPLS_2005

> <r_lp_Energy>
40.1187

> <b_lp_Chiralities_Consistent>
1

> <s_lp_Variant>
AV-unprocessed.smi:712-6

> <Gold.Version>
5.8.1

> <Gold.Id.Protein>
6NUR|6NUR_protein|mol2

> <Gold.PLP.Fitness>
44.1130

> <Gold.PLP.PLP>
-43.6551

> <Gold.PLP.part.hbond>
-2.0000

> <Gold.PLP.part.metal>
0.0000

> <Gold.PLP.part.buried>
-2.3070

> <Gold.PLP.part.nonpolar>
-38.7248

> <Gold.PLP.part.repulsive>
0.0021

> <Gold.PLP.ligand.clash>
0.0000

> <Gold.PLP.ligand.torsion>
1.2882

> <Gold.PLP.Chemscore.Hbond>
0.9913

> <Gold.PLP.Chemscore.CHOScore>
0.0000

> <Gold.PLP.Chemscore.Metal>
0.0000

> <Gold.Chemscore.Hbonds>
donor molecule, donor type, donor heavy atom, donor atom, acceptor molecule, acceptor atom, score
      P1  H  6896  6907       L1    20  0.50

> <Gold.PLP.Chemscore.Internal.Correction>
0.0606

> <Gold.Rescore>
     Score         DG    S(hbond)    S(metal)    S(lipo)     H(rot)  DE(clash)    DE(int)     intcor
     14.18     -16.99       0.79        0.00     115.84       1.82       0.08       2.72       ----

> <Gold.Chemscore.Fitness>
14.1845

> <Gold.Chemscore.DG>
-16.9923

> <Gold.Chemscore.ZeroCoef>
-5.4800

> <Gold.Chemscore.Hbond>
0.7874

> <Gold.Chemscore.Metal>
0.0000

> <Gold.Chemscore.Lipo>
115.8361

> <Gold.Chemscore.Internal_Hbond>
0.0000

> <Gold.Chemscore.DEClash>
0.0837

> <Gold.Chemscore.DEInternal>
2.7241

> <Gold.Chemscore.Rot>
1.8243

> <Gold.Chemscore.Internal.Correction>
   9.000000E+99

> <Gold.Chemscore.Hbonds>
donor molecule, donor type, donor heavy atom, donor atom, acceptor molecule, acceptor atom, score
      P1  H  6896  6907       L1    20  0.27

> <Gold.Chemscore.Hbond.Weighted>
-2.6298

> <Gold.Chemscore.Metal.Weighted>
-0.0000

> <Gold.Chemscore.Lipo.Weighted>
-13.5528

> <Gold.Chemscore.Internal_Hbond.Weighted>
0.0000

> <Gold.Chemscore.DEClash.Weighted>
0.0837

> <Gold.Chemscore.DEInternal.Weighted>
2.7241

> <Gold.Chemscore.Rot.Weighted>
4.6703

> <Gold.Chemscore.Internal.Correction.Weighted>
   9.000000E+99

> <Gold.Protein.RotatedTorsions>
[ 6907 6896 6895 6894 ] final   59.91 input  -60.11 | X-H torsion
[ 7974 7965 7964 7962 ] final   96.69 input  175.53 | X-H torsion
[ 8008 7997 7996 7995 ] final   37.03 input   59.86 | X-H torsion
[ 10167 10162 10161 10158 ] final  -12.80 input  -65.29 | X-H torsion
[ 10718 10713 10712 10709 ] final  -10.58 input   66.30 | X-H torsion
[ 10763 10752 10751 10750 ] final -156.24 input  -60.55 | X-H torsion
[ 11005 11000 10999 10996 ] final   39.93 input  -57.11 | X-H torsion

> <Gold.Protein.ActiveResidues>
 VAL166  LYS551  ARG553  GLY616  TRP617  ASP618  TYR619  PRO620  LYS621  CYS622 
 ASP623  PHE694  ASN695  SER759  ASP760  ASP761  ALA762  ILE779  LEU786  VAL792 
 PHE793  MET794  SER795  GLU796  ALA797  LYS798  CYS799  TRP800  GLU811  SER814 

> <Gold.Protein.RotatedAtoms>
  152.3957  134.6370  160.0089 H   0  0  0  0  0  0  0  0  0  0  0  0  # atno 6907 bound_to 6896
  151.6590  133.3312  159.3177 H   0  0  0  0  0  0  0  0  0  0  0  0  # atno 6908 bound_to 6896
  150.7865  134.6897  159.6534 H   0  0  0  0  0  0  0  0  0  0  0  0  # atno 6909 bound_to 6896
  145.4355  139.2306  143.3121 H   0  0  0  0  0  0  0  0  0  0  0  0  # atno 7974 bound_to 7965
  155.1971  140.3313  155.4349 H   0  0  0  0  0  0  0  0  0  0  0  0  # atno 8008 bound_to 7997
  156.2420  140.1900  156.7010 H   0  0  0  0  0  0  0  0  0  0  0  0  # atno 8009 bound_to 7997
  154.6166  140.0601  156.9548 H   0  0  0  0  0  0  0  0  0  0  0  0  # atno 8010 bound_to 7997
  140.7169  143.5494  150.9318 H   0  0  0  0  0  0  0  0  0  0  0  0  # atno 10167 bound_to 10162
  156.6714  130.5010  149.5999 H   0  0  0  0  0  0  0  0  0  0  0  0  # atno 10718 bound_to 10713
  154.7727  135.3150  154.8155 H   0  0  0  0  0  0  0  0  0  0  0  0  # atno 10763 bound_to 10752
  153.8886  135.6827  153.4766 H   0  0  0  0  0  0  0  0  0  0  0  0  # atno 10764 bound_to 10752
  153.1345  135.4766  154.9335 H   0  0  0  0  0  0  0  0  0  0  0  0  # atno 10765 bound_to 10752
  140.1980  134.3905  155.8111 H   0  0  0  0  0  0  0  0  0  0  0  0  # atno 11005 bound_to 11000
  146.2584  140.5097  142.8863 LP  0  0  0  0  0  0  0  0  0  0  0  0  # atno 17320 bound_to 7965
  144.8155  140.6461  143.6387 LP  0  0  0  0  0  0  0  0  0  0  0  0  # atno 17321 bound_to 7965
  139.9218  143.6597  152.3095 LP  0  0  0  0  0  0  0  0  0  0  0  0  # atno 17342 bound_to 10162
  139.7016  144.7634  151.1263 LP  0  0  0  0  0  0  0  0  0  0  0  0  # atno 17343 bound_to 10162
  156.1936  130.6575  151.1089 LP  0  0  0  0  0  0  0  0  0  0  0  0  # atno 17370 bound_to 10713
  157.7076  131.0749  150.6614 LP  0  0  0  0  0  0  0  0  0  0  0  0  # atno 17371 bound_to 10713
  141.2227  133.7080  156.8210 LP  0  0  0  0  0  0  0  0  0  0  0  0  # atno 17394 bound_to 11000
  140.2085  134.8845  157.3248 LP  0  0  0  0  0  0  0  0  0  0  0  0  # atno 17395 bound_to 11000

$$$$
