AV-unprocessed.smi:1712|AV-procd|sdf|6902|dock5
  -GOLD-   22720 8103D 1   1.00000     0.00000
 Structure written by MMmdl.
 37 38  0  0  0  0  0  0  0  0  1 V2000
  152.6420  145.0687  157.6400 C   0  0  0  0  0  0  0  0  0  0  0  0
  151.6538  143.9165  157.9548 C   0  0  1  0  0  0  0  0  0  0  0  0
  151.7854  142.8185  156.8608 C   0  0  0  0  0  0  0  0  0  0  0  0
  150.5107  142.4748  156.2339 N   0  0  0  0  0  0  0  0  0  0  0  0
  150.2571  141.3545  155.5416 C   0  0  0  0  0  0  0  0  0  0  0  0
  151.0903  140.4707  155.3409 O   0  0  0  0  0  0  0  0  0  0  0  0
  148.9892  141.3330  155.0994 N   0  0  0  0  0  0  0  0  0  0  0  0
  148.3687  140.3300  154.3125 C   0  0  0  0  0  0  0  0  0  0  0  0
  147.1403  140.4926  153.6162 C   0  0  0  0  0  0  0  0  0  0  0  0
  146.8055  139.3897  152.9620 N   0  0  0  0  0  0  0  0  0  0  0  0
  147.8089  138.5249  153.2333 N   0  0  0  0  0  0  0  0  0  0  0  0
  148.7827  139.0539  154.0514 C   0  0  0  0  0  0  0  0  0  0  0  0
  151.8093  143.3858  159.3305 N   0  0  0  0  0  0  0  0  0  0  0  0
  152.9352  142.4525  159.4550 C   0  0  0  0  0  0  0  0  0  0  0  0
  153.1154  141.9195  160.8869 C   0  0  0  0  0  0  0  0  0  0  0  0
  153.2853  143.0072  161.7844 O   0  0  0  0  0  0  0  0  0  0  0  0
  152.1787  143.8979  161.7563 C   0  0  0  0  0  0  0  0  0  0  0  0
  151.9883  144.4451  160.3311 C   0  0  0  0  0  0  0  0  0  0  0  0
  147.8154  137.5876  152.8567 H   0  0  0  0  0  0  0  0  0  0  0  0
  152.5274  145.4472  156.6253 H   0  0  0  0  0  0  0  0  0  0  0  0
  153.6766  144.7436  157.7544 H   0  0  0  0  0  0  0  0  0  0  0  0
  152.4875  145.9374  158.2779 H   0  0  0  0  0  0  0  0  0  0  0  0
  150.6483  144.3318  157.8684 H   0  0  0  0  0  0  0  0  0  0  0  0
  152.5281  143.1174  156.1189 H   0  0  0  0  0  0  0  0  0  0  0  0
  152.1391  141.8807  157.2843 H   0  0  0  0  0  0  0  0  0  0  0  0
  149.7621  143.1432  156.3410 H   0  0  0  0  0  0  0  0  0  0  0  0
  148.4080  142.1215  155.3440 H   0  0  0  0  0  0  0  0  0  0  0  0
  146.4941  141.3566  153.5646 H   0  0  0  0  0  0  0  0  0  0  0  0
  149.6500  138.4884  154.3582 H   0  0  0  0  0  0  0  0  0  0  0  0
  152.7889  141.5862  158.8128 H   0  0  0  0  0  0  0  0  0  0  0  0
  153.8566  142.9379  159.1303 H   0  0  0  0  0  0  0  0  0  0  0  0
  152.2547  141.3199  161.1872 H   0  0  0  0  0  0  0  0  0  0  0  0
  153.9910  141.2729  160.9427 H   0  0  0  0  0  0  0  0  0  0  0  0
  151.2782  143.3842  162.0963 H   0  0  0  0  0  0  0  0  0  0  0  0
  152.3628  144.7152  162.4537 H   0  0  0  0  0  0  0  0  0  0  0  0
  152.8461  145.0644  160.0648 H   0  0  0  0  0  0  0  0  0  0  0  0
  151.1200  145.1001  160.3604 H   0  0  0  0  0  0  0  0  0  0  0  0
  1  2  1  0  0  0  0
  1 20  1  0  0  0  0
  1 21  1  0  0  0  0
  1 22  1  0  0  0  0
  2  3  1  0  0  0  0
  2 13  1  0  0  0  0
  2 23  1  0  0  0  0
  3  4  1  0  0  0  0
  3 24  1  0  0  0  0
  3 25  1  0  0  0  0
  4  5  1  0  0  0  0
  4 26  1  0  0  0  0
  5  6  2  0  0  0  0
  5  7  1  0  0  0  0
  7  8  1  0  0  0  0
  7 27  1  0  0  0  0
  8 12  2  0  0  0  0
  8  9  1  0  0  0  0
  9 10  2  0  0  0  0
  9 28  1  0  0  0  0
 10 11  1  0  0  0  0
 11 19  1  0  0  0  0
 11 12  1  0  0  0  0
 12 29  1  0  0  0  0
 13 18  1  0  0  0  0
 13 14  1  0  0  0  0
 14 15  1  0  0  0  0
 14 30  1  0  0  0  0
 14 31  1  0  0  0  0
 15 16  1  0  0  0  0
 15 32  1  0  0  0  0
 15 33  1  0  0  0  0
 16 17  1  0  0  0  0
 17 18  1  0  0  0  0
 17 34  1  0  0  0  0
 17 35  1  0  0  0  0
 18 36  1  0  0  0  0
 18 37  1  0  0  0  0
M  END
> <s_m_source_file>
AV-unprocessed.smi

> <i_m_source_file_index>
1712

> <i_lp_mmshare_version>
43012

> <i_f3d_flags>
0

> <s_epik_input>
W0NIMl0xW0NIMl1PW0NIMl1bQ0gyXU4xW0NASF0oW0NIM10pW0NIMl1bTkhdQyg9TylbTkhdYzJbY0hdbltuSF1bY0hdMg==

> <s_epik_cmdline>
J2VwaWtfcHl0aG9uJywgJy1waCcsICc3LjAnLCAnLXRuJywgJzgnLCAnLW1hJywgJzIwMCcsICctbWV0YWxfYmluZGluZycsICctaW1hZScsICc8aW5maWxlLm1hZT4nLCAnLW9tYWUnLCAnPG91dGZpbGUubWFlPic=

> <r_lp_tautomer_probability>
0.5

> <r_epik_Ionization_Penalty>
0.242772

> <r_epik_Ionization_Penalty_Charging>
0

> <r_epik_Ionization_Penalty_Neutral>
0.242772

> <r_epik_State_Penalty>
0.233765

> <r_epik_Charging_Adjusted_Penalty>
0.233765

> <i_epik_Tot_Q>
0

> <i_epik_Tot_abs_Q>
0

> <r_epik_Metal_State_Penalty>
0.233764

> <b_epik_Metal_Only>
0

> <s_lp_Force_Field>
OPLS_2005

> <r_lp_Energy>
31.3121

> <b_lp_Chiralities_Consistent>
1

> <s_lp_Variant>
AV-unprocessed.smi:1712-2

> <Gold.Version>
5.8.1

> <Gold.Id.Protein>
6NUR|6NUR_protein|mol2

> <Gold.PLP.Fitness>
42.6222

> <Gold.PLP.PLP>
-36.2765

> <Gold.PLP.part.hbond>
-4.0000

> <Gold.PLP.part.metal>
0.0000

> <Gold.PLP.part.buried>
-4.3142

> <Gold.PLP.part.nonpolar>
-28.6488

> <Gold.PLP.part.repulsive>
0.6932

> <Gold.PLP.ligand.clash>
0.0000

> <Gold.PLP.ligand.torsion>
1.1479

> <Gold.PLP.Chemscore.Hbond>
2.8640

> <Gold.PLP.Chemscore.CHOScore>
0.0000

> <Gold.PLP.Chemscore.Metal>
0.0000

> <Gold.Chemscore.Hbonds>
donor molecule, donor type, donor heavy atom, donor atom, acceptor molecule, acceptor atom, score
      L1  H     4    26       P1  8028  0.94
      L1  H    11    19       P1  7948  0.86
      P1  H  7989  7998       L1     6  0.96

> <Gold.PLP.Chemscore.Internal.Correction>
0.0495

> <Gold.Rescore>
     Score         DG    S(hbond)    S(metal)    S(lipo)     H(rot)  DE(clash)    DE(int)     intcor
     15.72     -20.95       2.20        0.00     105.10       1.63       3.22       2.01       ----

> <Gold.Chemscore.Fitness>
15.7165

> <Gold.Chemscore.DG>
-20.9481

> <Gold.Chemscore.ZeroCoef>
-5.4800

> <Gold.Chemscore.Hbond>
2.1996

> <Gold.Chemscore.Metal>
0.0000

> <Gold.Chemscore.Lipo>
105.1037

> <Gold.Chemscore.Internal_Hbond>
0.0000

> <Gold.Chemscore.DEClash>
3.2239

> <Gold.Chemscore.DEInternal>
2.0077

> <Gold.Chemscore.Rot>
1.6311

> <Gold.Chemscore.Internal.Correction>
   9.000000E+99

> <Gold.Chemscore.Hbonds>
donor molecule, donor type, donor heavy atom, donor atom, acceptor molecule, acceptor atom, score
      L1  H     4    26       P1  8028  0.91
      L1  H    11    19       P1  7948  0.80
      P1  H  7989  7998       L1     6  0.27

> <Gold.Chemscore.Hbond.Weighted>
-7.3466

> <Gold.Chemscore.Metal.Weighted>
-0.0000

> <Gold.Chemscore.Lipo.Weighted>
-12.2971

> <Gold.Chemscore.Internal_Hbond.Weighted>
0.0000

> <Gold.Chemscore.DEClash.Weighted>
3.2239

> <Gold.Chemscore.DEInternal.Weighted>
2.0077

> <Gold.Chemscore.Rot.Weighted>
4.1757

> <Gold.Chemscore.Internal.Correction.Weighted>
   9.000000E+99

> <Gold.Protein.RotatedTorsions>
[ 6907 6896 6895 6894 ] final  171.20 input  -60.11 | X-H torsion
[ 7974 7965 7964 7962 ] final -146.12 input  175.53 | X-H torsion
[ 8008 7997 7996 7995 ] final   70.48 input   59.86 | X-H torsion
[ 10167 10162 10161 10158 ] final -153.69 input  -65.29 | X-H torsion
[ 10718 10713 10712 10709 ] final -126.72 input   66.30 | X-H torsion
[ 10763 10752 10751 10750 ] final   58.72 input  -60.55 | X-H torsion
[ 11005 11000 10999 10996 ] final  -52.35 input  -57.11 | X-H torsion

> <Gold.Protein.ActiveResidues>
 VAL166  LYS551  ARG553  GLY616  TRP617  ASP618  TYR619  PRO620  LYS621  CYS622 
 ASP623  PHE694  ASN695  SER759  ASP760  ASP761  ALA762  ILE779  LEU786  VAL792 
 PHE793  MET794  SER795  GLU796  ALA797  LYS798  CYS799  TRP800  GLU811  SER814 

> <Gold.Protein.RotatedAtoms>
  151.8040  133.3373  159.3535 H   0  0  0  0  0  0  0  0  0  0  0  0  # atno 6907 bound_to 6896
  150.7349  134.5727  159.5908 H   0  0  0  0  0  0  0  0  0  0  0  0  # atno 6908 bound_to 6896
  152.3123  134.7484  160.0385 H   0  0  0  0  0  0  0  0  0  0  0  0  # atno 6909 bound_to 6896
  144.8181  140.5497  143.5597 H   0  0  0  0  0  0  0  0  0  0  0  0  # atno 7974 bound_to 7965
  155.7394  140.3490  155.5097 H   0  0  0  0  0  0  0  0  0  0  0  0  # atno 8008 bound_to 7997
  155.9108  140.1050  157.1302 H   0  0  0  0  0  0  0  0  0  0  0  0  # atno 8009 bound_to 7997
  154.4056  140.1268  156.4542 H   0  0  0  0  0  0  0  0  0  0  0  0  # atno 8010 bound_to 7997
  139.7075  143.9162  152.2455 H   0  0  0  0  0  0  0  0  0  0  0  0  # atno 10167 bound_to 10162
  156.1791  130.6719  151.0281 H   0  0  0  0  0  0  0  0  0  0  0  0  # atno 10718 bound_to 10713
  152.9877  135.5597  154.5597 H   0  0  0  0  0  0  0  0  0  0  0  0  # atno 10763 bound_to 10752
  154.5019  135.2798  155.1416 H   0  0  0  0  0  0  0  0  0  0  0  0  # atno 10764 bound_to 10752
  154.2843  135.6338  153.5412 H   0  0  0  0  0  0  0  0  0  0  0  0  # atno 10765 bound_to 10752
  141.0920  133.6631  156.4012 H   0  0  0  0  0  0  0  0  0  0  0  0  # atno 11005 bound_to 11000
  145.5168  139.1477  143.3574 LP  0  0  0  0  0  0  0  0  0  0  0  0  # atno 17320 bound_to 7965
  146.2485  140.5309  142.8903 LP  0  0  0  0  0  0  0  0  0  0  0  0  # atno 17321 bound_to 7965
  139.9022  144.6905  150.8653 LP  0  0  0  0  0  0  0  0  0  0  0  0  # atno 17342 bound_to 10162
  140.7725  143.3505  151.2023 LP  0  0  0  0  0  0  0  0  0  0  0  0  # atno 17343 bound_to 10162
  157.6856  131.0826  150.7253 LP  0  0  0  0  0  0  0  0  0  0  0  0  # atno 17370 bound_to 10713
  156.7310  130.4709  149.5499 LP  0  0  0  0  0  0  0  0  0  0  0  0  # atno 17371 bound_to 10713
  140.5230  134.6286  157.5324 LP  0  0  0  0  0  0  0  0  0  0  0  0  # atno 17394 bound_to 11000
  139.9747  134.7234  155.9972 LP  0  0  0  0  0  0  0  0  0  0  0  0  # atno 17395 bound_to 11000

$$$$
