#       Name:                AV-unprocessed.smi:2450
#       Creating user name   scv26
#       Creation time:       Fri Mar 27 13:30:28 2020


#       File generated by GOLD software.
#

@<TRIPOS>MOLECULE
AV-unprocessed.smi:2450
    45    46     1
SMALL
NO_CHARGES


@<TRIPOS>ATOM
      1 ****        -3.2412  -0.3477   2.4794 C.3            1 S1                 0.0000
      2 ****        -3.8932  -1.0799   1.2973 C.3            1 S1                 0.0000
      3 ****        -3.5800  -0.4462  -0.0710 C.3            1 S1                 0.0000
      4 ****        -4.3378  -1.1479  -1.2083 C.3            1 S1                 0.0000
      5 ****        -2.1430  -0.4934  -0.3317 N.am           1 S1                 0.0000
      6 ****        -1.4380   0.4375  -0.9900 C.2            1 S1                 0.0000
      7 ****        -1.9318   1.4624  -1.4604 O.2            1 S1                 0.0000
      8 ****        -0.1378   0.1040  -1.0472 N.am           1 S1                 0.0000
      9 ****         0.9452   0.8515  -1.5909 C.ar           1 S1                 0.0000
     10 ****         0.7713   1.7157  -2.6998 C.ar           1 S1                 0.0000
     11 ****         1.8870   2.3780  -3.2402 C.ar           1 S1                 0.0000
     12 ****         3.1450   2.1401  -2.6628 C.ar           1 S1                 0.0000
     13 ****         3.3300   1.3102  -1.6170 N.ar           1 S1                 0.0000
     14 ****         2.2614   0.6753  -1.0750 C.ar           1 S1                 0.0000
     15 ****         2.5153  -0.1725   0.0278 N.3            1 S1                 0.0000
     16 ****         3.8782  -0.5835   0.3471 C.3            1 S1                 0.0000
     17 ****         3.7980  -1.1482   1.7621 C.3            1 S1                 0.0000
     18 ****         2.7526  -0.2475   2.4126 C.3            1 S1                 0.0000
     19 ****         1.7854   0.0743   1.2682 C.3            1 S1                 0.0000
     20 ****        -3.5284  -0.8083   3.4246 H              1 S1                 0.0000
     21 ****        -3.5499   0.6975   2.5127 H              1 S1                 0.0000
     22 ****        -2.1530  -0.3739   2.4181 H              1 S1                 0.0000
     23 ****        -3.5782  -2.1242   1.3024 H              1 S1                 0.0000
     24 ****        -4.9733  -1.0890   1.4482 H              1 S1                 0.0000
     25 ****        -3.9093   0.5941  -0.0367 H              1 S1                 0.0000
     26 ****        -5.4149  -1.1086  -1.0445 H              1 S1                 0.0000
     27 ****        -4.0512  -2.1971  -1.2885 H              1 S1                 0.0000
     28 ****        -4.1352  -0.6726  -2.1686 H              1 S1                 0.0000
     29 ****        -1.6472  -1.2988   0.0213 H              1 S1                 0.0000
     30 ****         0.1272  -0.7304  -0.5443 H              1 S1                 0.0000
     31 ****        -0.1929   1.8644  -3.1608 H              1 S1                 0.0000
     32 ****         1.7816   3.0420  -4.0852 H              1 S1                 0.0000
     33 ****         4.0275   2.6236  -3.0543 H              1 S1                 0.0000
     34 ****         4.2486  -1.3223  -0.3642 H              1 S1                 0.0000
     35 ****         4.5538   0.2728   0.3366 H              1 S1                 0.0000
     36 ****         3.4384  -2.1777   1.7344 H              1 S1                 0.0000
     37 ****         4.7570  -1.1355   2.2803 H              1 S1                 0.0000
     38 ****         2.2593  -0.7145   3.2653 H              1 S1                 0.0000
     39 ****         3.2275   0.6707   2.7603 H              1 S1                 0.0000
     40 ****         1.4197   1.1002   1.3326 H              1 S1                 0.0000
     41 ****         0.9258  -0.5950   1.3112 H              1 S1                 0.0000
     42 ****        -2.9115   1.6366  -1.3610 LP             1 S1                 0.0000
     43 ****        -1.3532   2.1207  -1.9420 LP             1 S1                 0.0000
     44 ****         4.2464   1.1641  -1.2444 LP             1 S1                 0.0000
     45 ****         2.1048  -0.9570  -0.4370 LP             1 S1                 0.0000
@<TRIPOS>BOND
    1    1    2 1     
    2    1   20 1     
    3    1   21 1     
    4    1   22 1     
    5    2    3 1     
    6    2   23 1     
    7    2   24 1     
    8    3    4 1     
    9    3    5 1     
   10    3   25 1     
   11    4   26 1     
   12    4   27 1     
   13    4   28 1     
   14    5    6 am    
   15    5   29 1     
   16    6    7 2     
   17    6    8 am    
   18    8    9 1     
   19    8   30 1     
   20    9   14 ar    
   21    9   10 ar    
   22   10   11 ar    
   23   10   31 1     
   24   11   12 ar    
   25   11   32 1     
   26   12   13 ar    
   27   12   33 1     
   28   13   14 ar    
   29   14   15 1     
   30   15   19 1     
   31   15   16 1     
   32   16   17 1     
   33   16   34 1     
   34   16   35 1     
   35   17   18 1     
   36   17   36 1     
   37   17   37 1     
   38   18   19 1     
   39   18   38 1     
   40   18   39 1     
   41   19   40 1     
   42   19   41 1     
   43    7   42 1     
   44    7   43 1     
   45   13   44 1     
   46   15   45 1     
@<TRIPOS>SUBSTRUCTURE
      1 S1             1
@<TRIPOS>SET
LONE_PAIRS      STATIC     ATOMS    <user>   **** ""
4 42 43 44 45
DONOR_HYDROGENS      STATIC     ATOMS    <user>   **** ""
2 29 30
ATOM$BLUE        STATIC     ATOMS    COLORGROUP SYSTEM
4 42 43 44 45
ATOM$RED        STATIC     ATOMS    COLORGROUP SYSTEM
2 29 30
