AV-unprocessed.smi:3181|AV-procd|sdf|12149|dock3
  -GOLD-   2272017583D 1   1.00000     0.00000
 Structure written by MMmdl.
 42 43  0  0  0  0  0  0  0  0  2 V2000
  149.6560  140.7506  157.1904 C   0  0  0  0  0  0  0  0  0  0  0  0
  150.6234  141.4562  156.2251 C   0  0  2  0  0  0  0  0  0  0  0  0
  151.9607  140.7080  156.0551 C   0  0  0  0  0  0  0  0  0  0  0  0
  151.7937  139.3673  155.5252 N   0  0  0  0  0  0  0  0  0  0  0  0
  152.2002  138.1899  156.0028 C   0  0  0  0  0  0  0  0  0  0  0  0
  151.8646  137.1587  155.2409 N   0  0  0  0  0  0  0  0  0  0  0  0
  151.2030  137.8175  154.2432 C   0  0  0  0  0  0  0  0  0  0  0  0
  151.1313  139.1432  154.3663 N   0  0  0  0  0  0  0  0  0  0  0  0
  150.8885  142.8345  156.6969 N   0  3  0  0  0  0  0  0  0  0  0  0
  150.9902  143.0069  158.1634 C   0  0  1  0  0  0  0  0  0  0  0  0
  151.9237  141.9528  158.7925 C   0  0  0  0  0  0  0  0  0  0  0  0
  152.0795  142.1682  160.3064 C   0  0  0  0  0  0  0  0  0  0  0  0
  152.5691  143.5938  160.6301 C   0  0  2  0  0  0  0  0  0  0  0  0
  152.8003  143.7894  162.1376 C   0  0  0  0  0  0  0  0  0  0  0  0
  151.6452  144.6707  160.0053 C   0  0  2  0  0  0  0  0  0  0  0  0
  150.2750  144.8092  160.6997 C   0  0  0  0  0  0  0  0  0  0  0  0
  151.4944  144.4266  158.4887 C   0  0  0  0  0  0  0  0  0  0  0  0
  149.3784  139.7609  156.8272 H   0  0  0  0  0  0  0  0  0  0  0  0
  148.7331  141.3187  157.3093 H   0  0  0  0  0  0  0  0  0  0  0  0
  150.1007  140.6288  158.1785 H   0  0  0  0  0  0  0  0  0  0  0  0
  150.1422  141.4962  155.2466 H   0  0  0  0  0  0  0  0  0  0  0  0
  152.6133  141.2575  155.3753 H   0  0  0  0  0  0  0  0  0  0  0  0
  152.4870  140.6461  157.0094 H   0  0  0  0  0  0  0  0  0  0  0  0
  152.7543  138.0852  156.9243 H   0  0  0  0  0  0  0  0  0  0  0  0
  150.7616  137.3051  153.4009 H   0  0  0  0  0  0  0  0  0  0  0  0
  151.7362  143.1747  156.2659 H   0  0  0  0  0  0  0  0  0  0  0  0
  149.9885  142.8973  158.5809 H   0  0  0  0  0  0  0  0  0  0  0  0
  151.5442  140.9468  158.6124 H   0  0  0  0  0  0  0  0  0  0  0  0
  152.9053  141.9998  158.3185 H   0  0  0  0  0  0  0  0  0  0  0  0
  151.1294  141.9740  160.8049 H   0  0  0  0  0  0  0  0  0  0  0  0
  152.7843  141.4365  160.7027 H   0  0  0  0  0  0  0  0  0  0  0  0
  153.5458  143.7072  160.1568 H   0  0  0  0  0  0  0  0  0  0  0  0
  151.8937  143.6054  162.7141 H   0  0  0  0  0  0  0  0  0  0  0  0
  153.1381  144.8028  162.3561 H   0  0  0  0  0  0  0  0  0  0  0  0
  153.5634  143.1032  162.5057 H   0  0  0  0  0  0  0  0  0  0  0  0
  152.1437  145.6342  160.1219 H   0  0  0  0  0  0  0  0  0  0  0  0
  149.7172  143.8733  160.7049 H   0  0  0  0  0  0  0  0  0  0  0  0
  149.6585  145.5547  160.1968 H   0  0  0  0  0  0  0  0  0  0  0  0
  150.3827  145.1345  161.7342 H   0  0  0  0  0  0  0  0  0  0  0  0
  152.4615  144.5828  158.0080 H   0  0  0  0  0  0  0  0  0  0  0  0
  150.8226  145.1708  158.0589 H   0  0  0  0  0  0  0  0  0  0  0  0
  150.1216  143.4098  156.3788 H   0  0  0  0  0  0  0  0  0  0  0  0
  1  2  1  0  0  0  0
  1 18  1  0  0  0  0
  1 19  1  0  0  0  0
  1 20  1  0  0  0  0
  2  3  1  0  0  0  0
  2  9  1  0  0  0  0
  2 21  1  0  0  0  0
  3  4  1  0  0  0  0
  3 22  1  0  0  0  0
  3 23  1  0  0  0  0
  4  8  1  0  0  0  0
  4  5  1  0  0  0  0
  5  6  2  0  0  0  0
  5 24  1  0  0  0  0
  6  7  1  0  0  0  0
  7  8  2  0  0  0  0
  7 25  1  0  0  0  0
  9 10  1  0  0  0  0
  9 26  1  0  0  0  0
  9 42  1  0  0  0  0
 10 17  1  0  0  0  0
 10 11  1  0  0  0  0
 10 27  1  0  0  0  0
 11 12  1  0  0  0  0
 11 28  1  0  0  0  0
 11 29  1  0  0  0  0
 12 13  1  0  0  0  0
 12 30  1  0  0  0  0
 12 31  1  0  0  0  0
 13 14  1  0  0  0  0
 13 15  1  0  0  0  0
 13 32  1  0  0  0  0
 14 33  1  0  0  0  0
 14 34  1  0  0  0  0
 14 35  1  0  0  0  0
 15 16  1  0  0  0  0
 15 17  1  0  0  0  0
 15 36  1  0  0  0  0
 16 37  1  0  0  0  0
 16 38  1  0  0  0  0
 16 39  1  0  0  0  0
 17 40  1  0  0  0  0
 17 41  1  0  0  0  0
M  CHG  1   9   1
M  END
> <s_m_source_file>
AV-unprocessed.smi

> <i_m_source_file_index>
3181

> <i_lp_mmshare_version>
43012

> <i_f3d_flags>
0

> <s_epik_input>
bjFbY0hdbltjSF1uMVtDSDJdW0NAQEhdKFtDSDNdKVtOSF1bQ0BASF0yW0NIMl1bQ0gyXVtDQEBIXShbQ0gzXSlbQ0BASF0oW0NIM10pW0NIMl0y

> <s_epik_cmdline>
J2VwaWtfcHl0aG9uJywgJy1waCcsICc3LjAnLCAnLXRuJywgJzgnLCAnLW1hJywgJzIwMCcsICctbWV0YWxfYmluZGluZycsICctaW1hZScsICc8aW5maWxlLm1hZT4nLCAnLW9tYWUnLCAnPG91dGZpbGUubWFlPic=

> <r_lp_tautomer_probability>
1

> <r_epik_Ionization_Penalty>
0.000617007

> <r_epik_Ionization_Penalty_Charging>
0.000616215

> <r_epik_Ionization_Penalty_Neutral>
7.92544e-07

> <r_epik_State_Penalty>
0.000388807

> <r_epik_Charging_Adjusted_Penalty>
0.00100502

> <i_epik_Tot_Q>
1

> <i_epik_Tot_abs_Q>
1

> <r_epik_Metal_State_Penalty>
-0

> <b_epik_Metal_Only>
0

> <s_lp_Force_Field>
OPLS_2005

> <r_lp_Energy>
22.4909

> <b_lp_Chiralities_Consistent>
1

> <s_lp_Variant>
AV-unprocessed.smi:3181-15

> <Gold.Version>
5.8.1

> <Gold.Id.Protein>
6NUR|6NUR_protein|mol2

> <Gold.PLP.Fitness>
51.1519

> <Gold.PLP.PLP>
-36.9528

> <Gold.PLP.part.hbond>
-3.0000

> <Gold.PLP.part.metal>
0.0000

> <Gold.PLP.part.buried>
-4.7424

> <Gold.PLP.part.nonpolar>
-30.8058

> <Gold.PLP.part.repulsive>
0.2798

> <Gold.PLP.ligand.clash>
0.0000

> <Gold.PLP.ligand.torsion>
0.3639

> <Gold.PLP.Chemscore.Hbond>
3.8500

> <Gold.PLP.Chemscore.CHOScore>
1.1201

> <Gold.PLP.Chemscore.Metal>
0.0000

> <Gold.Chemscore.Hbonds>
donor molecule, donor type, donor heavy atom, donor atom, acceptor molecule, acceptor atom, score
      L1  H     9    42       P1  8028  2.00
      P1  H  7989  7998       L1     8  0.85
      P1  H 10752 10764       L1     6  0.99
      L1  C     7    25       P1  7948  0.33
      L1  C     7    25       P1  7949  0.78

> <Gold.PLP.Chemscore.Internal.Correction>
0.0165

> <Gold.Rescore>
     Score         DG    S(hbond)    S(metal)    S(lipo)     H(rot)  DE(clash)    DE(int)     intcor
     14.83     -16.65       1.42        0.00     101.16       2.11       0.36       1.46       ----

> <Gold.Chemscore.Fitness>
14.8336

> <Gold.Chemscore.DG>
-16.6508

> <Gold.Chemscore.ZeroCoef>
-5.4800

> <Gold.Chemscore.Hbond>
1.4179

> <Gold.Chemscore.Metal>
0.0000

> <Gold.Chemscore.Lipo>
101.1573

> <Gold.Chemscore.Internal_Hbond>
0.0000

> <Gold.Chemscore.DEClash>
0.3584

> <Gold.Chemscore.DEInternal>
1.4587

> <Gold.Chemscore.Rot>
2.1095

> <Gold.Chemscore.Internal.Correction>
   9.000000E+99

> <Gold.Chemscore.Hbonds>
donor molecule, donor type, donor heavy atom, donor atom, acceptor molecule, acceptor atom, score
      L1  H     9    42       P1  8028  0.99
      P1  H  7989  7998       L1     8  0.14
      P1  H 10752 10764       L1     6  0.83

> <Gold.Chemscore.Hbond.Weighted>
-4.7357

> <Gold.Chemscore.Metal.Weighted>
-0.0000

> <Gold.Chemscore.Lipo.Weighted>
-11.8354

> <Gold.Chemscore.Internal_Hbond.Weighted>
0.0000

> <Gold.Chemscore.DEClash.Weighted>
0.3584

> <Gold.Chemscore.DEInternal.Weighted>
1.4587

> <Gold.Chemscore.Rot.Weighted>
5.4003

> <Gold.Chemscore.Internal.Correction.Weighted>
   9.000000E+99

> <Gold.Protein.RotatedTorsions>
[ 6907 6896 6895 6894 ] final   11.41 input  -60.11 | X-H torsion
[ 7974 7965 7964 7962 ] final  149.74 input  175.53 | X-H torsion
[ 8008 7997 7996 7995 ] final  167.41 input   59.86 | X-H torsion
[ 10167 10162 10161 10158 ] final -143.62 input  -65.29 | X-H torsion
[ 10718 10713 10712 10709 ] final   35.35 input   66.30 | X-H torsion
[ 10763 10752 10751 10750 ] final  -56.11 input  -60.55 | X-H torsion
[ 11005 11000 10999 10996 ] final   68.37 input  -57.11 | X-H torsion

> <Gold.Protein.ActiveResidues>
 VAL166  LYS551  ARG553  GLY616  TRP617  ASP618  TYR619  PRO620  LYS621  CYS622 
 ASP623  PHE694  ASN695  SER759  ASP760  ASP761  ALA762  ILE779  LEU786  VAL792 
 PHE793  MET794  SER795  GLU796  ALA797  LYS798  CYS799  TRP800  GLU811  SER814 

> <Gold.Protein.RotatedAtoms>
  151.7539  135.0826  160.0334 H   0  0  0  0  0  0  0  0  0  0  0  0  # atno 6907 bound_to 6896
  152.3398  133.6050  159.5877 H   0  0  0  0  0  0  0  0  0  0  0  0  # atno 6908 bound_to 6896
  150.7472  133.9655  159.3571 H   0  0  0  0  0  0  0  0  0  0  0  0  # atno 6909 bound_to 6896
  144.8415  139.6319  143.6014 H   0  0  0  0  0  0  0  0  0  0  0  0  # atno 7974 bound_to 7965
  156.1636  140.1617  156.8570 H   0  0  0  0  0  0  0  0  0  0  0  0  # atno 8008 bound_to 7997
  154.5185  140.0784  156.8162 H   0  0  0  0  0  0  0  0  0  0  0  0  # atno 8009 bound_to 7997
  155.3657  140.3397  155.4244 H   0  0  0  0  0  0  0  0  0  0  0  0  # atno 8010 bound_to 7997
  139.7976  143.7878  152.2655 H   0  0  0  0  0  0  0  0  0  0  0  0  # atno 10167 bound_to 10162
  157.3216  130.7451  149.6789 H   0  0  0  0  0  0  0  0  0  0  0  0  # atno 10718 bound_to 10713
  154.2015  135.6410  153.5088 H   0  0  0  0  0  0  0  0  0  0  0  0  # atno 10763 bound_to 10752
  153.0011  135.5452  154.6310 H   0  0  0  0  0  0  0  0  0  0  0  0  # atno 10764 bound_to 10752
  154.5725  135.2918  155.0787 H   0  0  0  0  0  0  0  0  0  0  0  0  # atno 10765 bound_to 10752
  139.9716  134.6891  156.0436 H   0  0  0  0  0  0  0  0  0  0  0  0  # atno 11005 bound_to 11000
  146.2707  139.6628  142.9298 LP  0  0  0  0  0  0  0  0  0  0  0  0  # atno 17320 bound_to 7965
  145.4684  141.0435  143.2712 LP  0  0  0  0  0  0  0  0  0  0  0  0  # atno 17321 bound_to 7965
  139.7988  144.7382  150.9853 LP  0  0  0  0  0  0  0  0  0  0  0  0  # atno 17342 bound_to 10162
  140.7820  143.4366  151.0614 LP  0  0  0  0  0  0  0  0  0  0  0  0  # atno 17343 bound_to 10162
  155.9686  130.4221  150.4502 LP  0  0  0  0  0  0  0  0  0  0  0  0  # atno 17370 bound_to 10713
  157.2519  131.0548  151.2374 LP  0  0  0  0  0  0  0  0  0  0  0  0  # atno 17371 bound_to 10713
  141.1395  133.6568  156.3688 LP  0  0  0  0  0  0  0  0  0  0  0  0  # atno 17394 bound_to 11000
  140.5282  134.6238  157.5341 LP  0  0  0  0  0  0  0  0  0  0  0  0  # atno 17395 bound_to 11000

$$$$
