AV-unprocessed.smi:3320|AV-procd|sdf|12768|dock5
  -GOLD-   2272019103D 1   1.00000     0.00000
 Structure written by MMmdl.
 37 38  0  0  0  0  0  0  0  0  1 V2000
  153.2655  142.8330  162.9759 C   0  0  0  0  0  0  0  0  0  0  0  0
  153.0257  142.0900  161.6537 C   0  0  0  0  0  0  0  0  0  0  0  0
  154.2341  141.2559  161.2048 C   0  0  0  0  0  0  0  0  0  0  0  0
  152.5408  143.0054  160.5737 C   0  0  0  0  0  0  0  0  0  0  0  0
  152.3351  142.6189  159.3109 N   0  0  0  0  0  0  0  0  0  0  0  0
  151.8836  143.6587  158.4927 C   0  0  0  0  0  0  0  0  0  0  0  0
  151.6122  143.4014  157.0418 C   0  0  0  0  0  0  0  0  0  0  0  0
  150.5907  142.2707  156.8365 C   0  0  0  0  0  0  0  0  0  0  0  0
  151.2425  140.9733  156.7001 N   0  0  0  0  0  0  0  0  0  0  0  0
  151.1592  140.1797  155.6218 C   0  0  0  0  0  0  0  0  0  0  0  0
  150.5126  140.4752  154.6159 O   0  0  0  0  0  0  0  0  0  0  0  0
  151.9279  138.8541  155.7002 C   0  0  0  0  0  0  0  0  0  0  0  0
  151.5827  137.8445  154.5907 C   0  0  0  0  0  0  0  0  0  0  0  0
  151.5387  136.7477  155.6588 C   0  0  0  0  0  0  0  0  0  0  0  0
  151.3569  137.8448  156.7120 C   0  0  0  0  0  0  0  0  0  0  0  0
  151.7455  144.8502  159.1597 C   0  0  0  0  0  0  0  0  0  0  0  0
  152.1807  144.7080  160.8406 S   0  0  0  0  0  0  0  0  0  0  0  0
  152.3625  143.3470  163.3067 H   0  0  0  0  0  0  0  0  0  0  0  0
  154.0550  143.5784  162.8744 H   0  0  0  0  0  0  0  0  0  0  0  0
  153.5609  142.1426  163.7663 H   0  0  0  0  0  0  0  0  0  0  0  0
  152.2171  141.3825  161.8414 H   0  0  0  0  0  0  0  0  0  0  0  0
  154.0018  140.6799  160.3085 H   0  0  0  0  0  0  0  0  0  0  0  0
  154.5354  140.5518  161.9808 H   0  0  0  0  0  0  0  0  0  0  0  0
  155.0926  141.8898  160.9807 H   0  0  0  0  0  0  0  0  0  0  0  0
  151.2510  144.3157  156.5692 H   0  0  0  0  0  0  0  0  0  0  0  0
  152.5410  143.1482  156.5292 H   0  0  0  0  0  0  0  0  0  0  0  0
  149.9160  142.2220  157.6915 H   0  0  0  0  0  0  0  0  0  0  0  0
  149.9686  142.4695  155.9619 H   0  0  0  0  0  0  0  0  0  0  0  0
  151.7939  140.6539  157.4834 H   0  0  0  0  0  0  0  0  0  0  0  0
  153.0063  138.9814  155.8146 H   0  0  0  0  0  0  0  0  0  0  0  0
  150.6133  138.0087  154.1165 H   0  0  0  0  0  0  0  0  0  0  0  0
  152.3688  137.7075  153.8476 H   0  0  0  0  0  0  0  0  0  0  0  0
  150.6982  136.0587  155.5696 H   0  0  0  0  0  0  0  0  0  0  0  0
  152.4880  136.2194  155.7602 H   0  0  0  0  0  0  0  0  0  0  0  0
  151.9689  137.7084  157.6041 H   0  0  0  0  0  0  0  0  0  0  0  0
  150.3094  138.0111  156.9707 H   0  0  0  0  0  0  0  0  0  0  0  0
  151.4172  145.8004  158.7653 H   0  0  0  0  0  0  0  0  0  0  0  0
  1  2  1  0  0  0  0
  1 18  1  0  0  0  0
  1 19  1  0  0  0  0
  1 20  1  0  0  0  0
  2  3  1  0  0  0  0
  2  4  1  0  0  0  0
  2 21  1  0  0  0  0
  3 22  1  0  0  0  0
  3 23  1  0  0  0  0
  3 24  1  0  0  0  0
  4 17  1  0  0  0  0
  4  5  2  0  0  0  0
  5  6  1  0  0  0  0
  6  7  1  0  0  0  0
  6 16  2  0  0  0  0
  7  8  1  0  0  0  0
  7 25  1  0  0  0  0
  7 26  1  0  0  0  0
  8  9  1  0  0  0  0
  8 27  1  0  0  0  0
  8 28  1  0  0  0  0
  9 10  1  0  0  0  0
  9 29  1  0  0  0  0
 10 11  2  0  0  0  0
 10 12  1  0  0  0  0
 12 15  1  0  0  0  0
 12 13  1  0  0  0  0
 12 30  1  0  0  0  0
 13 14  1  0  0  0  0
 13 31  1  0  0  0  0
 13 32  1  0  0  0  0
 14 15  1  0  0  0  0
 14 33  1  0  0  0  0
 14 34  1  0  0  0  0
 15 35  1  0  0  0  0
 15 36  1  0  0  0  0
 16 17  1  0  0  0  0
 16 37  1  0  0  0  0
M  END
> <s_m_source_file>
AV-unprocessed.smi

> <i_m_source_file_index>
3320

> <i_lp_mmshare_version>
43012

> <i_f3d_flags>
0

> <s_epik_input>
W0NIM11bQ0hdKFtDSDNdKWMxbmMoW2NIXXMxKVtDSDJdW0NIMl1bTkhdQyg9TylbQ0hdMltDSDJdW0NIMl1bQ0gyXTI=

> <s_epik_cmdline>
J2VwaWtfcHl0aG9uJywgJy1waCcsICc3LjAnLCAnLXRuJywgJzgnLCAnLW1hJywgJzIwMCcsICctbWV0YWxfYmluZGluZycsICctaW1hZScsICc8aW5maWxlLm1hZT4nLCAnLW9tYWUnLCAnPG91dGZpbGUubWFlPic=

> <r_epik_Ionization_Penalty>
0.000842111

> <r_epik_Ionization_Penalty_Charging>
0

> <r_epik_Ionization_Penalty_Neutral>
0.000842111

> <r_epik_State_Penalty>
0.000542609

> <r_epik_Charging_Adjusted_Penalty>
0.000542609

> <i_epik_Tot_Q>
0

> <i_epik_Tot_abs_Q>
0

> <r_epik_Metal_State_Penalty>
-0

> <b_epik_Metal_Only>
0

> <s_lp_Force_Field>
OPLS_2005

> <r_lp_Energy>
-0.445202

> <b_lp_Chiralities_Consistent>
1

> <s_lp_Variant>
AV-unprocessed.smi:3320-1

> <Gold.Version>
5.8.1

> <Gold.Id.Protein>
6NUR|6NUR_protein|mol2

> <Gold.PLP.Fitness>
43.9515

> <Gold.PLP.PLP>
-41.6321

> <Gold.PLP.part.hbond>
-1.0000

> <Gold.PLP.part.metal>
0.0000

> <Gold.PLP.part.buried>
-2.6583

> <Gold.PLP.part.nonpolar>
-36.8371

> <Gold.PLP.part.repulsive>
0.2039

> <Gold.PLP.ligand.clash>
0.0000

> <Gold.PLP.ligand.torsion>
0.5739

> <Gold.PLP.Chemscore.Hbond>
0.9920

> <Gold.PLP.Chemscore.CHOScore>
0.0000

> <Gold.PLP.Chemscore.Metal>
0.0000

> <Gold.Chemscore.Hbonds>
donor molecule, donor type, donor heavy atom, donor atom, acceptor molecule, acceptor atom, score
      P1  H  7989  7998       L1    11  1.00

> <Gold.PLP.Chemscore.Internal.Correction>
0.4914

> <Gold.Rescore>
     Score         DG    S(hbond)    S(metal)    S(lipo)     H(rot)  DE(clash)    DE(int)     intcor
     18.80     -19.29       0.99        0.00     122.32       1.49       0.06       0.43       ----

> <Gold.Chemscore.Fitness>
18.8043

> <Gold.Chemscore.DG>
-19.2925

> <Gold.Chemscore.ZeroCoef>
-5.4800

> <Gold.Chemscore.Hbond>
0.9905

> <Gold.Chemscore.Metal>
0.0000

> <Gold.Chemscore.Lipo>
122.3152

> <Gold.Chemscore.Internal_Hbond>
0.0000

> <Gold.Chemscore.DEClash>
0.0562

> <Gold.Chemscore.DEInternal>
0.4320

> <Gold.Chemscore.Rot>
1.4870

> <Gold.Chemscore.Internal.Correction>
   9.000000E+99

> <Gold.Chemscore.Hbonds>
donor molecule, donor type, donor heavy atom, donor atom, acceptor molecule, acceptor atom, score
      P1  H  7989  7998       L1    11  0.48

> <Gold.Chemscore.Hbond.Weighted>
-3.3082

> <Gold.Chemscore.Metal.Weighted>
-0.0000

> <Gold.Chemscore.Lipo.Weighted>
-14.3109

> <Gold.Chemscore.Internal_Hbond.Weighted>
0.0000

> <Gold.Chemscore.DEClash.Weighted>
0.0562

> <Gold.Chemscore.DEInternal.Weighted>
0.4320

> <Gold.Chemscore.Rot.Weighted>
3.8067

> <Gold.Chemscore.Internal.Correction.Weighted>
   9.000000E+99

> <Gold.Protein.RotatedTorsions>
[ 6907 6896 6895 6894 ] final -173.95 input  -60.11 | X-H torsion
[ 7974 7965 7964 7962 ] final  -52.01 input  175.53 | X-H torsion
[ 8008 7997 7996 7995 ] final -146.58 input   59.86 | X-H torsion
[ 10167 10162 10161 10158 ] final  111.34 input  -65.29 | X-H torsion
[ 10718 10713 10712 10709 ] final  120.81 input   66.30 | X-H torsion
[ 10763 10752 10751 10750 ] final   34.52 input  -60.55 | X-H torsion
[ 11005 11000 10999 10996 ] final -157.79 input  -57.11 | X-H torsion

> <Gold.Protein.ActiveResidues>
 VAL166  LYS551  ARG553  GLY616  TRP617  ASP618  TYR619  PRO620  LYS621  CYS622 
 ASP623  PHE694  ASN695  SER759  ASP760  ASP761  ALA762  ILE779  LEU786  VAL792 
 PHE793  MET794  SER795  GLU796  ALA797  LYS798  CYS799  TRP800  GLU811  SER814 

> <Gold.Protein.RotatedAtoms>
  151.5644  133.3398  159.2977 H   0  0  0  0  0  0  0  0  0  0  0  0  # atno 6907 bound_to 6896
  150.8403  134.7696  159.6938 H   0  0  0  0  0  0  0  0  0  0  0  0  # atno 6908 bound_to 6896
  152.4472  134.5476  159.9909 H   0  0  0  0  0  0  0  0  0  0  0  0  # atno 6909 bound_to 6896
  145.9127  140.7901  142.9687 H   0  0  0  0  0  0  0  0  0  0  0  0  # atno 7974 bound_to 7965
  155.5616  140.0626  157.2827 H   0  0  0  0  0  0  0  0  0  0  0  0  # atno 8008 bound_to 7997
  154.4388  140.1884  156.0834 H   0  0  0  0  0  0  0  0  0  0  0  0  # atno 8009 bound_to 7997
  156.0442  140.3292  155.7282 H   0  0  0  0  0  0  0  0  0  0  0  0  # atno 8010 bound_to 7997
  139.6618  144.7128  151.1850 H   0  0  0  0  0  0  0  0  0  0  0  0  # atno 10167 bound_to 10162
  157.5863  131.1069  150.8087 H   0  0  0  0  0  0  0  0  0  0  0  0  # atno 10718 bound_to 10713
  153.0160  135.6358  154.1682 H   0  0  0  0  0  0  0  0  0  0  0  0  # atno 10763 bound_to 10752
  154.1420  135.2834  155.3160 H   0  0  0  0  0  0  0  0  0  0  0  0  # atno 10764 bound_to 10752
  154.6117  135.5554  153.7541 H   0  0  0  0  0  0  0  0  0  0  0  0  # atno 10765 bound_to 10752
  140.6608  134.4352  157.5234 H   0  0  0  0  0  0  0  0  0  0  0  0  # atno 11005 bound_to 11000
  144.6745  140.1851  143.7402 LP  0  0  0  0  0  0  0  0  0  0  0  0  # atno 17320 bound_to 7965
  145.8651  139.2242  143.1694 LP  0  0  0  0  0  0  0  0  0  0  0  0  # atno 17321 bound_to 7965
  140.7583  143.5981  150.8727 LP  0  0  0  0  0  0  0  0  0  0  0  0  # atno 17342 bound_to 10162
  139.9640  143.6132  152.2994 LP  0  0  0  0  0  0  0  0  0  0  0  0  # atno 17343 bound_to 10162
  156.8520  130.5084  149.5311 LP  0  0  0  0  0  0  0  0  0  0  0  0  # atno 17370 bound_to 10713
  156.0913  130.5898  150.9737 LP  0  0  0  0  0  0  0  0  0  0  0  0  # atno 17371 bound_to 10713
  139.9014  134.8548  156.1882 LP  0  0  0  0  0  0  0  0  0  0  0  0  # atno 17394 bound_to 11000
  141.0467  133.6910  156.1696 LP  0  0  0  0  0  0  0  0  0  0  0  0  # atno 17395 bound_to 11000

$$$$
