#       Name:                AV-unprocessed.smi:1360
#       Creating user name   scv26
#       Creation time:       Fri Mar 27 05:14:24 2020


#       File generated by GOLD software.
#

@<TRIPOS>MOLECULE
AV-unprocessed.smi:1360
    39    40     1
SMALL
NO_CHARGES


@<TRIPOS>ATOM
      1 ****         0.4104  -2.9391   1.8931 C.3            1 S1                 0.0000
      2 ****         0.7376  -2.1680   0.6052 C.3            1 S1                 0.0000
      3 ****         2.2507  -2.1710   0.3139 C.3            1 S1                 0.0000
      4 ****         2.5637  -1.5934  -0.9816 N.pl3          1 S1                 0.0000
      5 ****         2.5094  -2.1951  -2.2211 C.2            1 S1                 0.0000
      6 ****         2.8830  -1.2600  -3.1432 C.2            1 S1                 0.0000
      7 ****         3.1507  -0.1020  -2.3608 C.2            1 S1                 0.0000
      8 ****         2.9598  -0.3047  -1.0671 N.2            1 S1                 0.0000
      9 ****         0.2502  -0.7947   0.7114 N.am           1 S1                 0.0000
     10 ****        -0.9805  -0.3751   0.3802 C.2            1 S1                 0.0000
     11 ****        -1.8601  -1.1265  -0.0419 O.2            1 S1                 0.0000
     12 ****        -1.2583   1.1243   0.5488 C.3            1 S1                 0.0000
     13 ****        -2.3492   1.3742   1.6159 C.3            1 S1                 0.0000
     14 ****        -2.8294   2.8149   1.6190 C.2            1 S1                 0.0000
     15 ****        -2.5937   3.6751   0.6135 C.2            1 S1                 0.0000
     16 ****        -1.8253   3.3026  -0.6424 C.3            1 S1                 0.0000
     17 ****        -1.6528   1.7789  -0.7904 C.3            1 S1                 0.0000
     18 ****         0.7462  -3.9742   1.8256 H              1 S1                 0.0000
     19 ****        -0.6635  -2.9557   2.0820 H              1 S1                 0.0000
     20 ****         0.8948  -2.4878   2.7596 H              1 S1                 0.0000
     21 ****         0.2348  -2.6674  -0.2254 H              1 S1                 0.0000
     22 ****         2.7959  -1.6312   1.0901 H              1 S1                 0.0000
     23 ****         2.6308  -3.1933   0.3221 H              1 S1                 0.0000
     24 ****         2.2103  -3.2259  -2.3415 H              1 S1                 0.0000
     25 ****         2.9532  -1.3837  -4.2136 H              1 S1                 0.0000
     26 ****         3.4761   0.8730  -2.6926 H              1 S1                 0.0000
     27 ****         0.9093  -0.1046   1.0421 H              1 S1                 0.0000
     28 ****        -0.3381   1.6035   0.8891 H              1 S1                 0.0000
     29 ****        -3.2168   0.7319   1.4575 H              1 S1                 0.0000
     30 ****        -1.9563   1.1375   2.6054 H              1 S1                 0.0000
     31 ****        -3.3979   3.1371   2.4793 H              1 S1                 0.0000
     32 ****        -2.9508   4.6921   0.6824 H              1 S1                 0.0000
     33 ****        -2.3430   3.7038  -1.5139 H              1 S1                 0.0000
     34 ****        -0.8509   3.7898  -0.5989 H              1 S1                 0.0000
     35 ****        -0.9083   1.5677  -1.5594 H              1 S1                 0.0000
     36 ****        -2.5908   1.3477  -1.1441 H              1 S1                 0.0000
     37 ****         3.0814   0.3492  -0.3204 LP             1 S1                 0.0000
     38 ****        -1.6732  -2.1026  -0.1524 LP             1 S1                 0.0000
     39 ****        -2.7613  -0.7606  -0.2740 LP             1 S1                 0.0000
@<TRIPOS>BOND
    1    1    2 1     
    2    1   18 1     
    3    1   19 1     
    4    1   20 1     
    5    2    3 1     
    6    2    9 1     
    7    2   21 1     
    8    3    4 1     
    9    3   22 1     
   10    3   23 1     
   11    4    8 1     
   12    4    5 1     
   13    5    6 2     
   14    5   24 1     
   15    6    7 1     
   16    6   25 1     
   17    7    8 2     
   18    7   26 1     
   19    9   10 am    
   20    9   27 1     
   21   10   11 2     
   22   10   12 1     
   23   12   17 1     
   24   12   13 1     
   25   12   28 1     
   26   13   14 1     
   27   13   29 1     
   28   13   30 1     
   29   14   15 2     
   30   14   31 1     
   31   15   16 1     
   32   15   32 1     
   33   16   17 1     
   34   16   33 1     
   35   16   34 1     
   36   17   35 1     
   37   17   36 1     
   38    8   37 1     
   39   11   38 1     
   40   11   39 1     
@<TRIPOS>SUBSTRUCTURE
      1 S1             1
@<TRIPOS>SET
LONE_PAIRS      STATIC     ATOMS    <user>   **** ""
3 37 38 39
DONOR_HYDROGENS      STATIC     ATOMS    <user>   **** ""
1 27
ATOM$BLUE        STATIC     ATOMS    COLORGROUP SYSTEM
3 37 38 39
ATOM$RED        STATIC     ATOMS    COLORGROUP SYSTEM
1 27
