AV-unprocessed.smi:311|AV-procd|sdf|2299|dock2
  -GOLD-   2262022203D 1   1.00000     0.00000
 Structure written by MMmdl.
 44 46  0  0  0  0  0  0  0  0  2 V2000
  153.3614  138.0347  158.1717 C   0  0  0  0  0  0  0  0  0  0  0  0
  152.4533  137.0455  157.4996 C   0  0  0  0  0  0  0  0  0  0  0  0
  152.1082  135.9381  158.1346 N   0  0  0  0  0  0  0  0  0  0  0  0
  151.2790  135.2346  157.2559 O   0  0  0  0  0  0  0  0  0  0  0  0
  151.1538  135.9564  156.1137 C   0  0  0  0  0  0  0  0  0  0  0  0
  150.3111  135.3597  155.0378 C   0  0  0  0  0  0  0  0  0  0  0  0
  151.8725  137.1176  156.2011 C   0  0  0  0  0  0  0  0  0  0  0  0
  152.0342  138.2101  155.1754 C   0  0  0  0  0  0  0  0  0  0  0  0
  151.6053  139.5391  155.7942 C   0  0  0  0  0  0  0  0  0  0  0  0
  152.4154  140.2121  156.4310 O   0  0  0  0  0  0  0  0  0  0  0  0
  150.3405  139.9230  155.5640 N   0  0  0  0  0  0  0  0  0  0  0  0
  149.7763  141.2160  155.9346 C   0  0  2  0  0  0  0  0  0  0  0  0
  149.7000  141.4311  157.4560 C   0  0  0  0  0  0  0  0  0  0  0  0
  148.3802  142.1928  157.6938 C   0  0  0  0  0  0  0  0  0  0  0  0
  147.8171  142.4340  156.3509 N   0  3  2  0  0  0  0  0  0  0  0  0
  146.3520  142.6141  156.2554 C   0  0  0  0  0  0  0  0  0  0  0  0
  145.9718  142.9299  154.7946 C   0  0  0  0  0  0  0  0  0  0  0  0
  146.5285  141.8748  153.8167 C   0  0  0  0  0  0  0  0  0  0  0  0
  148.0405  141.6648  154.0257 C   0  0  0  0  0  0  0  0  0  0  0  0
  148.3136  141.3399  155.5036 C   0  0  1  0  0  0  0  0  0  0  0  0
  154.1309  138.3870  157.4847 H   0  0  0  0  0  0  0  0  0  0  0  0
  153.8657  137.5990  159.0348 H   0  0  0  0  0  0  0  0  0  0  0  0
  152.8015  138.9035  158.5172 H   0  0  0  0  0  0  0  0  0  0  0  0
  149.8745  136.1355  154.4089 H   0  0  0  0  0  0  0  0  0  0  0  0
  149.4967  134.7714  155.4608 H   0  0  0  0  0  0  0  0  0  0  0  0
  150.9077  134.7053  154.4024 H   0  0  0  0  0  0  0  0  0  0  0  0
  153.0649  138.2789  154.8249 H   0  0  0  0  0  0  0  0  0  0  0  0
  151.4260  138.0226  154.2900 H   0  0  0  0  0  0  0  0  0  0  0  0
  149.7469  139.2984  155.0371 H   0  0  0  0  0  0  0  0  0  0  0  0
  150.3563  142.0334  155.5001 H   0  0  0  0  0  0  0  0  0  0  0  0
  149.6758  140.4803  157.9906 H   0  0  0  0  0  0  0  0  0  0  0  0
  150.5638  141.9889  157.8194 H   0  0  0  0  0  0  0  0  0  0  0  0
  147.6975  141.5805  158.2851 H   0  0  0  0  0  0  0  0  0  0  0  0
  148.5330  143.1349  158.2212 H   0  0  0  0  0  0  0  0  0  0  0  0
  145.8432  141.7110  156.5959 H   0  0  0  0  0  0  0  0  0  0  0  0
  146.0394  143.4280  156.9105 H   0  0  0  0  0  0  0  0  0  0  0  0
  144.8878  142.9955  154.6962 H   0  0  0  0  0  0  0  0  0  0  0  0
  146.3644  143.9111  154.5242 H   0  0  0  0  0  0  0  0  0  0  0  0
  146.0068  140.9291  153.9694 H   0  0  0  0  0  0  0  0  0  0  0  0
  146.3297  142.1742  152.7872 H   0  0  0  0  0  0  0  0  0  0  0  0
  148.3943  140.8556  153.3859 H   0  0  0  0  0  0  0  0  0  0  0  0
  148.5866  142.5615  153.7299 H   0  0  0  0  0  0  0  0  0  0  0  0
  147.7832  140.4242  155.7755 H   0  0  0  0  0  0  0  0  0  0  0  0
  148.2483  143.2795  156.0052 H   0  0  0  0  0  0  0  0  0  0  0  0
  1  2  1  0  0  0  0
  1 21  1  0  0  0  0
  1 22  1  0  0  0  0
  1 23  1  0  0  0  0
  2  7  1  0  0  0  0
  2  3  2  0  0  0  0
  3  4  1  0  0  0  0
  4  5  1  0  0  0  0
  5  6  1  0  0  0  0
  5  7  2  0  0  0  0
  6 24  1  0  0  0  0
  6 25  1  0  0  0  0
  6 26  1  0  0  0  0
  7  8  1  0  0  0  0
  8  9  1  0  0  0  0
  8 27  1  0  0  0  0
  8 28  1  0  0  0  0
  9 10  2  0  0  0  0
  9 11  1  0  0  0  0
 11 12  1  0  0  0  0
 11 29  1  0  0  0  0
 12 20  1  0  0  0  0
 12 13  1  0  0  0  0
 12 30  1  0  0  0  0
 13 14  1  0  0  0  0
 13 31  1  0  0  0  0
 13 32  1  0  0  0  0
 14 15  1  0  0  0  0
 14 33  1  0  0  0  0
 14 34  1  0  0  0  0
 15 20  1  0  0  0  0
 15 16  1  0  0  0  0
 15 44  1  0  0  0  0
 16 17  1  0  0  0  0
 16 35  1  0  0  0  0
 16 36  1  0  0  0  0
 17 18  1  0  0  0  0
 17 37  1  0  0  0  0
 17 38  1  0  0  0  0
 18 19  1  0  0  0  0
 18 39  1  0  0  0  0
 18 40  1  0  0  0  0
 19 20  1  0  0  0  0
 19 41  1  0  0  0  0
 19 42  1  0  0  0  0
 20 43  1  0  0  0  0
M  CHG  1  15   1
M  END
> <s_m_source_file>
AV-unprocessed.smi

> <i_m_source_file_index>
311

> <i_lp_mmshare_version>
43012

> <i_f3d_flags>
0

> <s_epik_input>
W0NIM11jMW5vYyhbQ0gzXSljMVtDSDJdQyg9TylbTkhdW0NASF0oW0NIMl1bQ0gyXTIpW0NAQEhdKE4yMylbQ0gyXVtDSDJdW0NIMl1bQ0gyXTM=

> <s_epik_cmdline>
J2VwaWtfcHl0aG9uJywgJy1waCcsICc3LjAnLCAnLXRuJywgJzgnLCAnLW1hJywgJzIwMCcsICctbWV0YWxfYmluZGluZycsICctaW1hZScsICc8aW5maWxlLm1hZT4nLCAnLW9tYWUnLCAnPG91dGZpbGUubWFlPic=

> <r_epik_Ionization_Penalty>
0.00173669

> <r_epik_Ionization_Penalty_Charging>
0.0017366

> <r_epik_Ionization_Penalty_Neutral>
9.2145e-08

> <r_epik_State_Penalty>
0.00117499

> <r_epik_Charging_Adjusted_Penalty>
0.00291159

> <i_epik_Tot_Q>
1

> <i_epik_Tot_abs_Q>
1

> <r_epik_Metal_State_Penalty>
-0

> <b_epik_Metal_Only>
0

> <s_lp_Force_Field>
OPLS_2005

> <r_lp_Energy>
27.517

> <b_lp_Chiralities_Consistent>
1

> <s_lp_Variant>
AV-unprocessed.smi:311-3

> <Gold.Version>
5.8.1

> <Gold.Id.Protein>
6NUR|6NUR_protein|mol2

> <Gold.PLP.Fitness>
39.0176

> <Gold.PLP.PLP>
-30.1220

> <Gold.PLP.part.hbond>
-4.0000

> <Gold.PLP.part.metal>
0.0000

> <Gold.PLP.part.buried>
-2.4645

> <Gold.PLP.part.nonpolar>
-23.8834

> <Gold.PLP.part.repulsive>
0.0994

> <Gold.PLP.ligand.clash>
0.0000

> <Gold.PLP.ligand.torsion>
0.3875

> <Gold.PLP.Chemscore.Hbond>
3.2184

> <Gold.PLP.Chemscore.CHOScore>
0.0000

> <Gold.PLP.Chemscore.Metal>
0.0000

> <Gold.Chemscore.Hbonds>
donor molecule, donor type, donor heavy atom, donor atom, acceptor molecule, acceptor atom, score
      L1  H    15    44       P1  8028  2.00
      P1  H  6896  6908       L1     3  0.20
      P1  H  7997  8010       L1    10  1.00

> <Gold.PLP.Chemscore.Internal.Correction>
0.0154

> <Gold.Rescore>
     Score         DG    S(hbond)    S(metal)    S(lipo)     H(rot)  DE(clash)    DE(int)     intcor
     17.32     -17.71       2.19        0.00      71.73       1.36       0.03       0.36       ----

> <Gold.Chemscore.Fitness>
17.3231

> <Gold.Chemscore.DG>
-17.7120

> <Gold.Chemscore.ZeroCoef>
-5.4800

> <Gold.Chemscore.Hbond>
2.1893

> <Gold.Chemscore.Metal>
0.0000

> <Gold.Chemscore.Lipo>
71.7343

> <Gold.Chemscore.Internal_Hbond>
0.0000

> <Gold.Chemscore.DEClash>
0.0274

> <Gold.Chemscore.DEInternal>
0.3615

> <Gold.Chemscore.Rot>
1.3567

> <Gold.Chemscore.Internal.Correction>
   9.000000E+99

> <Gold.Chemscore.Hbonds>
donor molecule, donor type, donor heavy atom, donor atom, acceptor molecule, acceptor atom, score
      L1  H    15    44       P1  8028  0.69
      P1  H  6896  6908       L1     3  0.04
      P1  H  7997  8010       L1    10  0.96

> <Gold.Chemscore.Hbond.Weighted>
-7.3122

> <Gold.Chemscore.Metal.Weighted>
-0.0000

> <Gold.Chemscore.Lipo.Weighted>
-8.3929

> <Gold.Chemscore.Internal_Hbond.Weighted>
0.0000

> <Gold.Chemscore.DEClash.Weighted>
0.0274

> <Gold.Chemscore.DEInternal.Weighted>
0.3615

> <Gold.Chemscore.Rot.Weighted>
3.4731

> <Gold.Chemscore.Internal.Correction.Weighted>
   9.000000E+99

> <Gold.Protein.RotatedTorsions>
[ 6907 6896 6895 6894 ] final -127.71 input  -60.11 | X-H torsion
[ 7974 7965 7964 7962 ] final -178.15 input  175.53 | X-H torsion
[ 8008 7997 7996 7995 ] final   66.26 input   59.86 | X-H torsion
[ 10167 10162 10161 10158 ] final -131.01 input  -65.29 | X-H torsion
[ 10718 10713 10712 10709 ] final  111.31 input   66.30 | X-H torsion
[ 10763 10752 10751 10750 ] final  159.79 input  -60.55 | X-H torsion
[ 11005 11000 10999 10996 ] final  170.32 input  -57.11 | X-H torsion

> <Gold.Protein.ActiveResidues>
 VAL166  LYS551  ARG553  GLY616  TRP617  ASP618  TYR619  PRO620  LYS621  CYS622 
 ASP623  PHE694  ASN695  SER759  ASP760  ASP761  ALA762  ILE779  LEU786  VAL792 
 PHE793  MET794  SER795  GLU796  ALA797  LYS798  CYS799  TRP800  GLU811  SER814 

> <Gold.Protein.RotatedAtoms>
  150.9102  133.7007  159.2856 H   0  0  0  0  0  0  0  0  0  0  0  0  # atno 6907 bound_to 6896
  151.4497  135.1027  159.9704 H   0  0  0  0  0  0  0  0  0  0  0  0  # atno 6908 bound_to 6896
  152.4925  133.8490  159.7247 H   0  0  0  0  0  0  0  0  0  0  0  0  # atno 6909 bound_to 6896
  144.7130  140.0911  143.6421 H   0  0  0  0  0  0  0  0  0  0  0  0  # atno 7974 bound_to 7965
  155.6746  140.3497  155.4831 H   0  0  0  0  0  0  0  0  0  0  0  0  # atno 8008 bound_to 7997
  155.9659  140.1146  157.0878 H   0  0  0  0  0  0  0  0  0  0  0  0  # atno 8009 bound_to 7997
  154.4154  140.1166  156.5227 H   0  0  0  0  0  0  0  0  0  0  0  0  # atno 8010 bound_to 7997
  139.9234  143.6356  152.2548 H   0  0  0  0  0  0  0  0  0  0  0  0  # atno 10167 bound_to 10162
  157.6451  131.0948  150.6730 H   0  0  0  0  0  0  0  0  0  0  0  0  # atno 10718 bound_to 10713
  154.2372  135.2776  155.2867 H   0  0  0  0  0  0  0  0  0  0  0  0  # atno 10763 bound_to 10752
  154.5575  135.5657  153.6980 H   0  0  0  0  0  0  0  0  0  0  0  0  # atno 10764 bound_to 10752
  153.0007  135.6289  154.2515 H   0  0  0  0  0  0  0  0  0  0  0  0  # atno 10765 bound_to 10752
  140.3071  134.7547  157.3962 H   0  0  0  0  0  0  0  0  0  0  0  0  # atno 11005 bound_to 11000
  145.9619  139.2807  143.1150 LP  0  0  0  0  0  0  0  0  0  0  0  0  # atno 17320 bound_to 7965
  145.9211  140.9114  143.0404 LP  0  0  0  0  0  0  0  0  0  0  0  0  # atno 17321 bound_to 7965
  139.6843  144.7653  151.1553 LP  0  0  0  0  0  0  0  0  0  0  0  0  # atno 17342 bound_to 10162
  140.7656  143.5680  150.9026 LP  0  0  0  0  0  0  0  0  0  0  0  0  # atno 17343 bound_to 10162
  156.7048  130.4634  149.5563 LP  0  0  0  0  0  0  0  0  0  0  0  0  # atno 17370 bound_to 10713
  156.1770  130.6474  151.0906 LP  0  0  0  0  0  0  0  0  0  0  0  0  # atno 17371 bound_to 10713
  140.1057  134.5412  155.8311 LP  0  0  0  0  0  0  0  0  0  0  0  0  # atno 17394 bound_to 11000
  141.2116  133.6708  156.6594 LP  0  0  0  0  0  0  0  0  0  0  0  0  # atno 17395 bound_to 11000

$$$$
