AV-unprocessed.smi:581|AV-procd|sdf|2991|dock5
  -GOLD-   2262023493D 1   1.00000     0.00000
 Structure written by MMmdl.
 35 36  0  0  0  0  0  0  0  0  2 V2000
  148.0697  132.0937  161.3856 C   0  0  0  0  0  0  0  0  0  0  0  0
  146.5629  132.2610  161.4715 C   0  0  0  0  0  0  0  0  0  0  0  0
  145.8075  131.3126  160.7702 N   0  0  0  0  0  0  0  0  0  0  0  0
  144.5127  131.3670  160.7857 C   0  0  0  0  0  0  0  0  0  0  0  0
  143.6490  130.4903  160.1243 N   0  0  0  0  0  0  0  0  0  0  0  0
  142.2377  130.3694  160.4994 C   0  0  0  0  0  0  0  0  0  0  0  0
  141.3963  129.8107  159.3398 C   0  0  0  0  0  0  0  0  0  0  0  0
  141.9379  128.5701  158.9082 O   0  0  0  0  0  0  0  0  0  0  0  0
  143.2654  128.7248  158.4259 C   0  0  0  0  0  0  0  0  0  0  0  0
  144.1696  129.2475  159.5547 C   0  0  0  0  0  0  0  0  0  0  0  0
  143.8615  132.3810  161.4965 N   0  0  0  0  0  0  0  0  0  0  0  0
  144.4979  133.3401  162.2048 C   0  0  0  0  0  0  0  0  0  0  0  0
  143.8542  134.1961  162.8095 O   0  0  0  0  0  0  0  0  0  0  0  0
  145.9676  133.2591  162.1825 C   0  0  0  0  0  0  0  0  0  0  0  0
  146.7519  134.3235  162.9456 C   0  0  0  0  0  0  0  0  0  0  0  0
  147.6868  135.1311  162.0209 C   0  0  0  0  0  0  0  0  0  0  0  0
  146.9430  136.1458  161.1421 C   0  0  0  0  0  0  0  0  0  0  0  0
  145.9091  135.7790  160.5400 O   0  0  0  0  0  0  0  0  0  0  0  0
  147.4350  137.2937  161.0877 O   0  5  0  0  0  0  0  0  0  0  0  0
  142.8527  132.4052  161.4860 H   0  0  0  0  0  0  0  0  0  0  0  0
  148.5143  132.0868  162.3812 H   0  0  0  0  0  0  0  0  0  0  0  0
  148.5105  132.9106  160.8139 H   0  0  0  0  0  0  0  0  0  0  0  0
  148.3372  131.1570  160.8951 H   0  0  0  0  0  0  0  0  0  0  0  0
  142.1640  129.7058  161.3620 H   0  0  0  0  0  0  0  0  0  0  0  0
  141.8158  131.3265  160.8060 H   0  0  0  0  0  0  0  0  0  0  0  0
  140.3679  129.6538  159.6650 H   0  0  0  0  0  0  0  0  0  0  0  0
  141.3627  130.5169  158.5086 H   0  0  0  0  0  0  0  0  0  0  0  0
  143.6283  127.7603  158.0712 H   0  0  0  0  0  0  0  0  0  0  0  0
  143.2789  129.4036  157.5715 H   0  0  0  0  0  0  0  0  0  0  0  0
  145.1758  129.3983  159.1610 H   0  0  0  0  0  0  0  0  0  0  0  0
  144.2466  128.5016  160.3468 H   0  0  0  0  0  0  0  0  0  0  0  0
  146.0615  134.9959  163.4549 H   0  0  0  0  0  0  0  0  0  0  0  0
  147.3255  133.8462  163.7421 H   0  0  0  0  0  0  0  0  0  0  0  0
  148.4256  135.6697  162.6152 H   0  0  0  0  0  0  0  0  0  0  0  0
  148.2403  134.4541  161.3693 H   0  0  0  0  0  0  0  0  0  0  0  0
  1  2  1  0  0  0  0
  1 21  1  0  0  0  0
  1 22  1  0  0  0  0
  1 23  1  0  0  0  0
  2 14  2  0  0  0  0
  2  3  1  0  0  0  0
  3  4  2  0  0  0  0
  4  5  1  0  0  0  0
  4 11  1  0  0  0  0
  5 10  1  0  0  0  0
  5  6  1  0  0  0  0
  6  7  1  0  0  0  0
  6 24  1  0  0  0  0
  6 25  1  0  0  0  0
  7  8  1  0  0  0  0
  7 26  1  0  0  0  0
  7 27  1  0  0  0  0
  8  9  1  0  0  0  0
  9 10  1  0  0  0  0
  9 28  1  0  0  0  0
  9 29  1  0  0  0  0
 10 30  1  0  0  0  0
 10 31  1  0  0  0  0
 11 20  1  0  0  0  0
 11 12  1  0  0  0  0
 12 13  2  0  0  0  0
 12 14  1  0  0  0  0
 14 15  1  0  0  0  0
 15 16  1  0  0  0  0
 15 32  1  0  0  0  0
 15 33  1  0  0  0  0
 16 17  1  0  0  0  0
 16 34  1  0  0  0  0
 16 35  1  0  0  0  0
 17 18  2  0  0  0  0
 17 19  1  0  0  0  0
M  CHG  1  19  -1
M  END
> <s_m_source_file>
AV-unprocessed.smi

> <i_m_source_file_index>
581

> <i_lp_mmshare_version>
43012

> <i_f3d_flags>
0

> <s_epik_input>
W0NIMl0xW0NIMl1PW0NIMl1bQ0gyXU4xYyhuYzJbQ0gzXSlbbkhdYyg9TyljMltDSDJdW0NIMl1DKD1PKVtPSF0=

> <s_epik_cmdline>
J2VwaWtfcHl0aG9uJywgJy1waCcsICc3LjAnLCAnLXRuJywgJzgnLCAnLW1hJywgJzIwMCcsICctbWV0YWxfYmluZGluZycsICctaW1hZScsICc8aW5maWxlLm1hZT4nLCAnLW9tYWUnLCAnPG91dGZpbGUubWFlPic=

> <r_lp_tautomer_probability>
0.878553

> <r_epik_Ionization_Penalty>
0.00211884

> <r_epik_Ionization_Penalty_Charging>
0.00208365

> <r_epik_Ionization_Penalty_Neutral>
3.51846e-05

> <r_epik_State_Penalty>
0.0663044

> <r_epik_Charging_Adjusted_Penalty>
0.0683881

> <i_epik_Tot_Q>
-1

> <i_epik_Tot_abs_Q>
1

> <r_epik_Metal_State_Penalty>
0.312881

> <b_epik_Metal_Only>
0

> <s_lp_Force_Field>
OPLS_2005

> <r_lp_Energy>
24.7506

> <b_lp_Chiralities_Consistent>
1

> <s_lp_Variant>
AV-unprocessed.smi:581-1

> <Gold.Version>
5.8.1

> <Gold.Id.Protein>
6NUR|6NUR_protein|mol2

> <Gold.PLP.Fitness>
41.7939

> <Gold.PLP.PLP>
-31.1939

> <Gold.PLP.part.hbond>
-2.4487

> <Gold.PLP.part.metal>
0.0000

> <Gold.PLP.part.buried>
-3.7825

> <Gold.PLP.part.nonpolar>
-25.3588

> <Gold.PLP.part.repulsive>
0.3255

> <Gold.PLP.ligand.clash>
0.0000

> <Gold.PLP.ligand.torsion>
0.3276

> <Gold.PLP.Chemscore.Hbond>
3.6800

> <Gold.PLP.Chemscore.CHOScore>
0.0000

> <Gold.PLP.Chemscore.Metal>
0.0000

> <Gold.Chemscore.Hbonds>
donor molecule, donor type, donor heavy atom, donor atom, acceptor molecule, acceptor atom, score
      P1  H  6931  6943       L1    19  1.63
      P1  H  6934  6947       L1    19  2.00

> <Gold.PLP.Chemscore.Internal.Correction>
0.2152

> <Gold.Rescore>
     Score         DG    S(hbond)    S(metal)    S(lipo)     H(rot)  DE(clash)    DE(int)     intcor
     12.96     -13.30       1.74        0.00      58.36       1.89       0.01       0.32       ----

> <Gold.Chemscore.Fitness>
12.9648

> <Gold.Chemscore.DG>
-13.2970

> <Gold.Chemscore.ZeroCoef>
-5.4800

> <Gold.Chemscore.Hbond>
1.7439

> <Gold.Chemscore.Metal>
0.0000

> <Gold.Chemscore.Lipo>
58.3588

> <Gold.Chemscore.Internal_Hbond>
0.0000

> <Gold.Chemscore.DEClash>
0.0142

> <Gold.Chemscore.DEInternal>
0.3180

> <Gold.Chemscore.Rot>
1.8890

> <Gold.Chemscore.Internal.Correction>
   9.000000E+99

> <Gold.Chemscore.Hbonds>
donor molecule, donor type, donor heavy atom, donor atom, acceptor molecule, acceptor atom, score
      P1  H  6931  6943       L1    19  0.76
      P1  H  6934  6947       L1    19  0.94

> <Gold.Chemscore.Hbond.Weighted>
-5.8248

> <Gold.Chemscore.Metal.Weighted>
-0.0000

> <Gold.Chemscore.Lipo.Weighted>
-6.8280

> <Gold.Chemscore.Internal_Hbond.Weighted>
0.0000

> <Gold.Chemscore.DEClash.Weighted>
0.0142

> <Gold.Chemscore.DEInternal.Weighted>
0.3180

> <Gold.Chemscore.Rot.Weighted>
4.8357

> <Gold.Chemscore.Internal.Correction.Weighted>
   9.000000E+99

> <Gold.Protein.RotatedTorsions>
[ 6907 6896 6895 6894 ] final  153.41 input  -60.11 | X-H torsion
[ 7974 7965 7964 7962 ] final   73.02 input  175.53 | X-H torsion
[ 8008 7997 7996 7995 ] final  -85.16 input   59.86 | X-H torsion
[ 10167 10162 10161 10158 ] final  127.05 input  -65.29 | X-H torsion
[ 10718 10713 10712 10709 ] final   49.34 input   66.30 | X-H torsion
[ 10763 10752 10751 10750 ] final  133.65 input  -60.55 | X-H torsion
[ 11005 11000 10999 10996 ] final  -71.67 input  -57.11 | X-H torsion

> <Gold.Protein.ActiveResidues>
 VAL166  LYS551  ARG553  GLY616  TRP617  ASP618  TYR619  PRO620  LYS621  CYS622 
 ASP623  PHE694  ASN695  SER759  ASP760  ASP761  ALA762  ILE779  LEU786  VAL792 
 PHE793  MET794  SER795  GLU796  ALA797  LYS798  CYS799  TRP800  GLU811  SER814 

> <Gold.Protein.RotatedAtoms>
  152.0730  133.4116  159.4467 H   0  0  0  0  0  0  0  0  0  0  0  0  # atno 6907 bound_to 6896
  150.6863  134.3070  159.4739 H   0  0  0  0  0  0  0  0  0  0  0  0  # atno 6908 bound_to 6896
  152.0903  134.9411  160.0622 H   0  0  0  0  0  0  0  0  0  0  0  0  # atno 6909 bound_to 6896
  145.7461  139.2740  143.1458 H   0  0  0  0  0  0  0  0  0  0  0  0  # atno 7974 bound_to 7965
  154.6376  140.0595  156.9808 H   0  0  0  0  0  0  0  0  0  0  0  0  # atno 8008 bound_to 7997
  155.1567  140.3279  155.4401 H   0  0  0  0  0  0  0  0  0  0  0  0  # atno 8009 bound_to 7997
  156.2515  140.1938  156.6676 H   0  0  0  0  0  0  0  0  0  0  0  0  # atno 8010 bound_to 7997
  139.5599  144.6874  151.4074 H   0  0  0  0  0  0  0  0  0  0  0  0  # atno 10167 bound_to 10162
  157.4777  130.8295  149.8058 H   0  0  0  0  0  0  0  0  0  0  0  0  # atno 10718 bound_to 10713
  153.8105  135.3129  155.3400 H   0  0  0  0  0  0  0  0  0  0  0  0  # atno 10763 bound_to 10752
  154.8053  135.4701  154.0380 H   0  0  0  0  0  0  0  0  0  0  0  0  # atno 10764 bound_to 10752
  153.1756  135.6885  153.8636 H   0  0  0  0  0  0  0  0  0  0  0  0  # atno 10765 bound_to 10752
  141.1596  133.6824  156.6941 H   0  0  0  0  0  0  0  0  0  0  0  0  # atno 11005 bound_to 11000
  146.0402  140.8173  142.9833 LP  0  0  0  0  0  0  0  0  0  0  0  0  # atno 17320 bound_to 7965
  144.6860  140.2898  143.7280 LP  0  0  0  0  0  0  0  0  0  0  0  0  # atno 17321 bound_to 7965
  140.6877  143.7935  150.7210 LP  0  0  0  0  0  0  0  0  0  0  0  0  # atno 17342 bound_to 10162
  140.1408  143.4443  152.2195 LP  0  0  0  0  0  0  0  0  0  0  0  0  # atno 17343 bound_to 10162
  156.0105  130.3835  150.2280 LP  0  0  0  0  0  0  0  0  0  0  0  0  # atno 17370 bound_to 10713
  157.0465  131.0050  151.3267 LP  0  0  0  0  0  0  0  0  0  0  0  0  # atno 17371 bound_to 10713
  140.3008  134.8165  157.4096 LP  0  0  0  0  0  0  0  0  0  0  0  0  # atno 17394 bound_to 11000
  140.1264  134.5153  155.8141 LP  0  0  0  0  0  0  0  0  0  0  0  0  # atno 17395 bound_to 11000

$$$$
