#       Name:                AV-unprocessed.smi:2489
#       Creating user name   scv26
#       Creation time:       Fri Mar 27 13:43:16 2020


#       File generated by GOLD software.
#

@<TRIPOS>MOLECULE
AV-unprocessed.smi:2489
    40    41     1
SMALL
NO_CHARGES


@<TRIPOS>ATOM
      1 ****        -4.1948   3.2697   1.5291 C.3            1 S1                 0.0000
      2 ****        -4.8047   2.0634   1.0942 O.3            1 S1                 0.0000
      3 ****        -3.9921   1.0834   0.5666 C.ar           1 S1                 0.0000
      4 ****        -4.6030  -0.1090   0.1353 C.ar           1 S1                 0.0000
      5 ****        -3.7974  -1.1251  -0.4089 C.ar           1 S1                 0.0000
      6 ****        -2.4602  -1.0155  -0.5405 N.ar           1 S1                 0.0000
      7 ****        -1.8496   0.1233  -0.1313 C.ar           1 S1                 0.0000
      8 ****        -0.4497   0.3435  -0.2261 N.am           1 S1                 0.0000
      9 ****         0.4978  -0.4873  -0.6997 C.2            1 S1                 0.0000
     10 ****         0.2804  -1.6243  -1.1211 O.2            1 S1                 0.0000
     11 ****         1.9320   0.0677  -0.6680 C.3            1 S1                 0.0000
     12 ****         2.8140  -0.3730  -1.8547 C.3            1 S1                 0.0000
     13 ****         3.9386  -1.1707  -1.2142 C.3            1 S1                 0.0000
     14 ****         3.3564  -1.5740   0.1366 C.3            1 S1                 0.0000
     15 ****         4.4075  -1.8770   1.2095 C.3            1 S1                 0.0000
     16 ****         2.5913  -0.4318   0.4938 O.3            1 S1                 0.0000
     17 ****        -2.5857   1.1930   0.4273 C.ar           1 S1                 0.0000
     18 ****        -4.9613   3.9422   1.9141 H              1 S1                 0.0000
     19 ****        -3.6910   3.7806   0.7074 H              1 S1                 0.0000
     20 ****        -3.4811   3.0878   2.3335 H              1 S1                 0.0000
     21 ****        -5.6714  -0.2429   0.2196 H              1 S1                 0.0000
     22 ****        -4.2386  -2.0504  -0.7487 H              1 S1                 0.0000
     23 ****        -0.1275   1.2413   0.1043 H              1 S1                 0.0000
     24 ****         1.9013   1.1568  -0.6056 H              1 S1                 0.0000
     25 ****         2.2733  -0.9890  -2.5745 H              1 S1                 0.0000
     26 ****         3.2065   0.4840  -2.4028 H              1 S1                 0.0000
     27 ****         4.2487  -2.0269  -1.8137 H              1 S1                 0.0000
     28 ****         4.8070  -0.5257  -1.0724 H              1 S1                 0.0000
     29 ****         2.6893  -2.4293   0.0161 H              1 S1                 0.0000
     30 ****         5.0220  -2.7309   0.9241 H              1 S1                 0.0000
     31 ****         3.9328  -2.1116   2.1624 H              1 S1                 0.0000
     32 ****         5.0689  -1.0248   1.3681 H              1 S1                 0.0000
     33 ****        -2.0591   2.0823   0.7402 H              1 S1                 0.0000
     34 ****        -5.4745   2.3047   0.3920 LP             1 S1                 0.0000
     35 ****        -5.2760   1.6671   1.8822 LP             1 S1                 0.0000
     36 ****        -1.9264  -1.7637  -0.9344 LP             1 S1                 0.0000
     37 ****        -0.6519  -1.9860  -1.1259 LP             1 S1                 0.0000
     38 ****         1.0362  -2.1855  -1.4584 LP             1 S1                 0.0000
     39 ****         1.9115  -0.6855   1.1820 LP             1 S1                 0.0000
     40 ****         3.1951   0.2732   0.8658 LP             1 S1                 0.0000
@<TRIPOS>BOND
    1    1    2 1     
    2    1   18 1     
    3    1   19 1     
    4    1   20 1     
    5    2    3 1     
    6    3   17 ar    
    7    3    4 ar    
    8    4    5 ar    
    9    4   21 1     
   10    5    6 ar    
   11    5   22 1     
   12    6    7 ar    
   13    7    8 1     
   14    7   17 ar    
   15    8    9 am    
   16    8   23 1     
   17    9   10 2     
   18    9   11 1     
   19   11   16 1     
   20   11   12 1     
   21   11   24 1     
   22   12   13 1     
   23   12   25 1     
   24   12   26 1     
   25   13   14 1     
   26   13   27 1     
   27   13   28 1     
   28   14   15 1     
   29   14   16 1     
   30   14   29 1     
   31   15   30 1     
   32   15   31 1     
   33   15   32 1     
   34   17   33 1     
   35    2   34 1     
   36    2   35 1     
   37    6   36 1     
   38   10   37 1     
   39   10   38 1     
   40   16   39 1     
   41   16   40 1     
@<TRIPOS>SUBSTRUCTURE
      1 S1             1
@<TRIPOS>SET
LONE_PAIRS      STATIC     ATOMS    <user>   **** ""
7 34 35 36 37 38 39 40
DONOR_HYDROGENS      STATIC     ATOMS    <user>   **** ""
1 23
ATOM$BLUE        STATIC     ATOMS    COLORGROUP SYSTEM
7 34 35 36 37 38 39 40
ATOM$RED        STATIC     ATOMS    COLORGROUP SYSTEM
1 23
