AV-unprocessed.smi:1795|AV-procd|sdf|7237|dock3
  -GOLD-   22720 8483D 1   1.00000     0.00000
 Structure written by MMmdl.
 47 48  0  0  0  0  0  0  0  0  1 V2000
  149.3671  141.5974  157.7523 C   0  0  0  0  0  0  0  0  0  0  0  0
  150.8695  141.6422  157.4237 C   0  0  2  0  0  0  0  0  0  0  0  0
  151.6252  140.3662  157.8453 C   0  0  0  0  0  0  0  0  0  0  0  0
  151.8273  140.2522  159.2945 N   0  0  0  0  0  0  0  0  0  0  0  0
  152.5757  139.0289  159.6694 C   0  0  2  0  0  0  0  0  0  0  0  0
  154.0491  139.0542  159.1871 C   0  0  0  0  0  0  0  0  0  0  0  0
  151.9031  137.7188  159.1620 C   0  0  0  0  0  0  0  0  0  0  0  0
  150.4584  137.6850  159.3717 N   0  0  0  0  0  0  0  0  0  0  0  0
  149.6362  136.7235  158.9259 C   0  0  0  0  0  0  0  0  0  0  0  0
  150.0286  135.7333  158.3076 O   0  0  0  0  0  0  0  0  0  0  0  0
  148.1467  136.9096  159.2464 C   0  0  0  0  0  0  0  0  0  0  0  0
  147.6240  135.8933  160.1745 N   0  0  0  0  0  0  0  0  0  0  0  0
  147.8019  134.5420  159.8159 C   0  0  0  0  0  0  0  0  0  0  0  0
  147.3642  133.5380  160.5921 C   0  0  0  0  0  0  0  0  0  0  0  0
  146.6943  133.8719  161.8265 C   0  0  0  0  0  0  0  0  0  0  0  0
  146.5152  135.1610  162.1773 C   0  0  0  0  0  0  0  0  0  0  0  0
  146.9905  136.2619  161.3311 C   0  0  0  0  0  0  0  0  0  0  0  0
  146.8299  137.4426  161.6426 O   0  0  0  0  0  0  0  0  0  0  0  0
  152.4817  141.4811  159.7543 C   0  0  0  0  0  0  0  0  0  0  0  0
  151.6989  142.7531  159.3813 C   0  0  1  0  0  0  0  0  0  0  0  0
  152.4426  144.0276  159.7947 C   0  0  0  0  0  0  0  0  0  0  0  0
  151.5004  142.7967  157.9724 O   0  0  0  0  0  0  0  0  0  0  0  0
  148.8793  140.7783  157.2232 H   0  0  0  0  0  0  0  0  0  0  0  0
  148.8759  142.5230  157.4523 H   0  0  0  0  0  0  0  0  0  0  0  0
  149.1834  141.4503  158.8164 H   0  0  0  0  0  0  0  0  0  0  0  0
  150.9532  141.7364  156.3407 H   0  0  0  0  0  0  0  0  0  0  0  0
  151.0610  139.5174  157.4632 H   0  0  0  0  0  0  0  0  0  0  0  0
  152.5940  140.3477  157.3438 H   0  0  0  0  0  0  0  0  0  0  0  0
  152.6017  138.9765  160.7590 H   0  0  0  0  0  0  0  0  0  0  0  0
  154.5814  138.1330  159.4218 H   0  0  0  0  0  0  0  0  0  0  0  0
  154.6286  139.8408  159.6681 H   0  0  0  0  0  0  0  0  0  0  0  0
  154.1084  139.2014  158.1082 H   0  0  0  0  0  0  0  0  0  0  0  0
  152.0649  137.5602  158.0968 H   0  0  0  0  0  0  0  0  0  0  0  0
  152.3384  136.8584  159.6713 H   0  0  0  0  0  0  0  0  0  0  0  0
  150.0538  138.4603  159.8764 H   0  0  0  0  0  0  0  0  0  0  0  0
  148.0113  137.9119  159.6552 H   0  0  0  0  0  0  0  0  0  0  0  0
  147.5677  136.8984  158.3208 H   0  0  0  0  0  0  0  0  0  0  0  0
  148.3063  134.3771  158.8748 H   0  0  0  0  0  0  0  0  0  0  0  0
  147.5061  132.5081  160.2992 H   0  0  0  0  0  0  0  0  0  0  0  0
  146.3327  133.0844  162.4713 H   0  0  0  0  0  0  0  0  0  0  0  0
  146.0100  135.3914  163.1038 H   0  0  0  0  0  0  0  0  0  0  0  0
  152.5796  141.4843  160.8375 H   0  0  0  0  0  0  0  0  0  0  0  0
  153.4914  141.5362  159.3440 H   0  0  0  0  0  0  0  0  0  0  0  0
  150.7317  142.7454  159.8846 H   0  0  0  0  0  0  0  0  0  0  0  0
  152.6103  144.0532  160.8718 H   0  0  0  0  0  0  0  0  0  0  0  0
  151.8707  144.9162  159.5266 H   0  0  0  0  0  0  0  0  0  0  0  0
  153.4133  144.0955  159.3026 H   0  0  0  0  0  0  0  0  0  0  0  0
  1  2  1  0  0  0  0
  1 23  1  0  0  0  0
  1 24  1  0  0  0  0
  1 25  1  0  0  0  0
  2 22  1  0  0  0  0
  2  3  1  0  0  0  0
  2 26  1  0  0  0  0
  3  4  1  0  0  0  0
  3 27  1  0  0  0  0
  3 28  1  0  0  0  0
  4  5  1  0  0  0  0
  4 19  1  0  0  0  0
  5  6  1  0  0  0  0
  5  7  1  0  0  0  0
  5 29  1  0  0  0  0
  6 30  1  0  0  0  0
  6 31  1  0  0  0  0
  6 32  1  0  0  0  0
  7  8  1  0  0  0  0
  7 33  1  0  0  0  0
  7 34  1  0  0  0  0
  8  9  1  0  0  0  0
  8 35  1  0  0  0  0
  9 10  2  0  0  0  0
  9 11  1  0  0  0  0
 11 12  1  0  0  0  0
 11 36  1  0  0  0  0
 11 37  1  0  0  0  0
 12 17  1  0  0  0  0
 12 13  1  0  0  0  0
 13 14  2  0  0  0  0
 13 38  1  0  0  0  0
 14 15  1  0  0  0  0
 14 39  1  0  0  0  0
 15 16  2  0  0  0  0
 15 40  1  0  0  0  0
 16 17  1  0  0  0  0
 16 41  1  0  0  0  0
 17 18  2  0  0  0  0
 19 20  1  0  0  0  0
 19 42  1  0  0  0  0
 19 43  1  0  0  0  0
 20 21  1  0  0  0  0
 20 22  1  0  0  0  0
 20 44  1  0  0  0  0
 21 45  1  0  0  0  0
 21 46  1  0  0  0  0
 21 47  1  0  0  0  0
M  END
> <s_m_source_file>
AV-unprocessed.smi

> <i_m_source_file_index>
1795

> <i_lp_mmshare_version>
43012

> <i_f3d_flags>
0

> <s_epik_input>
W0NIM11bQ0BASF0xW0NIMl1OKFtDSDJdW0NASF0oTzEpW0NIM10pW0NASF0oW0NIM10pW0NIMl1bTkhdQyg9TylbQ0gyXW4yW2NIXVtjSF1bY0hdW2NIXWMyPU8=

> <s_epik_cmdline>
J2VwaWtfcHl0aG9uJywgJy1waCcsICc3LjAnLCAnLXRuJywgJzgnLCAnLW1hJywgJzIwMCcsICctbWV0YWxfYmluZGluZycsICctaW1hZScsICc8aW5maWxlLm1hZT4nLCAnLW9tYWUnLCAnPG91dGZpbGUubWFlPic=

> <r_lp_tautomer_probability>
1

> <r_epik_Ionization_Penalty>
0.237383

> <r_epik_Ionization_Penalty_Charging>
3.58805e-07

> <r_epik_Ionization_Penalty_Neutral>
0.237382

> <r_epik_State_Penalty>
0.228245

> <r_epik_Charging_Adjusted_Penalty>
0.228245

> <i_epik_Tot_Q>
0

> <i_epik_Tot_abs_Q>
0

> <r_epik_Metal_State_Penalty>
0.228221

> <b_epik_Metal_Only>
0

> <s_lp_Force_Field>
OPLS_2005

> <r_lp_Energy>
40.3044

> <b_lp_Chiralities_Consistent>
1

> <s_lp_Variant>
AV-unprocessed.smi:1795-1

> <Gold.Version>
5.8.1

> <Gold.Id.Protein>
6NUR|6NUR_protein|mol2

> <Gold.PLP.Fitness>
48.2042

> <Gold.PLP.PLP>
-41.5402

> <Gold.PLP.part.hbond>
-3.0000

> <Gold.PLP.part.metal>
0.0000

> <Gold.PLP.part.buried>
-3.4131

> <Gold.PLP.part.nonpolar>
-35.5456

> <Gold.PLP.part.repulsive>
0.5278

> <Gold.PLP.ligand.clash>
0.0000

> <Gold.PLP.ligand.torsion>
0.1848

> <Gold.PLP.Chemscore.Hbond>
2.3280

> <Gold.PLP.Chemscore.CHOScore>
0.0000

> <Gold.PLP.Chemscore.Metal>
0.0000

> <Gold.Chemscore.Hbonds>
donor molecule, donor type, donor heavy atom, donor atom, acceptor molecule, acceptor atom, score
      P1  H  6896  6907       L1    10  0.96
      P1  H  6931  6943       L1    18  0.13
      P1  H  6934  6947       L1    18  0.98

> <Gold.PLP.Chemscore.Internal.Correction>
0.0495

> <Gold.Rescore>
     Score         DG    S(hbond)    S(metal)    S(lipo)     H(rot)  DE(clash)    DE(int)     intcor
     16.94     -18.46       2.09        0.00      91.10       1.83       0.16       1.35       ----

> <Gold.Chemscore.Fitness>
16.9421

> <Gold.Chemscore.DG>
-18.4578

> <Gold.Chemscore.ZeroCoef>
-5.4800

> <Gold.Chemscore.Hbond>
2.0933

> <Gold.Chemscore.Metal>
0.0000

> <Gold.Chemscore.Lipo>
91.0978

> <Gold.Chemscore.Internal_Hbond>
0.0000

> <Gold.Chemscore.DEClash>
0.1627

> <Gold.Chemscore.DEInternal>
1.3530

> <Gold.Chemscore.Rot>
1.8251

> <Gold.Chemscore.Internal.Correction>
   9.000000E+99

> <Gold.Chemscore.Hbonds>
donor molecule, donor type, donor heavy atom, donor atom, acceptor molecule, acceptor atom, score
      P1  H  6896  6907       L1    10  0.28
      P1  H  6931  6943       L1    18  0.06
      P1  H  6934  6947       L1    18  0.93

> <Gold.Chemscore.Hbond.Weighted>
-6.9917

> <Gold.Chemscore.Metal.Weighted>
-0.0000

> <Gold.Chemscore.Lipo.Weighted>
-10.6584

> <Gold.Chemscore.Internal_Hbond.Weighted>
0.0000

> <Gold.Chemscore.DEClash.Weighted>
0.1627

> <Gold.Chemscore.DEInternal.Weighted>
1.3530

> <Gold.Chemscore.Rot.Weighted>
4.6724

> <Gold.Chemscore.Internal.Correction.Weighted>
   9.000000E+99

> <Gold.Protein.RotatedTorsions>
[ 6907 6896 6895 6894 ] final  -54.41 input  -60.11 | X-H torsion
[ 7974 7965 7964 7962 ] final  -96.67 input  175.53 | X-H torsion
[ 8008 7997 7996 7995 ] final -137.99 input   59.86 | X-H torsion
[ 10167 10162 10161 10158 ] final   83.56 input  -65.29 | X-H torsion
[ 10718 10713 10712 10709 ] final  131.36 input   66.30 | X-H torsion
[ 10763 10752 10751 10750 ] final  -78.69 input  -60.55 | X-H torsion
[ 11005 11000 10999 10996 ] final  174.29 input  -57.11 | X-H torsion

> <Gold.Protein.ActiveResidues>
 VAL166  LYS551  ARG553  GLY616  TRP617  ASP618  TYR619  PRO620  LYS621  CYS622 
 ASP623  PHE694  ASN695  SER759  ASP760  ASP761  ALA762  ILE779  LEU786  VAL792 
 PHE793  MET794  SER795  GLU796  ALA797  LYS798  CYS799  TRP800  GLU811  SER814 

> <Gold.Protein.RotatedAtoms>
  150.8341  134.7606  159.6877 H   0  0  0  0  0  0  0  0  0  0  0  0  # atno 6907 bound_to 6896
  152.4441  134.5528  159.9881 H   0  0  0  0  0  0  0  0  0  0  0  0  # atno 6908 bound_to 6896
  151.5683  133.3356  159.3020 H   0  0  0  0  0  0  0  0  0  0  0  0  # atno 6909 bound_to 6896
  145.3438  140.9464  143.2593 H   0  0  0  0  0  0  0  0  0  0  0  0  # atno 7974 bound_to 7965
  155.4210  140.0518  157.3025 H   0  0  0  0  0  0  0  0  0  0  0  0  # atno 8008 bound_to 7997
  154.4902  140.2117  155.9523 H   0  0  0  0  0  0  0  0  0  0  0  0  # atno 8009 bound_to 7997
  156.1332  140.3168  155.8386 H   0  0  0  0  0  0  0  0  0  0  0  0  # atno 8010 bound_to 7997
  139.9171  144.6236  150.8477 H   0  0  0  0  0  0  0  0  0  0  0  0  # atno 10167 bound_to 10162
  157.4974  131.1093  150.9473 H   0  0  0  0  0  0  0  0  0  0  0  0  # atno 10718 bound_to 10713
  154.5290  135.5721  153.6743 H   0  0  0  0  0  0  0  0  0  0  0  0  # atno 10763 bound_to 10752
  152.9935  135.6200  154.2653 H   0  0  0  0  0  0  0  0  0  0  0  0  # atno 10764 bound_to 10752
  154.2579  135.2857  155.2770 H   0  0  0  0  0  0  0  0  0  0  0  0  # atno 10765 bound_to 10752
  140.3497  134.7205  157.4259 H   0  0  0  0  0  0  0  0  0  0  0  0  # atno 11005 bound_to 11000
  144.8770  139.4957  143.6741 LP  0  0  0  0  0  0  0  0  0  0  0  0  # atno 17320 bound_to 7965
  146.2996  139.7386  142.9101 LP  0  0  0  0  0  0  0  0  0  0  0  0  # atno 17321 bound_to 7965
  140.7671  143.3323  151.2383 LP  0  0  0  0  0  0  0  0  0  0  0  0  # atno 17342 bound_to 10162
  139.6893  143.9720  152.2850 LP  0  0  0  0  0  0  0  0  0  0  0  0  # atno 17343 bound_to 10162
  157.0155  130.5653  149.5325 LP  0  0  0  0  0  0  0  0  0  0  0  0  # atno 17370 bound_to 10713
  156.0209  130.5304  150.8272 LP  0  0  0  0  0  0  0  0  0  0  0  0  # atno 17371 bound_to 10713
  140.0713  134.5859  155.8639 LP  0  0  0  0  0  0  0  0  0  0  0  0  # atno 17394 bound_to 11000
  141.2015  133.6619  156.5957 LP  0  0  0  0  0  0  0  0  0  0  0  0  # atno 17395 bound_to 11000

$$$$
