AV-unprocessed.smi:1572|AV-procd|sdf|6332|dock7
  -GOLD-   22720 6543D 1   1.00000     0.00000
 Structure written by MMmdl.
 41 42  0  0  0  0  0  0  0  0  2 V2000
  152.4328  144.0083  159.9676 C   0  0  0  0  0  0  0  0  0  0  0  0
  152.2166  142.9133  159.0344 N   0  0  0  0  0  0  0  0  0  0  0  0
  152.4328  141.6171  159.6703 C   0  0  0  0  0  0  0  0  0  0  0  0
  152.2140  140.4586  158.6802 C   0  0  0  0  0  0  0  0  0  0  0  0
  150.8561  140.4765  158.1135 N   0  0  0  0  0  0  0  0  0  0  0  0
  150.5173  139.3072  157.2551 C   0  0  0  0  0  0  0  0  0  0  0  0
  149.0360  139.2940  156.8074 C   0  0  0  0  0  0  0  0  0  0  0  0
  151.3870  139.2894  155.9723 C   0  0  0  0  0  0  0  0  0  0  0  0
  150.7898  137.9606  157.9844 C   0  0  0  0  0  0  0  0  0  0  0  0
  149.9855  137.8134  159.1944 N   0  0  0  0  0  0  0  0  0  0  0  0
  149.2860  136.7224  159.5309 C   0  0  0  0  0  0  0  0  0  0  0  0
  149.2974  135.7347  158.7926 O   0  0  0  0  0  0  0  0  0  0  0  0
  148.6155  136.8432  160.6994 N   0  5  0  0  0  0  0  0  0  0  0  0
  147.9995  135.7758  161.2333 C   0  0  0  0  0  0  0  0  0  0  0  0
  147.7670  134.6551  160.5309 N   0  0  0  0  0  0  0  0  0  0  0  0
  147.1247  133.6708  161.2699 N   0  0  0  0  0  0  0  0  0  0  0  0
  146.8948  134.0738  162.5194 C   0  0  0  0  0  0  0  0  0  0  0  0
  147.4444  135.6903  162.9077 S   0  0  0  0  0  0  0  0  0  0  0  0
  150.6414  141.7894  157.4834 C   0  0  0  0  0  0  0  0  0  0  0  0
  150.8669  142.9424  158.4781 C   0  0  0  0  0  0  0  0  0  0  0  0
  153.4500  143.9859  160.3597 H   0  0  0  0  0  0  0  0  0  0  0  0
  151.7423  143.9507  160.8100 H   0  0  0  0  0  0  0  0  0  0  0  0
  152.2879  144.9700  159.4746 H   0  0  0  0  0  0  0  0  0  0  0  0
  153.4480  141.5661  160.0653 H   0  0  0  0  0  0  0  0  0  0  0  0
  151.7603  141.5008  160.5219 H   0  0  0  0  0  0  0  0  0  0  0  0
  152.9596  140.5197  157.8872 H   0  0  0  0  0  0  0  0  0  0  0  0
  152.3978  139.5299  159.2168 H   0  0  0  0  0  0  0  0  0  0  0  0
  148.8270  138.4288  156.1774 H   0  0  0  0  0  0  0  0  0  0  0  0
  148.7735  140.1767  156.2250 H   0  0  0  0  0  0  0  0  0  0  0  0
  148.3517  139.2385  157.6537 H   0  0  0  0  0  0  0  0  0  0  0  0
  151.2722  138.3536  155.4240 H   0  0  0  0  0  0  0  0  0  0  0  0
  152.4470  139.4011  156.2034 H   0  0  0  0  0  0  0  0  0  0  0  0
  151.1153  140.0830  155.2764 H   0  0  0  0  0  0  0  0  0  0  0  0
  150.6070  137.1101  157.3267 H   0  0  0  0  0  0  0  0  0  0  0  0
  151.8439  137.8889  158.2585 H   0  0  0  0  0  0  0  0  0  0  0  0
  149.9501  138.6062  159.8186 H   0  0  0  0  0  0  0  0  0  0  0  0
  146.4012  133.4143  163.2175 H   0  0  0  0  0  0  0  0  0  0  0  0
  151.3076  141.9165  156.6300 H   0  0  0  0  0  0  0  0  0  0  0  0
  149.6243  141.8771  157.1063 H   0  0  0  0  0  0  0  0  0  0  0  0
  150.1289  142.8817  159.2798 H   0  0  0  0  0  0  0  0  0  0  0  0
  150.6984  143.8931  157.9711 H   0  0  0  0  0  0  0  0  0  0  0  0
  1  2  1  0  0  0  0
  1 21  1  0  0  0  0
  1 22  1  0  0  0  0
  1 23  1  0  0  0  0
  2 20  1  0  0  0  0
  2  3  1  0  0  0  0
  3  4  1  0  0  0  0
  3 24  1  0  0  0  0
  3 25  1  0  0  0  0
  4  5  1  0  0  0  0
  4 26  1  0  0  0  0
  4 27  1  0  0  0  0
  5  6  1  0  0  0  0
  5 19  1  0  0  0  0
  6  7  1  0  0  0  0
  6  8  1  0  0  0  0
  6  9  1  0  0  0  0
  7 28  1  0  0  0  0
  7 29  1  0  0  0  0
  7 30  1  0  0  0  0
  8 31  1  0  0  0  0
  8 32  1  0  0  0  0
  8 33  1  0  0  0  0
  9 10  1  0  0  0  0
  9 34  1  0  0  0  0
  9 35  1  0  0  0  0
 10 11  1  0  0  0  0
 10 36  1  0  0  0  0
 11 12  2  0  0  0  0
 11 13  1  0  0  0  0
 13 14  1  0  0  0  0
 14 18  1  0  0  0  0
 14 15  2  0  0  0  0
 15 16  1  0  0  0  0
 16 17  2  0  0  0  0
 17 18  1  0  0  0  0
 17 37  1  0  0  0  0
 19 20  1  0  0  0  0
 19 38  1  0  0  0  0
 19 39  1  0  0  0  0
 20 40  1  0  0  0  0
 20 41  1  0  0  0  0
M  CHG  1  13  -1
M  END
> <s_m_source_file>
AV-unprocessed.smi

> <i_m_source_file_index>
1572

> <i_lp_mmshare_version>
43012

> <i_f3d_flags>
0

> <s_epik_input>
W0NIM11OMVtDSDJdW0NIMl1OKFtDSDJdW0NIMl0xKUMoW0NIM10pKFtDSDNdKVtDSDJdW05IXUMoPU8pW05IXWMybm5bY0hdczI=

> <s_epik_cmdline>
J2VwaWtfcHl0aG9uJywgJy1waCcsICc3LjAnLCAnLXRuJywgJzgnLCAnLW1hJywgJzIwMCcsICctbWV0YWxfYmluZGluZycsICctaW1hZScsICc8aW5maWxlLm1hZT4nLCAnLW9tYWUnLCAnPG91dGZpbGUubWFlPic=

> <r_lp_tautomer_probability>
1

> <r_epik_Ionization_Penalty>
6.61874

> <r_epik_Ionization_Penalty_Charging>
3.54798

> <r_epik_Ionization_Penalty_Neutral>
3.07076

> <r_epik_State_Penalty>
5.68339

> <r_epik_Charging_Adjusted_Penalty>
9.23137

> <i_epik_Tot_Q>
-1

> <i_epik_Tot_abs_Q>
1

> <r_epik_Metal_State_Penalty>
2.66763

> <b_epik_Metal_Only>
1

> <s_lp_Force_Field>
OPLS_2005

> <r_lp_Energy>
47.6706

> <b_lp_Chiralities_Consistent>
1

> <s_lp_Variant>
AV-unprocessed.smi:1572-6

> <Gold.Version>
5.8.1

> <Gold.Id.Protein>
6NUR|6NUR_protein|mol2

> <Gold.PLP.Fitness>
42.4520

> <Gold.PLP.PLP>
-34.0662

> <Gold.PLP.part.hbond>
-2.0000

> <Gold.PLP.part.metal>
0.0000

> <Gold.PLP.part.buried>
-7.2135

> <Gold.PLP.part.nonpolar>
-26.4831

> <Gold.PLP.part.repulsive>
0.2365

> <Gold.PLP.ligand.clash>
0.0000

> <Gold.PLP.ligand.torsion>
0.1716

> <Gold.PLP.Chemscore.Hbond>
2.8880

> <Gold.PLP.Chemscore.CHOScore>
0.0000

> <Gold.PLP.Chemscore.Metal>
0.0000

> <Gold.Chemscore.Hbonds>
donor molecule, donor type, donor heavy atom, donor atom, acceptor molecule, acceptor atom, score
      P1  H  6896  6907       L1    12  1.00
      P1  H  6931  6943       L1    13  1.86

> <Gold.PLP.Chemscore.Internal.Correction>
0.0650

> <Gold.Rescore>
     Score         DG    S(hbond)    S(metal)    S(lipo)     H(rot)  DE(clash)    DE(int)     intcor
     14.33     -16.23       1.83        0.00      75.42       1.63       0.05       1.84       ----

> <Gold.Chemscore.Fitness>
14.3347

> <Gold.Chemscore.DG>
-16.2287

> <Gold.Chemscore.ZeroCoef>
-5.4800

> <Gold.Chemscore.Hbond>
1.8276

> <Gold.Chemscore.Metal>
0.0000

> <Gold.Chemscore.Lipo>
75.4223

> <Gold.Chemscore.Internal_Hbond>
0.0000

> <Gold.Chemscore.DEClash>
0.0515

> <Gold.Chemscore.DEInternal>
1.8425

> <Gold.Chemscore.Rot>
1.6328

> <Gold.Chemscore.Internal.Correction>
   9.000000E+99

> <Gold.Chemscore.Hbonds>
donor molecule, donor type, donor heavy atom, donor atom, acceptor molecule, acceptor atom, score
      P1  H  6896  6907       L1    12  0.63
      P1  H  6931  6943       L1    13  0.82

> <Gold.Chemscore.Hbond.Weighted>
-6.1042

> <Gold.Chemscore.Metal.Weighted>
-0.0000

> <Gold.Chemscore.Lipo.Weighted>
-8.8244

> <Gold.Chemscore.Internal_Hbond.Weighted>
0.0000

> <Gold.Chemscore.DEClash.Weighted>
0.0515

> <Gold.Chemscore.DEInternal.Weighted>
1.8425

> <Gold.Chemscore.Rot.Weighted>
4.1800

> <Gold.Chemscore.Internal.Correction.Weighted>
   9.000000E+99

> <Gold.Protein.RotatedTorsions>
[ 6907 6896 6895 6894 ] final  -79.50 input  -60.11 | X-H torsion
[ 7974 7965 7964 7962 ] final   46.17 input  175.53 | X-H torsion
[ 8008 7997 7996 7995 ] final   60.43 input   59.86 | X-H torsion
[ 10167 10162 10161 10158 ] final    7.10 input  -65.29 | X-H torsion
[ 10718 10713 10712 10709 ] final  -22.90 input   66.30 | X-H torsion
[ 10763 10752 10751 10750 ] final   -2.04 input  -60.55 | X-H torsion
[ 11005 11000 10999 10996 ] final  134.53 input  -57.11 | X-H torsion

> <Gold.Protein.ActiveResidues>
 VAL166  LYS551  ARG553  GLY616  TRP617  ASP618  TYR619  PRO620  LYS621  CYS622 
 ASP623  PHE694  ASN695  SER759  ASP760  ASP761  ALA762  ILE779  LEU786  VAL792 
 PHE793  MET794  SER795  GLU796  ALA797  LYS798  CYS799  TRP800  GLU811  SER814 

> <Gold.Protein.RotatedAtoms>
  150.6948  134.4112  159.5162 H   0  0  0  0  0  0  0  0  0  0  0  0  # atno 6907 bound_to 6896
  152.1870  134.8702  160.0530 H   0  0  0  0  0  0  0  0  0  0  0  0  # atno 6908 bound_to 6896
  151.9671  133.3679  159.4094 H   0  0  0  0  0  0  0  0  0  0  0  0  # atno 6909 bound_to 6896
  146.0414  139.4884  142.9776 H   0  0  0  0  0  0  0  0  0  0  0  0  # atno 7974 bound_to 7965
  155.5823  140.3491  155.4543 H   0  0  0  0  0  0  0  0  0  0  0  0  # atno 8008 bound_to 7997
  156.0364  140.1286  157.0228 H   0  0  0  0  0  0  0  0  0  0  0  0  # atno 8009 bound_to 7997
  154.4373  140.1033  156.6159 H   0  0  0  0  0  0  0  0  0  0  0  0  # atno 8010 bound_to 7997
  140.6391  143.7817  150.7401 H   0  0  0  0  0  0  0  0  0  0  0  0  # atno 10167 bound_to 10162
  156.4983  130.4582  149.6716 H   0  0  0  0  0  0  0  0  0  0  0  0  # atno 10718 bound_to 10713
  153.3528  135.6986  153.6774 H   0  0  0  0  0  0  0  0  0  0  0  0  # atno 10763 bound_to 10752
  153.5494  135.3557  155.2753 H   0  0  0  0  0  0  0  0  0  0  0  0  # atno 10764 bound_to 10752
  154.8656  135.4223  154.2768 H   0  0  0  0  0  0  0  0  0  0  0  0  # atno 10765 bound_to 10752
  139.9921  134.9511  156.9880 H   0  0  0  0  0  0  0  0  0  0  0  0  # atno 11005 bound_to 11000
  145.6878  141.0173  143.1571 LP  0  0  0  0  0  0  0  0  0  0  0  0  # atno 17320 bound_to 7965
  144.7076  139.8497  143.7425 LP  0  0  0  0  0  0  0  0  0  0  0  0  # atno 17321 bound_to 7965
  140.1445  143.4412  152.2172 LP  0  0  0  0  0  0  0  0  0  0  0  0  # atno 17342 bound_to 10162
  139.5600  144.7399  151.4182 LP  0  0  0  0  0  0  0  0  0  0  0  0  # atno 17343 bound_to 10162
  156.3358  130.7356  151.2293 LP  0  0  0  0  0  0  0  0  0  0  0  0  # atno 17370 bound_to 10713
  157.7466  131.0417  150.4660 LP  0  0  0  0  0  0  0  0  0  0  0  0  # atno 17371 bound_to 10713
  140.4888  134.1214  155.7229 LP  0  0  0  0  0  0  0  0  0  0  0  0  # atno 17394 bound_to 11000
  141.1574  133.8856  157.1939 LP  0  0  0  0  0  0  0  0  0  0  0  0  # atno 17395 bound_to 11000

$$$$
