AV-unprocessed.smi:2048|AV-procd|sdf|8321|dock3
  -GOLD-   2272010583D 1   1.00000     0.00000
 Structure written by MMmdl.
 27 28  0  0  0  0  0  0  0  0  1 V2000
  150.9190  140.7698  156.2414 O   0  0  0  0  0  0  0  0  0  0  0  0
  150.3671  141.8646  156.1262 C   0  0  0  0  0  0  0  0  0  0  0  0
  150.7963  142.9767  156.7400 N   0  0  0  0  0  0  0  0  0  0  0  0
  151.9545  143.0516  157.6231 C   0  0  0  0  0  0  0  0  0  0  0  0
  151.5752  143.6121  158.9914 C   0  0  0  0  0  0  0  0  0  0  0  0
  151.6730  145.1230  159.2528 C   0  0  0  0  0  0  0  0  0  0  0  0
  152.0874  144.7993  160.6907 C   0  0  0  0  0  0  0  0  0  0  0  0
  152.5270  143.4236  160.1817 C   0  0  0  0  0  0  0  0  0  0  0  0
  149.2710  142.1085  155.3863 N   0  0  0  0  0  0  0  0  0  0  0  0
  148.5353  141.2000  154.5804 C   0  0  0  0  0  0  0  0  0  0  0  0
  148.9194  139.9465  154.3123 N   0  0  0  0  0  0  0  0  0  0  0  0
  148.0039  139.2814  153.4924 C   0  0  0  0  0  0  0  0  0  0  0  0
  146.9209  140.0494  153.1429 C   0  0  0  0  0  0  0  0  0  0  0  0
  147.0086  141.6480  153.8334 S   0  0  0  0  0  0  0  0  0  0  0  0
  150.2828  143.8330  156.5914 H   0  0  0  0  0  0  0  0  0  0  0  0
  152.4141  142.0671  157.7242 H   0  0  0  0  0  0  0  0  0  0  0  0
  152.7004  143.6872  157.1453 H   0  0  0  0  0  0  0  0  0  0  0  0
  150.5821  143.2685  159.2899 H   0  0  0  0  0  0  0  0  0  0  0  0
  152.4715  145.6013  158.6829 H   0  0  0  0  0  0  0  0  0  0  0  0
  150.7310  145.6638  159.1573 H   0  0  0  0  0  0  0  0  0  0  0  0
  152.8914  145.4201  161.0870 H   0  0  0  0  0  0  0  0  0  0  0  0
  151.2382  144.7472  161.3741 H   0  0  0  0  0  0  0  0  0  0  0  0
  152.2751  142.5911  160.8396 H   0  0  0  0  0  0  0  0  0  0  0  0
  153.5777  143.4001  159.8876 H   0  0  0  0  0  0  0  0  0  0  0  0
  148.9254  143.0567  155.3959 H   0  0  0  0  0  0  0  0  0  0  0  0
  148.2025  138.2592  153.2056 H   0  0  0  0  0  0  0  0  0  0  0  0
  146.0803  139.7725  152.5241 H   0  0  0  0  0  0  0  0  0  0  0  0
  1  2  2  0  0  0  0
  2  3  1  0  0  0  0
  2  9  1  0  0  0  0
  3  4  1  0  0  0  0
  3 15  1  0  0  0  0
  4  5  1  0  0  0  0
  4 16  1  0  0  0  0
  4 17  1  0  0  0  0
  5  8  1  0  0  0  0
  5  6  1  0  0  0  0
  5 18  1  0  0  0  0
  6  7  1  0  0  0  0
  6 19  1  0  0  0  0
  6 20  1  0  0  0  0
  7  8  1  0  0  0  0
  7 21  1  0  0  0  0
  7 22  1  0  0  0  0
  8 23  1  0  0  0  0
  8 24  1  0  0  0  0
  9 10  1  0  0  0  0
  9 25  1  0  0  0  0
 10 14  1  0  0  0  0
 10 11  2  0  0  0  0
 11 12  1  0  0  0  0
 12 13  2  0  0  0  0
 12 26  1  0  0  0  0
 13 14  1  0  0  0  0
 13 27  1  0  0  0  0
M  END
> <s_m_source_file>
AV-unprocessed.smi

> <i_m_source_file_index>
2048

> <i_lp_mmshare_version>
43012

> <i_f3d_flags>
0

> <s_epik_input>
czFbY0hdW2NIXW5jMVtOSF1DKD1PKVtOSF1bQ0gyXVtDSF0yW0NIMl1bQ0gyXVtDSDJdMg==

> <s_epik_cmdline>
J2VwaWtfcHl0aG9uJywgJy1waCcsICc3LjAnLCAnLXRuJywgJzgnLCAnLW1hJywgJzIwMCcsICctbWV0YWxfYmluZGluZycsICctaW1hZScsICc8aW5maWxlLm1hZT4nLCAnLW9tYWUnLCAnPG91dGZpbGUubWFlPic=

> <r_lp_tautomer_probability>
0.999

> <r_epik_Ionization_Penalty>
0.000426276

> <r_epik_Ionization_Penalty_Charging>
0

> <r_epik_Ionization_Penalty_Neutral>
0.000426276

> <r_epik_State_Penalty>
0.000177984

> <r_epik_Charging_Adjusted_Penalty>
0.000177984

> <i_epik_Tot_Q>
0

> <i_epik_Tot_abs_Q>
0

> <r_epik_Metal_State_Penalty>
-0

> <b_epik_Metal_Only>
0

> <s_lp_Force_Field>
OPLS_2005

> <r_lp_Energy>
10.8025

> <b_lp_Chiralities_Consistent>
1

> <s_lp_Variant>
AV-unprocessed.smi:2048-1

> <Gold.Version>
5.8.1

> <Gold.Id.Protein>
6NUR|6NUR_protein|mol2

> <Gold.PLP.Fitness>
42.2143

> <Gold.PLP.PLP>
-30.7776

> <Gold.PLP.part.hbond>
-2.0000

> <Gold.PLP.part.metal>
0.0000

> <Gold.PLP.part.buried>
-4.4203

> <Gold.PLP.part.nonpolar>
-25.9517

> <Gold.PLP.part.repulsive>
0.3760

> <Gold.PLP.ligand.clash>
0.0000

> <Gold.PLP.ligand.torsion>
0.2931

> <Gold.PLP.Chemscore.Hbond>
1.9920

> <Gold.PLP.Chemscore.CHOScore>
1.9964

> <Gold.PLP.Chemscore.Metal>
0.0000

> <Gold.Chemscore.Hbonds>
donor molecule, donor type, donor heavy atom, donor atom, acceptor molecule, acceptor atom, score
      L1  H     3    15       P1  8028  0.98
      L1  H     9    25       P1  8028  1.00
      L1  C    12    26       P1  7948  1.00
      L1  C    13    27       P1 10175  1.00

> <Gold.PLP.Chemscore.Internal.Correction>
0.0578

> <Gold.Rescore>
     Score         DG    S(hbond)    S(metal)    S(lipo)     H(rot)  DE(clash)    DE(int)     intcor
     16.05     -17.82       1.95        0.00      77.81       1.28       0.10       1.67       ----

> <Gold.Chemscore.Fitness>
16.0475

> <Gold.Chemscore.DG>
-17.8247

> <Gold.Chemscore.ZeroCoef>
-5.4800

> <Gold.Chemscore.Hbond>
1.9506

> <Gold.Chemscore.Metal>
0.0000

> <Gold.Chemscore.Lipo>
77.8089

> <Gold.Chemscore.Internal_Hbond>
0.0000

> <Gold.Chemscore.DEClash>
0.1037

> <Gold.Chemscore.DEInternal>
1.6735

> <Gold.Chemscore.Rot>
1.2788

> <Gold.Chemscore.Internal.Correction>
   9.000000E+99

> <Gold.Chemscore.Hbonds>
donor molecule, donor type, donor heavy atom, donor atom, acceptor molecule, acceptor atom, score
      L1  H     3    15       P1  8028  0.93
      L1  H     9    25       P1  8028  1.00

> <Gold.Chemscore.Hbond.Weighted>
-6.5149

> <Gold.Chemscore.Metal.Weighted>
-0.0000

> <Gold.Chemscore.Lipo.Weighted>
-9.1036

> <Gold.Chemscore.Internal_Hbond.Weighted>
0.0000

> <Gold.Chemscore.DEClash.Weighted>
0.1037

> <Gold.Chemscore.DEInternal.Weighted>
1.6735

> <Gold.Chemscore.Rot.Weighted>
3.2738

> <Gold.Chemscore.Internal.Correction.Weighted>
   9.000000E+99

> <Gold.Protein.RotatedTorsions>
[ 6907 6896 6895 6894 ] final -172.79 input  -60.11 | X-H torsion
[ 7974 7965 7964 7962 ] final    7.40 input  175.53 | X-H torsion
[ 8008 7997 7996 7995 ] final   34.48 input   59.86 | X-H torsion
[ 10167 10162 10161 10158 ] final   36.10 input  -65.29 | X-H torsion
[ 10718 10713 10712 10709 ] final  145.09 input   66.30 | X-H torsion
[ 10763 10752 10751 10750 ] final   37.83 input  -60.55 | X-H torsion
[ 11005 11000 10999 10996 ] final   88.23 input  -57.11 | X-H torsion

> <Gold.Protein.ActiveResidues>
 VAL166  LYS551  ARG553  GLY616  TRP617  ASP618  TYR619  PRO620  LYS621  CYS622 
 ASP623  PHE694  ASN695  SER759  ASP760  ASP761  ALA762  ILE779  LEU786  VAL792 
 PHE793  MET794  SER795  GLU796  ALA797  LYS798  CYS799  TRP800  GLU811  SER814 

> <Gold.Protein.RotatedAtoms>
  151.5457  133.3425  159.2943 H   0  0  0  0  0  0  0  0  0  0  0  0  # atno 6907 bound_to 6896
  150.8509  134.7836  159.7019 H   0  0  0  0  0  0  0  0  0  0  0  0  # atno 6908 bound_to 6896
  152.4555  134.5309  159.9862 H   0  0  0  0  0  0  0  0  0  0  0  0  # atno 6909 bound_to 6896
  146.2427  140.0089  142.8408 H   0  0  0  0  0  0  0  0  0  0  0  0  # atno 7974 bound_to 7965
  155.1556  140.3279  155.4422 H   0  0  0  0  0  0  0  0  0  0  0  0  # atno 8008 bound_to 7997
  156.2560  140.1969  156.6616 H   0  0  0  0  0  0  0  0  0  0  0  0  # atno 8009 bound_to 7997
  154.6442  140.0566  156.9867 H   0  0  0  0  0  0  0  0  0  0  0  0  # atno 8010 bound_to 7997
  140.4159  144.1527  150.6143 H   0  0  0  0  0  0  0  0  0  0  0  0  # atno 10167 bound_to 10162
  157.3494  131.0948  151.1013 H   0  0  0  0  0  0  0  0  0  0  0  0  # atno 10718 bound_to 10713
  153.0023  135.6267  154.2207 H   0  0  0  0  0  0  0  0  0  0  0  0  # atno 10763 bound_to 10752
  154.1950  135.2807  155.3011 H   0  0  0  0  0  0  0  0  0  0  0  0  # atno 10764 bound_to 10752
  154.5729  135.5671  153.7171 H   0  0  0  0  0  0  0  0  0  0  0  0  # atno 10765 bound_to 10752
  139.8901  134.8474  156.2971 H   0  0  0  0  0  0  0  0  0  0  0  0  # atno 11005 bound_to 11000
  145.1346  140.9537  143.4524 LP  0  0  0  0  0  0  0  0  0  0  0  0  # atno 17320 bound_to 7965
  145.0355  139.3304  143.6003 LP  0  0  0  0  0  0  0  0  0  0  0  0  # atno 17321 bound_to 7965
  140.4587  143.2457  151.9250 LP  0  0  0  0  0  0  0  0  0  0  0  0  # atno 17342 bound_to 10162
  139.4782  144.5490  151.8415 LP  0  0  0  0  0  0  0  0  0  0  0  0  # atno 17343 bound_to 10162
  157.2194  130.6474  149.5805 LP  0  0  0  0  0  0  0  0  0  0  0  0  # atno 17370 bound_to 10713
  155.9719  130.4634  150.6180 LP  0  0  0  0  0  0  0  0  0  0  0  0  # atno 17371 bound_to 10713
  140.9938  133.7193  156.0854 LP  0  0  0  0  0  0  0  0  0  0  0  0  # atno 17394 bound_to 11000
  140.7590  134.3960  157.5529 LP  0  0  0  0  0  0  0  0  0  0  0  0  # atno 17395 bound_to 11000

$$$$
