AV-unprocessed.smi:2926|AV-procd|sdf|11229|dock7
  -GOLD-   2272016123D 1   1.00000     0.00000
 Structure written by MMmdl.
 31 31  0  0  0  0  0  0  0  0  2 V2000
  152.1340  139.2372  155.6587 C   0  0  0  0  0  0  0  0  0  0  0  0
  150.9079  138.7803  156.4810 C   0  0  0  0  0  0  0  0  0  0  0  0
  151.0263  139.2679  157.9442 C   0  0  0  0  0  0  0  0  0  0  0  0
  150.5883  137.2619  156.3224 C   0  0  2  0  0  0  0  0  0  0  0  0
  150.4738  136.8238  154.8470 C   0  0  0  0  0  0  0  0  0  0  0  0
  151.7470  136.5851  154.2809 O   0  0  0  0  0  0  0  0  0  0  0  0
  149.3594  136.9273  157.0363 N   0  5  0  0  0  0  0  0  0  0  0  0
  149.4404  136.1645  158.4650 S   0  0  0  0  0  0  0  0  0  0  0  0
  149.3483  134.7012  158.3355 O   0  0  0  0  0  0  0  0  0  0  0  0
  150.5115  136.6903  159.3277 O   0  0  0  0  0  0  0  0  0  0  0  0
  147.8542  136.7127  159.2290 C   0  0  0  0  0  0  0  0  0  0  0  0
  147.7639  136.2259  160.6488 C   0  0  0  0  0  0  0  0  0  0  0  0
  147.7161  134.8865  161.1261 C   0  0  0  0  0  0  0  0  0  0  0  0
  147.6461  135.0320  162.4813 C   0  0  0  0  0  0  0  0  0  0  0  0
  147.6619  136.3459  162.8197 O   0  0  0  0  0  0  0  0  0  0  0  0
  147.7405  137.1003  161.6437 N   0  0  0  0  0  0  0  0  0  0  0  0
  151.4438  136.7279  156.7396 H   0  0  0  0  0  0  0  0  0  0  0  0
  153.0634  138.7993  156.0275 H   0  0  0  0  0  0  0  0  0  0  0  0
  152.2498  140.3200  155.7141 H   0  0  0  0  0  0  0  0  0  0  0  0
  152.0429  138.9853  154.6003 H   0  0  0  0  0  0  0  0  0  0  0  0
  150.0570  139.3129  156.0541 H   0  0  0  0  0  0  0  0  0  0  0  0
  151.8690  138.8105  158.4654 H   0  0  0  0  0  0  0  0  0  0  0  0
  150.1249  139.0708  158.5262 H   0  0  0  0  0  0  0  0  0  0  0  0
  151.1839  140.3463  157.9740 H   0  0  0  0  0  0  0  0  0  0  0  0
  149.8687  135.9221  154.7470 H   0  0  0  0  0  0  0  0  0  0  0  0
  149.9874  137.6021  154.2586 H   0  0  0  0  0  0  0  0  0  0  0  0
  151.6518  136.5171  153.3438 H   0  0  0  0  0  0  0  0  0  0  0  0
  147.8130  137.8006  159.1857 H   0  0  0  0  0  0  0  0  0  0  0  0
  147.0353  136.3252  158.6224 H   0  0  0  0  0  0  0  0  0  0  0  0
  147.7233  133.9664  160.5605 H   0  0  0  0  0  0  0  0  0  0  0  0
  147.5862  134.3311  163.3006 H   0  0  0  0  0  0  0  0  0  0  0  0
  1  2  1  0  0  0  0
  1 18  1  0  0  0  0
  1 19  1  0  0  0  0
  1 20  1  0  0  0  0
  2  3  1  0  0  0  0
  2  4  1  0  0  0  0
  2 21  1  0  0  0  0
  3 22  1  0  0  0  0
  3 23  1  0  0  0  0
  3 24  1  0  0  0  0
  4 17  1  0  0  0  0
  4  5  1  0  0  0  0
  4  7  1  0  0  0  0
  5  6  1  0  0  0  0
  5 25  1  0  0  0  0
  5 26  1  0  0  0  0
  6 27  1  0  0  0  0
  7  8  1  0  0  0  0
  8  9  2  0  0  0  0
  8 10  2  0  0  0  0
  8 11  1  0  0  0  0
 11 12  1  0  0  0  0
 11 28  1  0  0  0  0
 11 29  1  0  0  0  0
 12 16  2  0  0  0  0
 12 13  1  0  0  0  0
 13 14  2  0  0  0  0
 13 30  1  0  0  0  0
 14 15  1  0  0  0  0
 14 31  1  0  0  0  0
 15 16  1  0  0  0  0
M  CHG  1   7  -1
M  END
> <s_m_source_file>
AV-unprocessed.smi

> <i_m_source_file_index>
2926

> <i_lp_mmshare_version>
43012

> <i_f3d_flags>
0

> <s_epik_input>
W0NIM11bQ0hdKFtDSDNdKVtDQEBIXShbQ0gyXVtPSF0pW05IXVMoPU8pKD1PKVtDSDJdYzFbY0hdW2NIXW9uMQ==

> <s_epik_cmdline>
J2VwaWtfcHl0aG9uJywgJy1waCcsICc3LjAnLCAnLXRuJywgJzgnLCAnLW1hJywgJzIwMCcsICctbWV0YWxfYmluZGluZycsICctaW1hZScsICc8aW5maWxlLm1hZT4nLCAnLW9tYWUnLCAnPG91dGZpbGUubWFlPic=

> <r_lp_tautomer_probability>
1

> <r_epik_Ionization_Penalty>
4.75719

> <r_epik_Ionization_Penalty_Charging>
4.75718

> <r_epik_Ionization_Penalty_Neutral>
1.48962e-06

> <r_epik_State_Penalty>
4.75699

> <r_epik_Charging_Adjusted_Penalty>
9.51417

> <i_epik_Tot_Q>
-1

> <i_epik_Tot_abs_Q>
1

> <r_epik_Metal_State_Penalty>
0.961449

> <b_epik_Metal_Only>
1

> <s_lp_Force_Field>
OPLS_2005

> <r_lp_Energy>
3.36492

> <b_lp_Chiralities_Consistent>
1

> <s_lp_Variant>
AV-unprocessed.smi:2926-4

> <Gold.Version>
5.8.1

> <Gold.Id.Protein>
6NUR|6NUR_protein|mol2

> <Gold.PLP.Fitness>
39.3222

> <Gold.PLP.PLP>
-24.8900

> <Gold.PLP.part.hbond>
-6.0000

> <Gold.PLP.part.metal>
0.0000

> <Gold.PLP.part.buried>
-4.8424

> <Gold.PLP.part.nonpolar>
-15.0539

> <Gold.PLP.part.repulsive>
0.0013

> <Gold.PLP.ligand.clash>
0.0000

> <Gold.PLP.ligand.torsion>
1.1272

> <Gold.PLP.Chemscore.Hbond>
5.1884

> <Gold.PLP.Chemscore.CHOScore>
0.0000

> <Gold.PLP.Chemscore.Metal>
0.0000

> <Gold.Chemscore.Hbonds>
donor molecule, donor type, donor heavy atom, donor atom, acceptor molecule, acceptor atom, score
      L1  H     6    27       P1  7949  1.00
      P1  H  6896  6907       L1     9  0.70
      P1  H  6896  6908       L1    10  0.78
      P1  H  6931  6943       L1    16  1.00
      P1  H  6934  6947       L1    16  0.57
      P1  H 10752 10764       L1     6  1.00

> <Gold.PLP.Chemscore.Internal.Correction>
1.1214

> <Gold.Rescore>
     Score         DG    S(hbond)    S(metal)    S(lipo)     H(rot)  DE(clash)    DE(int)     intcor
     13.56     -16.46       3.53        0.00      49.60       2.58       0.14       2.77       ----

> <Gold.Chemscore.Fitness>
13.5555

> <Gold.Chemscore.DG>
-16.4634

> <Gold.Chemscore.ZeroCoef>
-5.4800

> <Gold.Chemscore.Hbond>
3.5266

> <Gold.Chemscore.Metal>
0.0000

> <Gold.Chemscore.Lipo>
49.6008

> <Gold.Chemscore.Internal_Hbond>
0.0000

> <Gold.Chemscore.DEClash>
0.1417

> <Gold.Chemscore.DEInternal>
2.7662

> <Gold.Chemscore.Rot>
2.5776

> <Gold.Chemscore.Internal.Correction>
   9.000000E+99

> <Gold.Chemscore.Hbonds>
donor molecule, donor type, donor heavy atom, donor atom, acceptor molecule, acceptor atom, score
      L1  H     6    27       P1  7949  0.93
      P1  H  6896  6907       L1     9  0.55
      P1  H  6896  6908       L1    10  0.46
      P1  H  6931  6943       L1    16  0.48
      P1  H  6934  6947       L1    16  0.44
      P1  H 10752 10764       L1     6  0.36

> <Gold.Chemscore.Hbond.Weighted>
-11.7788

> <Gold.Chemscore.Metal.Weighted>
-0.0000

> <Gold.Chemscore.Lipo.Weighted>
-5.8033

> <Gold.Chemscore.Internal_Hbond.Weighted>
0.0000

> <Gold.Chemscore.DEClash.Weighted>
0.1417

> <Gold.Chemscore.DEInternal.Weighted>
2.7662

> <Gold.Chemscore.Rot.Weighted>
6.5987

> <Gold.Chemscore.Internal.Correction.Weighted>
   9.000000E+99

> <Gold.Protein.RotatedTorsions>
[ 6907 6896 6895 6894 ] final -120.29 input  -60.11 | X-H torsion
[ 7974 7965 7964 7962 ] final  -92.95 input  175.53 | X-H torsion
[ 8008 7997 7996 7995 ] final -145.67 input   59.86 | X-H torsion
[ 10167 10162 10161 10158 ] final  135.04 input  -65.29 | X-H torsion
[ 10718 10713 10712 10709 ] final   92.34 input   66.30 | X-H torsion
[ 10763 10752 10751 10750 ] final  -58.48 input  -60.55 | X-H torsion
[ 11005 11000 10999 10996 ] final   82.46 input  -57.11 | X-H torsion

> <Gold.Protein.ActiveResidues>
 VAL166  LYS551  ARG553  GLY616  TRP617  ASP618  TYR619  PRO620  LYS621  CYS622 
 ASP623  PHE694  ASN695  SER759  ASP760  ASP761  ALA762  ILE779  LEU786  VAL792 
 PHE793  MET794  SER795  GLU796  ALA797  LYS798  CYS799  TRP800  GLU811  SER814 

> <Gold.Protein.RotatedAtoms>
  150.8380  133.7982  159.3071 H   0  0  0  0  0  0  0  0  0  0  0  0  # atno 6907 bound_to 6896
  151.5692  135.1061  160.0000 H   0  0  0  0  0  0  0  0  0  0  0  0  # atno 6908 bound_to 6896
  152.4449  133.7475  159.6732 H   0  0  0  0  0  0  0  0  0  0  0  0  # atno 6909 bound_to 6896
  145.3930  140.9530  143.2330 H   0  0  0  0  0  0  0  0  0  0  0  0  # atno 7974 bound_to 7965
  155.5470  140.0613  157.2858 H   0  0  0  0  0  0  0  0  0  0  0  0  # atno 8008 bound_to 7997
  154.4433  140.1909  156.0692 H   0  0  0  0  0  0  0  0  0  0  0  0  # atno 8009 bound_to 7997
  156.0544  140.3280  155.7392 H   0  0  0  0  0  0  0  0  0  0  0  0  # atno 8010 bound_to 7997
  139.5232  144.6537  151.5227 H   0  0  0  0  0  0  0  0  0  0  0  0  # atno 10167 bound_to 10162
  157.6959  131.0439  150.3866 H   0  0  0  0  0  0  0  0  0  0  0  0  # atno 10718 bound_to 10713
  154.2387  135.6347  153.5200 H   0  0  0  0  0  0  0  0  0  0  0  0  # atno 10763 bound_to 10752
  152.9934  135.5537  154.5933 H   0  0  0  0  0  0  0  0  0  0  0  0  # atno 10764 bound_to 10752
  154.5434  135.2896  155.1049 H   0  0  0  0  0  0  0  0  0  0  0  0  # atno 10765 bound_to 10752
  139.9063  134.8073  156.2177 H   0  0  0  0  0  0  0  0  0  0  0  0  # atno 11005 bound_to 11000
  144.8427  139.5446  143.6893 LP  0  0  0  0  0  0  0  0  0  0  0  0  # atno 17320 bound_to 7965
  146.2789  139.6824  142.9243 LP  0  0  0  0  0  0  0  0  0  0  0  0  # atno 17321 bound_to 7965
  140.6353  143.8996  150.6641 LP  0  0  0  0  0  0  0  0  0  0  0  0  # atno 17342 bound_to 10162
  140.2314  143.3733  152.1563 LP  0  0  0  0  0  0  0  0  0  0  0  0  # atno 17343 bound_to 10162
  156.4274  130.3965  149.6783 LP  0  0  0  0  0  0  0  0  0  0  0  0  # atno 17370 bound_to 10713
  156.4012  130.7676  151.2684 LP  0  0  0  0  0  0  0  0  0  0  0  0  # atno 17371 bound_to 10713
  141.0425  133.6930  156.1624 LP  0  0  0  0  0  0  0  0  0  0  0  0  # atno 17394 bound_to 11000
  140.6933  134.4642  157.5588 LP  0  0  0  0  0  0  0  0  0  0  0  0  # atno 17395 bound_to 11000

$$$$
