AV-unprocessed.smi:2531|AV-procd|sdf|9965|dock2
  -GOLD-   2272014 03D 1   1.00000     0.00000
 Structure written by MMmdl.
 47 49  0  0  0  0  0  0  0  0  2 V2000
  153.2165  142.6060  160.5092 O   0  0  0  0  0  0  0  0  0  0  0  0
  152.6901  142.2569  159.4518 C   0  0  0  0  0  0  0  0  0  0  0  0
  151.8219  143.2381  158.6408 C   0  0  0  0  0  0  0  0  0  0  0  0
  152.6123  144.4861  158.1991 C   0  0  0  0  0  0  0  0  0  0  0  0
  152.2282  145.5850  159.1885 C   0  0  0  0  0  0  0  0  0  0  0  0
  150.7592  145.3032  159.4894 C   0  0  0  0  0  0  0  0  0  0  0  0
  150.6317  143.7752  159.4688 C   0  0  0  0  0  0  0  0  0  0  0  0
  152.7874  140.9442  158.9839 N   0  0  0  0  0  0  0  0  0  0  0  0
  151.6429  140.2450  158.4193 C   0  0  0  0  0  0  0  0  0  0  0  0
  152.2956  138.9630  158.9541 C   0  0  0  0  0  0  0  0  0  0  0  0
  153.2608  138.0636  157.6540 S   0  0  0  0  0  0  0  0  0  0  0  0
  154.6808  138.4166  157.8056 O   0  0  0  0  0  0  0  0  0  0  0  0
  152.8581  136.6494  157.6155 O   0  0  0  0  0  0  0  0  0  0  0  0
  152.6901  138.7968  156.1982 N   0  0  0  0  0  0  0  0  0  0  0  0
  151.3047  138.5570  155.7848 C   0  0  0  0  0  0  0  0  0  0  0  0
  151.0960  138.8592  154.2899 C   0  0  0  0  0  0  0  0  0  0  0  0
  149.7647  139.5223  153.9856 C   0  0  0  0  0  0  0  0  0  0  0  0
  149.4852  140.8518  154.3690 C   0  0  0  0  0  0  0  0  0  0  0  0
  148.2156  141.3975  154.0867 C   0  0  0  0  0  0  0  0  0  0  0  0
  147.2540  140.6040  153.4274 C   0  0  0  0  0  0  0  0  0  0  0  0
  147.5862  139.2824  153.0668 C   0  0  0  0  0  0  0  0  0  0  0  0
  148.8130  138.7956  153.3554 N   0  3  0  0  0  0  0  0  0  0  0  0
  153.1505  139.8492  159.8703 C   0  0  0  0  0  0  0  0  0  0  0  0
  151.4578  142.7310  157.7461 H   0  0  0  0  0  0  0  0  0  0  0  0
  153.6918  144.3315  158.1613 H   0  0  0  0  0  0  0  0  0  0  0  0
  152.2991  144.7748  157.1949 H   0  0  0  0  0  0  0  0  0  0  0  0
  152.8187  145.4876  160.1006 H   0  0  0  0  0  0  0  0  0  0  0  0
  152.3916  146.5861  158.7890 H   0  0  0  0  0  0  0  0  0  0  0  0
  150.4353  145.7381  160.4353 H   0  0  0  0  0  0  0  0  0  0  0  0
  150.1397  145.7316  158.7003 H   0  0  0  0  0  0  0  0  0  0  0  0
  149.6773  143.4707  159.0381 H   0  0  0  0  0  0  0  0  0  0  0  0
  150.6492  143.3950  160.4918 H   0  0  0  0  0  0  0  0  0  0  0  0
  150.7001  140.4834  158.9156 H   0  0  0  0  0  0  0  0  0  0  0  0
  151.5740  140.3128  157.3330 H   0  0  0  0  0  0  0  0  0  0  0  0
  151.6007  138.2999  159.4698 H   0  0  0  0  0  0  0  0  0  0  0  0
  152.9103  139.7929  156.1802 H   0  0  0  0  0  0  0  0  0  0  0  0
  151.0222  137.5277  156.0106 H   0  0  0  0  0  0  0  0  0  0  0  0
  150.6537  139.1956  156.3822 H   0  0  0  0  0  0  0  0  0  0  0  0
  151.8963  139.5108  153.9374 H   0  0  0  0  0  0  0  0  0  0  0  0
  151.1797  137.9389  153.7098 H   0  0  0  0  0  0  0  0  0  0  0  0
  150.2288  141.4437  154.8825 H   0  0  0  0  0  0  0  0  0  0  0  0
  147.9809  142.4115  154.3764 H   0  0  0  0  0  0  0  0  0  0  0  0
  146.2753  141.0033  153.2042 H   0  0  0  0  0  0  0  0  0  0  0  0
  146.9128  138.6042  152.5635 H   0  0  0  0  0  0  0  0  0  0  0  0
  154.2159  139.6186  159.8837 H   0  0  0  0  0  0  0  0  0  0  0  0
  152.7340  139.9468  160.8748 H   0  0  0  0  0  0  0  0  0  0  0  0
  149.0307  137.8343  153.0923 H   0  0  0  0  0  0  0  0  0  0  0  0
  1  2  2  0  0  0  0
  2  3  1  0  0  0  0
  2  8  1  0  0  0  0
  3  7  1  0  0  0  0
  3  4  1  0  0  0  0
  3 24  1  0  0  0  0
  4  5  1  0  0  0  0
  4 25  1  0  0  0  0
  4 26  1  0  0  0  0
  5  6  1  0  0  0  0
  5 27  1  0  0  0  0
  5 28  1  0  0  0  0
  6  7  1  0  0  0  0
  6 29  1  0  0  0  0
  6 30  1  0  0  0  0
  7 31  1  0  0  0  0
  7 32  1  0  0  0  0
  8 23  1  0  0  0  0
  8  9  1  0  0  0  0
  9 10  1  0  0  0  0
  9 33  1  0  0  0  0
  9 34  1  0  0  0  0
 10 11  1  0  0  0  0
 10 23  1  0  0  0  0
 10 35  1  0  0  0  0
 11 12  2  0  0  0  0
 11 13  2  0  0  0  0
 11 14  1  0  0  0  0
 14 15  1  0  0  0  0
 14 36  1  0  0  0  0
 15 16  1  0  0  0  0
 15 37  1  0  0  0  0
 15 38  1  0  0  0  0
 16 17  1  0  0  0  0
 16 39  1  0  0  0  0
 16 40  1  0  0  0  0
 17 22  1  0  0  0  0
 17 18  2  0  0  0  0
 18 19  1  0  0  0  0
 18 41  1  0  0  0  0
 19 20  2  0  0  0  0
 19 42  1  0  0  0  0
 20 21  1  0  0  0  0
 20 43  1  0  0  0  0
 21 22  2  0  0  0  0
 21 44  1  0  0  0  0
 22 47  1  0  0  0  0
 23 45  1  0  0  0  0
 23 46  1  0  0  0  0
M  CHG  1  22   1
M  END
> <s_m_source_file>
AV-unprocessed.smi

> <i_m_source_file_index>
2531

> <i_lp_mmshare_version>
43012

> <i_f3d_flags>
0

> <s_epik_input>
W0NIMl0xW0NIMl1bQ0gyXVtDSDJdW0NIXTFDKD1PKU4yW0NIMl1bQ0hdKFtDSDJdMilTKD1PKSg9TylbTkhdW0NIMl1bQ0gyXWMzW2NIXVtjSF1bY0hdW2NIXW4z

> <s_epik_cmdline>
J2VwaWtfcHl0aG9uJywgJy1waCcsICc3LjAnLCAnLXRuJywgJzgnLCAnLW1hJywgJzIwMCcsICctbWV0YWxfYmluZGluZycsICctaW1hZScsICc8aW5maWxlLm1hZT4nLCAnLW9tYWUnLCAnPG91dGZpbGUubWFlPic=

> <r_epik_Ionization_Penalty>
2.00952

> <r_epik_Ionization_Penalty_Charging>
2.00945

> <r_epik_Ionization_Penalty_Neutral>
6.7549e-05

> <r_epik_State_Penalty>
2.13885

> <r_epik_Charging_Adjusted_Penalty>
4.1483

> <i_epik_Tot_Q>
1

> <i_epik_Tot_abs_Q>
1

> <r_epik_Metal_State_Penalty>
2.25125

> <b_epik_Metal_Only>
0

> <s_lp_Force_Field>
OPLS_2005

> <r_lp_Energy>
39.4399

> <b_lp_Chiralities_Consistent>
1

> <s_lp_Variant>
AV-unprocessed.smi:2531-2

> <Gold.Version>
5.8.1

> <Gold.Id.Protein>
6NUR|6NUR_protein|mol2

> <Gold.PLP.Fitness>
56.2573

> <Gold.PLP.PLP>
-48.7957

> <Gold.PLP.part.hbond>
-3.5323

> <Gold.PLP.part.metal>
0.0000

> <Gold.PLP.part.buried>
-4.0805

> <Gold.PLP.part.nonpolar>
-41.0172

> <Gold.PLP.part.repulsive>
0.0561

> <Gold.PLP.ligand.clash>
0.0000

> <Gold.PLP.ligand.torsion>
1.3830

> <Gold.PLP.Chemscore.Hbond>
2.8480

> <Gold.PLP.Chemscore.CHOScore>
0.0000

> <Gold.PLP.Chemscore.Metal>
0.0000

> <Gold.Chemscore.Hbonds>
donor molecule, donor type, donor heavy atom, donor atom, acceptor molecule, acceptor atom, score
      L1  H    22    47       P1  7948  2.00
      P1  H  7997  8008       L1    12  0.82

> <Gold.PLP.Chemscore.Internal.Correction>
1.6836

> <Gold.Rescore>
     Score         DG    S(hbond)    S(metal)    S(lipo)     H(rot)  DE(clash)    DE(int)     intcor
     19.31     -20.80       1.77        0.00     123.56       1.97       0.14       1.35       ----

> <Gold.Chemscore.Fitness>
19.3093

> <Gold.Chemscore.DG>
-20.7959

> <Gold.Chemscore.ZeroCoef>
-5.4800

> <Gold.Chemscore.Hbond>
1.7708

> <Gold.Chemscore.Metal>
0.0000

> <Gold.Chemscore.Lipo>
123.5640

> <Gold.Chemscore.Internal_Hbond>
0.0000

> <Gold.Chemscore.DEClash>
0.1389

> <Gold.Chemscore.DEInternal>
1.3478

> <Gold.Chemscore.Rot>
1.9749

> <Gold.Chemscore.Internal.Correction>
   9.000000E+99

> <Gold.Chemscore.Hbonds>
donor molecule, donor type, donor heavy atom, donor atom, acceptor molecule, acceptor atom, score
      L1  H    22    47       P1  7948  0.94
      P1  H  7997  8008       L1    12  0.56

> <Gold.Chemscore.Hbond.Weighted>
-5.9146

> <Gold.Chemscore.Metal.Weighted>
-0.0000

> <Gold.Chemscore.Lipo.Weighted>
-14.4570

> <Gold.Chemscore.Internal_Hbond.Weighted>
0.0000

> <Gold.Chemscore.DEClash.Weighted>
0.1389

> <Gold.Chemscore.DEInternal.Weighted>
1.3478

> <Gold.Chemscore.Rot.Weighted>
5.0556

> <Gold.Chemscore.Internal.Correction.Weighted>
   9.000000E+99

> <Gold.Protein.RotatedTorsions>
[ 6907 6896 6895 6894 ] final  110.14 input  -60.11 | X-H torsion
[ 7974 7965 7964 7962 ] final   82.57 input  175.53 | X-H torsion
[ 8008 7997 7996 7995 ] final -106.63 input   59.86 | X-H torsion
[ 10167 10162 10161 10158 ] final  123.24 input  -65.29 | X-H torsion
[ 10718 10713 10712 10709 ] final -150.37 input   66.30 | X-H torsion
[ 10763 10752 10751 10750 ] final   57.26 input  -60.55 | X-H torsion
[ 11005 11000 10999 10996 ] final  -42.76 input  -57.11 | X-H torsion

> <Gold.Protein.ActiveResidues>
 VAL166  LYS551  ARG553  GLY616  TRP617  ASP618  TYR619  PRO620  LYS621  CYS622 
 ASP623  PHE694  ASN695  SER759  ASP760  ASP761  ALA762  ILE779  LEU786  VAL792 
 PHE793  MET794  SER795  GLU796  ALA797  LYS798  CYS799  TRP800  GLU811  SER814 

> <Gold.Protein.RotatedAtoms>
  152.5034  133.8842  159.7361 H   0  0  0  0  0  0  0  0  0  0  0  0  # atno 6907 bound_to 6896
  150.9297  133.6772  159.2820 H   0  0  0  0  0  0  0  0  0  0  0  0  # atno 6908 bound_to 6896
  151.4121  135.0991  159.9641 H   0  0  0  0  0  0  0  0  0  0  0  0  # atno 6909 bound_to 6896
  145.6233  139.2390  143.2126 H   0  0  0  0  0  0  0  0  0  0  0  0  # atno 7974 bound_to 7965
  154.9174  140.0408  157.1979 H   0  0  0  0  0  0  0  0  0  0  0  0  # atno 8008 bound_to 7997
  154.8287  140.2895  155.5715 H   0  0  0  0  0  0  0  0  0  0  0  0  # atno 8009 bound_to 7997
  156.2985  140.2505  156.3208 H   0  0  0  0  0  0  0  0  0  0  0  0  # atno 8010 bound_to 7997
  139.5811  144.6986  151.3526 H   0  0  0  0  0  0  0  0  0  0  0  0  # atno 10167 bound_to 10162
  156.4453  130.8141  151.2372 H   0  0  0  0  0  0  0  0  0  0  0  0  # atno 10718 bound_to 10713
  152.9846  135.5648  154.5361 H   0  0  0  0  0  0  0  0  0  0  0  0  # atno 10763 bound_to 10752
  154.4824  135.2789  155.1562 H   0  0  0  0  0  0  0  0  0  0  0  0  # atno 10764 bound_to 10752
  154.3065  135.6297  153.5500 H   0  0  0  0  0  0  0  0  0  0  0  0  # atno 10765 bound_to 10752
  141.0338  133.6808  156.2639 H   0  0  0  0  0  0  0  0  0  0  0  0  # atno 11005 bound_to 11000
  146.1414  140.7052  142.9365 LP  0  0  0  0  0  0  0  0  0  0  0  0  # atno 17320 bound_to 7965
  144.7222  140.4412  143.6999 LP  0  0  0  0  0  0  0  0  0  0  0  0  # atno 17321 bound_to 7965
  140.7089  143.7442  150.7531 LP  0  0  0  0  0  0  0  0  0  0  0  0  # atno 17342 bound_to 10162
  140.0975  143.4819  152.2444 LP  0  0  0  0  0  0  0  0  0  0  0  0  # atno 17343 bound_to 10162
  157.7505  131.0155  150.3508 LP  0  0  0  0  0  0  0  0  0  0  0  0  # atno 17370 bound_to 10713
  156.3874  130.3891  149.7055 LP  0  0  0  0  0  0  0  0  0  0  0  0  # atno 17371 bound_to 10713
  140.6359  134.5216  157.5564 LP  0  0  0  0  0  0  0  0  0  0  0  0  # atno 17394 bound_to 11000
  139.9226  134.8119  156.1165 LP  0  0  0  0  0  0  0  0  0  0  0  0  # atno 17395 bound_to 11000

$$$$
