AV-unprocessed.smi:2584|AV-procd|sdf|10143|dock7
  -GOLD-   2272014153D 1   1.00000     0.00000
 Structure written by MMmdl.
 35 36  0  0  0  0  0  0  0  0  2 V2000
  148.0064  138.8283  155.2221 O   0  0  0  0  0  0  0  0  0  0  0  0
  148.4993  138.9900  154.1053 C   0  0  0  0  0  0  0  0  0  0  0  0
  147.8009  138.8686  152.9671 N   0  0  0  0  0  0  0  0  0  0  0  0
  146.3893  138.5099  152.8913 C   0  0  0  0  0  0  0  0  0  0  0  0
  146.0985  137.1851  153.6236 C   0  0  0  0  0  0  0  0  0  0  0  0
  146.3141  135.9995  152.7562 N   0  3  0  0  0  0  0  0  0  0  0  0
  145.2318  135.8368  151.7499 C   0  0  0  0  0  0  0  0  0  0  0  0
  145.5429  134.6870  150.7767 C   0  0  0  0  0  0  0  0  0  0  0  0
  145.7818  133.3747  151.5341 C   0  0  0  0  0  0  0  0  0  0  0  0
  146.8771  133.5725  152.5893 C   0  0  0  0  0  0  0  0  0  0  0  0
  146.5368  134.7447  153.5250 C   0  0  0  0  0  0  0  0  0  0  0  0
  149.7825  139.3049  153.8617 N   0  0  0  0  0  0  0  0  0  0  0  0
  150.7728  139.5008  154.7681 C   0  0  0  0  0  0  0  0  0  0  0  0
  150.8247  140.2381  155.9258 C   0  0  0  0  0  0  0  0  0  0  0  0
  152.0627  140.1733  156.5845 N   0  0  0  0  0  0  0  0  0  0  0  0
  152.9452  139.4276  155.9871 N   0  0  0  0  0  0  0  0  0  0  0  0
  152.3211  138.7602  154.5840 S   0  0  0  0  0  0  0  0  0  0  0  0
  148.2833  139.0179  152.0925 H   0  0  0  0  0  0  0  0  0  0  0  0
  145.8108  139.3170  153.3415 H   0  0  0  0  0  0  0  0  0  0  0  0
  146.0919  138.4634  151.8435 H   0  0  0  0  0  0  0  0  0  0  0  0
  146.7036  137.0899  154.5267 H   0  0  0  0  0  0  0  0  0  0  0  0
  145.0585  137.2064  153.9530 H   0  0  0  0  0  0  0  0  0  0  0  0
  144.2842  135.6541  152.2593 H   0  0  0  0  0  0  0  0  0  0  0  0
  145.1134  136.7604  151.1818 H   0  0  0  0  0  0  0  0  0  0  0  0
  144.7220  134.5644  150.0696 H   0  0  0  0  0  0  0  0  0  0  0  0
  146.4256  134.9358  150.1859 H   0  0  0  0  0  0  0  0  0  0  0  0
  144.8577  133.0531  152.0165 H   0  0  0  0  0  0  0  0  0  0  0  0
  146.0644  132.5830  150.8396 H   0  0  0  0  0  0  0  0  0  0  0  0
  147.0052  132.6576  153.1687 H   0  0  0  0  0  0  0  0  0  0  0  0
  147.8318  133.7624  152.0966 H   0  0  0  0  0  0  0  0  0  0  0  0
  147.3518  134.8724  154.2362 H   0  0  0  0  0  0  0  0  0  0  0  0
  145.6447  134.5111  154.1087 H   0  0  0  0  0  0  0  0  0  0  0  0
  150.0518  139.4011  152.8935 H   0  0  0  0  0  0  0  0  0  0  0  0
  150.0447  140.8406  156.3665 H   0  0  0  0  0  0  0  0  0  0  0  0
  147.1585  136.1780  152.2316 H   0  0  0  0  0  0  0  0  0  0  0  0
  1  2  2  0  0  0  0
  2  3  1  0  0  0  0
  2 12  1  0  0  0  0
  3  4  1  0  0  0  0
  3 18  1  0  0  0  0
  4  5  1  0  0  0  0
  4 19  1  0  0  0  0
  4 20  1  0  0  0  0
  5  6  1  0  0  0  0
  5 21  1  0  0  0  0
  5 22  1  0  0  0  0
  6 11  1  0  0  0  0
  6  7  1  0  0  0  0
  6 35  1  0  0  0  0
  7  8  1  0  0  0  0
  7 23  1  0  0  0  0
  7 24  1  0  0  0  0
  8  9  1  0  0  0  0
  8 25  1  0  0  0  0
  8 26  1  0  0  0  0
  9 10  1  0  0  0  0
  9 27  1  0  0  0  0
  9 28  1  0  0  0  0
 10 11  1  0  0  0  0
 10 29  1  0  0  0  0
 10 30  1  0  0  0  0
 11 31  1  0  0  0  0
 11 32  1  0  0  0  0
 12 13  1  0  0  0  0
 12 33  1  0  0  0  0
 13 17  1  0  0  0  0
 13 14  2  0  0  0  0
 14 15  1  0  0  0  0
 14 34  1  0  0  0  0
 15 16  2  0  0  0  0
 16 17  1  0  0  0  0
M  CHG  1   6   1
M  END
> <s_m_source_file>
AV-unprocessed.smi

> <i_m_source_file_index>
2584

> <i_lp_mmshare_version>
43012

> <i_f3d_flags>
0

> <s_epik_input>
czFubltjSF1jMVtOSF1DKD1PKVtOSF1bQ0gyXVtDSDJdTjJbQ0gyXVtDSDJdW0NIMl1bQ0gyXVtDSDJdMg==

> <s_epik_cmdline>
J2VwaWtfcHl0aG9uJywgJy1waCcsICc3LjAnLCAnLXRuJywgJzgnLCAnLW1hJywgJzIwMCcsICctbWV0YWxfYmluZGluZycsICctaW1hZScsICc8aW5maWxlLm1hZT4nLCAnLW9tYWUnLCAnPG91dGZpbGUubWFlPic=

> <r_lp_tautomer_probability>
1

> <r_epik_Ionization_Penalty>
0.00255984

> <r_epik_Ionization_Penalty_Charging>
0.0025387

> <r_epik_Ionization_Penalty_Neutral>
2.11374e-05

> <r_epik_State_Penalty>
0.00176242

> <r_epik_Charging_Adjusted_Penalty>
0.00430112

> <i_epik_Tot_Q>
1

> <i_epik_Tot_abs_Q>
1

> <r_epik_Metal_State_Penalty>
-0

> <b_epik_Metal_Only>
0

> <s_lp_Force_Field>
OPLS_2005

> <r_lp_Energy>
17.0629

> <b_lp_Chiralities_Consistent>
1

> <s_lp_Variant>
AV-unprocessed.smi:2584-1

> <Gold.Version>
5.8.1

> <Gold.Id.Protein>
6NUR|6NUR_protein|mol2

> <Gold.PLP.Fitness>
42.7846

> <Gold.PLP.PLP>
-30.0779

> <Gold.PLP.part.hbond>
-5.5058

> <Gold.PLP.part.metal>
0.0000

> <Gold.PLP.part.buried>
-3.3413

> <Gold.PLP.part.nonpolar>
-21.7862

> <Gold.PLP.part.repulsive>
0.2482

> <Gold.PLP.ligand.clash>
0.0000

> <Gold.PLP.ligand.torsion>
0.7262

> <Gold.PLP.Chemscore.Hbond>
4.7120

> <Gold.PLP.Chemscore.CHOScore>
0.0000

> <Gold.PLP.Chemscore.Metal>
0.0000

> <Gold.Chemscore.Hbonds>
donor molecule, donor type, donor heavy atom, donor atom, acceptor molecule, acceptor atom, score
      L1  H     3    18       P1  7957  0.96
      L1  H     6    35       P1  7948  2.00
      L1  H    12    33       P1  7957  0.98
      P1  H  7997  8009       L1    16  1.00

> <Gold.PLP.Chemscore.Internal.Correction>
0.0232

> <Gold.Rescore>
     Score         DG    S(hbond)    S(metal)    S(lipo)     H(rot)  DE(clash)    DE(int)     intcor
     18.61     -20.59       3.83        0.00      56.02       1.65       0.02       1.97       ----

> <Gold.Chemscore.Fitness>
18.6079

> <Gold.Chemscore.DG>
-20.5899

> <Gold.Chemscore.ZeroCoef>
-5.4800

> <Gold.Chemscore.Hbond>
3.8260

> <Gold.Chemscore.Metal>
0.0000

> <Gold.Chemscore.Lipo>
56.0201

> <Gold.Chemscore.Internal_Hbond>
0.0000

> <Gold.Chemscore.DEClash>
0.0155

> <Gold.Chemscore.DEInternal>
1.9665

> <Gold.Chemscore.Rot>
1.6497

> <Gold.Chemscore.Internal.Correction>
   9.000000E+99

> <Gold.Chemscore.Hbonds>
donor molecule, donor type, donor heavy atom, donor atom, acceptor molecule, acceptor atom, score
      L1  H     3    18       P1  7957  0.91
      L1  H     6    35       P1  7948  0.99
      L1  H    12    33       P1  7957  0.89
      P1  H  7997  8009       L1    16  0.59

> <Gold.Chemscore.Hbond.Weighted>
-12.7787

> <Gold.Chemscore.Metal.Weighted>
-0.0000

> <Gold.Chemscore.Lipo.Weighted>
-6.5544

> <Gold.Chemscore.Internal_Hbond.Weighted>
0.0000

> <Gold.Chemscore.DEClash.Weighted>
0.0155

> <Gold.Chemscore.DEInternal.Weighted>
1.9665

> <Gold.Chemscore.Rot.Weighted>
4.2232

> <Gold.Chemscore.Internal.Correction.Weighted>
   9.000000E+99

> <Gold.Protein.RotatedTorsions>
[ 6907 6896 6895 6894 ] final   25.05 input  -60.11 | X-H torsion
[ 7974 7965 7964 7962 ] final  172.98 input  175.53 | X-H torsion
[ 8008 7997 7996 7995 ] final -153.02 input   59.86 | X-H torsion
[ 10167 10162 10161 10158 ] final   13.09 input  -65.29 | X-H torsion
[ 10718 10713 10712 10709 ] final -122.92 input   66.30 | X-H torsion
[ 10763 10752 10751 10750 ] final  104.23 input  -60.55 | X-H torsion
[ 11005 11000 10999 10996 ] final  -96.18 input  -57.11 | X-H torsion

> <Gold.Protein.ActiveResidues>
 VAL166  LYS551  ARG553  GLY616  TRP617  ASP618  TYR619  PRO620  LYS621  CYS622 
 ASP623  PHE694  ASN695  SER759  ASP760  ASP761  ALA762  ILE779  LEU786  VAL792 
 PHE793  MET794  SER795  GLU796  ALA797  LYS798  CYS799  TRP800  GLU811  SER814 

> <Gold.Protein.RotatedAtoms>
  151.9667  135.0097  160.0550 H   0  0  0  0  0  0  0  0  0  0  0  0  # atno 6907 bound_to 6896
  152.1820  133.4709  159.4971 H   0  0  0  0  0  0  0  0  0  0  0  0  # atno 6908 bound_to 6896
  150.6919  134.1738  159.4265 H   0  0  0  0  0  0  0  0  0  0  0  0  # atno 6909 bound_to 6896
  144.7254  139.9580  143.6434 H   0  0  0  0  0  0  0  0  0  0  0  0  # atno 7974 bound_to 7965
  155.6642  140.0726  157.2543 H   0  0  0  0  0  0  0  0  0  0  0  0  # atno 8008 bound_to 7997
  154.4136  140.1710  156.1860 H   0  0  0  0  0  0  0  0  0  0  0  0  # atno 8009 bound_to 7997
  155.9671  140.3365  155.6545 H   0  0  0  0  0  0  0  0  0  0  0  0  # atno 8010 bound_to 7997
  140.6025  143.8575  150.6980 H   0  0  0  0  0  0  0  0  0  0  0  0  # atno 10167 bound_to 10162
  156.1459  130.6499  150.9841 H   0  0  0  0  0  0  0  0  0  0  0  0  # atno 10718 bound_to 10713
  153.3632  135.3950  155.1734 H   0  0  0  0  0  0  0  0  0  0  0  0  # atno 10763 bound_to 10752
  154.8682  135.3684  154.5072 H   0  0  0  0  0  0  0  0  0  0  0  0  # atno 10764 bound_to 10752
  153.5533  135.7082  153.5641 H   0  0  0  0  0  0  0  0  0  0  0  0  # atno 10765 bound_to 10752
  141.1419  133.8079  157.0536 H   0  0  0  0  0  0  0  0  0  0  0  0  # atno 11005 bound_to 11000
  146.0660  139.3651  143.0552 LP  0  0  0  0  0  0  0  0  0  0  0  0  # atno 17320 bound_to 7965
  145.8031  140.9762  143.0988 LP  0  0  0  0  0  0  0  0  0  0  0  0  # atno 17321 bound_to 7965
  140.2124  143.3873  152.1707 LP  0  0  0  0  0  0  0  0  0  0  0  0  # atno 17342 bound_to 10162
  139.5301  144.7149  151.5086 LP  0  0  0  0  0  0  0  0  0  0  0  0  # atno 17343 bound_to 10162
  157.6616  131.0880  150.7826 LP  0  0  0  0  0  0  0  0  0  0  0  0  # atno 17370 bound_to 10713
  156.7897  130.4886  149.5387 LP  0  0  0  0  0  0  0  0  0  0  0  0  # atno 17371 bound_to 10713
  140.0616  134.9751  157.1314 LP  0  0  0  0  0  0  0  0  0  0  0  0  # atno 17394 bound_to 11000
  140.3840  134.2256  155.7169 LP  0  0  0  0  0  0  0  0  0  0  0  0  # atno 17395 bound_to 11000

$$$$
