AV-unprocessed.smi:1824|AV-procd|sdf|7407|dock5
  -GOLD-   22720 9 83D 1   1.00000     0.00000
 Structure written by MMmdl.
 45 47  0  0  0  0  0  0  0  0  2 V2000
  153.8718  138.8243  154.3926 C   0  0  0  0  0  0  0  0  0  0  0  0
  152.5657  138.0767  154.7107 C   0  0  2  0  0  0  0  0  0  0  0  0
  151.3289  138.9973  154.7449 C   0  0  0  0  0  0  0  0  0  0  0  0
  151.2805  139.8356  155.9420 N   0  0  0  0  0  0  0  0  0  0  0  0
  150.0897  140.6860  155.9910 C   0  0  0  0  0  0  0  0  0  0  0  0
  150.0335  141.6837  157.1652 C   0  0  2  0  0  0  0  0  0  0  0  0
  148.9276  142.5424  156.9667 O   0  0  0  0  0  0  0  0  0  0  0  0
  151.3255  142.5191  157.2560 C   0  0  0  0  0  0  0  0  0  0  0  0
  151.3881  143.3473  158.4693 N   0  0  0  0  0  0  0  0  0  0  0  0
  150.8759  144.5863  158.7011 C   0  0  0  0  0  0  0  0  0  0  0  0
  151.1954  144.9317  159.9791 N   0  3  0  0  0  0  0  0  0  0  0  0
  151.9250  143.8993  160.5727 C   0  0  0  0  0  0  0  0  0  0  0  0
  152.4694  143.7850  161.8478 C   0  0  0  0  0  0  0  0  0  0  0  0
  153.1646  142.5925  162.1370 C   0  0  0  0  0  0  0  0  0  0  0  0
  153.7150  142.4297  163.3633 F   0  0  0  0  0  0  0  0  0  0  0  0
  153.2984  141.5692  161.1748 C   0  0  0  0  0  0  0  0  0  0  0  0
  153.9762  140.4410  161.4929 F   0  0  0  0  0  0  0  0  0  0  0  0
  152.7405  141.6965  159.8857 C   0  0  0  0  0  0  0  0  0  0  0  0
  152.0537  142.8778  159.6082 C   0  0  0  0  0  0  0  0  0  0  0  0
  151.3544  138.9786  157.1188 C   0  0  0  0  0  0  0  0  0  0  0  0
  152.6233  138.1077  157.1204 C   0  0  1  0  0  0  0  0  0  0  0  0
  152.6621  137.1475  158.3139 C   0  0  0  0  0  0  0  0  0  0  0  0
  152.6643  137.3310  155.9250 O   0  0  0  0  0  0  0  0  0  0  0  0
  153.8201  139.2934  153.4099 H   0  0  0  0  0  0  0  0  0  0  0  0
  154.7199  138.1394  154.3876 H   0  0  0  0  0  0  0  0  0  0  0  0
  154.0816  139.6107  155.1172 H   0  0  0  0  0  0  0  0  0  0  0  0
  152.4165  137.3464  153.9151 H   0  0  0  0  0  0  0  0  0  0  0  0
  151.3256  139.6090  153.8439 H   0  0  0  0  0  0  0  0  0  0  0  0
  150.4306  138.3797  154.7004 H   0  0  0  0  0  0  0  0  0  0  0  0
  150.0051  141.2327  155.0505 H   0  0  0  0  0  0  0  0  0  0  0  0
  149.2001  140.0564  156.0451 H   0  0  0  0  0  0  0  0  0  0  0  0
  149.8978  141.1624  158.1118 H   0  0  0  0  0  0  0  0  0  0  0  0
  149.2492  143.3656  156.6306 H   0  0  0  0  0  0  0  0  0  0  0  0
  152.1918  141.8566  157.2786 H   0  0  0  0  0  0  0  0  0  0  0  0
  151.4516  143.1539  156.3784 H   0  0  0  0  0  0  0  0  0  0  0  0
  150.3163  145.1867  157.9983 H   0  0  0  0  0  0  0  0  0  0  0  0
  152.3709  144.5663  162.5869 H   0  0  0  0  0  0  0  0  0  0  0  0
  152.8552  140.9093  159.1557 H   0  0  0  0  0  0  0  0  0  0  0  0
  151.3418  139.5907  158.0214 H   0  0  0  0  0  0  0  0  0  0  0  0
  150.4716  138.3385  157.1648 H   0  0  0  0  0  0  0  0  0  0  0  0
  153.5048  138.7480  157.1671 H   0  0  0  0  0  0  0  0  0  0  0  0
  152.6426  137.6932  159.2575 H   0  0  0  0  0  0  0  0  0  0  0  0
  153.5695  136.5433  158.2981 H   0  0  0  0  0  0  0  0  0  0  0  0
  151.8094  136.4682  158.3013 H   0  0  0  0  0  0  0  0  0  0  0  0
  150.9342  145.8089  160.4110 H   0  0  0  0  0  0  0  0  0  0  0  0
  1  2  1  0  0  0  0
  1 24  1  0  0  0  0
  1 25  1  0  0  0  0
  1 26  1  0  0  0  0
  2 23  1  0  0  0  0
  2  3  1  0  0  0  0
  2 27  1  0  0  0  0
  3  4  1  0  0  0  0
  3 28  1  0  0  0  0
  3 29  1  0  0  0  0
  4  5  1  0  0  0  0
  4 20  1  0  0  0  0
  5  6  1  0  0  0  0
  5 30  1  0  0  0  0
  5 31  1  0  0  0  0
  6  7  1  0  0  0  0
  6  8  1  0  0  0  0
  6 32  1  0  0  0  0
  7 33  1  0  0  0  0
  8  9  1  0  0  0  0
  8 34  1  0  0  0  0
  8 35  1  0  0  0  0
  9 19  1  0  0  0  0
  9 10  1  0  0  0  0
 10 11  2  0  0  0  0
 10 36  1  0  0  0  0
 11 12  1  0  0  0  0
 11 45  1  0  0  0  0
 12 19  2  0  0  0  0
 12 13  1  0  0  0  0
 13 14  2  0  0  0  0
 13 37  1  0  0  0  0
 14 15  1  0  0  0  0
 14 16  1  0  0  0  0
 16 17  1  0  0  0  0
 16 18  2  0  0  0  0
 18 19  1  0  0  0  0
 18 38  1  0  0  0  0
 20 21  1  0  0  0  0
 20 39  1  0  0  0  0
 20 40  1  0  0  0  0
 21 22  1  0  0  0  0
 21 23  1  0  0  0  0
 21 41  1  0  0  0  0
 22 42  1  0  0  0  0
 22 43  1  0  0  0  0
 22 44  1  0  0  0  0
M  CHG  1  11   1
M  END
> <s_m_source_file>
AV-unprocessed.smi

> <i_m_source_file_index>
1824

> <i_lp_mmshare_version>
43012

> <i_f3d_flags>
0

> <s_epik_input>
W0NIM11bQ0BASF0xW0NIMl1OKFtDSDJdW0NASF0oTzEpW0NIM10pW0NIMl1bQ0BIXShbT0hdKVtDSDJdbihbY0hdbjIpYyhjMjMpW2NIXWMoRiljKEYpW2NIXTM=

> <s_epik_cmdline>
J2VwaWtfcHl0aG9uJywgJy1waCcsICc3LjAnLCAnLXRuJywgJzgnLCAnLW1hJywgJzIwMCcsICctbWV0YWxfYmluZGluZycsICctaW1hZScsICc8aW5maWxlLm1hZT4nLCAnLW9tYWUnLCAnPG91dGZpbGUubWFlPic=

> <r_epik_Ionization_Penalty>
2.58709

> <r_epik_Ionization_Penalty_Charging>
2.37273

> <r_epik_Ionization_Penalty_Neutral>
0.214359

> <r_epik_State_Penalty>
2.71799

> <r_epik_Charging_Adjusted_Penalty>
5.09071

> <i_epik_Tot_Q>
1

> <i_epik_Tot_abs_Q>
1

> <r_epik_Metal_State_Penalty>
6.80217

> <b_epik_Metal_Only>
0

> <s_lp_Force_Field>
OPLS_2005

> <r_lp_Energy>
35.5782

> <b_lp_Chiralities_Consistent>
1

> <s_lp_Variant>
AV-unprocessed.smi:1824-15

> <Gold.Version>
5.8.1

> <Gold.Id.Protein>
6NUR|6NUR_protein|mol2

> <Gold.PLP.Fitness>
57.5796

> <Gold.PLP.PLP>
-51.4632

> <Gold.PLP.part.hbond>
-2.0000

> <Gold.PLP.part.metal>
0.0000

> <Gold.PLP.part.buried>
-4.4271

> <Gold.PLP.part.nonpolar>
-45.1067

> <Gold.PLP.part.repulsive>
0.1660

> <Gold.PLP.ligand.clash>
0.0000

> <Gold.PLP.ligand.torsion>
0.4265

> <Gold.PLP.Chemscore.Hbond>
1.4066

> <Gold.PLP.Chemscore.CHOScore>
0.9100

> <Gold.PLP.Chemscore.Metal>
0.0000

> <Gold.Chemscore.Hbonds>
donor molecule, donor type, donor heavy atom, donor atom, acceptor molecule, acceptor atom, score
      L1  H     7    33       P1  8028  0.91
      P1  H 10752 10763       L1    23  0.52
      L1  C    10    36       P1  8028  0.21
      L1  C    10    36       P1  8029  0.54

> <Gold.PLP.Chemscore.Internal.Correction>
0.0197

> <Gold.Rescore>
     Score         DG    S(hbond)    S(metal)    S(lipo)     H(rot)  DE(clash)    DE(int)     intcor
     17.36     -18.08       1.11        0.00     126.80       2.32       0.26       0.46       ----

> <Gold.Chemscore.Fitness>
17.3612

> <Gold.Chemscore.DG>
-18.0840

> <Gold.Chemscore.ZeroCoef>
-5.4800

> <Gold.Chemscore.Hbond>
1.1110

> <Gold.Chemscore.Metal>
0.0000

> <Gold.Chemscore.Lipo>
126.7951

> <Gold.Chemscore.Internal_Hbond>
0.0000

> <Gold.Chemscore.DEClash>
0.2586

> <Gold.Chemscore.DEInternal>
0.4642

> <Gold.Chemscore.Rot>
2.3210

> <Gold.Chemscore.Internal.Correction>
   9.000000E+99

> <Gold.Chemscore.Hbonds>
donor molecule, donor type, donor heavy atom, donor atom, acceptor molecule, acceptor atom, score
      L1  H     7    33       P1  8028  0.87
      P1  H 10752 10763       L1    23  0.12

> <Gold.Chemscore.Hbond.Weighted>
-3.7106

> <Gold.Chemscore.Metal.Weighted>
-0.0000

> <Gold.Chemscore.Lipo.Weighted>
-14.8350

> <Gold.Chemscore.Internal_Hbond.Weighted>
0.0000

> <Gold.Chemscore.DEClash.Weighted>
0.2586

> <Gold.Chemscore.DEInternal.Weighted>
0.4642

> <Gold.Chemscore.Rot.Weighted>
5.9416

> <Gold.Chemscore.Internal.Correction.Weighted>
   9.000000E+99

> <Gold.Protein.RotatedTorsions>
[ 6907 6896 6895 6894 ] final  138.47 input  -60.11 | X-H torsion
[ 7974 7965 7964 7962 ] final  150.78 input  175.53 | X-H torsion
[ 8008 7997 7996 7995 ] final   -4.35 input   59.86 | X-H torsion
[ 10167 10162 10161 10158 ] final   34.86 input  -65.29 | X-H torsion
[ 10718 10713 10712 10709 ] final -148.74 input   66.30 | X-H torsion
[ 10763 10752 10751 10750 ] final   96.03 input  -60.55 | X-H torsion
[ 11005 11000 10999 10996 ] final  134.16 input  -57.11 | X-H torsion

> <Gold.Protein.ActiveResidues>
 VAL166  LYS551  ARG553  GLY616  TRP617  ASP618  TYR619  PRO620  LYS621  CYS622 
 ASP623  PHE694  ASN695  SER759  ASP760  ASP761  ALA762  ILE779  LEU786  VAL792 
 PHE793  MET794  SER795  GLU796  ALA797  LYS798  CYS799  TRP800  GLU811  SER814 

> <Gold.Protein.RotatedAtoms>
  152.2662  133.5341  159.5411 H   0  0  0  0  0  0  0  0  0  0  0  0  # atno 6907 bound_to 6896
  150.7142  134.0761  159.3890 H   0  0  0  0  0  0  0  0  0  0  0  0  # atno 6908 bound_to 6896
  151.8677  135.0501  160.0527 H   0  0  0  0  0  0  0  0  0  0  0  0  # atno 6909 bound_to 6896
  144.8339  139.6452  143.6046 H   0  0  0  0  0  0  0  0  0  0  0  0  # atno 7974 bound_to 7965
  154.6153  140.2486  155.7617 H   0  0  0  0  0  0  0  0  0  0  0  0  # atno 8008 bound_to 7997
  156.2395  140.2938  156.0354 H   0  0  0  0  0  0  0  0  0  0  0  0  # atno 8009 bound_to 7997
  155.1985  140.0393  157.2903 H   0  0  0  0  0  0  0  0  0  0  0  0  # atno 8010 bound_to 7997
  140.4275  144.1371  150.6155 H   0  0  0  0  0  0  0  0  0  0  0  0  # atno 10167 bound_to 10162
  156.4242  130.8043  151.2268 H   0  0  0  0  0  0  0  0  0  0  0  0  # atno 10718 bound_to 10713
  153.2601  135.4233  155.0886 H   0  0  0  0  0  0  0  0  0  0  0  0  # atno 10763 bound_to 10752
  154.8417  135.3447  154.6389 H   0  0  0  0  0  0  0  0  0  0  0  0  # atno 10764 bound_to 10752
  153.6809  135.7039  153.5175 H   0  0  0  0  0  0  0  0  0  0  0  0  # atno 10765 bound_to 10752
  139.9897  134.9519  156.9828 H   0  0  0  0  0  0  0  0  0  0  0  0  # atno 11005 bound_to 11000
  146.2640  139.6476  142.9342 LP  0  0  0  0  0  0  0  0  0  0  0  0  # atno 17320 bound_to 7965
  145.4835  141.0438  143.2632 LP  0  0  0  0  0  0  0  0  0  0  0  0  # atno 17321 bound_to 7965
  140.4464  143.2505  151.9405 LP  0  0  0  0  0  0  0  0  0  0  0  0  # atno 17342 bound_to 10162
  139.4784  144.5605  151.8247 LP  0  0  0  0  0  0  0  0  0  0  0  0  # atno 17343 bound_to 10162
  157.7508  131.0218  150.3767 LP  0  0  0  0  0  0  0  0  0  0  0  0  # atno 17370 bound_to 10713
  156.4091  130.3930  149.6904 LP  0  0  0  0  0  0  0  0  0  0  0  0  # atno 17371 bound_to 10713
  140.4932  134.1172  155.7236 LP  0  0  0  0  0  0  0  0  0  0  0  0  # atno 17394 bound_to 11000
  141.1555  133.8890  157.1987 LP  0  0  0  0  0  0  0  0  0  0  0  0  # atno 17395 bound_to 11000

$$$$
