AV-unprocessed.smi:3303|AV-procd|sdf|12665|dock4
  -GOLD-   2272019 03D 1   1.00000     0.00000
 Structure written by MMmdl.
 45 46  0  0  0  0  0  0  0  0  3 V2000
  147.1183  141.1865  153.8533 C   0  0  0  0  0  0  0  0  0  0  0  0
  148.1496  140.0457  153.8311 C   0  0  2  0  0  0  0  0  0  0  0  0
  147.6355  138.7812  154.5459 C   0  0  0  0  0  0  0  0  0  0  0  0
  148.5990  137.6537  154.4384 N   0  3  2  0  0  0  0  0  0  0  0  0
  148.0234  136.4112  155.0088 C   0  0  0  0  0  0  0  0  0  0  0  0
  149.9449  138.0056  154.9848 C   0  0  1  0  0  0  0  0  0  0  0  0
  150.9640  136.8598  154.8302 C   0  0  0  0  0  0  0  0  0  0  0  0
  150.4959  139.2787  154.3016 C   0  0  0  0  0  0  0  0  0  0  0  0
  149.5289  140.4721  154.3753 C   0  0  2  0  0  0  0  0  0  0  0  0
  149.4478  140.9966  155.7606 N   0  3  0  0  0  0  0  0  0  0  0  0
  150.6272  141.7688  156.2000 C   0  0  0  0  0  0  0  0  0  0  0  0
  150.9388  141.5062  157.6792 C   0  0  0  0  0  0  0  0  0  0  0  0
  151.2618  142.7838  158.4301 C   0  0  0  0  0  0  0  0  0  0  0  0
  152.4862  142.9288  159.1163 C   0  0  0  0  0  0  0  0  0  0  0  0
  152.7308  144.1342  159.8024 C   0  0  0  0  0  0  0  0  0  0  0  0
  151.7467  145.1410  159.7768 C   0  0  0  0  0  0  0  0  0  0  0  0
  150.5561  144.8972  159.0639 C   0  0  0  0  0  0  0  0  0  0  0  0
  150.3112  143.7444  158.4034 N   0  0  0  0  0  0  0  0  0  0  0  0
  146.8752  141.4939  154.8707 H   0  0  0  0  0  0  0  0  0  0  0  0
  146.1883  140.8814  153.3728 H   0  0  0  0  0  0  0  0  0  0  0  0
  147.4897  142.0619  153.3196 H   0  0  0  0  0  0  0  0  0  0  0  0
  148.2898  139.7815  152.7813 H   0  0  0  0  0  0  0  0  0  0  0  0
  147.4327  138.9904  155.5976 H   0  0  0  0  0  0  0  0  0  0  0  0
  146.6863  138.4823  154.0988 H   0  0  0  0  0  0  0  0  0  0  0  0
  147.9646  136.4699  156.0966 H   0  0  0  0  0  0  0  0  0  0  0  0
  148.6132  135.5358  154.7392 H   0  0  0  0  0  0  0  0  0  0  0  0
  147.0174  136.2379  154.6251 H   0  0  0  0  0  0  0  0  0  0  0  0
  149.8304  138.2079  156.0510 H   0  0  0  0  0  0  0  0  0  0  0  0
  151.9580  137.1781  155.1464 H   0  0  0  0  0  0  0  0  0  0  0  0
  151.0392  136.5302  153.7934 H   0  0  0  0  0  0  0  0  0  0  0  0
  150.7078  135.9958  155.4429 H   0  0  0  0  0  0  0  0  0  0  0  0
  151.4556  139.5563  154.7403 H   0  0  0  0  0  0  0  0  0  0  0  0
  150.7010  139.0579  153.2529 H   0  0  0  0  0  0  0  0  0  0  0  0
  149.9232  141.2567  153.7270 H   0  0  0  0  0  0  0  0  0  0  0  0
  148.6354  141.5928  155.8312 H   0  0  0  0  0  0  0  0  0  0  0  0
  151.4831  141.4937  155.5817 H   0  0  0  0  0  0  0  0  0  0  0  0
  150.4410  142.8323  156.0437 H   0  0  0  0  0  0  0  0  0  0  0  0
  150.0912  141.0135  158.1575 H   0  0  0  0  0  0  0  0  0  0  0  0
  151.7833  140.8212  157.7699 H   0  0  0  0  0  0  0  0  0  0  0  0
  153.2228  142.1388  159.1192 H   0  0  0  0  0  0  0  0  0  0  0  0
  153.6562  144.2836  160.3388 H   0  0  0  0  0  0  0  0  0  0  0  0
  151.9004  146.0783  160.2910 H   0  0  0  0  0  0  0  0  0  0  0  0
  149.7797  145.6467  159.0238 H   0  0  0  0  0  0  0  0  0  0  0  0
  149.3313  140.2182  156.3939 H   0  0  0  0  0  0  0  0  0  0  0  0
  148.7235  137.4785  153.4510 H   0  0  0  0  0  0  0  0  0  0  0  0
  1  2  1  0  0  0  0
  1 19  1  0  0  0  0
  1 20  1  0  0  0  0
  1 21  1  0  0  0  0
  2  9  1  0  0  0  0
  2  3  1  0  0  0  0
  2 22  1  0  0  0  0
  3  4  1  0  0  0  0
  3 23  1  0  0  0  0
  3 24  1  0  0  0  0
  4  5  1  0  0  0  0
  4  6  1  0  0  0  0
  4 45  1  0  0  0  0
  5 25  1  0  0  0  0
  5 26  1  0  0  0  0
  5 27  1  0  0  0  0
  6  7  1  0  0  0  0
  6  8  1  0  0  0  0
  6 28  1  0  0  0  0
  7 29  1  0  0  0  0
  7 30  1  0  0  0  0
  7 31  1  0  0  0  0
  8  9  1  0  0  0  0
  8 32  1  0  0  0  0
  8 33  1  0  0  0  0
  9 10  1  0  0  0  0
  9 34  1  0  0  0  0
 10 11  1  0  0  0  0
 10 35  1  0  0  0  0
 10 44  1  0  0  0  0
 11 12  1  0  0  0  0
 11 36  1  0  0  0  0
 11 37  1  0  0  0  0
 12 13  1  0  0  0  0
 12 38  1  0  0  0  0
 12 39  1  0  0  0  0
 13 18  1  0  0  0  0
 13 14  2  0  0  0  0
 14 15  1  0  0  0  0
 14 40  1  0  0  0  0
 15 16  2  0  0  0  0
 15 41  1  0  0  0  0
 16 17  1  0  0  0  0
 16 42  1  0  0  0  0
 17 18  2  0  0  0  0
 17 43  1  0  0  0  0
M  CHG  1   4   1
M  CHG  1  10   1
M  END
> <s_m_source_file>
AV-unprocessed.smi

> <i_m_source_file_index>
3303

> <i_lp_mmshare_version>
43012

> <i_f3d_flags>
0

> <s_epik_input>
W0NIM11bQ0BASF0xW0NIMl1OKFtDSDNdKVtDQEBIXShbQ0gzXSlbQ0gyXVtDQEhdMVtOSF1bQ0gyXVtDSDJdYzJbY0hdW2NIXVtjSF1bY0hdbjI=

> <s_epik_cmdline>
J2VwaWtfcHl0aG9uJywgJy1waCcsICc3LjAnLCAnLXRuJywgJzgnLCAnLW1hJywgJzIwMCcsICctbWV0YWxfYmluZGluZycsICctaW1hZScsICc8aW5maWxlLm1hZT4nLCAnLW9tYWUnLCAnPG91dGZpbGUubWFlPic=

> <r_epik_Ionization_Penalty>
0.0769462

> <r_epik_Ionization_Penalty_Charging>
0.0759813

> <r_epik_Ionization_Penalty_Neutral>
0.000964829

> <r_epik_State_Penalty>
0.0654373

> <r_epik_Charging_Adjusted_Penalty>
0.141419

> <i_epik_Tot_Q>
2

> <i_epik_Tot_abs_Q>
2

> <r_epik_Metal_State_Penalty>
0.0656439

> <b_epik_Metal_Only>
0

> <s_lp_Force_Field>
OPLS_2005

> <r_lp_Energy>
34.324

> <b_lp_Chiralities_Consistent>
1

> <s_lp_Variant>
AV-unprocessed.smi:3303-9

> <Gold.Version>
5.8.1

> <Gold.Id.Protein>
6NUR|6NUR_protein|mol2

> <Gold.PLP.Fitness>
43.0394

> <Gold.PLP.PLP>
-35.4707

> <Gold.PLP.part.hbond>
-1.0000

> <Gold.PLP.part.metal>
0.0000

> <Gold.PLP.part.buried>
-2.1180

> <Gold.PLP.part.nonpolar>
-32.6121

> <Gold.PLP.part.repulsive>
0.2616

> <Gold.PLP.ligand.clash>
0.0000

> <Gold.PLP.ligand.torsion>
0.6901

> <Gold.PLP.Chemscore.Hbond>
2.0000

> <Gold.PLP.Chemscore.CHOScore>
0.9805

> <Gold.PLP.Chemscore.Metal>
0.0000

> <Gold.Chemscore.Hbonds>
donor molecule, donor type, donor heavy atom, donor atom, acceptor molecule, acceptor atom, score
      L1  H     4    45       P1  7948  2.00
      L1  C    17    43       P1  8029  0.88

> <Gold.PLP.Chemscore.Internal.Correction>
0.0073

> <Gold.Rescore>
     Score         DG    S(hbond)    S(metal)    S(lipo)     H(rot)  DE(clash)    DE(int)     intcor
     17.99     -18.64       1.00        0.00     114.09       1.37       0.05       0.60       ----

> <Gold.Chemscore.Fitness>
17.9878

> <Gold.Chemscore.DG>
-18.6378

> <Gold.Chemscore.ZeroCoef>
-5.4800

> <Gold.Chemscore.Hbond>
0.9963

> <Gold.Chemscore.Metal>
0.0000

> <Gold.Chemscore.Lipo>
114.0897

> <Gold.Chemscore.Internal_Hbond>
0.0000

> <Gold.Chemscore.DEClash>
0.0479

> <Gold.Chemscore.DEInternal>
0.6021

> <Gold.Chemscore.Rot>
1.3744

> <Gold.Chemscore.Internal.Correction>
   9.000000E+99

> <Gold.Chemscore.Hbonds>
donor molecule, donor type, donor heavy atom, donor atom, acceptor molecule, acceptor atom, score
      L1  H     4    45       P1  7948  0.92

> <Gold.Chemscore.Hbond.Weighted>
-3.3278

> <Gold.Chemscore.Metal.Weighted>
-0.0000

> <Gold.Chemscore.Lipo.Weighted>
-13.3485

> <Gold.Chemscore.Internal_Hbond.Weighted>
0.0000

> <Gold.Chemscore.DEClash.Weighted>
0.0479

> <Gold.Chemscore.DEInternal.Weighted>
0.6021

> <Gold.Chemscore.Rot.Weighted>
3.5185

> <Gold.Chemscore.Internal.Correction.Weighted>
   9.000000E+99

> <Gold.Protein.RotatedTorsions>
[ 6907 6896 6895 6894 ] final  -11.76 input  -60.11 | X-H torsion
[ 7974 7965 7964 7962 ] final  -45.61 input  175.53 | X-H torsion
[ 8008 7997 7996 7995 ] final -177.22 input   59.86 | X-H torsion
[ 10167 10162 10161 10158 ] final  -27.00 input  -65.29 | X-H torsion
[ 10718 10713 10712 10709 ] final   28.88 input   66.30 | X-H torsion
[ 10763 10752 10751 10750 ] final  -49.01 input  -60.55 | X-H torsion
[ 11005 11000 10999 10996 ] final -171.04 input  -57.11 | X-H torsion

> <Gold.Protein.ActiveResidues>
 VAL166  LYS551  ARG553  GLY616  TRP617  ASP618  TYR619  PRO620  LYS621  CYS622 
 ASP623  PHE694  ASN695  SER759  ASP760  ASP761  ALA762  ILE779  LEU786  VAL792 
 PHE793  MET794  SER795  GLU796  ALA797  LYS798  CYS799  TRP800  GLU811  SER814 

> <Gold.Protein.RotatedAtoms>
  151.3812  135.0940  159.9496 H   0  0  0  0  0  0  0  0  0  0  0  0  # atno 6907 bound_to 6896
  152.5107  133.9070  159.7479 H   0  0  0  0  0  0  0  0  0  0  0  0  # atno 6908 bound_to 6896
  150.9504  133.6500  159.2802 H   0  0  0  0  0  0  0  0  0  0  0  0  # atno 6909 bound_to 6896
  145.9803  140.7291  142.9367 H   0  0  0  0  0  0  0  0  0  0  0  0  # atno 7974 bound_to 7965
  156.0044  140.1227  157.0516 H   0  0  0  0  0  0  0  0  0  0  0  0  # atno 8008 bound_to 7997
  154.4253  140.1100  156.5810 H   0  0  0  0  0  0  0  0  0  0  0  0  # atno 8009 bound_to 7997
  155.6168  140.3472  155.4641 H   0  0  0  0  0  0  0  0  0  0  0  0  # atno 8010 bound_to 7997
  140.7280  143.4130  151.1074 H   0  0  0  0  0  0  0  0  0  0  0  0  # atno 10167 bound_to 10162
  157.2393  130.7061  149.6351 H   0  0  0  0  0  0  0  0  0  0  0  0  # atno 10718 bound_to 10713
  154.0871  135.6582  153.4847 H   0  0  0  0  0  0  0  0  0  0  0  0  # atno 10763 bound_to 10752
  153.0335  135.5193  154.7417 H   0  0  0  0  0  0  0  0  0  0  0  0  # atno 10764 bound_to 10752
  154.6529  135.3004  154.9932 H   0  0  0  0  0  0  0  0  0  0  0  0  # atno 10765 bound_to 10752
  140.5127  134.5786  157.5024 H   0  0  0  0  0  0  0  0  0  0  0  0  # atno 11005 bound_to 11000
  144.6859  140.2897  143.7280 LP  0  0  0  0  0  0  0  0  0  0  0  0  # atno 17320 bound_to 7965
  145.7779  139.1880  143.2174 LP  0  0  0  0  0  0  0  0  0  0  0  0  # atno 17321 bound_to 7965
  139.7766  143.8416  152.3130 LP  0  0  0  0  0  0  0  0  0  0  0  0  # atno 17342 bound_to 10162
  139.8353  144.7235  150.9399 LP  0  0  0  0  0  0  0  0  0  0  0  0  # atno 17343 bound_to 10162
  155.9671  130.4463  150.5536 LP  0  0  0  0  0  0  0  0  0  0  0  0  # atno 17370 bound_to 10713
  157.3396  131.0714  151.1798 LP  0  0  0  0  0  0  0  0  0  0  0  0  # atno 17371 bound_to 10713
  139.9650  134.7389  156.0158 LP  0  0  0  0  0  0  0  0  0  0  0  0  # atno 17394 bound_to 11000
  141.1377  133.6571  156.3639 LP  0  0  0  0  0  0  0  0  0  0  0  0  # atno 17395 bound_to 11000

$$$$
