AV-unprocessed.smi:2106|AV-procd|sdf|8599|dock1
  -GOLD-   2272011333D 1   1.00000     0.00000
 Structure written by MMmdl.
 48 49  0  0  0  0  0  0  0  0  2 V2000
  154.4543  141.3113  160.7895 C   0  0  0  0  0  0  0  0  0  0  0  0
  153.4124  141.7579  159.8058 C   0  0  0  0  0  0  0  0  0  0  0  0
  153.1382  143.0804  159.3595 C   0  0  0  0  0  0  0  0  0  0  0  0
  152.1025  142.9338  158.4803 C   0  0  0  0  0  0  0  0  0  0  0  0
  151.3715  143.9620  157.6811 C   0  0  0  0  0  0  0  0  0  0  0  0
  151.8016  141.5831  158.4353 N   0  0  0  0  0  0  0  0  0  0  0  0
  150.7691  140.8908  157.6768 C   0  0  0  0  0  0  0  0  0  0  0  0
  151.3443  140.2864  156.3944 C   0  0  0  0  0  0  0  0  0  0  0  0
  152.5622  140.2272  156.2310 O   0  0  0  0  0  0  0  0  0  0  0  0
  150.4581  139.8127  155.5052 N   0  0  0  0  0  0  0  0  0  0  0  0
  150.8010  139.0982  154.2799 C   0  0  0  0  0  0  0  0  0  0  0  0
  151.3051  137.6662  154.5484 C   0  0  0  0  0  0  0  0  0  0  0  0
  150.1857  136.6861  154.5978 N   0  3  1  0  0  0  0  0  0  0  0  0
  150.6160  135.2712  154.6954 C   0  0  0  0  0  0  0  0  0  0  0  0
  151.0339  134.9126  156.1365 C   0  0  2  0  0  0  0  0  0  0  0  0
  151.3859  133.4282  156.2810 C   0  0  0  0  0  0  0  0  0  0  0  0
  149.9521  135.1995  157.0170 O   0  0  0  0  0  0  0  0  0  0  0  0
  149.6006  136.5791  157.0265 C   0  0  2  0  0  0  0  0  0  0  0  0
  148.4910  136.7869  158.0628 C   0  0  0  0  0  0  0  0  0  0  0  0
  149.1488  136.9939  155.6121 C   0  0  0  0  0  0  0  0  0  0  0  0
  152.6095  140.8667  159.2481 N   0  0  0  0  0  0  0  0  0  0  0  0
  155.4495  141.6193  160.4687 H   0  0  0  0  0  0  0  0  0  0  0  0
  154.4647  140.2269  160.9046 H   0  0  0  0  0  0  0  0  0  0  0  0
  154.2731  141.7470  161.7720 H   0  0  0  0  0  0  0  0  0  0  0  0
  153.6300  143.9992  159.6427 H   0  0  0  0  0  0  0  0  0  0  0  0
  151.7564  144.9604  157.8889 H   0  0  0  0  0  0  0  0  0  0  0  0
  150.3079  143.9605  157.9175 H   0  0  0  0  0  0  0  0  0  0  0  0
  151.4839  143.7763  156.6129 H   0  0  0  0  0  0  0  0  0  0  0  0
  150.3216  140.1103  158.2929 H   0  0  0  0  0  0  0  0  0  0  0  0
  149.9735  141.5965  157.4321 H   0  0  0  0  0  0  0  0  0  0  0  0
  149.4759  139.9201  155.7141 H   0  0  0  0  0  0  0  0  0  0  0  0
  149.9050  139.0577  153.6596 H   0  0  0  0  0  0  0  0  0  0  0  0
  151.5430  139.6622  153.7123 H   0  0  0  0  0  0  0  0  0  0  0  0
  152.0224  137.3948  153.7730 H   0  0  0  0  0  0  0  0  0  0  0  0
  151.8688  137.6486  155.4821 H   0  0  0  0  0  0  0  0  0  0  0  0
  149.7792  134.6409  154.3912 H   0  0  0  0  0  0  0  0  0  0  0  0
  151.4230  135.0722  153.9890 H   0  0  0  0  0  0  0  0  0  0  0  0
  151.9034  135.5018  156.4327 H   0  0  0  0  0  0  0  0  0  0  0  0
  152.2191  133.1573  155.6323 H   0  0  0  0  0  0  0  0  0  0  0  0
  150.5384  132.7933  156.0207 H   0  0  0  0  0  0  0  0  0  0  0  0
  151.6741  133.1945  157.3061 H   0  0  0  0  0  0  0  0  0  0  0  0
  150.4682  137.1663  157.3312 H   0  0  0  0  0  0  0  0  0  0  0  0
  148.1894  137.8338  158.1093 H   0  0  0  0  0  0  0  0  0  0  0  0
  148.8260  136.4929  159.0577 H   0  0  0  0  0  0  0  0  0  0  0  0
  147.6080  136.1952  157.8202 H   0  0  0  0  0  0  0  0  0  0  0  0
  148.8982  138.0535  155.5874 H   0  0  0  0  0  0  0  0  0  0  0  0
  148.2390  136.4549  155.3439 H   0  0  0  0  0  0  0  0  0  0  0  0
  149.7301  136.7748  153.7009 H   0  0  0  0  0  0  0  0  0  0  0  0
  1  2  1  0  0  0  0
  1 22  1  0  0  0  0
  1 23  1  0  0  0  0
  1 24  1  0  0  0  0
  2 21  2  0  0  0  0
  2  3  1  0  0  0  0
  3  4  2  0  0  0  0
  3 25  1  0  0  0  0
  4  5  1  0  0  0  0
  4  6  1  0  0  0  0
  5 26  1  0  0  0  0
  5 27  1  0  0  0  0
  5 28  1  0  0  0  0
  6  7  1  0  0  0  0
  6 21  1  0  0  0  0
  7  8  1  0  0  0  0
  7 29  1  0  0  0  0
  7 30  1  0  0  0  0
  8  9  2  0  0  0  0
  8 10  1  0  0  0  0
 10 11  1  0  0  0  0
 10 31  1  0  0  0  0
 11 12  1  0  0  0  0
 11 32  1  0  0  0  0
 11 33  1  0  0  0  0
 12 13  1  0  0  0  0
 12 34  1  0  0  0  0
 12 35  1  0  0  0  0
 13 20  1  0  0  0  0
 13 14  1  0  0  0  0
 13 48  1  0  0  0  0
 14 15  1  0  0  0  0
 14 36  1  0  0  0  0
 14 37  1  0  0  0  0
 15 16  1  0  0  0  0
 15 17  1  0  0  0  0
 15 38  1  0  0  0  0
 16 39  1  0  0  0  0
 16 40  1  0  0  0  0
 16 41  1  0  0  0  0
 17 18  1  0  0  0  0
 18 19  1  0  0  0  0
 18 20  1  0  0  0  0
 18 42  1  0  0  0  0
 19 43  1  0  0  0  0
 19 44  1  0  0  0  0
 19 45  1  0  0  0  0
 20 46  1  0  0  0  0
 20 47  1  0  0  0  0
M  CHG  1  13   1
M  END
> <s_m_source_file>
AV-unprocessed.smi

> <i_m_source_file_index>
2106

> <i_lp_mmshare_version>
43012

> <i_f3d_flags>
0

> <s_epik_input>
W0NIM11jMVtjSF1jKFtDSDNdKW4objEpW0NIMl1DKD1PKVtOSF1bQ0gyXVtDSDJdTjJbQ0gyXVtDQEBIXShbQ0gzXSlPW0NAQEhdKFtDSDNdKVtDSDJdMg==

> <s_epik_cmdline>
J2VwaWtfcHl0aG9uJywgJy1waCcsICc3LjAnLCAnLXRuJywgJzgnLCAnLW1hJywgJzIwMCcsICctbWV0YWxfYmluZGluZycsICctaW1hZScsICc8aW5maWxlLm1hZT4nLCAnLW9tYWUnLCAnPG91dGZpbGUubWFlPic=

> <r_lp_tautomer_probability>
1

> <r_epik_Ionization_Penalty>
0.748586

> <r_epik_Ionization_Penalty_Charging>
0.748396

> <r_epik_Ionization_Penalty_Neutral>
0.000189656

> <r_epik_State_Penalty>
0.775162

> <r_epik_Charging_Adjusted_Penalty>
1.52356

> <i_epik_Tot_Q>
1

> <i_epik_Tot_abs_Q>
1

> <r_epik_Metal_State_Penalty>
0.775295

> <b_epik_Metal_Only>
0

> <s_lp_Force_Field>
OPLS_2005

> <r_lp_Energy>
21.363

> <b_lp_Chiralities_Consistent>
1

> <s_lp_Variant>
AV-unprocessed.smi:2106-7

> <Gold.Version>
5.8.1

> <Gold.Id.Protein>
6NUR|6NUR_protein|mol2

> <Gold.PLP.Fitness>
45.0304

> <Gold.PLP.PLP>
-37.3489

> <Gold.PLP.part.hbond>
-2.0000

> <Gold.PLP.part.metal>
0.0000

> <Gold.PLP.part.buried>
-4.7133

> <Gold.PLP.part.nonpolar>
-31.1706

> <Gold.PLP.part.repulsive>
0.1142

> <Gold.PLP.ligand.clash>
0.0000

> <Gold.PLP.ligand.torsion>
0.6891

> <Gold.PLP.Chemscore.Hbond>
3.0000

> <Gold.PLP.Chemscore.CHOScore>
0.0000

> <Gold.PLP.Chemscore.Metal>
0.0000

> <Gold.Chemscore.Hbonds>
donor molecule, donor type, donor heavy atom, donor atom, acceptor molecule, acceptor atom, score
      L1  H    13    48       P1  7948  1.98
      P1  H  7997  8010       L1     9  1.00

> <Gold.PLP.Chemscore.Internal.Correction>
0.0596

> <Gold.Rescore>
     Score         DG    S(hbond)    S(metal)    S(lipo)     H(rot)  DE(clash)    DE(int)     intcor
     17.61     -18.29       1.93        0.00      92.24       1.73       0.00       0.67       ----

> <Gold.Chemscore.Fitness>
17.6115

> <Gold.Chemscore.DG>
-18.2862

> <Gold.Chemscore.ZeroCoef>
-5.4800

> <Gold.Chemscore.Hbond>
1.9301

> <Gold.Chemscore.Metal>
0.0000

> <Gold.Chemscore.Lipo>
92.2446

> <Gold.Chemscore.Internal_Hbond>
0.0000

> <Gold.Chemscore.DEClash>
0.0019

> <Gold.Chemscore.DEInternal>
0.6728

> <Gold.Chemscore.Rot>
1.7316

> <Gold.Chemscore.Internal.Correction>
   9.000000E+99

> <Gold.Chemscore.Hbonds>
donor molecule, donor type, donor heavy atom, donor atom, acceptor molecule, acceptor atom, score
      L1  H    13    48       P1  7948  0.55
      P1  H  7997  8010       L1     9  0.98

> <Gold.Chemscore.Hbond.Weighted>
-6.4466

> <Gold.Chemscore.Metal.Weighted>
-0.0000

> <Gold.Chemscore.Lipo.Weighted>
-10.7926

> <Gold.Chemscore.Internal_Hbond.Weighted>
0.0000

> <Gold.Chemscore.DEClash.Weighted>
0.0019

> <Gold.Chemscore.DEInternal.Weighted>
0.6728

> <Gold.Chemscore.Rot.Weighted>
4.4330

> <Gold.Chemscore.Internal.Correction.Weighted>
   9.000000E+99

> <Gold.Protein.RotatedTorsions>
[ 6907 6896 6895 6894 ] final  178.66 input  -60.11 | X-H torsion
[ 7974 7965 7964 7962 ] final   88.84 input  175.53 | X-H torsion
[ 8008 7997 7996 7995 ] final   83.60 input   59.86 | X-H torsion
[ 10167 10162 10161 10158 ] final  168.44 input  -65.29 | X-H torsion
[ 10718 10713 10712 10709 ] final   60.76 input   66.30 | X-H torsion
[ 10763 10752 10751 10750 ] final  142.90 input  -60.55 | X-H torsion
[ 11005 11000 10999 10996 ] final -177.70 input  -57.11 | X-H torsion

> <Gold.Protein.ActiveResidues>
 VAL166  LYS551  ARG553  GLY616  TRP617  ASP618  TYR619  PRO620  LYS621  CYS622 
 ASP623  PHE694  ASN695  SER759  ASP760  ASP761  ALA762  ILE779  LEU786  VAL792 
 PHE793  MET794  SER795  GLU796  ALA797  LYS798  CYS799  TRP800  GLU811  SER814 

> <Gold.Protein.RotatedAtoms>
  151.6842  133.3311  159.3226 H   0  0  0  0  0  0  0  0  0  0  0  0  # atno 6907 bound_to 6896
  150.7808  134.6754  159.6424 H   0  0  0  0  0  0  0  0  0  0  0  0  # atno 6908 bound_to 6896
  152.3865  134.6512  160.0175 H   0  0  0  0  0  0  0  0  0  0  0  0  # atno 6909 bound_to 6896
  145.5403  139.2288  143.2569 H   0  0  0  0  0  0  0  0  0  0  0  0  # atno 7974 bound_to 7965
  155.9261  140.3418  155.6211 H   0  0  0  0  0  0  0  0  0  0  0  0  # atno 8008 bound_to 7997
  155.7215  140.0784  157.2347 H   0  0  0  0  0  0  0  0  0  0  0  0  # atno 8009 bound_to 7997
  154.4077  140.1604  156.2394 H   0  0  0  0  0  0  0  0  0  0  0  0  # atno 8010 bound_to 7997
  139.4968  144.3814  151.9618 H   0  0  0  0  0  0  0  0  0  0  0  0  # atno 10167 bound_to 10162
  157.5777  130.8957  149.9376 H   0  0  0  0  0  0  0  0  0  0  0  0  # atno 10718 bound_to 10713
  153.9635  135.2958  155.3432 H   0  0  0  0  0  0  0  0  0  0  0  0  # atno 10763 bound_to 10752
  154.7362  135.5045  153.9048 H   0  0  0  0  0  0  0  0  0  0  0  0  # atno 10764 bound_to 10752
  153.0935  135.6714  153.9919 H   0  0  0  0  0  0  0  0  0  0  0  0  # atno 10765 bound_to 10752
  140.4379  134.6458  157.4744 H   0  0  0  0  0  0  0  0  0  0  0  0  # atno 11005 bound_to 11000
  146.1985  140.6223  142.9113 LP  0  0  0  0  0  0  0  0  0  0  0  0  # atno 17320 bound_to 7965
  144.7580  140.5355  143.6755 LP  0  0  0  0  0  0  0  0  0  0  0  0  # atno 17321 bound_to 7965
  140.3251  144.3382  150.6000 LP  0  0  0  0  0  0  0  0  0  0  0  0  # atno 17342 bound_to 10162
  140.5691  143.2183  151.7631 LP  0  0  0  0  0  0  0  0  0  0  0  0  # atno 17343 bound_to 10162
  156.0822  130.3672  150.0558 LP  0  0  0  0  0  0  0  0  0  0  0  0  # atno 17370 bound_to 10713
  156.8702  130.9521  151.3610 LP  0  0  0  0  0  0  0  0  0  0  0  0  # atno 17371 bound_to 10713
  140.0089  134.6720  155.9411 LP  0  0  0  0  0  0  0  0  0  0  0  0  # atno 17394 bound_to 11000
  141.1718  133.6538  156.4679 LP  0  0  0  0  0  0  0  0  0  0  0  0  # atno 17395 bound_to 11000

$$$$
