AV-unprocessed.smi:1047|AV-procd|sdf|4565|dock1
  -GOLD-   22720 3 13D 1   1.00000     0.00000
 Structure written by MMmdl.
 57 59  0  0  0  0  0  0  0  0  3 V2000
  140.4025  145.0114  154.7145 C   0  0  0  0  0  0  0  0  0  0  0  0
  141.3892  143.8673  154.9865 C   0  0  0  0  0  0  0  0  0  0  0  0
  142.6416  144.3369  155.6372 N   0  3  2  0  0  0  0  0  0  0  0  0
  143.4022  145.3137  154.8203 C   0  0  0  0  0  0  0  0  0  0  0  0
  144.1897  144.6088  153.7018 C   0  0  0  0  0  0  0  0  0  0  0  0
  145.0498  143.6305  154.2739 O   0  0  0  0  0  0  0  0  0  0  0  0
  144.3371  142.6094  154.9656 C   0  0  1  0  0  0  0  0  0  0  0  0
  145.3585  141.5853  155.4837 C   0  0  0  0  0  0  0  0  0  0  0  0
  145.8611  140.7267  154.3921 N   0  3  0  0  0  0  0  0  0  0  0  0
  147.0710  141.2477  153.7258 C   0  0  0  0  0  0  0  0  0  0  0  0
  148.3467  140.5897  154.2851 C   0  0  1  0  0  0  0  0  0  0  0  0
  148.9286  139.8018  153.2645 O   0  0  0  0  0  0  0  0  0  0  0  0
  149.3906  141.6046  154.8008 C   0  0  0  0  0  0  0  0  0  0  0  0
  150.3611  141.0274  155.7171 N   0  0  0  0  0  0  0  0  0  0  0  0
  150.9568  139.8230  155.6171 C   0  0  0  0  0  0  0  0  0  0  0  0
  151.8258  139.4921  156.5674 N   0  0  0  0  0  0  0  0  0  0  0  0
  151.7839  140.6080  157.3849 C   0  0  0  0  0  0  0  0  0  0  0  0
  152.4806  140.8963  158.5787 C   0  0  0  0  0  0  0  0  0  0  0  0
  152.2802  142.1192  159.2577 C   0  0  0  0  0  0  0  0  0  0  0  0
  153.0499  142.3870  160.5388 C   0  0  0  0  0  0  0  0  0  0  0  0
  151.3691  143.0763  158.7435 C   0  0  0  0  0  0  0  0  0  0  0  0
  151.1358  144.3960  159.4575 C   0  0  0  0  0  0  0  0  0  0  0  0
  150.6640  142.8040  157.5527 C   0  0  0  0  0  0  0  0  0  0  0  0
  150.8741  141.5846  156.8843 C   0  0  0  0  0  0  0  0  0  0  0  0
  143.5397  143.2561  156.1210 C   0  0  0  0  0  0  0  0  0  0  0  0
  139.5453  144.6492  154.1466 H   0  0  0  0  0  0  0  0  0  0  0  0
  140.8702  145.8056  154.1317 H   0  0  0  0  0  0  0  0  0  0  0  0
  140.0159  145.4495  155.6339 H   0  0  0  0  0  0  0  0  0  0  0  0
  140.9109  143.0847  155.5751 H   0  0  0  0  0  0  0  0  0  0  0  0
  141.6392  143.4152  154.0257 H   0  0  0  0  0  0  0  0  0  0  0  0
  142.7385  146.0749  154.4084 H   0  0  0  0  0  0  0  0  0  0  0  0
  144.0994  145.8390  155.4746 H   0  0  0  0  0  0  0  0  0  0  0  0
  143.5206  144.1469  152.9742 H   0  0  0  0  0  0  0  0  0  0  0  0
  144.7956  145.3335  153.1578 H   0  0  0  0  0  0  0  0  0  0  0  0
  143.6559  142.1075  154.2768 H   0  0  0  0  0  0  0  0  0  0  0  0
  146.1946  142.0960  155.9639 H   0  0  0  0  0  0  0  0  0  0  0  0
  144.8950  140.9491  156.2388 H   0  0  0  0  0  0  0  0  0  0  0  0
  146.0664  139.8095  154.7615 H   0  0  0  0  0  0  0  0  0  0  0  0
  146.9914  141.0838  152.6500 H   0  0  0  0  0  0  0  0  0  0  0  0
  147.1136  142.3259  153.8837 H   0  0  0  0  0  0  0  0  0  0  0  0
  148.0809  139.9259  155.1087 H   0  0  0  0  0  0  0  0  0  0  0  0
  149.4027  140.3709  152.6764 H   0  0  0  0  0  0  0  0  0  0  0  0
  149.9321  142.0366  153.9586 H   0  0  0  0  0  0  0  0  0  0  0  0
  148.8949  142.4378  155.3012 H   0  0  0  0  0  0  0  0  0  0  0  0
  150.7454  139.1534  154.7961 H   0  0  0  0  0  0  0  0  0  0  0  0
  153.1736  140.1664  158.9708 H   0  0  0  0  0  0  0  0  0  0  0  0
  152.3635  142.5477  161.3704 H   0  0  0  0  0  0  0  0  0  0  0  0
  153.6766  143.2725  160.4301 H   0  0  0  0  0  0  0  0  0  0  0  0
  153.6974  141.5486  160.7977 H   0  0  0  0  0  0  0  0  0  0  0  0
  150.4162  145.0164  158.9225 H   0  0  0  0  0  0  0  0  0  0  0  0
  152.0668  144.9578  159.5383 H   0  0  0  0  0  0  0  0  0  0  0  0
  150.7471  144.2230  160.4612 H   0  0  0  0  0  0  0  0  0  0  0  0
  149.9655  143.5241  157.1536 H   0  0  0  0  0  0  0  0  0  0  0  0
  144.2360  143.6971  156.8357 H   0  0  0  0  0  0  0  0  0  0  0  0
  142.9812  142.5021  156.6740 H   0  0  0  0  0  0  0  0  0  0  0  0
  145.1361  140.6388  153.6934 H   0  0  0  0  0  0  0  0  0  0  0  0
  142.3351  144.8447  156.4554 H   0  0  0  0  0  0  0  0  0  0  0  0
  1  2  1  0  0  0  0
  1 26  1  0  0  0  0
  1 27  1  0  0  0  0
  1 28  1  0  0  0  0
  2  3  1  0  0  0  0
  2 29  1  0  0  0  0
  2 30  1  0  0  0  0
  3 25  1  0  0  0  0
  3  4  1  0  0  0  0
  3 57  1  0  0  0  0
  4  5  1  0  0  0  0
  4 31  1  0  0  0  0
  4 32  1  0  0  0  0
  5  6  1  0  0  0  0
  5 33  1  0  0  0  0
  5 34  1  0  0  0  0
  6  7  1  0  0  0  0
  7  8  1  0  0  0  0
  7 25  1  0  0  0  0
  7 35  1  0  0  0  0
  8  9  1  0  0  0  0
  8 36  1  0  0  0  0
  8 37  1  0  0  0  0
  9 10  1  0  0  0  0
  9 38  1  0  0  0  0
  9 56  1  0  0  0  0
 10 11  1  0  0  0  0
 10 39  1  0  0  0  0
 10 40  1  0  0  0  0
 11 12  1  0  0  0  0
 11 13  1  0  0  0  0
 11 41  1  0  0  0  0
 12 42  1  0  0  0  0
 13 14  1  0  0  0  0
 13 43  1  0  0  0  0
 13 44  1  0  0  0  0
 14 24  1  0  0  0  0
 14 15  1  0  0  0  0
 15 16  2  0  0  0  0
 15 45  1  0  0  0  0
 16 17  1  0  0  0  0
 17 24  2  0  0  0  0
 17 18  1  0  0  0  0
 18 19  2  0  0  0  0
 18 46  1  0  0  0  0
 19 20  1  0  0  0  0
 19 21  1  0  0  0  0
 20 47  1  0  0  0  0
 20 48  1  0  0  0  0
 20 49  1  0  0  0  0
 21 22  1  0  0  0  0
 21 23  2  0  0  0  0
 22 50  1  0  0  0  0
 22 51  1  0  0  0  0
 22 52  1  0  0  0  0
 23 24  1  0  0  0  0
 23 53  1  0  0  0  0
 25 54  1  0  0  0  0
 25 55  1  0  0  0  0
M  CHG  1   3   1
M  CHG  1   9   1
M  END
> <s_m_source_file>
AV-unprocessed.smi

> <i_m_source_file_index>
1047

> <i_lp_mmshare_version>
43012

> <i_f3d_flags>
0

> <s_epik_input>
W0NIM11bQ0gyXU4xW0NIMl1bQ0gyXU9bQ0BIXShbQ0gyXTEpW0NIMl1bTkhdW0NIMl1bQ0BIXShbT0hdKVtDSDJdbihbY0hdbjIpYyhjMjMpW2NIXWMoW0NIM10pYyhbY0hdMylbQ0gzXQ==

> <s_epik_cmdline>
J2VwaWtfcHl0aG9uJywgJy1waCcsICc3LjAnLCAnLXRuJywgJzgnLCAnLW1hJywgJzIwMCcsICctbWV0YWxfYmluZGluZycsICctaW1hZScsICc8aW5maWxlLm1hZT4nLCAnLW9tYWUnLCAnPG91dGZpbGUubWFlPic=

> <r_epik_Ionization_Penalty>
0.528991

> <r_epik_Ionization_Penalty_Charging>
0.438567

> <r_epik_Ionization_Penalty_Neutral>
0.0904237

> <r_epik_State_Penalty>
0.533036

> <r_epik_Charging_Adjusted_Penalty>
0.971603

> <i_epik_Tot_Q>
2

> <i_epik_Tot_abs_Q>
2

> <r_epik_Metal_State_Penalty>
0.448985

> <b_epik_Metal_Only>
0

> <s_lp_Force_Field>
OPLS_2005

> <r_lp_Energy>
30.0062

> <b_lp_Chiralities_Consistent>
1

> <s_lp_Variant>
AV-unprocessed.smi:1047-6

> <Gold.Version>
5.8.1

> <Gold.Id.Protein>
6NUR|6NUR_protein|mol2

> <Gold.PLP.Fitness>
57.3158

> <Gold.PLP.PLP>
-51.5315

> <Gold.PLP.part.hbond>
-1.9715

> <Gold.PLP.part.metal>
0.0000

> <Gold.PLP.part.buried>
-5.0489

> <Gold.PLP.part.nonpolar>
-45.7144

> <Gold.PLP.part.repulsive>
0.2427

> <Gold.PLP.ligand.clash>
0.0000

> <Gold.PLP.ligand.torsion>
1.7601

> <Gold.PLP.Chemscore.Hbond>
2.9120

> <Gold.PLP.Chemscore.CHOScore>
0.0000

> <Gold.PLP.Chemscore.Metal>
0.0000

> <Gold.Chemscore.Hbonds>
donor molecule, donor type, donor heavy atom, donor atom, acceptor molecule, acceptor atom, score
      L1  H     9    56       P1 10175  2.00
      L1  H    12    42       P1  7957  0.46

> <Gold.PLP.Chemscore.Internal.Correction>
0.5686

> <Gold.Rescore>
     Score         DG    S(hbond)    S(metal)    S(lipo)     H(rot)  DE(clash)    DE(int)     intcor
     19.16     -21.05       1.93        0.00     136.96       2.70       0.51       1.38       ----

> <Gold.Chemscore.Fitness>
19.1588

> <Gold.Chemscore.DG>
-21.0513

> <Gold.Chemscore.ZeroCoef>
-5.4800

> <Gold.Chemscore.Hbond>
1.9328

> <Gold.Chemscore.Metal>
0.0000

> <Gold.Chemscore.Lipo>
136.9556

> <Gold.Chemscore.Internal_Hbond>
0.0000

> <Gold.Chemscore.DEClash>
0.5127

> <Gold.Chemscore.DEInternal>
1.3799

> <Gold.Chemscore.Rot>
2.6985

> <Gold.Chemscore.Internal.Correction>
   9.000000E+99

> <Gold.Chemscore.Hbonds>
donor molecule, donor type, donor heavy atom, donor atom, acceptor molecule, acceptor atom, score
      L1  H     9    56       P1 10175  0.98
      L1  H    12    42       P1  7957  0.45

> <Gold.Chemscore.Hbond.Weighted>
-6.4557

> <Gold.Chemscore.Metal.Weighted>
-0.0000

> <Gold.Chemscore.Lipo.Weighted>
-16.0238

> <Gold.Chemscore.Internal_Hbond.Weighted>
0.0000

> <Gold.Chemscore.DEClash.Weighted>
0.5127

> <Gold.Chemscore.DEInternal.Weighted>
1.3799

> <Gold.Chemscore.Rot.Weighted>
6.9081

> <Gold.Chemscore.Internal.Correction.Weighted>
   9.000000E+99

> <Gold.Protein.RotatedTorsions>
[ 6907 6896 6895 6894 ] final -129.21 input  -60.11 | X-H torsion
[ 7974 7965 7964 7962 ] final  175.06 input  175.53 | X-H torsion
[ 8008 7997 7996 7995 ] final -124.15 input   59.86 | X-H torsion
[ 10167 10162 10161 10158 ] final -164.41 input  -65.29 | X-H torsion
[ 10718 10713 10712 10709 ] final  129.73 input   66.30 | X-H torsion
[ 10763 10752 10751 10750 ] final -138.53 input  -60.55 | X-H torsion
[ 11005 11000 10999 10996 ] final   20.75 input  -57.11 | X-H torsion

> <Gold.Protein.ActiveResidues>
 VAL166  LYS551  ARG553  GLY616  TRP617  ASP618  TYR619  PRO620  LYS621  CYS622 
 ASP623  PHE694  ASN695  SER759  ASP760  ASP761  ALA762  ILE779  LEU786  VAL792 
 PHE793  MET794  SER795  GLU796  ALA797  LYS798  CYS799  TRP800  GLU811  SER814 

> <Gold.Protein.RotatedAtoms>
  150.9262  133.6821  159.2820 H   0  0  0  0  0  0  0  0  0  0  0  0  # atno 6907 bound_to 6896
  151.4259  135.1002  159.9637 H   0  0  0  0  0  0  0  0  0  0  0  0  # atno 6908 bound_to 6896
  152.5004  133.8703  159.7350 H   0  0  0  0  0  0  0  0  0  0  0  0  # atno 6909 bound_to 6896
  144.7209  139.9890  143.6439 H   0  0  0  0  0  0  0  0  0  0  0  0  # atno 7974 bound_to 7965
  155.1922  140.0413  157.2902 H   0  0  0  0  0  0  0  0  0  0  0  0  # atno 8008 bound_to 7997
  154.6131  140.2481  155.7616 H   0  0  0  0  0  0  0  0  0  0  0  0  # atno 8009 bound_to 7997
  156.2390  140.2910  156.0402 H   0  0  0  0  0  0  0  0  0  0  0  0  # atno 8010 bound_to 7997
  139.6253  144.0545  152.1969 H   0  0  0  0  0  0  0  0  0  0  0  0  # atno 10167 bound_to 10162
  157.5127  131.1097  150.9269 H   0  0  0  0  0  0  0  0  0  0  0  0  # atno 10718 bound_to 10713
  154.8634  135.3609  154.5400 H   0  0  0  0  0  0  0  0  0  0  0  0  # atno 10763 bound_to 10752
  153.6022  135.7012  153.5384 H   0  0  0  0  0  0  0  0  0  0  0  0  # atno 10764 bound_to 10752
  153.3281  135.4132  155.1434 H   0  0  0  0  0  0  0  0  0  0  0  0  # atno 10765 bound_to 10752
  140.3991  134.1737  155.7663 H   0  0  0  0  0  0  0  0  0  0  0  0  # atno 11005 bound_to 11000
  146.0427  139.3437  143.0687 LP  0  0  0  0  0  0  0  0  0  0  0  0  # atno 17320 bound_to 7965
  145.8314  140.9628  143.0847 LP  0  0  0  0  0  0  0  0  0  0  0  0  # atno 17321 bound_to 7965
  140.0197  144.6162  150.7577 LP  0  0  0  0  0  0  0  0  0  0  0  0  # atno 17342 bound_to 10162
  140.7407  143.2808  151.3605 LP  0  0  0  0  0  0  0  0  0  0  0  0  # atno 17343 bound_to 10162
  156.9905  130.5561  149.5303 LP  0  0  0  0  0  0  0  0  0  0  0  0  # atno 17370 bound_to 10713
  156.0300  130.5391  150.8508 LP  0  0  0  0  0  0  0  0  0  0  0  0  # atno 17371 bound_to 10713
  141.1863  133.8305  157.1073 LP  0  0  0  0  0  0  0  0  0  0  0  0  # atno 17394 bound_to 11000
  140.0349  134.9883  157.0852 LP  0  0  0  0  0  0  0  0  0  0  0  0  # atno 17395 bound_to 11000

$$$$
