AV-unprocessed.smi:1364|AV-procd|sdf|5567|dock9
  -GOLD-   22720 5163D 1   1.00000     0.00000
 Structure written by MMmdl.
 40 41  0  0  0  0  0  0  0  0  1 V2000
  147.7152  140.6861  155.7845 C   0  0  0  0  0  0  0  0  0  0  0  0
  146.4733  140.5998  154.8730 C   0  0  0  0  0  0  0  0  0  0  0  0
  145.2090  140.8526  155.7206 C   0  0  0  0  0  0  0  0  0  0  0  0
  146.5728  141.6975  153.7867 C   0  0  0  0  0  0  0  0  0  0  0  0
  146.3936  139.1720  154.2764 C   0  0  0  0  0  0  0  0  0  0  0  0
  147.3133  138.3826  154.4949 O   0  0  0  0  0  0  0  0  0  0  0  0
  145.3195  138.8680  153.5207 N   0  0  0  0  0  0  0  0  0  0  0  0
  145.0056  137.6440  152.8707 C   0  0  0  0  0  0  0  0  0  0  0  0
  143.6909  137.1854  152.6256 C   0  0  0  0  0  0  0  0  0  0  0  0
  143.5095  135.9621  151.9524 C   0  0  0  0  0  0  0  0  0  0  0  0
  144.6430  135.2266  151.5322 C   0  0  0  0  0  0  0  0  0  0  0  0
  144.4829  133.9962  150.8577 N   0  0  0  0  0  0  0  0  0  0  0  0
  144.0300  132.8420  151.6322 C   0  0  0  0  0  0  0  0  0  0  0  0
  144.1975  131.5490  150.8165 C   0  0  0  0  0  0  0  0  0  0  0  0
  143.5178  131.6763  149.5721 O   0  0  0  0  0  0  0  0  0  0  0  0
  144.0495  132.7370  148.7853 C   0  0  0  0  0  0  0  0  0  0  0  0
  143.8809  134.0735  149.5286 C   0  0  0  0  0  0  0  0  0  0  0  0
  145.9015  135.6815  151.7501 N   0  0  0  0  0  0  0  0  0  0  0  0
  146.0708  136.8538  152.3963 C   0  0  0  0  0  0  0  0  0  0  0  0
  147.8062  141.6749  156.2353 H   0  0  0  0  0  0  0  0  0  0  0  0
  148.6331  140.4975  155.2257 H   0  0  0  0  0  0  0  0  0  0  0  0
  147.6727  139.9636  156.6009 H   0  0  0  0  0  0  0  0  0  0  0  0
  145.1151  140.1347  156.5368 H   0  0  0  0  0  0  0  0  0  0  0  0
  144.3036  140.7842  155.1160 H   0  0  0  0  0  0  0  0  0  0  0  0
  145.2265  141.8469  156.1682 H   0  0  0  0  0  0  0  0  0  0  0  0
  146.6231  142.6893  154.2374 H   0  0  0  0  0  0  0  0  0  0  0  0
  145.7065  141.6922  153.1236 H   0  0  0  0  0  0  0  0  0  0  0  0
  147.4672  141.5812  153.1729 H   0  0  0  0  0  0  0  0  0  0  0  0
  144.6805  139.6292  153.3414 H   0  0  0  0  0  0  0  0  0  0  0  0
  142.8216  137.7513  152.9219 H   0  0  0  0  0  0  0  0  0  0  0  0
  142.5073  135.6153  151.7506 H   0  0  0  0  0  0  0  0  0  0  0  0
  144.6012  132.7598  152.5579 H   0  0  0  0  0  0  0  0  0  0  0  0
  142.9825  132.9786  151.9046 H   0  0  0  0  0  0  0  0  0  0  0  0
  145.2529  131.3298  150.6465 H   0  0  0  0  0  0  0  0  0  0  0  0
  143.7814  130.7033  151.3640 H   0  0  0  0  0  0  0  0  0  0  0  0
  145.1004  132.5470  148.5612 H   0  0  0  0  0  0  0  0  0  0  0  0
  143.5220  132.7700  147.8320 H   0  0  0  0  0  0  0  0  0  0  0  0
  142.8213  134.3081  149.6370 H   0  0  0  0  0  0  0  0  0  0  0  0
  144.3210  134.8688  148.9292 H   0  0  0  0  0  0  0  0  0  0  0  0
  147.0939  137.1679  152.5430 H   0  0  0  0  0  0  0  0  0  0  0  0
  1  2  1  0  0  0  0
  1 20  1  0  0  0  0
  1 21  1  0  0  0  0
  1 22  1  0  0  0  0
  2  3  1  0  0  0  0
  2  4  1  0  0  0  0
  2  5  1  0  0  0  0
  3 23  1  0  0  0  0
  3 24  1  0  0  0  0
  3 25  1  0  0  0  0
  4 26  1  0  0  0  0
  4 27  1  0  0  0  0
  4 28  1  0  0  0  0
  5  6  2  0  0  0  0
  5  7  1  0  0  0  0
  7  8  1  0  0  0  0
  7 29  1  0  0  0  0
  8 19  1  0  0  0  0
  8  9  2  0  0  0  0
  9 10  1  0  0  0  0
  9 30  1  0  0  0  0
 10 11  2  0  0  0  0
 10 31  1  0  0  0  0
 11 12  1  0  0  0  0
 11 18  1  0  0  0  0
 12 17  1  0  0  0  0
 12 13  1  0  0  0  0
 13 14  1  0  0  0  0
 13 32  1  0  0  0  0
 13 33  1  0  0  0  0
 14 15  1  0  0  0  0
 14 34  1  0  0  0  0
 14 35  1  0  0  0  0
 15 16  1  0  0  0  0
 16 17  1  0  0  0  0
 16 36  1  0  0  0  0
 16 37  1  0  0  0  0
 17 38  1  0  0  0  0
 17 39  1  0  0  0  0
 18 19  2  0  0  0  0
 19 40  1  0  0  0  0
M  END
> <s_m_source_file>
AV-unprocessed.smi

> <i_m_source_file_index>
1364

> <i_lp_mmshare_version>
43012

> <i_f3d_flags>
0

> <s_epik_input>
W0NIM11DKFtDSDNdKShbQ0gzXSlDKD1PKVtOSF1jMVtjSF1bY0hdYyhuW2NIXTEpTjJbQ0gyXVtDSDJdT1tDSDJdW0NIMl0y

> <s_epik_cmdline>
J2VwaWtfcHl0aG9uJywgJy1waCcsICc3LjAnLCAnLXRuJywgJzgnLCAnLW1hJywgJzIwMCcsICctbWV0YWxfYmluZGluZycsICctaW1hZScsICc8aW5maWxlLm1hZT4nLCAnLW9tYWUnLCAnPG91dGZpbGUubWFlPic=

> <r_lp_tautomer_probability>
1

> <r_epik_Ionization_Penalty>
0.000770434

> <r_epik_Ionization_Penalty_Charging>
0

> <r_epik_Ionization_Penalty_Neutral>
0.000770434

> <r_epik_State_Penalty>
0.00047801

> <r_epik_Charging_Adjusted_Penalty>
0.00047801

> <i_epik_Tot_Q>
0

> <i_epik_Tot_abs_Q>
0

> <r_epik_Metal_State_Penalty>
-0

> <b_epik_Metal_Only>
0

> <s_lp_Force_Field>
OPLS_2005

> <r_lp_Energy>
28.9923

> <b_lp_Chiralities_Consistent>
1

> <s_lp_Variant>
AV-unprocessed.smi:1364-1

> <Gold.Version>
5.8.1

> <Gold.Id.Protein>
6NUR|6NUR_protein|mol2

> <Gold.PLP.Fitness>
30.9083

> <Gold.PLP.PLP>
-22.4795

> <Gold.PLP.part.hbond>
-2.0000

> <Gold.PLP.part.metal>
0.0000

> <Gold.PLP.part.buried>
0.7597

> <Gold.PLP.part.nonpolar>
-23.9129

> <Gold.PLP.part.repulsive>
1.8475

> <Gold.PLP.ligand.clash>
0.0000

> <Gold.PLP.ligand.torsion>
0.4330

> <Gold.PLP.Chemscore.Hbond>
1.9920

> <Gold.PLP.Chemscore.CHOScore>
0.9894

> <Gold.PLP.Chemscore.Metal>
0.0000

> <Gold.Chemscore.Hbonds>
donor molecule, donor type, donor heavy atom, donor atom, acceptor molecule, acceptor atom, score
      L1  H     7    29       P1 10175  1.00
      P1  H 10785 10796       L1    15  0.99
      L1  C    19    40       P1  7948  0.99

> <Gold.PLP.Chemscore.Internal.Correction>
0.3506

> <Gold.Rescore>
     Score         DG    S(hbond)    S(metal)    S(lipo)     H(rot)  DE(clash)    DE(int)     intcor
     12.93     -16.70       1.76        0.00      71.30       1.17       2.06       1.71       ----

> <Gold.Chemscore.Fitness>
12.9297

> <Gold.Chemscore.DG>
-16.6962

> <Gold.Chemscore.ZeroCoef>
-5.4800

> <Gold.Chemscore.Hbond>
1.7554

> <Gold.Chemscore.Metal>
0.0000

> <Gold.Chemscore.Lipo>
71.2981

> <Gold.Chemscore.Internal_Hbond>
0.0000

> <Gold.Chemscore.DEClash>
2.0608

> <Gold.Chemscore.DEInternal>
1.7058

> <Gold.Chemscore.Rot>
1.1675

> <Gold.Chemscore.Internal.Correction>
   9.000000E+99

> <Gold.Chemscore.Hbonds>
donor molecule, donor type, donor heavy atom, donor atom, acceptor molecule, acceptor atom, score
      L1  H     7    29       P1 10175  0.95
      P1  H 10785 10796       L1    15  0.78

> <Gold.Chemscore.Hbond.Weighted>
-5.8631

> <Gold.Chemscore.Metal.Weighted>
-0.0000

> <Gold.Chemscore.Lipo.Weighted>
-8.3419

> <Gold.Chemscore.Internal_Hbond.Weighted>
0.0000

> <Gold.Chemscore.DEClash.Weighted>
2.0608

> <Gold.Chemscore.DEInternal.Weighted>
1.7058

> <Gold.Chemscore.Rot.Weighted>
2.9888

> <Gold.Chemscore.Internal.Correction.Weighted>
   9.000000E+99

> <Gold.Protein.RotatedTorsions>
[ 6907 6896 6895 6894 ] final -128.78 input  -60.11 | X-H torsion
[ 7974 7965 7964 7962 ] final  -59.68 input  175.53 | X-H torsion
[ 8008 7997 7996 7995 ] final -147.92 input   59.86 | X-H torsion
[ 10167 10162 10161 10158 ] final  175.73 input  -65.29 | X-H torsion
[ 10718 10713 10712 10709 ] final -144.94 input   66.30 | X-H torsion
[ 10763 10752 10751 10750 ] final  126.07 input  -60.55 | X-H torsion
[ 11005 11000 10999 10996 ] final   67.52 input  -57.11 | X-H torsion

> <Gold.Protein.ActiveResidues>
 VAL166  LYS551  ARG553  GLY616  TRP617  ASP618  TYR619  PRO620  LYS621  CYS622 
 ASP623  PHE694  ASN695  SER759  ASP760  ASP761  ALA762  ILE779  LEU786  VAL792 
 PHE793  MET794  SER795  GLU796  ALA797  LYS798  CYS799  TRP800  GLU811  SER814 

> <Gold.Protein.RotatedAtoms>
  150.9216  133.6873  159.2830 H   0  0  0  0  0  0  0  0  0  0  0  0  # atno 6907 bound_to 6896
  151.4326  135.1010  159.9656 H   0  0  0  0  0  0  0  0  0  0  0  0  # atno 6908 bound_to 6896
  152.4982  133.8643  159.7321 H   0  0  0  0  0  0  0  0  0  0  0  0  # atno 6909 bound_to 6896
  145.8246  140.8518  143.0115 H   0  0  0  0  0  0  0  0  0  0  0  0  # atno 7974 bound_to 7965
  155.5833  140.0645  157.2777 H   0  0  0  0  0  0  0  0  0  0  0  0  # atno 8008 bound_to 7997
  154.4326  140.1848  156.1045 H   0  0  0  0  0  0  0  0  0  0  0  0  # atno 8009 bound_to 7997
  156.0288  140.3308  155.7121 H   0  0  0  0  0  0  0  0  0  0  0  0  # atno 8010 bound_to 7997
  139.5188  144.2997  152.0389 H   0  0  0  0  0  0  0  0  0  0  0  0  # atno 10167 bound_to 10162
  156.3763  130.7814  151.2001 H   0  0  0  0  0  0  0  0  0  0  0  0  # atno 10718 bound_to 10713
  153.6874  135.3304  155.3193 H   0  0  0  0  0  0  0  0  0  0  0  0  # atno 10763 bound_to 10752
  154.8449  135.4423  154.1543 H   0  0  0  0  0  0  0  0  0  0  0  0  # atno 10764 bound_to 10752
  153.2576  135.6988  153.7690 H   0  0  0  0  0  0  0  0  0  0  0  0  # atno 10765 bound_to 10752
  139.9766  134.6812  156.0342 H   0  0  0  0  0  0  0  0  0  0  0  0  # atno 11005 bound_to 11000
  144.6744  140.0583  143.7477 LP  0  0  0  0  0  0  0  0  0  0  0  0  # atno 17320 bound_to 7965
  145.9638  139.2819  143.1140 LP  0  0  0  0  0  0  0  0  0  0  0  0  # atno 17321 bound_to 7965
  140.2446  144.4234  150.6246 LP  0  0  0  0  0  0  0  0  0  0  0  0  # atno 17342 bound_to 10162
  140.6267  143.2182  151.6581 LP  0  0  0  0  0  0  0  0  0  0  0  0  # atno 17343 bound_to 10162
  157.7488  131.0357  150.4376 LP  0  0  0  0  0  0  0  0  0  0  0  0  # atno 17370 bound_to 10713
  156.4612  130.4032  149.6575 LP  0  0  0  0  0  0  0  0  0  0  0  0  # atno 17371 bound_to 10713
  141.1442  133.6559  156.3819 LP  0  0  0  0  0  0  0  0  0  0  0  0  # atno 17394 bound_to 11000
  140.5182  134.6330  157.5309 LP  0  0  0  0  0  0  0  0  0  0  0  0  # atno 17395 bound_to 11000

$$$$
