AV-unprocessed.smi:2875|AV-procd|sdf|11040|dock6
  -GOLD-   2272015503D 1   1.00000     0.00000
 Structure written by MMmdl.
 40 40  0  0  0  0  0  0  0  0  1 V2000
  148.0348  141.8255  154.0270 C   0  0  0  0  0  0  0  0  0  0  0  0
  149.0829  140.8681  154.6026 C   0  0  0  0  0  0  0  0  0  0  0  0
  148.9917  139.4632  153.9839 C   0  0  0  0  0  0  0  0  0  0  0  0
  149.7457  138.4745  154.7294 N   0  0  0  0  0  0  0  0  0  0  0  0
  149.2144  137.2517  155.1501 C   0  0  0  0  0  0  0  0  0  0  0  0
  147.8955  136.9698  154.8246 N   0  0  0  0  0  0  0  0  0  0  0  0
  149.9568  136.3533  155.8647 C   0  0  0  0  0  0  0  0  0  0  0  0
  149.4318  135.1056  156.2535 N   0  0  0  0  0  0  0  0  0  0  0  0
  149.0098  134.1901  155.1804 C   0  0  0  0  0  0  0  0  0  0  0  0
  149.8501  132.9031  155.1511 C   0  0  0  0  0  0  0  0  0  0  0  0
  149.2533  131.9728  154.2635 O   0  0  0  0  0  0  0  0  0  0  0  0
  149.6644  130.6411  154.5152 C   0  0  0  0  0  0  0  0  0  0  0  0
  149.2545  134.7736  157.5592 C   0  0  0  0  0  0  0  0  0  0  0  0
  148.7355  133.3764  157.9193 C   0  0  0  0  0  0  0  0  0  0  0  0
  149.5196  135.5460  158.4807 O   0  0  0  0  0  0  0  0  0  0  0  0
  151.3645  136.6345  156.1826 C   0  0  0  0  0  0  0  0  0  0  0  0
  152.1232  135.8929  156.8059 O   0  0  0  0  0  0  0  0  0  0  0  0
  151.8398  137.8549  155.7097 N   0  0  0  0  0  0  0  0  0  0  0  0
  151.1015  138.7872  154.9901 C   0  0  0  0  0  0  0  0  0  0  0  0
  151.6453  139.8256  154.6124 O   0  0  0  0  0  0  0  0  0  0  0  0
  152.8059  138.0783  155.8995 H   0  0  0  0  0  0  0  0  0  0  0  0
  148.1155  142.8113  154.4853 H   0  0  0  0  0  0  0  0  0  0  0  0
  147.0247  141.4563  154.2063 H   0  0  0  0  0  0  0  0  0  0  0  0
  148.1622  141.9469  152.9510 H   0  0  0  0  0  0  0  0  0  0  0  0
  150.0778  141.2817  154.4333 H   0  0  0  0  0  0  0  0  0  0  0  0
  148.9550  140.8061  155.6837 H   0  0  0  0  0  0  0  0  0  0  0  0
  147.9599  139.1167  153.9032 H   0  0  0  0  0  0  0  0  0  0  0  0
  149.3715  139.4492  152.9627 H   0  0  0  0  0  0  0  0  0  0  0  0
  147.3266  137.6195  154.3005 H   0  0  0  0  0  0  0  0  0  0  0  0
  147.4309  136.1382  155.1603 H   0  0  0  0  0  0  0  0  0  0  0  0
  147.9551  133.9381  155.3035 H   0  0  0  0  0  0  0  0  0  0  0  0
  149.0786  134.6791  154.2077 H   0  0  0  0  0  0  0  0  0  0  0  0
  150.8777  133.1157  154.8529 H   0  0  0  0  0  0  0  0  0  0  0  0
  149.8877  132.4703  156.1516 H   0  0  0  0  0  0  0  0  0  0  0  0
  149.1803  129.9686  153.8072 H   0  0  0  0  0  0  0  0  0  0  0  0
  149.3882  130.3272  155.5225 H   0  0  0  0  0  0  0  0  0  0  0  0
  150.7434  130.5332  154.3967 H   0  0  0  0  0  0  0  0  0  0  0  0
  147.6788  133.2806  157.6704 H   0  0  0  0  0  0  0  0  0  0  0  0
  148.8415  133.1936  158.9892 H   0  0  0  0  0  0  0  0  0  0  0  0
  149.2930  132.5992  157.3955 H   0  0  0  0  0  0  0  0  0  0  0  0
  1  2  1  0  0  0  0
  1 22  1  0  0  0  0
  1 23  1  0  0  0  0
  1 24  1  0  0  0  0
  2  3  1  0  0  0  0
  2 25  1  0  0  0  0
  2 26  1  0  0  0  0
  3  4  1  0  0  0  0
  3 27  1  0  0  0  0
  3 28  1  0  0  0  0
  4 19  1  0  0  0  0
  4  5  1  0  0  0  0
  5  6  1  0  0  0  0
  5  7  2  0  0  0  0
  6 29  1  0  0  0  0
  6 30  1  0  0  0  0
  7  8  1  0  0  0  0
  7 16  1  0  0  0  0
  8  9  1  0  0  0  0
  8 13  1  0  0  0  0
  9 10  1  0  0  0  0
  9 31  1  0  0  0  0
  9 32  1  0  0  0  0
 10 11  1  0  0  0  0
 10 33  1  0  0  0  0
 10 34  1  0  0  0  0
 11 12  1  0  0  0  0
 12 35  1  0  0  0  0
 12 36  1  0  0  0  0
 12 37  1  0  0  0  0
 13 14  1  0  0  0  0
 13 15  2  0  0  0  0
 14 38  1  0  0  0  0
 14 39  1  0  0  0  0
 14 40  1  0  0  0  0
 16 17  2  0  0  0  0
 16 18  1  0  0  0  0
 18 21  1  0  0  0  0
 18 19  1  0  0  0  0
 19 20  2  0  0  0  0
M  END
> <s_m_source_file>
AV-unprocessed.smi

> <i_m_source_file_index>
2875

> <i_lp_mmshare_version>
43012

> <i_f3d_flags>
0

> <s_epik_input>
W0NIM11bQ0gyXVtDSDJdbjFjKFtOSDJdKWMoYyg9TylbbkhdYzE9TylOKEMoPU8pW0NIM10pW0NIMl1bQ0gyXU9bQ0gzXQ==

> <s_epik_cmdline>
J2VwaWtfcHl0aG9uJywgJy1waCcsICc3LjAnLCAnLXRuJywgJzgnLCAnLW1hJywgJzIwMCcsICctbWV0YWxfYmluZGluZycsICctaW1hZScsICc8aW5maWxlLm1hZT4nLCAnLW9tYWUnLCAnPG91dGZpbGUubWFlPic=

> <r_lp_tautomer_probability>
1

> <r_epik_Ionization_Penalty>
1.36284e-05

> <r_epik_Ionization_Penalty_Charging>
6.32507e-06

> <r_epik_Ionization_Penalty_Neutral>
7.30329e-06

> <r_epik_State_Penalty>
-0

> <r_epik_Charging_Adjusted_Penalty>
6.32507e-06

> <i_epik_Tot_Q>
0

> <i_epik_Tot_abs_Q>
0

> <r_epik_Metal_State_Penalty>
0.00594323

> <b_epik_Metal_Only>
0

> <s_epik_Chemistry_Notes>
This compound has an imine and may undergo hydrolysis.

> <s_lp_Force_Field>
OPLS_2005

> <r_lp_Energy>
24.7155

> <b_lp_Chiralities_Consistent>
1

> <s_lp_Variant>
AV-unprocessed.smi:2875-1

> <Gold.Version>
5.8.1

> <Gold.Id.Protein>
6NUR|6NUR_protein|mol2

> <Gold.PLP.Fitness>
35.9534

> <Gold.PLP.PLP>
-27.6426

> <Gold.PLP.part.hbond>
-3.9098

> <Gold.PLP.part.metal>
0.0000

> <Gold.PLP.part.buried>
-3.6092

> <Gold.PLP.part.nonpolar>
-21.0743

> <Gold.PLP.part.repulsive>
0.2689

> <Gold.PLP.ligand.clash>
0.0000

> <Gold.PLP.ligand.torsion>
1.5011

> <Gold.PLP.Chemscore.Hbond>
3.0000

> <Gold.PLP.Chemscore.CHOScore>
0.0000

> <Gold.PLP.Chemscore.Metal>
0.0000

> <Gold.Chemscore.Hbonds>
donor molecule, donor type, donor heavy atom, donor atom, acceptor molecule, acceptor atom, score
      P1  H  6896  6908       L1    15  0.72
      P1  H  7989  7998       L1    20  0.98
      P1  H 10752 10765       L1    17  0.83

> <Gold.PLP.Chemscore.Internal.Correction>
2.3129

> <Gold.Rescore>
     Score         DG    S(hbond)    S(metal)    S(lipo)     H(rot)  DE(clash)    DE(int)     intcor
     11.44     -14.13       2.91        0.00      36.17       2.08       0.00       2.69       ----

> <Gold.Chemscore.Fitness>
11.4375

> <Gold.Chemscore.DG>
-14.1291

> <Gold.Chemscore.ZeroCoef>
-5.4800

> <Gold.Chemscore.Hbond>
2.9138

> <Gold.Chemscore.Metal>
0.0000

> <Gold.Chemscore.Lipo>
36.1728

> <Gold.Chemscore.Internal_Hbond>
0.0000

> <Gold.Chemscore.DEClash>
0.0024

> <Gold.Chemscore.DEInternal>
2.6891

> <Gold.Chemscore.Rot>
2.0763

> <Gold.Chemscore.Internal.Correction>
   9.000000E+99

> <Gold.Chemscore.Hbonds>
donor molecule, donor type, donor heavy atom, donor atom, acceptor molecule, acceptor atom, score
      P1  H  6896  6908       L1    15  0.09
      P1  H  7989  7998       L1    20  0.90
      P1  H 10752 10765       L1    17  0.13

> <Gold.Chemscore.Hbond.Weighted>
-9.7321

> <Gold.Chemscore.Metal.Weighted>
-0.0000

> <Gold.Chemscore.Lipo.Weighted>
-4.2322

> <Gold.Chemscore.Internal_Hbond.Weighted>
0.0000

> <Gold.Chemscore.DEClash.Weighted>
0.0024

> <Gold.Chemscore.DEInternal.Weighted>
2.6891

> <Gold.Chemscore.Rot.Weighted>
5.3153

> <Gold.Chemscore.Internal.Correction.Weighted>
   9.000000E+99

> <Gold.Protein.RotatedTorsions>
[ 6907 6896 6895 6894 ] final  150.45 input  -60.11 | X-H torsion
[ 7974 7965 7964 7962 ] final    8.00 input  175.53 | X-H torsion
[ 8008 7997 7996 7995 ] final   -2.20 input   59.86 | X-H torsion
[ 10167 10162 10161 10158 ] final  -50.28 input  -65.29 | X-H torsion
[ 10718 10713 10712 10709 ] final  153.20 input   66.30 | X-H torsion
[ 10763 10752 10751 10750 ] final -135.09 input  -60.55 | X-H torsion
[ 11005 11000 10999 10996 ] final -161.91 input  -57.11 | X-H torsion

> <Gold.Protein.ActiveResidues>
 VAL166  LYS551  ARG553  GLY616  TRP617  ASP618  TYR619  PRO620  LYS621  CYS622 
 ASP623  PHE694  ASN695  SER759  ASP760  ASP761  ALA762  ILE779  LEU786  VAL792 
 PHE793  MET794  SER795  GLU796  ALA797  LYS798  CYS799  TRP800  GLU811  SER814 

> <Gold.Protein.RotatedAtoms>
  152.1142  133.4317  159.4645 H   0  0  0  0  0  0  0  0  0  0  0  0  # atno 6907 bound_to 6896
  150.6868  134.2611  159.4559 H   0  0  0  0  0  0  0  0  0  0  0  0  # atno 6908 bound_to 6896
  152.0483  134.9669  160.0625 H   0  0  0  0  0  0  0  0  0  0  0  0  # atno 6909 bound_to 6896
  146.2421  139.9999  142.8417 H   0  0  0  0  0  0  0  0  0  0  0  0  # atno 7974 bound_to 7965
  154.6383  140.2540  155.7351 H   0  0  0  0  0  0  0  0  0  0  0  0  # atno 8008 bound_to 7997
  156.2516  140.2892  156.0686 H   0  0  0  0  0  0  0  0  0  0  0  0  # atno 8009 bound_to 7997
  155.1636  140.0385  157.2838 H   0  0  0  0  0  0  0  0  0  0  0  0  # atno 8010 bound_to 7997
  140.6645  143.2664  151.4337 H   0  0  0  0  0  0  0  0  0  0  0  0  # atno 10167 bound_to 10162
  157.2479  131.0772  151.1749 H   0  0  0  0  0  0  0  0  0  0  0  0  # atno 10718 bound_to 10713
  154.8709  135.3714  154.4842 H   0  0  0  0  0  0  0  0  0  0  0  0  # atno 10763 bound_to 10752
  153.5494  135.7025  153.5604 H   0  0  0  0  0  0  0  0  0  0  0  0  # atno 10764 bound_to 10752
  153.3729  135.4016  155.1766 H   0  0  0  0  0  0  0  0  0  0  0  0  # atno 10765 bound_to 10752
  140.6152  134.4808  157.5219 H   0  0  0  0  0  0  0  0  0  0  0  0  # atno 11005 bound_to 11000
  145.1425  140.9579  143.4480 LP  0  0  0  0  0  0  0  0  0  0  0  0  # atno 17320 bound_to 7965
  145.0282  139.3364  143.6038 LP  0  0  0  0  0  0  0  0  0  0  0  0  # atno 17321 bound_to 7965
  139.5889  144.1543  152.2064 LP  0  0  0  0  0  0  0  0  0  0  0  0  # atno 17342 bound_to 10162
  140.0891  144.5636  150.7067 LP  0  0  0  0  0  0  0  0  0  0  0  0  # atno 17343 bound_to 10162
  157.3310  130.6985  149.6324 LP  0  0  0  0  0  0  0  0  0  0  0  0  # atno 17370 bound_to 10713
  155.9667  130.4307  150.4890 LP  0  0  0  0  0  0  0  0  0  0  0  0  # atno 17371 bound_to 10713
  139.9176  134.8215  156.1316 LP  0  0  0  0  0  0  0  0  0  0  0  0  # atno 17394 bound_to 11000
  141.0781  133.6766  156.2278 LP  0  0  0  0  0  0  0  0  0  0  0  0  # atno 17395 bound_to 11000

$$$$
