#       Name:                AV-unprocessed.smi:1703
#       Creating user name   scv26
#       Creation time:       Fri Mar 27 08:05:27 2020


#       File generated by GOLD software.
#

@<TRIPOS>MOLECULE
AV-unprocessed.smi:1703
    56    58     1
SMALL
NO_CHARGES


@<TRIPOS>ATOM
      1 ****        -4.0067   3.0137  -1.9032 C.3            1 S1                 0.0000
      2 ****        -2.5365   2.8744  -1.4931 C.3            1 S1                 0.0000
      3 ****        -2.0656   1.4079  -1.5120 C.3            1 S1                 0.0000
      4 ****        -0.6668   1.3030  -1.0341 N.4            1 S1                 1.0000
      5 ****        -0.1506  -0.0879  -1.0988 C.3            1 S1                 0.0000
      6 ****         1.3923  -0.1511  -1.1375 C.3            1 S1                 0.0000
      7 ****         1.8481   0.4721  -2.3212 O.3            1 S1                 0.0000
      8 ****         1.9550  -1.5867  -1.1154 C.3            1 S1                 0.0000
      9 ****         1.5232  -2.3426   0.0531 N.pl3          1 S1                 0.0000
     10 ****         0.6204  -3.3547   0.1235 C.2            1 S1                 0.0000
     11 ****        -0.1072  -3.8703  -1.0804 C.3            1 S1                 0.0000
     12 ****         0.7072  -4.6730  -1.9074 O.3            1 S1                 0.0000
     13 ****         0.4142  -3.8638   1.3383 N.2            1 S1                 0.0000
     14 ****         1.2704  -3.1234   2.1290 C.ar           1 S1                 0.0000
     15 ****         1.5200  -3.1830   3.5187 C.ar           1 S1                 0.0000
     16 ****         2.4556  -2.3116   4.1138 C.ar           1 S1                 0.0000
     17 ****         3.1535  -1.3704   3.3296 C.ar           1 S1                 0.0000
     18 ****         2.9187  -1.2935   1.9433 C.ar           1 S1                 0.0000
     19 ****         1.9826  -2.1645   1.3545 C.ar           1 S1                 0.0000
     20 ****        -0.5324   1.9292   0.3044 C.3            1 S1                 0.0000
     21 ****        -1.0404   3.3831   0.2715 C.3            1 S1                 0.0000
     22 ****        -0.9872   4.0465   1.6521 C.3            1 S1                 0.0000
     23 ****        -2.3918   3.3929  -0.1754 O.3            1 S1                 0.0000
     24 ****        -4.1686   2.6448  -2.9163 H              1 S1                 0.0000
     25 ****        -4.3214   4.0572  -1.8759 H              1 S1                 0.0000
     26 ****        -4.6592   2.4521  -1.2340 H              1 S1                 0.0000
     27 ****        -1.9277   3.4653  -2.1797 H              1 S1                 0.0000
     28 ****        -2.7116   0.7939  -0.8817 H              1 S1                 0.0000
     29 ****        -2.1380   1.0134  -2.5264 H              1 S1                 0.0000
     30 ****        -0.5467  -0.6447  -0.2486 H              1 S1                 0.0000
     31 ****        -0.5378  -0.5806  -1.9920 H              1 S1                 0.0000
     32 ****         1.8125   0.3931  -0.2929 H              1 S1                 0.0000
     33 ****         1.5782  -0.0494  -3.0621 H              1 S1                 0.0000
     34 ****         1.6714  -2.1196  -2.0225 H              1 S1                 0.0000
     35 ****         3.0455  -1.5594  -1.1122 H              1 S1                 0.0000
     36 ****        -0.9649  -4.4616  -0.7575 H              1 S1                 0.0000
     37 ****        -0.5037  -3.0357  -1.6580 H              1 S1                 0.0000
     38 ****         0.1804  -5.0066  -2.6174 H              1 S1                 0.0000
     39 ****         0.9922  -3.9018   4.1278 H              1 S1                 0.0000
     40 ****         2.6397  -2.3670   5.1769 H              1 S1                 0.0000
     41 ****         3.8707  -0.7087   3.7931 H              1 S1                 0.0000
     42 ****         3.4542  -0.5752   1.3407 H              1 S1                 0.0000
     43 ****        -1.0970   1.3496   1.0368 H              1 S1                 0.0000
     44 ****         0.5082   1.9207   0.6263 H              1 S1                 0.0000
     45 ****        -0.4298   3.9698  -0.4175 H              1 S1                 0.0000
     46 ****         0.0325   4.0701   2.0376 H              1 S1                 0.0000
     47 ****        -1.6054   3.5109   2.3732 H              1 S1                 0.0000
     48 ****        -1.3466   5.0746   1.6043 H              1 S1                 0.0000
     49 ****        -0.1050   1.8463  -1.6746 H              1 S1                 0.0000
     50 ****         2.8457   0.5399  -2.3031 LP             1 S1                 0.0000
     51 ****         1.4531   1.3880  -2.3927 LP             1 S1                 0.0000
     52 ****         1.0787  -5.4348  -1.3768 LP             1 S1                 0.0000
     53 ****         1.4587  -4.1246  -2.2744 LP             1 S1                 0.0000
     54 ****        -0.2065  -4.5993   1.6095 LP             1 S1                 0.0000
     55 ****        -2.9398   2.8369   0.4495 LP             1 S1                 0.0000
     56 ****        -2.7262   4.3353  -0.1636 LP             1 S1                 0.0000
@<TRIPOS>BOND
    1    1    2 1     
    2    1   24 1     
    3    1   25 1     
    4    1   26 1     
    5    2   23 1     
    6    2    3 1     
    7    2   27 1     
    8    3    4 1     
    9    3   28 1     
   10    3   29 1     
   11    4    5 1     
   12    4   20 1     
   13    4   49 1     
   14    5    6 1     
   15    5   30 1     
   16    5   31 1     
   17    6    7 1     
   18    6    8 1     
   19    6   32 1     
   20    7   33 1     
   21    8    9 1     
   22    8   34 1     
   23    8   35 1     
   24    9   19 1     
   25    9   10 1     
   26   10   11 1     
   27   10   13 2     
   28   11   12 1     
   29   11   36 1     
   30   11   37 1     
   31   12   38 1     
   32   13   14 1     
   33   14   19 ar    
   34   14   15 ar    
   35   15   16 ar    
   36   15   39 1     
   37   16   17 ar    
   38   16   40 1     
   39   17   18 ar    
   40   17   41 1     
   41   18   19 ar    
   42   18   42 1     
   43   20   21 1     
   44   20   43 1     
   45   20   44 1     
   46   21   22 1     
   47   21   23 1     
   48   21   45 1     
   49   22   46 1     
   50   22   47 1     
   51   22   48 1     
   52    7   50 1     
   53    7   51 1     
   54   12   52 1     
   55   12   53 1     
   56   13   54 1     
   57   23   55 1     
   58   23   56 1     
@<TRIPOS>SUBSTRUCTURE
      1 S1             1
@<TRIPOS>SET
LONE_PAIRS      STATIC     ATOMS    <user>   **** ""
7 50 51 52 53 54 55 56
DONOR_HYDROGENS      STATIC     ATOMS    <user>   **** ""
3 49 33 38
ATOM$BLUE        STATIC     ATOMS    COLORGROUP SYSTEM
7 50 51 52 53 54 55 56
ATOM$RED        STATIC     ATOMS    COLORGROUP SYSTEM
3 49 33 38
