AV-unprocessed.smi:626|AV-procd|sdf|3109|dock8
  -GOLD-   22720 0 33D 1   1.00000     0.00000
 Structure written by MMmdl.
 34 36  0  0  0  0  0  0  0  0  1 V2000
  147.0891  139.6930  153.9448 C   0  0  0  0  0  0  0  0  0  0  0  0
  148.2926  139.1678  154.5714 N   0  0  0  0  0  0  0  0  0  0  0  0
  149.4106  139.8802  154.7731 C   0  0  0  0  0  0  0  0  0  0  0  0
  149.5196  141.0621  154.4414 O   0  0  0  0  0  0  0  0  0  0  0  0
  150.5634  139.1340  155.4586 C   0  0  0  0  0  0  0  0  0  0  0  0
  151.1191  139.8857  156.6285 C   0  0  0  0  0  0  0  0  0  0  0  0
  152.1042  139.3868  157.3657 N   0  0  0  0  0  0  0  0  0  0  0  0
  152.3093  140.3733  158.3407 O   0  0  0  0  0  0  0  0  0  0  0  0
  151.4402  141.3720  158.0508 C   0  0  0  0  0  0  0  0  0  0  0  0
  151.3602  142.5440  158.9813 C   0  0  2  0  0  0  0  0  0  0  0  0
  151.2545  143.9111  158.2736 C   0  0  0  0  0  0  0  0  0  0  0  0
  152.3567  144.7339  158.9681 C   0  0  1  0  0  0  0  0  0  0  0  0
  151.9716  144.9913  160.4383 C   0  0  0  0  0  0  0  0  0  0  0  0
  152.1762  143.6105  161.0940 C   0  0  0  0  0  0  0  0  0  0  0  0
  152.5903  142.7297  159.8996 C   0  0  2  0  0  0  0  0  0  0  0  0
  153.4666  143.7004  159.1112 C   0  0  0  0  0  0  0  0  0  0  0  0
  150.6399  141.0979  157.0221 N   0  0  0  0  0  0  0  0  0  0  0  0
  146.3183  138.9229  153.9169 H   0  0  0  0  0  0  0  0  0  0  0  0
  147.2913  140.0106  152.9210 H   0  0  0  0  0  0  0  0  0  0  0  0
  146.6997  140.5451  154.5035 H   0  0  0  0  0  0  0  0  0  0  0  0
  148.2740  138.2042  154.8733 H   0  0  0  0  0  0  0  0  0  0  0  0
  150.2063  138.1590  155.7927 H   0  0  0  0  0  0  0  0  0  0  0  0
  151.3598  138.9499  154.7359 H   0  0  0  0  0  0  0  0  0  0  0  0
  150.4745  142.3886  159.5996 H   0  0  0  0  0  0  0  0  0  0  0  0
  151.4743  143.8224  157.2084 H   0  0  0  0  0  0  0  0  0  0  0  0
  150.2647  144.3581  158.3724 H   0  0  0  0  0  0  0  0  0  0  0  0
  152.6358  145.6363  158.4235 H   0  0  0  0  0  0  0  0  0  0  0  0
  152.6319  145.7319  160.8910 H   0  0  0  0  0  0  0  0  0  0  0  0
  150.9466  145.3507  160.5369 H   0  0  0  0  0  0  0  0  0  0  0  0
  152.9751  143.6542  161.8354 H   0  0  0  0  0  0  0  0  0  0  0  0
  151.2785  143.2473  161.5958 H   0  0  0  0  0  0  0  0  0  0  0  0
  153.0696  141.7974  160.2011 H   0  0  0  0  0  0  0  0  0  0  0  0
  153.8121  143.3031  158.1558 H   0  0  0  0  0  0  0  0  0  0  0  0
  154.3272  144.0636  159.6759 H   0  0  0  0  0  0  0  0  0  0  0  0
  1  2  1  0  0  0  0
  1 18  1  0  0  0  0
  1 19  1  0  0  0  0
  1 20  1  0  0  0  0
  2  3  1  0  0  0  0
  2 21  1  0  0  0  0
  3  4  2  0  0  0  0
  3  5  1  0  0  0  0
  5  6  1  0  0  0  0
  5 22  1  0  0  0  0
  5 23  1  0  0  0  0
  6 17  1  0  0  0  0
  6  7  2  0  0  0  0
  7  8  1  0  0  0  0
  8  9  1  0  0  0  0
  9 10  1  0  0  0  0
  9 17  2  0  0  0  0
 10 15  1  0  0  0  0
 10 11  1  0  0  0  0
 10 24  1  0  0  0  0
 11 12  1  0  0  0  0
 11 25  1  0  0  0  0
 11 26  1  0  0  0  0
 12 16  1  0  0  0  0
 12 13  1  0  0  0  0
 12 27  1  0  0  0  0
 13 14  1  0  0  0  0
 13 28  1  0  0  0  0
 13 29  1  0  0  0  0
 14 15  1  0  0  0  0
 14 30  1  0  0  0  0
 14 31  1  0  0  0  0
 15 16  1  0  0  0  0
 15 32  1  0  0  0  0
 16 33  1  0  0  0  0
 16 34  1  0  0  0  0
M  END
> <s_m_source_file>
AV-unprocessed.smi

> <i_m_source_file_index>
626

> <i_lp_mmshare_version>
43012

> <i_f3d_flags>
0

> <s_epik_input>
W0NIM11bTkhdQyg9TylbQ0gyXWMxbm9jKG4xKVtDQEhdKFtDSDJdW0NAQEhdMjMpW0NAQEhdKFtDSDJdMylbQ0gyXVtDSDJdMg==

> <s_epik_cmdline>
J2VwaWtfcHl0aG9uJywgJy1waCcsICc3LjAnLCAnLXRuJywgJzgnLCAnLW1hJywgJzIwMCcsICctbWV0YWxfYmluZGluZycsICctaW1hZScsICc8aW5maWxlLm1hZT4nLCAnLW9tYWUnLCAnPG91dGZpbGUubWFlPic=

> <r_lp_tautomer_probability>
1

> <r_epik_Ionization_Penalty>
1.02916e-07

> <r_epik_Ionization_Penalty_Charging>
0

> <r_epik_Ionization_Penalty_Neutral>
1.02916e-07

> <r_epik_State_Penalty>
-0

> <r_epik_Charging_Adjusted_Penalty>
0

> <i_epik_Tot_Q>
0

> <i_epik_Tot_abs_Q>
0

> <r_epik_Metal_State_Penalty>
-0

> <b_epik_Metal_Only>
0

> <s_lp_Force_Field>
OPLS_2005

> <r_lp_Energy>
49.0538

> <b_lp_Chiralities_Consistent>
1

> <s_lp_Variant>
AV-unprocessed.smi:626-1

> <Gold.Version>
5.8.1

> <Gold.Id.Protein>
6NUR|6NUR_protein|mol2

> <Gold.PLP.Fitness>
41.6655

> <Gold.PLP.PLP>
-39.5417

> <Gold.PLP.part.hbond>
-4.8282

> <Gold.PLP.part.metal>
0.0000

> <Gold.PLP.part.buried>
-0.1862

> <Gold.PLP.part.nonpolar>
-32.7906

> <Gold.PLP.part.repulsive>
0.2976

> <Gold.PLP.ligand.clash>
0.0000

> <Gold.PLP.ligand.torsion>
0.4532

> <Gold.PLP.Chemscore.Hbond>
0.9846

> <Gold.PLP.Chemscore.CHOScore>
0.0000

> <Gold.PLP.Chemscore.Metal>
0.0000

> <Gold.Chemscore.Hbonds>
donor molecule, donor type, donor heavy atom, donor atom, acceptor molecule, acceptor atom, score
      P1  H  7989  7998       L1     4  0.15

> <Gold.PLP.Chemscore.Internal.Correction>
0.0764

> <Gold.Rescore>
     Score         DG    S(hbond)    S(metal)    S(lipo)     H(rot)  DE(clash)    DE(int)     intcor
     13.27     -15.22       0.69        0.00      98.73       1.61       0.10       1.84       ----

> <Gold.Chemscore.Fitness>
13.2712

> <Gold.Chemscore.DG>
-15.2157

> <Gold.Chemscore.ZeroCoef>
-5.4800

> <Gold.Chemscore.Hbond>
0.6918

> <Gold.Chemscore.Metal>
0.0000

> <Gold.Chemscore.Lipo>
98.7312

> <Gold.Chemscore.Internal_Hbond>
0.0000

> <Gold.Chemscore.DEClash>
0.1003

> <Gold.Chemscore.DEInternal>
1.8442

> <Gold.Chemscore.Rot>
1.6119

> <Gold.Chemscore.Internal.Correction>
   9.000000E+99

> <Gold.Chemscore.Hbonds>
donor molecule, donor type, donor heavy atom, donor atom, acceptor molecule, acceptor atom, score
      P1  H  7989  7998       L1     4  0.03
      P1  H  8011  8017       L1     4  0.01

> <Gold.Chemscore.Hbond.Weighted>
-2.3107

> <Gold.Chemscore.Metal.Weighted>
-0.0000

> <Gold.Chemscore.Lipo.Weighted>
-11.5515

> <Gold.Chemscore.Internal_Hbond.Weighted>
0.0000

> <Gold.Chemscore.DEClash.Weighted>
0.1003

> <Gold.Chemscore.DEInternal.Weighted>
1.8442

> <Gold.Chemscore.Rot.Weighted>
4.1266

> <Gold.Chemscore.Internal.Correction.Weighted>
   9.000000E+99

> <Gold.Protein.RotatedTorsions>
[ 6907 6896 6895 6894 ] final  -24.04 input  -60.11 | X-H torsion
[ 7974 7965 7964 7962 ] final -128.02 input  175.53 | X-H torsion
[ 8008 7997 7996 7995 ] final  -31.11 input   59.86 | X-H torsion
[ 10167 10162 10161 10158 ] final  174.69 input  -65.29 | X-H torsion
[ 10718 10713 10712 10709 ] final   -5.25 input   66.30 | X-H torsion
[ 10763 10752 10751 10750 ] final   72.32 input  -60.55 | X-H torsion
[ 11005 11000 10999 10996 ] final  -86.39 input  -57.11 | X-H torsion

> <Gold.Protein.ActiveResidues>
 VAL166  LYS551  ARG553  GLY616  TRP617  ASP618  TYR619  PRO620  LYS621  CYS622 
 ASP623  PHE694  ASN695  SER759  ASP760  ASP761  ALA762  ILE779  LEU786  VAL792 
 PHE793  MET794  SER795  GLU796  ALA797  LYS798  CYS799  TRP800  GLU811  SER814 

> <Gold.Protein.RotatedAtoms>
  151.1952  135.0419  159.8849 H   0  0  0  0  0  0  0  0  0  0  0  0  # atno 6907 bound_to 6896
  152.5436  134.0911  159.8287 H   0  0  0  0  0  0  0  0  0  0  0  0  # atno 6908 bound_to 6896
  151.1045  133.5171  159.2640 H   0  0  0  0  0  0  0  0  0  0  0  0  # atno 6909 bound_to 6896
  144.9713  140.7548  143.4669 H   0  0  0  0  0  0  0  0  0  0  0  0  # atno 7974 bound_to 7965
  154.4225  140.1773  156.1514 H   0  0  0  0  0  0  0  0  0  0  0  0  # atno 8008 bound_to 7997
  155.9912  140.3369  155.6730 H   0  0  0  0  0  0  0  0  0  0  0  0  # atno 8009 bound_to 7997
  155.6370  140.0676  157.2621 H   0  0  0  0  0  0  0  0  0  0  0  0  # atno 8010 bound_to 7997
  139.5151  144.3117  152.0285 H   0  0  0  0  0  0  0  0  0  0  0  0  # atno 10167 bound_to 10162
  156.7494  130.5234  149.5807 H   0  0  0  0  0  0  0  0  0  0  0  0  # atno 10718 bound_to 10713
  153.0452  135.5104  154.7726 H   0  0  0  0  0  0  0  0  0  0  0  0  # atno 10763 bound_to 10752
  154.6632  135.2942  154.9841 H   0  0  0  0  0  0  0  0  0  0  0  0  # atno 10764 bound_to 10752
  154.0685  135.6681  153.4873 H   0  0  0  0  0  0  0  0  0  0  0  0  # atno 10765 bound_to 10752
  141.1630  133.7452  156.9155 H   0  0  0  0  0  0  0  0  0  0  0  0  # atno 11005 bound_to 11000
  145.2555  139.2014  143.4919 LP  0  0  0  0  0  0  0  0  0  0  0  0  # atno 17320 bound_to 7965
  146.3383  140.2476  142.8597 LP  0  0  0  0  0  0  0  0  0  0  0  0  # atno 17321 bound_to 7965
  140.2562  144.4116  150.6203 LP  0  0  0  0  0  0  0  0  0  0  0  0  # atno 17342 bound_to 10162
  140.6190  143.2174  151.6733 LP  0  0  0  0  0  0  0  0  0  0  0  0  # atno 17343 bound_to 10162
  156.1411  130.6245  151.0469 LP  0  0  0  0  0  0  0  0  0  0  0  0  # atno 17370 bound_to 10713
  157.6784  131.0844  150.7435 LP  0  0  0  0  0  0  0  0  0  0  0  0  # atno 17371 bound_to 10713
  140.1487  134.9244  157.2564 LP  0  0  0  0  0  0  0  0  0  0  0  0  # atno 17394 bound_to 11000
  140.2748  134.3418  155.7362 LP  0  0  0  0  0  0  0  0  0  0  0  0  # atno 17395 bound_to 11000

$$$$
