#       Name:                AV-unprocessed.smi:1042
#       Creating user name   scv26
#       Creation time:       Fri Mar 27 02:56:29 2020


#       File generated by GOLD software.
#

@<TRIPOS>MOLECULE
AV-unprocessed.smi:1042
    43    45     1
SMALL
NO_CHARGES


@<TRIPOS>ATOM
      1 ****        -0.4922   1.1535   2.2576 O.2            1 S1                 0.0000
      2 ****        -1.0030   0.0733   1.9608 C.2            1 S1                 0.0000
      3 ****        -0.2889  -1.0283   1.6863 N.am           1 S1                 0.0000
      4 ****         1.1685  -1.1104   1.7058 C.3            1 S1                 0.0000
      5 ****         1.8154  -0.3915   0.5050 C.3            1 S1                 0.0000
      6 ****         3.3351  -0.5112   0.4515 C.3            1 S1                 0.0000
      7 ****         3.6419  -0.1484  -0.9993 C.3            1 S1                 0.0000
      8 ****         2.5198  -0.6973  -1.7920 N.4            1 S1                 1.0000
      9 ****         2.1878   0.1017  -2.9911 C.3            1 S1                 0.0000
     10 ****         1.6115  -0.7173  -4.1214 C.3            1 S1                 0.0000
     11 ****         3.0414  -0.2270  -4.1925 C.3            1 S1                 0.0000
     12 ****         1.3771  -0.9096  -0.8725 C.3            1 S1                 0.0000
     13 ****        -2.3232  -0.1644   1.8663 N.am           1 S1                 0.0000
     14 ****        -3.3940   0.7534   2.0378 C.ar           1 S1                 0.0000
     15 ****        -4.6866   0.1971   1.9071 C.ar           1 S1                 0.0000
     16 ****        -5.8157   1.0261   2.0549 C.ar           1 S1                 0.0000
     17 ****        -5.6228   2.3919   2.3290 C.ar           1 S1                 0.0000
     18 ****        -4.3028   2.8651   2.4428 C.ar           1 S1                 0.0000
     19 ****        -3.2192   2.0726   2.3008 N.ar           1 S1                 0.0000
     20 ****        -0.7900  -1.8751   1.4599 H              1 S1                 0.0000
     21 ****         1.5461  -0.6955   2.6418 H              1 S1                 0.0000
     22 ****         1.4449  -2.1652   1.7036 H              1 S1                 0.0000
     23 ****         1.5766   0.6722   0.5542 H              1 S1                 0.0000
     24 ****         3.8375   0.1419   1.1658 H              1 S1                 0.0000
     25 ****         3.6452  -1.5376   0.6539 H              1 S1                 0.0000
     26 ****         3.6718   0.9379  -1.1012 H              1 S1                 0.0000
     27 ****         4.6011  -0.5423  -1.3370 H              1 S1                 0.0000
     28 ****         1.8442   1.1200  -2.8166 H              1 S1                 0.0000
     29 ****         1.4526  -1.7818  -3.9584 H              1 S1                 0.0000
     30 ****         0.8864  -0.2336  -4.7730 H              1 S1                 0.0000
     31 ****         3.2574   0.5788  -4.8911 H              1 S1                 0.0000
     32 ****         3.8325  -0.9655  -4.0758 H              1 S1                 0.0000
     33 ****         1.1728  -1.9803  -0.8370 H              1 S1                 0.0000
     34 ****         0.4664  -0.4136  -1.2125 H              1 S1                 0.0000
     35 ****        -2.5951  -1.1085   1.6355 H              1 S1                 0.0000
     36 ****        -4.8175  -0.8546   1.6966 H              1 S1                 0.0000
     37 ****        -6.8120   0.6202   1.9593 H              1 S1                 0.0000
     38 ****        -6.4636   3.0591   2.4491 H              1 S1                 0.0000
     39 ****        -4.1111   3.9070   2.6528 H              1 S1                 0.0000
     40 ****         2.8033  -1.6135  -2.1086 H              1 S1                 0.0000
     41 ****         0.5030   1.2403   2.3033 LP             1 S1                 0.0000
     42 ****        -1.0725   1.9441   2.4531 LP             1 S1                 0.0000
     43 ****        -2.2987   2.4535   2.3885 LP             1 S1                 0.0000
@<TRIPOS>BOND
    1    1    2 2     
    2    2    3 am    
    3    2   13 am    
    4    3    4 1     
    5    3   20 1     
    6    4    5 1     
    7    4   21 1     
    8    4   22 1     
    9    5   12 1     
   10    5    6 1     
   11    5   23 1     
   12    6    7 1     
   13    6   24 1     
   14    6   25 1     
   15    7    8 1     
   16    7   26 1     
   17    7   27 1     
   18    8    9 1     
   19    8   12 1     
   20    8   40 1     
   21    9   11 1     
   22    9   10 1     
   23    9   28 1     
   24   10   11 1     
   25   10   29 1     
   26   10   30 1     
   27   11   31 1     
   28   11   32 1     
   29   12   33 1     
   30   12   34 1     
   31   13   14 1     
   32   13   35 1     
   33   14   19 ar    
   34   14   15 ar    
   35   15   16 ar    
   36   15   36 1     
   37   16   17 ar    
   38   16   37 1     
   39   17   18 ar    
   40   17   38 1     
   41   18   19 ar    
   42   18   39 1     
   43    1   41 1     
   44    1   42 1     
   45   19   43 1     
@<TRIPOS>SUBSTRUCTURE
      1 S1             1
@<TRIPOS>SET
LONE_PAIRS      STATIC     ATOMS    <user>   **** ""
3 41 42 43
DONOR_HYDROGENS      STATIC     ATOMS    <user>   **** ""
3 20 40 35
ATOM$BLUE        STATIC     ATOMS    COLORGROUP SYSTEM
3 41 42 43
ATOM$RED        STATIC     ATOMS    COLORGROUP SYSTEM
3 20 40 35
