AV-unprocessed.smi:3056|AV-procd|sdf|11650|dock2
  -GOLD-   2272017 43D 1   1.00000     0.00000
 Structure written by MMmdl.
 48 49  0  0  0  0  0  0  0  0  2 V2000
  145.2758  132.0668  149.9042 C   0  0  0  0  0  0  0  0  0  0  0  0
  144.9879  133.1215  150.9335 C   0  0  0  0  0  0  0  0  0  0  0  0
  145.8965  133.7192  151.8518 C   0  0  0  0  0  0  0  0  0  0  0  0
  145.3190  134.6134  152.6375 N   0  0  0  0  0  0  0  0  0  0  0  0
  144.0275  134.6331  152.2410 N   0  0  0  0  0  0  0  0  0  0  0  0
  143.0765  135.4976  152.9301 C   0  0  1  0  0  0  0  0  0  0  0  0
  142.9650  135.0746  154.4077 C   0  0  0  0  0  0  0  0  0  0  0  0
  143.4352  136.9977  152.7402 C   0  0  2  0  0  0  0  0  0  0  0  0
  144.8325  137.3405  153.2848 C   0  0  0  0  0  0  0  0  0  0  0  0
  142.4454  137.8692  153.4216 N   0  3  0  0  0  0  0  0  0  0  0  0
  141.0404  137.7396  152.9672 C   0  0  0  0  0  0  0  0  0  0  0  0
  140.1184  137.0660  153.9975 C   0  0  0  0  0  0  0  0  0  0  0  0
  140.2606  135.8640  154.2281 O   0  0  0  0  0  0  0  0  0  0  0  0
  139.1709  137.8125  154.6134 N   0  0  0  0  0  0  0  0  0  0  0  0
  138.8818  139.2263  154.3547 C   0  0  0  0  0  0  0  0  0  0  0  0
  137.4786  139.3204  153.7307 C   0  0  0  0  0  0  0  0  0  0  0  0
  136.5226  138.7301  154.6089 O   0  0  0  0  0  0  0  0  0  0  0  0
  136.7940  137.3617  154.9108 C   0  0  2  0  0  0  0  0  0  0  0  0
  135.6887  136.8458  155.8384 C   0  0  0  0  0  0  0  0  0  0  0  0
  138.1929  137.2546  155.5513 C   0  0  0  0  0  0  0  0  0  0  0  0
  143.7999  133.7322  151.2191 C   0  0  0  0  0  0  0  0  0  0  0  0
  146.3467  131.9215  149.7607 H   0  0  0  0  0  0  0  0  0  0  0  0
  144.8549  132.3265  148.9327 H   0  0  0  0  0  0  0  0  0  0  0  0
  144.8564  131.1020  150.1897 H   0  0  0  0  0  0  0  0  0  0  0  0
  146.9521  133.5256  151.9747 H   0  0  0  0  0  0  0  0  0  0  0  0
  142.0967  135.3257  152.4801 H   0  0  0  0  0  0  0  0  0  0  0  0
  142.1259  135.5616  154.9038 H   0  0  0  0  0  0  0  0  0  0  0  0
  143.8691  135.3185  154.9660 H   0  0  0  0  0  0  0  0  0  0  0  0
  142.8002  133.9998  154.4946 H   0  0  0  0  0  0  0  0  0  0  0  0
  143.4392  137.2286  151.6736 H   0  0  0  0  0  0  0  0  0  0  0  0
  145.6192  136.8246  152.7348 H   0  0  0  0  0  0  0  0  0  0  0  0
  144.9266  137.0726  154.3379 H   0  0  0  0  0  0  0  0  0  0  0  0
  145.0362  138.4080  153.1957 H   0  0  0  0  0  0  0  0  0  0  0  0
  142.4843  137.6621  154.4096 H   0  0  0  0  0  0  0  0  0  0  0  0
  140.6437  138.7152  152.6895 H   0  0  0  0  0  0  0  0  0  0  0  0
  141.0495  137.1254  152.0664 H   0  0  0  0  0  0  0  0  0  0  0  0
  138.9090  139.7768  155.2964 H   0  0  0  0  0  0  0  0  0  0  0  0
  139.6051  139.7164  153.7053 H   0  0  0  0  0  0  0  0  0  0  0  0
  137.2080  140.3631  153.5639 H   0  0  0  0  0  0  0  0  0  0  0  0
  137.4509  138.8229  152.7599 H   0  0  0  0  0  0  0  0  0  0  0  0
  136.7697  136.7834  153.9854 H   0  0  0  0  0  0  0  0  0  0  0  0
  135.8487  135.7982  156.0947 H   0  0  0  0  0  0  0  0  0  0  0  0
  134.7115  136.9252  155.3616 H   0  0  0  0  0  0  0  0  0  0  0  0
  135.6539  137.4166  156.7668 H   0  0  0  0  0  0  0  0  0  0  0  0
  138.4033  136.2171  155.8144 H   0  0  0  0  0  0  0  0  0  0  0  0
  138.2275  137.8151  156.4869 H   0  0  0  0  0  0  0  0  0  0  0  0
  142.8200  133.5960  150.7855 H   0  0  0  0  0  0  0  0  0  0  0  0
  142.7192  138.8318  153.2852 H   0  0  0  0  0  0  0  0  0  0  0  0
  1  2  1  0  0  0  0
  1 22  1  0  0  0  0
  1 23  1  0  0  0  0
  1 24  1  0  0  0  0
  2 21  2  0  0  0  0
  2  3  1  0  0  0  0
  3  4  2  0  0  0  0
  3 25  1  0  0  0  0
  4  5  1  0  0  0  0
  5  6  1  0  0  0  0
  5 21  1  0  0  0  0
  6  7  1  0  0  0  0
  6  8  1  0  0  0  0
  6 26  1  0  0  0  0
  7 27  1  0  0  0  0
  7 28  1  0  0  0  0
  7 29  1  0  0  0  0
  8  9  1  0  0  0  0
  8 10  1  0  0  0  0
  8 30  1  0  0  0  0
  9 31  1  0  0  0  0
  9 32  1  0  0  0  0
  9 33  1  0  0  0  0
 10 11  1  0  0  0  0
 10 34  1  0  0  0  0
 10 48  1  0  0  0  0
 11 12  1  0  0  0  0
 11 35  1  0  0  0  0
 11 36  1  0  0  0  0
 12 13  2  0  0  0  0
 12 14  1  0  0  0  0
 14 20  1  0  0  0  0
 14 15  1  0  0  0  0
 15 16  1  0  0  0  0
 15 37  1  0  0  0  0
 15 38  1  0  0  0  0
 16 17  1  0  0  0  0
 16 39  1  0  0  0  0
 16 40  1  0  0  0  0
 17 18  1  0  0  0  0
 18 19  1  0  0  0  0
 18 20  1  0  0  0  0
 18 41  1  0  0  0  0
 19 42  1  0  0  0  0
 19 43  1  0  0  0  0
 19 44  1  0  0  0  0
 20 45  1  0  0  0  0
 20 46  1  0  0  0  0
 21 47  1  0  0  0  0
M  CHG  1  10   1
M  END
> <s_m_source_file>
AV-unprocessed.smi

> <i_m_source_file_index>
3056

> <i_lp_mmshare_version>
43012

> <i_f3d_flags>
0

> <s_epik_input>
W0NIM11jMVtjSF1ubihbY0hdMSlbQ0BIXShbQ0gzXSlbQ0BIXShbQ0gzXSlbTkhdW0NIMl1DKD1PKU4yW0NIMl1bQ0gyXU9bQ0BASF0oW0NIM10pW0NIMl0y

> <s_epik_cmdline>
J2VwaWtfcHl0aG9uJywgJy1waCcsICc3LjAnLCAnLXRuJywgJzgnLCAnLW1hJywgJzIwMCcsICctbWV0YWxfYmluZGluZycsICctaW1hZScsICc8aW5maWxlLm1hZT4nLCAnLW9tYWUnLCAnPG91dGZpbGUubWFlPic=

> <r_lp_tautomer_probability>
1

> <r_epik_Ionization_Penalty>
0.233715

> <r_epik_Ionization_Penalty_Charging>
0.233698

> <r_epik_Ionization_Penalty_Neutral>
1.68157e-05

> <r_epik_State_Penalty>
0.225221

> <r_epik_Charging_Adjusted_Penalty>
0.458919

> <i_epik_Tot_Q>
1

> <i_epik_Tot_abs_Q>
1

> <r_epik_Metal_State_Penalty>
0.225535

> <b_epik_Metal_Only>
0

> <s_lp_Force_Field>
OPLS_2005

> <r_lp_Energy>
28.2676

> <b_lp_Chiralities_Consistent>
1

> <s_lp_Variant>
AV-unprocessed.smi:3056-6

> <Gold.Version>
5.8.1

> <Gold.Id.Protein>
6NUR|6NUR_protein|mol2

> <Gold.PLP.Fitness>
45.0719

> <Gold.PLP.PLP>
-33.7983

> <Gold.PLP.part.hbond>
-2.0000

> <Gold.PLP.part.metal>
0.0000

> <Gold.PLP.part.buried>
-7.5499

> <Gold.PLP.part.nonpolar>
-25.9410

> <Gold.PLP.part.repulsive>
0.1822

> <Gold.PLP.ligand.clash>
0.0000

> <Gold.PLP.ligand.torsion>
0.4784

> <Gold.PLP.Chemscore.Hbond>
3.0000

> <Gold.PLP.Chemscore.CHOScore>
1.0000

> <Gold.PLP.Chemscore.Metal>
0.0000

> <Gold.Chemscore.Hbonds>
donor molecule, donor type, donor heavy atom, donor atom, acceptor molecule, acceptor atom, score
      L1  H    10    48       P1 10175  2.00
      P1  H 11000 11005       L1    13  0.84
      L1  C    21    47       P1 10186  1.00

> <Gold.PLP.Chemscore.Internal.Correction>
0.2304

> <Gold.Rescore>
     Score         DG    S(hbond)    S(metal)    S(lipo)     H(rot)  DE(clash)    DE(int)     intcor
     14.89     -16.38       1.88        0.00      77.50       1.74       0.08       1.41       ----

> <Gold.Chemscore.Fitness>
14.8903

> <Gold.Chemscore.DG>
-16.3802

> <Gold.Chemscore.ZeroCoef>
-5.4800

> <Gold.Chemscore.Hbond>
1.8790

> <Gold.Chemscore.Metal>
0.0000

> <Gold.Chemscore.Lipo>
77.4954

> <Gold.Chemscore.Internal_Hbond>
0.0000

> <Gold.Chemscore.DEClash>
0.0801

> <Gold.Chemscore.DEInternal>
1.4098

> <Gold.Chemscore.Rot>
1.7354

> <Gold.Chemscore.Internal.Correction>
   9.000000E+99

> <Gold.Chemscore.Hbonds>
donor molecule, donor type, donor heavy atom, donor atom, acceptor molecule, acceptor atom, score
      L1  H    10    48       P1 10175  0.95
      P1  H 11000 11005       L1    13  0.80

> <Gold.Chemscore.Hbond.Weighted>
-6.2758

> <Gold.Chemscore.Metal.Weighted>
-0.0000

> <Gold.Chemscore.Lipo.Weighted>
-9.0670

> <Gold.Chemscore.Internal_Hbond.Weighted>
0.0000

> <Gold.Chemscore.DEClash.Weighted>
0.0801

> <Gold.Chemscore.DEInternal.Weighted>
1.4098

> <Gold.Chemscore.Rot.Weighted>
4.4426

> <Gold.Chemscore.Internal.Correction.Weighted>
   9.000000E+99

> <Gold.Protein.RotatedTorsions>
[ 6907 6896 6895 6894 ] final  -37.65 input  -60.11 | X-H torsion
[ 7974 7965 7964 7962 ] final  161.95 input  175.53 | X-H torsion
[ 8008 7997 7996 7995 ] final  128.46 input   59.86 | X-H torsion
[ 10167 10162 10161 10158 ] final -118.89 input  -65.29 | X-H torsion
[ 10718 10713 10712 10709 ] final   74.23 input   66.30 | X-H torsion
[ 10763 10752 10751 10750 ] final  172.72 input  -60.55 | X-H torsion
[ 11005 11000 10999 10996 ] final   64.66 input  -57.11 | X-H torsion

> <Gold.Protein.ActiveResidues>
 VAL166  LYS551  ARG553  GLY616  TRP617  ASP618  TYR619  PRO620  LYS621  CYS622 
 ASP623  PHE694  ASN695  SER759  ASP760  ASP761  ALA762  ILE779  LEU786  VAL792 
 PHE793  MET794  SER795  GLU796  ALA797  LYS798  CYS799  TRP800  GLU811  SER814 

> <Gold.Protein.RotatedAtoms>
  151.0121  134.9404  159.8012 H   0  0  0  0  0  0  0  0  0  0  0  0  # atno 6907 bound_to 6896
  152.5305  134.3015  159.9090 H   0  0  0  0  0  0  0  0  0  0  0  0  # atno 6908 bound_to 6896
  151.3021  133.4076  159.2675 H   0  0  0  0  0  0  0  0  0  0  0  0  # atno 6909 bound_to 6896
  144.7660  139.7971  143.6315 H   0  0  0  0  0  0  0  0  0  0  0  0  # atno 7974 bound_to 7965
  156.2915  140.2644  156.2440 H   0  0  0  0  0  0  0  0  0  0  0  0  # atno 8008 bound_to 7997
  154.9949  140.0388  157.2353 H   0  0  0  0  0  0  0  0  0  0  0  0  # atno 8009 bound_to 7997
  154.7653  140.2768  155.6186 H   0  0  0  0  0  0  0  0  0  0  0  0  # atno 8010 bound_to 7997
  140.0526  143.5045  152.2074 H   0  0  0  0  0  0  0  0  0  0  0  0  # atno 10167 bound_to 10162
  157.6583  130.9667  150.1182 H   0  0  0  0  0  0  0  0  0  0  0  0  # atno 10718 bound_to 10713
  154.4301  135.2759  155.1918 H   0  0  0  0  0  0  0  0  0  0  0  0  # atno 10763 bound_to 10752
  154.3828  135.6084  153.5804 H   0  0  0  0  0  0  0  0  0  0  0  0  # atno 10764 bound_to 10752
  152.9836  135.5884  154.4611 H   0  0  0  0  0  0  0  0  0  0  0  0  # atno 10765 bound_to 10752
  139.9944  134.6540  156.0035 H   0  0  0  0  0  0  0  0  0  0  0  0  # atno 11005 bound_to 11000
  146.1768  139.4942  142.9892 LP  0  0  0  0  0  0  0  0  0  0  0  0  # atno 17320 bound_to 7965
  145.6468  141.0272  143.1781 LP  0  0  0  0  0  0  0  0  0  0  0  0  # atno 17321 bound_to 7965
  139.5944  144.7561  151.3323 LP  0  0  0  0  0  0  0  0  0  0  0  0  # atno 17342 bound_to 10162
  140.7210  143.7136  150.7750 LP  0  0  0  0  0  0  0  0  0  0  0  0  # atno 17343 bound_to 10162
  156.2060  130.3663  149.8729 LP  0  0  0  0  0  0  0  0  0  0  0  0  # atno 17370 bound_to 10713
  156.6620  130.8786  151.3549 LP  0  0  0  0  0  0  0  0  0  0  0  0  # atno 17371 bound_to 10713
  141.1592  133.6540  156.4263 LP  0  0  0  0  0  0  0  0  0  0  0  0  # atno 17394 bound_to 11000
  140.4846  134.6632  157.5185 LP  0  0  0  0  0  0  0  0  0  0  0  0  # atno 17395 bound_to 11000

$$$$
