AV-unprocessed.smi:2074|AV-procd|sdf|8453|dock8
  -GOLD-   2272011153D 1   1.00000     0.00000
 Structure written by MMmdl.
 43 44  0  0  0  0  0  0  0  0  1 V2000
  148.0486  140.7708  154.1359 C   0  0  0  0  0  0  0  0  0  0  0  0
  149.1535  139.8042  154.4516 C   0  0  0  0  0  0  0  0  0  0  0  0
  150.4125  140.1606  154.2586 N   0  0  0  0  0  0  0  0  0  0  0  0
  151.1844  139.0568  154.6348 O   0  0  0  0  0  0  0  0  0  0  0  0
  150.3495  138.0681  155.0440 C   0  0  0  0  0  0  0  0  0  0  0  0
  150.9877  136.7938  155.4820 C   0  0  0  0  0  0  0  0  0  0  0  0
  149.0472  138.4773  154.9578 C   0  0  0  0  0  0  0  0  0  0  0  0
  147.7919  137.7156  155.3068 C   0  0  0  0  0  0  0  0  0  0  0  0
  146.8958  137.4953  154.0815 C   0  0  0  0  0  0  0  0  0  0  0  0
  146.4068  138.4435  153.4653 O   0  0  0  0  0  0  0  0  0  0  0  0
  146.6922  136.2155  153.7349 N   0  0  0  0  0  0  0  0  0  0  0  0
  145.8949  135.7690  152.5955 C   0  0  0  0  0  0  0  0  0  0  0  0
  146.4092  134.4453  151.9568 C   0  0  1  0  0  0  0  0  0  0  0  0
  146.8484  133.4801  153.0874 C   0  0  0  0  0  0  0  0  0  0  0  0
  145.4361  133.8300  151.0240 N   0  0  0  0  0  0  0  0  0  0  0  0
  144.2703  133.2682  151.7165 C   0  0  0  0  0  0  0  0  0  0  0  0
  143.2678  132.6025  150.7580 C   0  0  0  0  0  0  0  0  0  0  0  0
  143.9234  131.5883  150.0099 O   0  0  0  0  0  0  0  0  0  0  0  0
  145.0145  132.1021  149.2590 C   0  0  0  0  0  0  0  0  0  0  0  0
  146.0299  132.7667  150.2047 C   0  0  0  0  0  0  0  0  0  0  0  0
  147.3647  140.3502  153.3982 H   0  0  0  0  0  0  0  0  0  0  0  0
  148.4326  141.7093  153.7346 H   0  0  0  0  0  0  0  0  0  0  0  0
  147.4698  141.0048  155.0292 H   0  0  0  0  0  0  0  0  0  0  0  0
  150.2850  135.9630  155.4156 H   0  0  0  0  0  0  0  0  0  0  0  0
  151.3284  136.8683  156.5147 H   0  0  0  0  0  0  0  0  0  0  0  0
  151.8483  136.5557  154.8568 H   0  0  0  0  0  0  0  0  0  0  0  0
  148.0351  136.7424  155.7348 H   0  0  0  0  0  0  0  0  0  0  0  0
  147.2134  138.2431  156.0658 H   0  0  0  0  0  0  0  0  0  0  0  0
  147.1284  135.4973  154.2947 H   0  0  0  0  0  0  0  0  0  0  0  0
  144.8658  135.6413  152.9327 H   0  0  0  0  0  0  0  0  0  0  0  0
  145.8838  136.5909  151.8809 H   0  0  0  0  0  0  0  0  0  0  0  0
  147.3058  134.6916  151.3858 H   0  0  0  0  0  0  0  0  0  0  0  0
  147.5249  133.9516  153.7995 H   0  0  0  0  0  0  0  0  0  0  0  0
  147.3972  132.6202  152.7058 H   0  0  0  0  0  0  0  0  0  0  0  0
  145.9884  133.1115  153.6473 H   0  0  0  0  0  0  0  0  0  0  0  0
  144.5974  132.5404  152.4606 H   0  0  0  0  0  0  0  0  0  0  0  0
  143.7290  134.0466  152.2513 H   0  0  0  0  0  0  0  0  0  0  0  0
  142.4474  132.1558  151.3196 H   0  0  0  0  0  0  0  0  0  0  0  0
  142.8297  133.3392  150.0830 H   0  0  0  0  0  0  0  0  0  0  0  0
  145.4855  131.2850  148.7125 H   0  0  0  0  0  0  0  0  0  0  0  0
  144.6524  132.8158  148.5172 H   0  0  0  0  0  0  0  0  0  0  0  0
  146.8285  133.1607  149.5797 H   0  0  0  0  0  0  0  0  0  0  0  0
  146.4754  132.0076  150.8493 H   0  0  0  0  0  0  0  0  0  0  0  0
  1  2  1  0  0  0  0
  1 21  1  0  0  0  0
  1 22  1  0  0  0  0
  1 23  1  0  0  0  0
  2  7  1  0  0  0  0
  2  3  2  0  0  0  0
  3  4  1  0  0  0  0
  4  5  1  0  0  0  0
  5  6  1  0  0  0  0
  5  7  2  0  0  0  0
  6 24  1  0  0  0  0
  6 25  1  0  0  0  0
  6 26  1  0  0  0  0
  7  8  1  0  0  0  0
  8  9  1  0  0  0  0
  8 27  1  0  0  0  0
  8 28  1  0  0  0  0
  9 10  2  0  0  0  0
  9 11  1  0  0  0  0
 11 12  1  0  0  0  0
 11 29  1  0  0  0  0
 12 13  1  0  0  0  0
 12 30  1  0  0  0  0
 12 31  1  0  0  0  0
 13 14  1  0  0  0  0
 13 15  1  0  0  0  0
 13 32  1  0  0  0  0
 14 33  1  0  0  0  0
 14 34  1  0  0  0  0
 14 35  1  0  0  0  0
 15 20  1  0  0  0  0
 15 16  1  0  0  0  0
 16 17  1  0  0  0  0
 16 36  1  0  0  0  0
 16 37  1  0  0  0  0
 17 18  1  0  0  0  0
 17 38  1  0  0  0  0
 17 39  1  0  0  0  0
 18 19  1  0  0  0  0
 19 20  1  0  0  0  0
 19 40  1  0  0  0  0
 19 41  1  0  0  0  0
 20 42  1  0  0  0  0
 20 43  1  0  0  0  0
M  END
> <s_m_source_file>
AV-unprocessed.smi

> <i_m_source_file_index>
2074

> <i_lp_mmshare_version>
43012

> <i_f3d_flags>
0

> <s_epik_input>
W0NIM11jMW5vYyhbQ0gzXSljMVtDSDJdQyg9TylbTkhdW0NIMl1bQ0BIXShbQ0gzXSlOMltDSDJdW0NIMl1PW0NIMl1bQ0gyXTI=

> <s_epik_cmdline>
J2VwaWtfcHl0aG9uJywgJy1waCcsICc3LjAnLCAnLXRuJywgJzgnLCAnLW1hJywgJzIwMCcsICctbWV0YWxfYmluZGluZycsICctaW1hZScsICc8aW5maWxlLm1hZT4nLCAnLW9tYWUnLCAnPG91dGZpbGUubWFlPic=

> <r_epik_Ionization_Penalty>
0.234179

> <r_epik_Ionization_Penalty_Charging>
0

> <r_epik_Ionization_Penalty_Neutral>
0.234179

> <r_epik_State_Penalty>
0.224936

> <r_epik_Charging_Adjusted_Penalty>
0.224936

> <i_epik_Tot_Q>
0

> <i_epik_Tot_abs_Q>
0

> <r_epik_Metal_State_Penalty>
0.224936

> <b_epik_Metal_Only>
0

> <s_lp_Force_Field>
OPLS_2005

> <r_lp_Energy>
23.5804

> <b_lp_Chiralities_Consistent>
1

> <s_lp_Variant>
AV-unprocessed.smi:2074-2

> <Gold.Version>
5.8.1

> <Gold.Id.Protein>
6NUR|6NUR_protein|mol2

> <Gold.PLP.Fitness>
31.9220

> <Gold.PLP.PLP>
-27.3957

> <Gold.PLP.part.hbond>
-3.3472

> <Gold.PLP.part.metal>
0.0000

> <Gold.PLP.part.buried>
-2.8237

> <Gold.PLP.part.nonpolar>
-23.1493

> <Gold.PLP.part.repulsive>
0.7563

> <Gold.PLP.ligand.clash>
0.0000

> <Gold.PLP.ligand.torsion>
0.4375

> <Gold.PLP.Chemscore.Hbond>
1.7800

> <Gold.PLP.Chemscore.CHOScore>
0.0000

> <Gold.PLP.Chemscore.Metal>
0.0000

> <Gold.Chemscore.Hbonds>
donor molecule, donor type, donor heavy atom, donor atom, acceptor molecule, acceptor atom, score
      P1  H  7989  7998       L1     3  0.70
      P1  H 10785 10796       L1    18  0.72

> <Gold.PLP.Chemscore.Internal.Correction>
0.0612

> <Gold.Rescore>
     Score         DG    S(hbond)    S(metal)    S(lipo)     H(rot)  DE(clash)    DE(int)     intcor
     13.22     -15.45       1.55        0.00      78.52       1.72       0.59       1.64       ----

> <Gold.Chemscore.Fitness>
13.2203

> <Gold.Chemscore.DG>
-15.4532

> <Gold.Chemscore.ZeroCoef>
-5.4800

> <Gold.Chemscore.Hbond>
1.5532

> <Gold.Chemscore.Metal>
0.0000

> <Gold.Chemscore.Lipo>
78.5234

> <Gold.Chemscore.Internal_Hbond>
0.0000

> <Gold.Chemscore.DEClash>
0.5889

> <Gold.Chemscore.DEInternal>
1.6440

> <Gold.Chemscore.Rot>
1.7195

> <Gold.Chemscore.Internal.Correction>
   9.000000E+99

> <Gold.Chemscore.Hbonds>
donor molecule, donor type, donor heavy atom, donor atom, acceptor molecule, acceptor atom, score
      P1  H  7989  7998       L1     3  0.07
      P1  H 10785 10796       L1    18  0.20

> <Gold.Chemscore.Hbond.Weighted>
-5.1878

> <Gold.Chemscore.Metal.Weighted>
-0.0000

> <Gold.Chemscore.Lipo.Weighted>
-9.1872

> <Gold.Chemscore.Internal_Hbond.Weighted>
0.0000

> <Gold.Chemscore.DEClash.Weighted>
0.5889

> <Gold.Chemscore.DEInternal.Weighted>
1.6440

> <Gold.Chemscore.Rot.Weighted>
4.4018

> <Gold.Chemscore.Internal.Correction.Weighted>
   9.000000E+99

> <Gold.Protein.RotatedTorsions>
[ 6907 6896 6895 6894 ] final   95.16 input  -60.11 | X-H torsion
[ 7974 7965 7964 7962 ] final  174.90 input  175.53 | X-H torsion
[ 8008 7997 7996 7995 ] final  -59.00 input   59.86 | X-H torsion
[ 10167 10162 10161 10158 ] final  103.38 input  -65.29 | X-H torsion
[ 10718 10713 10712 10709 ] final -179.25 input   66.30 | X-H torsion
[ 10763 10752 10751 10750 ] final  106.34 input  -60.55 | X-H torsion
[ 11005 11000 10999 10996 ] final   31.07 input  -57.11 | X-H torsion

> <Gold.Protein.ActiveResidues>
 VAL166  LYS551  ARG553  GLY616  TRP617  ASP618  TYR619  PRO620  LYS621  CYS622 
 ASP623  PHE694  ASN695  SER759  ASP760  ASP761  ALA762  ILE779  LEU786  VAL792 
 PHE793  MET794  SER795  GLU796  ALA797  LYS798  CYS799  TRP800  GLU811  SER814 

> <Gold.Protein.RotatedAtoms>
  152.5445  134.1082  159.8346 H   0  0  0  0  0  0  0  0  0  0  0  0  # atno 6907 bound_to 6896
  151.1151  133.5137  159.2611 H   0  0  0  0  0  0  0  0  0  0  0  0  # atno 6908 bound_to 6896
  151.1840  135.0383  159.8859 H   0  0  0  0  0  0  0  0  0  0  0  0  # atno 6909 bound_to 6896
  144.7212  139.9866  143.6439 H   0  0  0  0  0  0  0  0  0  0  0  0  # atno 7974 bound_to 7965
  154.4333  140.1071  156.6047 H   0  0  0  0  0  0  0  0  0  0  0  0  # atno 8008 bound_to 7997
  155.5874  140.3491  155.4538 H   0  0  0  0  0  0  0  0  0  0  0  0  # atno 8009 bound_to 7997
  156.0273  140.1252  157.0285 H   0  0  0  0  0  0  0  0  0  0  0  0  # atno 8010 bound_to 7997
  139.7268  144.7045  151.0785 H   0  0  0  0  0  0  0  0  0  0  0  0  # atno 10167 bound_to 10162
  156.8563  130.9736  151.3087 H   0  0  0  0  0  0  0  0  0  0  0  0  # atno 10718 bound_to 10713
  153.3916  135.3880  155.1927 H   0  0  0  0  0  0  0  0  0  0  0  0  # atno 10763 bound_to 10752
  154.8720  135.3750  154.4730 H   0  0  0  0  0  0  0  0  0  0  0  0  # atno 10764 bound_to 10752
  153.5218  135.7086  153.5789 H   0  0  0  0  0  0  0  0  0  0  0  0  # atno 10765 bound_to 10752
  140.2877  134.2899  155.7784 H   0  0  0  0  0  0  0  0  0  0  0  0  # atno 11005 bound_to 11000
  146.0445  139.3453  143.0677 LP  0  0  0  0  0  0  0  0  0  0  0  0  # atno 17320 bound_to 7965
  145.8293  140.9639  143.0857 LP  0  0  0  0  0  0  0  0  0  0  0  0  # atno 17321 bound_to 7965
  140.7764  143.5095  150.9670 LP  0  0  0  0  0  0  0  0  0  0  0  0  # atno 17342 bound_to 10162
  139.8783  143.7105  152.3159 LP  0  0  0  0  0  0  0  0  0  0  0  0  # atno 17343 bound_to 10162
  157.6275  130.8703  149.9215 LP  0  0  0  0  0  0  0  0  0  0  0  0  # atno 17370 bound_to 10713
  156.0801  130.3674  150.0598 LP  0  0  0  0  0  0  0  0  0  0  0  0  # atno 17371 bound_to 10713
  141.2152  133.7565  156.9578 LP  0  0  0  0  0  0  0  0  0  0  0  0  # atno 17394 bound_to 11000
  140.1224  134.9408  157.2222 LP  0  0  0  0  0  0  0  0  0  0  0  0  # atno 17395 bound_to 11000

$$$$
