AV-unprocessed.smi:279|AV-procd|sdf|2095|dock5
  -GOLD-   2262021373D 1   1.00000     0.00000
 Structure written by MMmdl.
 50 54  0  0  0  0  0  0  0  0  1 V2000
  146.5278  137.0972  160.7822 O   0  0  0  0  0  0  0  0  0  0  0  0
  147.2439  136.4024  161.8632 S   0  0  0  0  0  0  0  0  0  0  0  0
  148.2932  137.0877  162.6331 O   0  0  0  0  0  0  0  0  0  0  0  0
  146.0264  135.6808  163.0235 C   0  0  0  0  0  0  0  0  0  0  0  0
  145.7642  134.2658  162.5007 C   0  0  0  0  0  0  0  0  0  0  0  0
  147.0917  133.6822  161.9724 C   0  0  1  0  0  0  0  0  0  0  0  0
  146.9062  132.5696  160.9267 C   0  0  0  0  0  0  0  0  0  0  0  0
  147.4386  133.0866  159.6726 N   0  0  0  0  0  0  0  0  0  0  0  0
  147.0897  132.5107  158.4909 C   0  0  0  0  0  0  0  0  0  0  0  0
  146.8384  131.1743  158.4660 N   0  0  0  0  0  0  0  0  0  0  0  0
  146.4963  130.5658  157.3275 C   0  0  0  0  0  0  0  0  0  0  0  0
  146.3397  131.0959  156.1144 N   0  0  0  0  0  0  0  0  0  0  0  0
  146.5725  132.4392  156.1289 C   0  0  0  0  0  0  0  0  0  0  0  0
  146.9525  133.2196  157.2596 C   0  0  0  0  0  0  0  0  0  0  0  0
  147.1051  134.5480  156.8754 N   0  0  0  0  0  0  0  0  0  0  0  0
  146.8460  134.5488  155.5967 C   0  0  0  0  0  0  0  0  0  0  0  0
  146.4890  133.3285  155.0719 N   0  0  0  0  0  0  0  0  0  0  0  0
  146.1931  133.0363  153.7000 C   0  0  0  0  0  0  0  0  0  0  0  0
  147.0711  133.5685  152.5649 C   0  0  0  0  0  0  0  0  0  0  0  0
  145.8248  133.6558  151.6545 C   0  0  0  0  0  0  0  0  0  0  0  0
  145.7352  134.9124  150.7726 C   0  0  0  0  0  0  0  0  0  0  0  0
  144.5868  134.8817  149.9493 O   0  0  0  0  0  0  0  0  0  0  0  0
  145.5525  132.4089  150.7886 C   0  0  0  0  0  0  0  0  0  0  0  0
  146.5835  132.2006  149.8451 O   0  0  0  0  0  0  0  0  0  0  0  0
  145.0307  133.7214  152.9776 C   0  0  0  0  0  0  0  0  0  0  0  0
  147.5976  134.5295  159.7718 C   0  0  0  0  0  0  0  0  0  0  0  0
  147.8782  134.7853  161.2530 C   0  0  1  0  0  0  0  0  0  0  0  0
  147.6749  133.3184  162.8195 H   0  0  0  0  0  0  0  0  0  0  0  0
  148.9448  134.7037  161.4652 H   0  0  0  0  0  0  0  0  0  0  0  0
  146.4800  135.6483  164.0145 H   0  0  0  0  0  0  0  0  0  0  0  0
  145.1300  136.2994  163.0656 H   0  0  0  0  0  0  0  0  0  0  0  0
  145.3174  133.6289  163.2646 H   0  0  0  0  0  0  0  0  0  0  0  0
  145.0464  134.3316  161.6817 H   0  0  0  0  0  0  0  0  0  0  0  0
  147.4688  131.6825  161.2195 H   0  0  0  0  0  0  0  0  0  0  0  0
  145.8583  132.2850  160.8221 H   0  0  0  0  0  0  0  0  0  0  0  0
  146.3223  129.5023  157.3995 H   0  0  0  0  0  0  0  0  0  0  0  0
  146.9027  135.4481  155.0007 H   0  0  0  0  0  0  0  0  0  0  0  0
  146.0998  131.9506  153.6388 H   0  0  0  0  0  0  0  0  0  0  0  0
  147.5004  134.5462  152.7923 H   0  0  0  0  0  0  0  0  0  0  0  0
  147.8427  132.8746  152.2301 H   0  0  0  0  0  0  0  0  0  0  0  0
  145.6791  135.8123  151.3858 H   0  0  0  0  0  0  0  0  0  0  0  0
  146.6190  135.0264  150.1445 H   0  0  0  0  0  0  0  0  0  0  0  0
  144.8635  134.9259  149.0466 H   0  0  0  0  0  0  0  0  0  0  0  0
  145.4784  131.5109  151.4020 H   0  0  0  0  0  0  0  0  0  0  0  0
  144.6030  132.4897  150.2592 H   0  0  0  0  0  0  0  0  0  0  0  0
  147.2335  131.6341  150.2320 H   0  0  0  0  0  0  0  0  0  0  0  0
  144.0990  133.1548  152.9823 H   0  0  0  0  0  0  0  0  0  0  0  0
  144.8673  134.7428  153.3274 H   0  0  0  0  0  0  0  0  0  0  0  0
  148.4094  134.8958  159.1424 H   0  0  0  0  0  0  0  0  0  0  0  0
  146.6693  135.0035  159.4519 H   0  0  0  0  0  0  0  0  0  0  0  0
  1  2  2  0  0  0  0
  2 27  1  0  0  0  0
  2  3  2  0  0  0  0
  2  4  1  0  0  0  0
  4  5  1  0  0  0  0
  4 30  1  0  0  0  0
  4 31  1  0  0  0  0
  5  6  1  0  0  0  0
  5 32  1  0  0  0  0
  5 33  1  0  0  0  0
  6 28  1  0  0  0  0
  6 27  1  0  0  0  0
  6  7  1  0  0  0  0
  7  8  1  0  0  0  0
  7 34  1  0  0  0  0
  7 35  1  0  0  0  0
  8  9  1  0  0  0  0
  8 26  1  0  0  0  0
  9 14  1  0  0  0  0
  9 10  2  0  0  0  0
 10 11  1  0  0  0  0
 11 12  2  0  0  0  0
 11 36  1  0  0  0  0
 12 13  1  0  0  0  0
 13 17  1  0  0  0  0
 13 14  2  0  0  0  0
 14 15  1  0  0  0  0
 15 16  2  0  0  0  0
 16 17  1  0  0  0  0
 16 37  1  0  0  0  0
 17 18  1  0  0  0  0
 18 25  1  0  0  0  0
 18 19  1  0  0  0  0
 18 38  1  0  0  0  0
 19 20  1  0  0  0  0
 19 39  1  0  0  0  0
 19 40  1  0  0  0  0
 20 21  1  0  0  0  0
 20 23  1  0  0  0  0
 20 25  1  0  0  0  0
 21 22  1  0  0  0  0
 21 41  1  0  0  0  0
 21 42  1  0  0  0  0
 22 43  1  0  0  0  0
 23 24  1  0  0  0  0
 23 44  1  0  0  0  0
 23 45  1  0  0  0  0
 24 46  1  0  0  0  0
 25 47  1  0  0  0  0
 25 48  1  0  0  0  0
 26 27  1  0  0  0  0
 26 49  1  0  0  0  0
 26 50  1  0  0  0  0
 27 29  1  0  0  0  0
M  END
> <s_m_source_file>
AV-unprocessed.smi

> <i_m_source_file_index>
279

> <i_lp_mmshare_version>
43012

> <i_f3d_flags>
0

> <s_epik_input>
W0NIMl0xW0NIMl1TKD1PKSg9TylbQ0BASF0oW0NAQEhdMTIpW0NIMl1OKFtDSDJdMiljKG5bY0hdbjMpYyhjMzQpbltjSF1uNFtDSF0oW0NIMl01KVtDSDJdQzUoW0NIMl1bT0hdKVtDSDJdW09IXQ==

> <s_epik_cmdline>
J2VwaWtfcHl0aG9uJywgJy1waCcsICc3LjAnLCAnLXRuJywgJzgnLCAnLW1hJywgJzIwMCcsICctbWV0YWxfYmluZGluZycsICctaW1hZScsICc8aW5maWxlLm1hZT4nLCAnLW9tYWUnLCAnPG91dGZpbGUubWFlPic=

> <r_lp_tautomer_probability>
1

> <r_epik_Ionization_Penalty>
0.000990948

> <r_epik_Ionization_Penalty_Charging>
0

> <r_epik_Ionization_Penalty_Neutral>
0.000990948

> <r_epik_State_Penalty>
0.000515994

> <r_epik_Charging_Adjusted_Penalty>
0.000515994

> <i_epik_Tot_Q>
0

> <i_epik_Tot_abs_Q>
0

> <r_epik_Metal_State_Penalty>
-0

> <b_epik_Metal_Only>
0

> <s_lp_Force_Field>
OPLS_2005

> <r_lp_Energy>
54.435

> <b_lp_Chiralities_Consistent>
1

> <s_lp_Variant>
AV-unprocessed.smi:279-1

> <Gold.Version>
5.8.1

> <Gold.Id.Protein>
6NUR|6NUR_protein|mol2

> <Gold.PLP.Fitness>
43.4539

> <Gold.PLP.PLP>
-32.1550

> <Gold.PLP.part.hbond>
-3.6747

> <Gold.PLP.part.metal>
0.0000

> <Gold.PLP.part.buried>
-5.9215

> <Gold.PLP.part.nonpolar>
-22.1888

> <Gold.PLP.part.repulsive>
0.1279

> <Gold.PLP.ligand.clash>
0.0000

> <Gold.PLP.ligand.torsion>
0.6679

> <Gold.PLP.Chemscore.Hbond>
3.9440

> <Gold.PLP.Chemscore.CHOScore>
0.0000

> <Gold.PLP.Chemscore.Metal>
0.0000

> <Gold.Chemscore.Hbonds>
donor molecule, donor type, donor heavy atom, donor atom, acceptor molecule, acceptor atom, score
      L1  H    22    43       P1  7921  1.00
      L1  H    24    46       P1 10747  1.00
      P1  H  6931  6943       L1     3  0.94
      P1  H  6934  6947       L1     1  0.99

> <Gold.PLP.Chemscore.Internal.Correction>
0.8027

> <Gold.Rescore>
     Score         DG    S(hbond)    S(metal)    S(lipo)     H(rot)  DE(clash)    DE(int)     intcor
     15.35     -17.84       3.42        0.00      72.27       2.94       0.56       1.93       ----

> <Gold.Chemscore.Fitness>
15.3495

> <Gold.Chemscore.DG>
-17.8444

> <Gold.Chemscore.ZeroCoef>
-5.4800

> <Gold.Chemscore.Hbond>
3.4206

> <Gold.Chemscore.Metal>
0.0000

> <Gold.Chemscore.Lipo>
72.2711

> <Gold.Chemscore.Internal_Hbond>
0.0000

> <Gold.Chemscore.DEClash>
0.5643

> <Gold.Chemscore.DEInternal>
1.9306

> <Gold.Chemscore.Rot>
2.9360

> <Gold.Chemscore.Internal.Correction>
   9.000000E+99

> <Gold.Chemscore.Hbonds>
donor molecule, donor type, donor heavy atom, donor atom, acceptor molecule, acceptor atom, score
      L1  H    22    43       P1  7921  0.98
      L1  H    24    46       P1 10747  0.95
      P1  H  6931  6943       L1     3  0.81
      P1  H  6934  6947       L1     1  0.41

> <Gold.Chemscore.Hbond.Weighted>
-11.4247

> <Gold.Chemscore.Metal.Weighted>
-0.0000

> <Gold.Chemscore.Lipo.Weighted>
-8.4557

> <Gold.Chemscore.Internal_Hbond.Weighted>
0.0000

> <Gold.Chemscore.DEClash.Weighted>
0.5643

> <Gold.Chemscore.DEInternal.Weighted>
1.9306

> <Gold.Chemscore.Rot.Weighted>
7.5161

> <Gold.Chemscore.Internal.Correction.Weighted>
   9.000000E+99

> <Gold.Protein.RotatedTorsions>
[ 6907 6896 6895 6894 ] final   81.07 input  -60.11 | X-H torsion
[ 7974 7965 7964 7962 ] final   55.72 input  175.53 | X-H torsion
[ 8008 7997 7996 7995 ] final   38.66 input   59.86 | X-H torsion
[ 10167 10162 10161 10158 ] final -159.56 input  -65.29 | X-H torsion
[ 10718 10713 10712 10709 ] final  -41.70 input   66.30 | X-H torsion
[ 10763 10752 10751 10750 ] final  121.48 input  -60.55 | X-H torsion
[ 11005 11000 10999 10996 ] final   40.14 input  -57.11 | X-H torsion

> <Gold.Protein.ActiveResidues>
 VAL166  LYS551  ARG553  GLY616  TRP617  ASP618  TYR619  PRO620  LYS621  CYS622 
 ASP623  PHE694  ASN695  SER759  ASP760  ASP761  ALA762  ILE779  LEU786  VAL792 
 PHE793  MET794  SER795  GLU796  ALA797  LYS798  CYS799  TRP800  GLU811  SER814 

> <Gold.Protein.RotatedAtoms>
  152.5256  134.3261  159.9165 H   0  0  0  0  0  0  0  0  0  0  0  0  # atno 6907 bound_to 6896
  151.3210  133.4034  159.2662 H   0  0  0  0  0  0  0  0  0  0  0  0  # atno 6908 bound_to 6896
  150.9959  134.9300  159.7984 H   0  0  0  0  0  0  0  0  0  0  0  0  # atno 6909 bound_to 6896
  145.9474  139.3942  143.0326 H   0  0  0  0  0  0  0  0  0  0  0  0  # atno 7974 bound_to 7965
  155.2239  140.3333  155.4312 H   0  0  0  0  0  0  0  0  0  0  0  0  # atno 8008 bound_to 7997
  156.2322  140.1856  156.7259 H   0  0  0  0  0  0  0  0  0  0  0  0  # atno 8009 bound_to 7997
  154.5998  140.0625  156.9338 H   0  0  0  0  0  0  0  0  0  0  0  0  # atno 8010 bound_to 7997
  139.6606  143.9920  152.2222 H   0  0  0  0  0  0  0  0  0  0  0  0  # atno 10167 bound_to 10162
  156.2675  130.4203  149.8474 H   0  0  0  0  0  0  0  0  0  0  0  0  # atno 10718 bound_to 10713
  153.6147  135.3424  155.2990 H   0  0  0  0  0  0  0  0  0  0  0  0  # atno 10763 bound_to 10752
  154.8612  135.4258  154.2272 H   0  0  0  0  0  0  0  0  0  0  0  0  # atno 10764 bound_to 10752
  153.3130  135.7033  153.7170 H   0  0  0  0  0  0  0  0  0  0  0  0  # atno 10765 bound_to 10752
  140.1960  134.3929  155.8121 H   0  0  0  0  0  0  0  0  0  0  0  0  # atno 11005 bound_to 11000
  145.8217  140.9675  143.0895 LP  0  0  0  0  0  0  0  0  0  0  0  0  # atno 17320 bound_to 7965
  144.6789  140.0050  143.7484 LP  0  0  0  0  0  0  0  0  0  0  0  0  # atno 17321 bound_to 7965
  139.9658  144.6527  150.8036 LP  0  0  0  0  0  0  0  0  0  0  0  0  # atno 17342 bound_to 10162
  140.7578  143.3094  151.2882 LP  0  0  0  0  0  0  0  0  0  0  0  0  # atno 17343 bound_to 10162
  156.5968  130.8529  151.3422 LP  0  0  0  0  0  0  0  0  0  0  0  0  # atno 17370 bound_to 10713
  157.7272  130.9640  150.1690 LP  0  0  0  0  0  0  0  0  0  0  0  0  # atno 17371 bound_to 10713
  141.2227  133.7070  156.8176 LP  0  0  0  0  0  0  0  0  0  0  0  0  # atno 17394 bound_to 11000
  140.2107  134.8829  157.3271 LP  0  0  0  0  0  0  0  0  0  0  0  0  # atno 17395 bound_to 11000

$$$$
