AV-unprocessed.smi:2899|AV-procd|sdf|11146|dock2
  -GOLD-   2272016 23D 1   1.00000     0.00000
 Structure written by MMmdl.
 30 32  0  0  0  0  0  0  0  0  1 V2000
  152.4612  138.5625  155.9422 C   0  0  0  0  0  0  0  0  0  0  0  0
  151.4217  139.5950  155.5619 C   0  0  0  0  0  0  0  0  0  0  0  0
  150.4666  139.3451  154.5546 C   0  0  0  0  0  0  0  0  0  0  0  0
  149.5522  140.3855  154.2945 C   0  0  0  0  0  0  0  0  0  0  0  0
  149.5921  141.5540  154.9714 N   0  0  0  0  0  0  0  0  0  0  0  0
  150.5401  141.6853  155.9028 C   0  0  0  0  0  0  0  0  0  0  0  0
  150.5540  142.8971  156.5689 N   0  0  0  0  0  0  0  0  0  0  0  0
  151.5319  143.2747  157.5819 C   0  0  1  0  0  0  0  0  0  0  0  0
  151.2949  144.6796  158.1506 C   0  0  0  0  0  0  0  0  0  0  0  0
  151.1669  144.3961  159.6525 C   0  0  2  0  0  0  0  0  0  0  0  0
  152.4998  143.9651  160.2793 C   0  0  0  0  0  0  0  0  0  0  0  0
  152.6590  142.5473  159.7304 C   0  0  0  0  0  0  0  0  0  0  0  0
  151.4118  142.4084  158.8467 C   0  0  1  0  0  0  0  0  0  0  0  0
  150.4828  143.1563  159.6151 O   0  0  0  0  0  0  0  0  0  0  0  0
  151.4558  140.7666  156.2343 N   0  0  0  0  0  0  0  0  0  0  0  0
  152.3129  137.6333  155.3911 H   0  0  0  0  0  0  0  0  0  0  0  0
  152.4031  138.3391  157.0078 H   0  0  0  0  0  0  0  0  0  0  0  0
  153.4623  138.9340  155.7219 H   0  0  0  0  0  0  0  0  0  0  0  0
  150.4334  138.4123  154.0112 H   0  0  0  0  0  0  0  0  0  0  0  0
  148.7862  140.2804  153.5405 H   0  0  0  0  0  0  0  0  0  0  0  0
  149.9205  143.6098  156.2371 H   0  0  0  0  0  0  0  0  0  0  0  0
  152.5329  143.1802  157.1586 H   0  0  0  0  0  0  0  0  0  0  0  0
  152.1111  145.3662  157.9240 H   0  0  0  0  0  0  0  0  0  0  0  0
  150.3707  145.1181  157.7707 H   0  0  0  0  0  0  0  0  0  0  0  0
  150.6486  145.1787  160.2074 H   0  0  0  0  0  0  0  0  0  0  0  0
  153.3217  144.6245  159.9985 H   0  0  0  0  0  0  0  0  0  0  0  0
  152.4306  143.9480  161.3674 H   0  0  0  0  0  0  0  0  0  0  0  0
  153.5850  142.4095  159.1711 H   0  0  0  0  0  0  0  0  0  0  0  0
  152.6398  141.8193  160.5424 H   0  0  0  0  0  0  0  0  0  0  0  0
  151.1222  141.3730  158.6622 H   0  0  0  0  0  0  0  0  0  0  0  0
  1  2  1  0  0  0  0
  1 16  1  0  0  0  0
  1 17  1  0  0  0  0
  1 18  1  0  0  0  0
  2 15  1  0  0  0  0
  2  3  2  0  0  0  0
  3  4  1  0  0  0  0
  3 19  1  0  0  0  0
  4  5  2  0  0  0  0
  4 20  1  0  0  0  0
  5  6  1  0  0  0  0
  6  7  1  0  0  0  0
  6 15  2  0  0  0  0
  7  8  1  0  0  0  0
  7 21  1  0  0  0  0
  8 13  1  0  0  0  0
  8  9  1  0  0  0  0
  8 22  1  0  0  0  0
  9 10  1  0  0  0  0
  9 23  1  0  0  0  0
  9 24  1  0  0  0  0
 10 14  1  0  0  0  0
 10 11  1  0  0  0  0
 10 25  1  0  0  0  0
 11 12  1  0  0  0  0
 11 26  1  0  0  0  0
 11 27  1  0  0  0  0
 12 13  1  0  0  0  0
 12 28  1  0  0  0  0
 12 29  1  0  0  0  0
 13 14  1  0  0  0  0
 13 30  1  0  0  0  0
M  END
> <s_m_source_file>
AV-unprocessed.smi

> <i_m_source_file_index>
2899

> <i_lp_mmshare_version>
43012

> <i_f3d_flags>
0

> <s_epik_input>
W0NIM11jMVtjSF1bY0hdbmMobjEpW05IXVtDQEhdKFtDSDJdW0NAQEhdMjMpW0NAQEhdKE8zKVtDSDJdW0NIMl0y

> <s_epik_cmdline>
J2VwaWtfcHl0aG9uJywgJy1waCcsICc3LjAnLCAnLXRuJywgJzgnLCAnLW1hJywgJzIwMCcsICctbWV0YWxfYmluZGluZycsICctaW1hZScsICc8aW5maWxlLm1hZT4nLCAnLW9tYWUnLCAnPG91dGZpbGUubWFlPic=

> <r_lp_tautomer_probability>
1

> <r_epik_Ionization_Penalty>
0.00589655

> <r_epik_Ionization_Penalty_Charging>
0

> <r_epik_Ionization_Penalty_Neutral>
0.00589655

> <r_epik_State_Penalty>
0.00375391

> <r_epik_Charging_Adjusted_Penalty>
0.00375391

> <i_epik_Tot_Q>
0

> <i_epik_Tot_abs_Q>
0

> <r_epik_Metal_State_Penalty>
-0

> <b_epik_Metal_Only>
0

> <s_lp_Force_Field>
OPLS_2005

> <r_lp_Energy>
31.4606

> <b_lp_Chiralities_Consistent>
1

> <s_lp_Variant>
AV-unprocessed.smi:2899-4

> <Gold.Version>
5.8.1

> <Gold.Id.Protein>
6NUR|6NUR_protein|mol2

> <Gold.PLP.Fitness>
40.6115

> <Gold.PLP.PLP>
-35.4695

> <Gold.PLP.part.hbond>
-2.3537

> <Gold.PLP.part.metal>
0.0000

> <Gold.PLP.part.buried>
-2.6447

> <Gold.PLP.part.nonpolar>
-29.6115

> <Gold.PLP.part.repulsive>
0.2779

> <Gold.PLP.ligand.clash>
0.0000

> <Gold.PLP.ligand.torsion>
0.0192

> <Gold.PLP.Chemscore.Hbond>
1.0000

> <Gold.PLP.Chemscore.CHOScore>
0.7201

> <Gold.PLP.Chemscore.Metal>
0.0000

> <Gold.Chemscore.Hbonds>
donor molecule, donor type, donor heavy atom, donor atom, acceptor molecule, acceptor atom, score
      L1  H     7    21       P1  8028  1.00
      L1  C     4    20       P1  7957  0.72

> <Gold.PLP.Chemscore.Internal.Correction>
0.0199

> <Gold.Rescore>
     Score         DG    S(hbond)    S(metal)    S(lipo)     H(rot)  DE(clash)    DE(int)     intcor
     17.65     -17.72       1.00        0.00      98.03       1.00       0.03       0.04       ----

> <Gold.Chemscore.Fitness>
17.6483

> <Gold.Chemscore.DG>
-17.7210

> <Gold.Chemscore.ZeroCoef>
-5.4800

> <Gold.Chemscore.Hbond>
0.9975

> <Gold.Chemscore.Metal>
0.0000

> <Gold.Chemscore.Lipo>
98.0272

> <Gold.Chemscore.Internal_Hbond>
0.0000

> <Gold.Chemscore.DEClash>
0.0281

> <Gold.Chemscore.DEInternal>
0.0445

> <Gold.Chemscore.Rot>
1.0000

> <Gold.Chemscore.Internal.Correction>
   9.000000E+99

> <Gold.Chemscore.Hbonds>
donor molecule, donor type, donor heavy atom, donor atom, acceptor molecule, acceptor atom, score
      L1  H     7    21       P1  8028  0.99

> <Gold.Chemscore.Hbond.Weighted>
-3.3318

> <Gold.Chemscore.Metal.Weighted>
-0.0000

> <Gold.Chemscore.Lipo.Weighted>
-11.4692

> <Gold.Chemscore.Internal_Hbond.Weighted>
0.0000

> <Gold.Chemscore.DEClash.Weighted>
0.0281

> <Gold.Chemscore.DEInternal.Weighted>
0.0445

> <Gold.Chemscore.Rot.Weighted>
2.5600

> <Gold.Chemscore.Internal.Correction.Weighted>
   9.000000E+99

> <Gold.Protein.RotatedTorsions>
[ 6907 6896 6895 6894 ] final  -55.02 input  -60.11 | X-H torsion
[ 7974 7965 7964 7962 ] final -160.64 input  175.53 | X-H torsion
[ 8008 7997 7996 7995 ] final  -87.34 input   59.86 | X-H torsion
[ 10167 10162 10161 10158 ] final  -91.77 input  -65.29 | X-H torsion
[ 10718 10713 10712 10709 ] final  120.58 input   66.30 | X-H torsion
[ 10763 10752 10751 10750 ] final  -75.69 input  -60.55 | X-H torsion
[ 11005 11000 10999 10996 ] final  173.72 input  -57.11 | X-H torsion

> <Gold.Protein.ActiveResidues>
 VAL166  LYS551  ARG553  GLY616  TRP617  ASP618  TYR619  PRO620  LYS621  CYS622 
 ASP623  PHE694  ASN695  SER759  ASP760  ASP761  ALA762  ILE779  LEU786  VAL792 
 PHE793  MET794  SER795  GLU796  ALA797  LYS798  CYS799  TRP800  GLU811  SER814 

> <Gold.Protein.RotatedAtoms>
  150.8287  134.7531  159.6835 H   0  0  0  0  0  0  0  0  0  0  0  0  # atno 6907 bound_to 6896
  152.4395  134.5616  159.9905 H   0  0  0  0  0  0  0  0  0  0  0  0  # atno 6908 bound_to 6896
  151.5782  133.3343  159.3039 H   0  0  0  0  0  0  0  0  0  0  0  0  # atno 6909 bound_to 6896
  144.7419  140.3512  143.6115 H   0  0  0  0  0  0  0  0  0  0  0  0  # atno 7974 bound_to 7965
  154.6621  140.0567  157.0073 H   0  0  0  0  0  0  0  0  0  0  0  0  # atno 8008 bound_to 7997
  155.1213  140.3248  155.4478 H   0  0  0  0  0  0  0  0  0  0  0  0  # atno 8009 bound_to 7997
  156.2622  140.1997  156.6335 H   0  0  0  0  0  0  0  0  0  0  0  0  # atno 8010 bound_to 7997
  140.3415  143.2939  151.9829 H   0  0  0  0  0  0  0  0  0  0  0  0  # atno 10167 bound_to 10162
  157.5880  131.1067  150.8055 H   0  0  0  0  0  0  0  0  0  0  0  0  # atno 10718 bound_to 10713
  154.4900  135.5822  153.6452 H   0  0  0  0  0  0  0  0  0  0  0  0  # atno 10763 bound_to 10752
  152.9860  135.6110  154.3138 H   0  0  0  0  0  0  0  0  0  0  0  0  # atno 10764 bound_to 10752
  154.3036  135.2846  155.2578 H   0  0  0  0  0  0  0  0  0  0  0  0  # atno 10765 bound_to 10752
  140.3436  134.7255  157.4219 H   0  0  0  0  0  0  0  0  0  0  0  0  # atno 11005 bound_to 11000
  145.7274  139.1726  143.2450 LP  0  0  0  0  0  0  0  0  0  0  0  0  # atno 17320 bound_to 7965
  146.1232  140.7282  142.9448 LP  0  0  0  0  0  0  0  0  0  0  0  0  # atno 17321 bound_to 7965
  139.4840  144.6152  151.7359 LP  0  0  0  0  0  0  0  0  0  0  0  0  # atno 17342 bound_to 10162
  140.5304  144.0739  150.6052 LP  0  0  0  0  0  0  0  0  0  0  0  0  # atno 17343 bound_to 10162
  156.8485  130.5072  149.5314 LP  0  0  0  0  0  0  0  0  0  0  0  0  # atno 17370 bound_to 10713
  156.0931  130.5911  150.9767 LP  0  0  0  0  0  0  0  0  0  0  0  0  # atno 17371 bound_to 10713
  140.0761  134.5795  155.8590 LP  0  0  0  0  0  0  0  0  0  0  0  0  # atno 17394 bound_to 11000
  141.2032  133.6630  156.6048 LP  0  0  0  0  0  0  0  0  0  0  0  0  # atno 17395 bound_to 11000

$$$$
