AV-unprocessed.smi:2576|AV-procd|sdf|10119|dock1
  -GOLD-   2272014133D 1   1.00000     0.00000
 Structure written by MMmdl.
 27 28  0  0  0  0  0  0  0  0  1 V2000
  149.8571  140.9027  153.8556 O   0  0  0  0  0  0  0  0  0  0  0  0
  149.6519  140.9726  155.2541 C   0  0  1  0  0  0  0  0  0  0  0  0
  150.6876  141.9357  155.8679 C   0  0  0  0  0  0  0  0  0  0  0  0
  151.5208  141.2968  156.8721 N   0  0  0  0  0  0  0  0  0  0  0  0
  152.0631  140.0738  156.6109 N   0  0  0  0  0  0  0  0  0  0  0  0
  152.7632  139.7005  157.6403 N   0  0  0  0  0  0  0  0  0  0  0  0
  152.6824  140.6978  158.5978 C   0  0  0  0  0  0  0  0  0  0  0  0
  153.2444  140.8123  159.8891 C   0  0  0  0  0  0  0  0  0  0  0  0
  153.0010  141.9605  160.6745 C   0  0  0  0  0  0  0  0  0  0  0  0
  153.7062  142.0641  162.2487 Cl  0  0  0  0  0  0  0  0  0  0  0  0
  152.1909  143.0090  160.1754 C   0  0  0  0  0  0  0  0  0  0  0  0
  151.8851  144.4216  161.1219 Cl  0  0  0  0  0  0  0  0  0  0  0  0
  151.6225  142.9074  158.8901 C   0  0  0  0  0  0  0  0  0  0  0  0
  151.8766  141.7563  158.1253 C   0  0  0  0  0  0  0  0  0  0  0  0
  148.2071  141.4263  155.5456 C   0  0  0  0  0  0  0  0  0  0  0  0
  147.1311  140.7376  154.6866 C   0  0  0  0  0  0  0  0  0  0  0  0
  145.9328  141.2042  155.0357 F   0  0  0  0  0  0  0  0  0  0  0  0
  147.3188  140.9854  153.3906 F   0  0  0  0  0  0  0  0  0  0  0  0
  147.1489  139.4204  154.8892 F   0  0  0  0  0  0  0  0  0  0  0  0
  149.4287  140.1269  153.5261 H   0  0  0  0  0  0  0  0  0  0  0  0
  149.8074  139.9766  155.6699 H   0  0  0  0  0  0  0  0  0  0  0  0
  151.3338  142.3456  155.0905 H   0  0  0  0  0  0  0  0  0  0  0  0
  150.1851  142.7861  156.3313 H   0  0  0  0  0  0  0  0  0  0  0  0
  153.8636  140.0159  160.2751 H   0  0  0  0  0  0  0  0  0  0  0  0
  151.0036  143.7005  158.4972 H   0  0  0  0  0  0  0  0  0  0  0  0
  147.9814  141.2192  156.5926 H   0  0  0  0  0  0  0  0  0  0  0  0
  148.1308  142.5087  155.4330 H   0  0  0  0  0  0  0  0  0  0  0  0
  1  2  1  0  0  0  0
  1 20  1  0  0  0  0
  2  3  1  0  0  0  0
  2 15  1  0  0  0  0
  2 21  1  0  0  0  0
  3  4  1  0  0  0  0
  3 22  1  0  0  0  0
  3 23  1  0  0  0  0
  4 14  1  0  0  0  0
  4  5  1  0  0  0  0
  5  6  2  0  0  0  0
  6  7  1  0  0  0  0
  7 14  2  0  0  0  0
  7  8  1  0  0  0  0
  8  9  2  0  0  0  0
  8 24  1  0  0  0  0
  9 10  1  0  0  0  0
  9 11  1  0  0  0  0
 11 12  1  0  0  0  0
 11 13  2  0  0  0  0
 13 14  1  0  0  0  0
 13 25  1  0  0  0  0
 15 16  1  0  0  0  0
 15 26  1  0  0  0  0
 15 27  1  0  0  0  0
 16 17  1  0  0  0  0
 16 18  1  0  0  0  0
 16 19  1  0  0  0  0
M  END
> <s_m_source_file>
AV-unprocessed.smi

> <i_m_source_file_index>
2576

> <i_lp_mmshare_version>
43012

> <i_f3d_flags>
0

> <s_epik_input>
RkMoRikoRilbQ0gyXVtDQEhdKFtPSF0pW0NIMl1uKG5uMSljKGMxMilbY0hdYyhDbCljKENsKVtjSF0y

> <s_epik_cmdline>
J2VwaWtfcHl0aG9uJywgJy1waCcsICc3LjAnLCAnLXRuJywgJzgnLCAnLW1hJywgJzIwMCcsICctbWV0YWxfYmluZGluZycsICctaW1hZScsICc8aW5maWxlLm1hZT4nLCAnLW9tYWUnLCAnPG91dGZpbGUubWFlPic=

> <r_lp_tautomer_probability>
1

> <r_epik_Ionization_Penalty>
1.57739e-05

> <r_epik_Ionization_Penalty_Charging>
0

> <r_epik_Ionization_Penalty_Neutral>
1.57739e-05

> <r_epik_State_Penalty>
-0

> <r_epik_Charging_Adjusted_Penalty>
0

> <i_epik_Tot_Q>
0

> <i_epik_Tot_abs_Q>
0

> <r_epik_Metal_State_Penalty>
-0

> <b_epik_Metal_Only>
0

> <s_lp_Force_Field>
OPLS_2005

> <r_lp_Energy>
8.87224

> <b_lp_Chiralities_Consistent>
1

> <s_lp_Variant>
AV-unprocessed.smi:2576-2

> <Gold.Version>
5.8.1

> <Gold.Id.Protein>
6NUR|6NUR_protein|mol2

> <Gold.PLP.Fitness>
44.8690

> <Gold.PLP.PLP>
-39.7026

> <Gold.PLP.part.hbond>
-4.0708

> <Gold.PLP.part.metal>
0.0000

> <Gold.PLP.part.buried>
-4.0074

> <Gold.PLP.part.nonpolar>
-30.4485

> <Gold.PLP.part.repulsive>
0.0000

> <Gold.PLP.ligand.clash>
0.0000

> <Gold.PLP.ligand.torsion>
1.0329

> <Gold.PLP.Chemscore.Hbond>
2.4044

> <Gold.PLP.Chemscore.CHOScore>
0.0000

> <Gold.PLP.Chemscore.Metal>
0.0000

> <Gold.Chemscore.Hbonds>
donor molecule, donor type, donor heavy atom, donor atom, acceptor molecule, acceptor atom, score
      L1  H     1    20       P1  7957  0.03
      P1  H  7989  7998       L1     1  0.45
      P1  H  7997  8008       L1     6  0.75
      P1  H  8011  8017       L1     1  0.65

> <Gold.PLP.Chemscore.Internal.Correction>
0.0189

> <Gold.Rescore>
     Score         DG    S(hbond)    S(metal)    S(lipo)     H(rot)  DE(clash)    DE(int)     intcor
     14.44     -17.39       1.61        0.00     103.43       2.18       0.43       2.51       ----

> <Gold.Chemscore.Fitness>
14.4418

> <Gold.Chemscore.DG>
-17.3855

> <Gold.Chemscore.ZeroCoef>
-5.4800

> <Gold.Chemscore.Hbond>
1.6129

> <Gold.Chemscore.Metal>
0.0000

> <Gold.Chemscore.Lipo>
103.4268

> <Gold.Chemscore.Internal_Hbond>
0.0000

> <Gold.Chemscore.DEClash>
0.4295

> <Gold.Chemscore.DEInternal>
2.5141

> <Gold.Chemscore.Rot>
2.1807

> <Gold.Chemscore.Internal.Correction>
   9.000000E+99

> <Gold.Chemscore.Hbonds>
donor molecule, donor type, donor heavy atom, donor atom, acceptor molecule, acceptor atom, score
      L1  H     1    20       P1  7957  0.03
      P1  H  7989  7998       L1     1  0.28
      P1  H  7997  8008       L1     6  0.03
      P1  H  8011  8017       L1     1  0.44

> <Gold.Chemscore.Hbond.Weighted>
-5.3871

> <Gold.Chemscore.Metal.Weighted>
-0.0000

> <Gold.Chemscore.Lipo.Weighted>
-12.1009

> <Gold.Chemscore.Internal_Hbond.Weighted>
0.0000

> <Gold.Chemscore.DEClash.Weighted>
0.4295

> <Gold.Chemscore.DEInternal.Weighted>
2.5141

> <Gold.Chemscore.Rot.Weighted>
5.5826

> <Gold.Chemscore.Internal.Correction.Weighted>
   9.000000E+99

> <Gold.Protein.RotatedTorsions>
[ 6907 6896 6895 6894 ] final   84.01 input  -60.11 | X-H torsion
[ 7974 7965 7964 7962 ] final   31.77 input  175.53 | X-H torsion
[ 8008 7997 7996 7995 ] final  -71.99 input   59.86 | X-H torsion
[ 10167 10162 10161 10158 ] final   65.41 input  -65.29 | X-H torsion
[ 10718 10713 10712 10709 ] final  -67.32 input   66.30 | X-H torsion
[ 10763 10752 10751 10750 ] final -118.49 input  -60.55 | X-H torsion
[ 11005 11000 10999 10996 ] final   12.78 input  -57.11 | X-H torsion

> <Gold.Protein.ActiveResidues>
 VAL166  LYS551  ARG553  GLY616  TRP617  ASP618  TYR619  PRO620  LYS621  CYS622 
 ASP623  PHE694  ASN695  SER759  ASP760  ASP761  ALA762  ILE779  LEU786  VAL792 
 PHE793  MET794  SER795  GLU796  ALA797  LYS798  CYS799  TRP800  GLU811  SER814 

> <Gold.Protein.RotatedAtoms>
  152.5342  134.2808  159.9006 H   0  0  0  0  0  0  0  0  0  0  0  0  # atno 6907 bound_to 6896
  151.2762  133.4225  159.2632 H   0  0  0  0  0  0  0  0  0  0  0  0  # atno 6908 bound_to 6896
  151.0324  134.9564  159.8175 H   0  0  0  0  0  0  0  0  0  0  0  0  # atno 6909 bound_to 6896
  146.1529  139.6613  142.9086 H   0  0  0  0  0  0  0  0  0  0  0  0  # atno 7974 bound_to 7965
  154.5130  140.0805  156.8028 H   0  0  0  0  0  0  0  0  0  0  0  0  # atno 8008 bound_to 7997
  155.3742  140.3424  155.4226 H   0  0  0  0  0  0  0  0  0  0  0  0  # atno 8009 bound_to 7997
  156.1596  140.1584  156.8622 H   0  0  0  0  0  0  0  0  0  0  0  0  # atno 8010 bound_to 7997
  140.1116  144.4813  150.6974 H   0  0  0  0  0  0  0  0  0  0  0  0  # atno 10167 bound_to 10162
  156.0564  130.4276  150.1837 H   0  0  0  0  0  0  0  0  0  0  0  0  # atno 10718 bound_to 10713
  154.8589  135.4272  154.2147 H   0  0  0  0  0  0  0  0  0  0  0  0  # atno 10763 bound_to 10752
  153.3165  135.6979  153.7075 H   0  0  0  0  0  0  0  0  0  0  0  0  # atno 10764 bound_to 10752
  153.6146  135.3513  155.2964 H   0  0  0  0  0  0  0  0  0  0  0  0  # atno 10765 bound_to 10752
  140.4882  134.0867  155.7765 H   0  0  0  0  0  0  0  0  0  0  0  0  # atno 11005 bound_to 11000
  145.4780  141.0437  143.2662 LP  0  0  0  0  0  0  0  0  0  0  0  0  # atno 17320 bound_to 7965
  144.7926  139.6297  143.7106 LP  0  0  0  0  0  0  0  0  0  0  0  0  # atno 17321 bound_to 7965
  140.6922  143.2383  151.5099 LP  0  0  0  0  0  0  0  0  0  0  0  0  # atno 17342 bound_to 10162
  139.5616  144.2143  152.1700 LP  0  0  0  0  0  0  0  0  0  0  0  0  # atno 17343 bound_to 10162
  156.9912  130.9894  151.3414 LP  0  0  0  0  0  0  0  0  0  0  0  0  # atno 17370 bound_to 10713
  157.5537  130.8199  149.8177 LP  0  0  0  0  0  0  0  0  0  0  0  0  # atno 17371 bound_to 10713
  141.1497  133.8990  157.2127 LP  0  0  0  0  0  0  0  0  0  0  0  0  # atno 17394 bound_to 11000
  139.9785  135.0106  156.9691 LP  0  0  0  0  0  0  0  0  0  0  0  0  # atno 17395 bound_to 11000

$$$$
