#       Name:                AV-unprocessed.smi:42
#       Creating user name   scv26
#       Creation time:       Thu Mar 26 16:24:41 2020


#       File generated by GOLD software.
#

@<TRIPOS>MOLECULE
AV-unprocessed.smi:42
    33    34     1
SMALL
NO_CHARGES


@<TRIPOS>ATOM
      1 ****        -4.1440   1.4781  -1.3749 C.3            1 S1                 0.0000
      2 ****        -3.5896   0.0499  -1.4028 C.3            1 S1                 0.0000
      3 ****        -2.1009   0.0125  -1.3111 C.2            1 S1                 0.0000
      4 ****        -1.2268   0.0102  -2.3199 N.2            1 S1                 0.0000
      5 ****         0.0192   0.0264  -1.7363 N.2            1 S1                 0.0000
      6 ****        -0.1947   0.0744  -0.4166 C.2            1 S1                 0.0000
      7 ****         0.8177   0.0616   0.6881 C.3            1 S1                 0.0000
      8 ****         1.3419  -1.3265   1.0716 C.3            1 S1                 0.0000
      9 ****         2.8525  -1.1353   1.2872 C.3            1 S1                 0.0000
     10 ****         3.2260  -1.4313   2.6169 O.3            1 S1                 0.0000
     11 ****         3.1396   0.3376   0.9530 C.3            1 S1                 0.0000
     12 ****         1.9818   0.8008   0.1739 N.4            1 S1                 1.0000
     13 ****        -1.5124   0.0572  -0.0875 O.3            1 S1                 0.0000
     14 ****         0.4283   0.5810   1.5651 H              1 S1                 0.0000
     15 ****         3.4065  -1.7881   0.6110 H              1 S1                 0.0000
     16 ****        -5.2320   1.4736  -1.4424 H              1 S1                 0.0000
     17 ****        -3.7605   2.0650  -2.2101 H              1 S1                 0.0000
     18 ****        -3.8698   1.9889  -0.4514 H              1 S1                 0.0000
     19 ****        -4.0063  -0.5279  -0.5773 H              1 S1                 0.0000
     20 ****        -3.8971  -0.4504  -2.3217 H              1 S1                 0.0000
     21 ****         0.8188  -1.7330   1.9384 H              1 S1                 0.0000
     22 ****         1.1943  -2.0280   0.2488 H              1 S1                 0.0000
     23 ****         3.0702  -2.3498   2.7792 H              1 S1                 0.0000
     24 ****         3.1927   0.9401   1.8615 H              1 S1                 0.0000
     25 ****         4.0729   0.4731   0.4061 H              1 S1                 0.0000
     26 ****         2.1178   0.5387  -0.7924 H              1 S1                 0.0000
     27 ****         1.8530   1.8000   0.2440 H              1 S1                 0.0000
     28 ****        -1.4346  -0.0009  -3.2980 LP             1 S1                 0.0000
     29 ****         0.9034   0.0064  -2.2030 LP             1 S1                 0.0000
     30 ****         2.6813  -0.8808   3.2496 LP             1 S1                 0.0000
     31 ****         4.1962  -1.2266   2.7472 LP             1 S1                 0.0000
     32 ****        -1.7417  -0.7495   0.4570 LP             1 S1                 0.0000
     33 ****        -1.7740   0.8825   0.4130 LP             1 S1                 0.0000
@<TRIPOS>BOND
    1    1    2 1     
    2    1   16 1     
    3    1   17 1     
    4    1   18 1     
    5    2    3 1     
    6    2   19 1     
    7    2   20 1     
    8    3   13 1     
    9    3    4 2     
   10    4    5 1     
   11    5    6 2     
   12    6    7 1     
   13    6   13 1     
   14    7   14 1     
   15    7   12 1     
   16    7    8 1     
   17    8    9 1     
   18    8   21 1     
   19    8   22 1     
   20    9   15 1     
   21    9   10 1     
   22    9   11 1     
   23   10   23 1     
   24   11   12 1     
   25   11   24 1     
   26   11   25 1     
   27   12   26 1     
   28   12   27 1     
   29    4   28 1     
   30    5   29 1     
   31   10   30 1     
   32   10   31 1     
   33   13   32 1     
   34   13   33 1     
@<TRIPOS>SUBSTRUCTURE
      1 S1             1
@<TRIPOS>SET
LONE_PAIRS      STATIC     ATOMS    <user>   **** ""
6 28 29 30 31 32 33
DONOR_HYDROGENS      STATIC     ATOMS    <user>   **** ""
3 23 26 27
ATOM$BLUE        STATIC     ATOMS    COLORGROUP SYSTEM
6 28 29 30 31 32 33
ATOM$RED        STATIC     ATOMS    COLORGROUP SYSTEM
3 23 26 27
