#       Name:                AV-unprocessed.smi:101
#       Creating user name   scv26
#       Creation time:       Thu Mar 26 17:44:24 2020


#       File generated by GOLD software.
#

@<TRIPOS>MOLECULE
AV-unprocessed.smi:101
    56    58     1
SMALL
NO_CHARGES


@<TRIPOS>ATOM
      1 ****        -1.8562   3.5466   2.8666 C.3            1 S1                 0.0000
      2 ****        -2.6902   2.5890   2.0337 C.2            1 S1                 0.0000
      3 ****        -2.1899   1.4308   1.5496 C.2            1 S1                 0.0000
      4 ****        -2.9541   0.5593   0.7940 N.am           1 S1                 0.0000
      5 ****        -2.3538  -0.7319   0.2776 C.3            1 S1                 0.0000
      6 ****        -1.0142  -0.5011  -0.0433 O.3            1 S1                 0.0000
      7 ****        -0.2201  -1.5906   0.4102 C.3            1 S1                 0.0000
      8 ****         1.2465  -1.1705   0.5825 C.3            1 S1                 0.0000
      9 ****         1.8423  -1.0258  -0.6960 O.3            1 S1                 0.0000
     10 ****         3.1189  -0.6103  -0.8015 C.2            1 S1                 0.0000
     11 ****         3.8338  -0.3501   0.1686 O.2            1 S1                 0.0000
     12 ****         3.5780  -0.5000  -2.2164 C.ar           1 S1                 0.0000
     13 ****         4.9106  -0.1088  -2.4841 C.ar           1 S1                 0.0000
     14 ****         5.3723   0.0050  -3.8100 C.ar           1 S1                 0.0000
     15 ****         4.5067  -0.2704  -4.8845 C.ar           1 S1                 0.0000
     16 ****         3.1785  -0.6599  -4.6317 C.ar           1 S1                 0.0000
     17 ****         2.7151  -0.7744  -3.3064 C.ar           1 S1                 0.0000
     18 ****        -0.9319  -2.0578   1.6855 C.3            1 S1                 0.0000
     19 ****        -0.5472  -1.2666   2.7987 O.3            1 S1                 0.0000
     20 ****        -2.4003  -1.8764   1.3137 C.3            1 S1                 0.0000
     21 ****        -3.2373  -1.6648   2.4377 O.3            1 S1                 0.0000
     22 ****        -4.3118   0.8714   0.5209 C.2            1 S1                 0.0000
     23 ****        -4.9755   0.0655  -0.1316 O.2            1 S1                 0.0000
     24 ****        -4.8232   2.0414   0.9997 N.pl3          1 S1                -1.0000
     25 ****        -4.0900   2.9203   1.7420 C.2            1 S1                 0.0000
     26 ****        -4.5661   3.9717   2.1691 O.2            1 S1                 0.0000
     27 ****        -0.8308   3.1909   2.9712 H              1 S1                 0.0000
     28 ****        -2.2822   3.6511   3.8648 H              1 S1                 0.0000
     29 ****        -1.8256   4.5316   2.3997 H              1 S1                 0.0000
     30 ****        -1.1618   1.1794   1.7633 H              1 S1                 0.0000
     31 ****        -2.8786  -0.9779  -0.6461 H              1 S1                 0.0000
     32 ****        -0.2886  -2.3889  -0.3314 H              1 S1                 0.0000
     33 ****         1.3165  -0.2385   1.1456 H              1 S1                 0.0000
     34 ****         1.7885  -1.9362   1.1390 H              1 S1                 0.0000
     35 ****         5.5937   0.1080  -1.6752 H              1 S1                 0.0000
     36 ****         6.3922   0.3040  -4.0019 H              1 S1                 0.0000
     37 ****         4.8609  -0.1833  -5.9010 H              1 S1                 0.0000
     38 ****         2.5128  -0.8711  -5.4556 H              1 S1                 0.0000
     39 ****         1.6895  -1.0740  -3.1477 H              1 S1                 0.0000
     40 ****        -0.7027  -3.0987   1.9161 H              1 S1                 0.0000
     41 ****         0.3755  -1.3954   2.9556 H              1 S1                 0.0000
     42 ****        -2.7469  -2.7679   0.7895 H              1 S1                 0.0000
     43 ****        -2.9544  -0.8734   2.8703 H              1 S1                 0.0000
     44 ****        -0.7065   0.3415   0.3986 LP             1 S1                 0.0000
     45 ****        -0.9203  -0.4109  -1.0348 LP             1 S1                 0.0000
     46 ****         3.4718  -0.4440   1.0960 LP             1 S1                 0.0000
     47 ****         4.7758  -0.0452   0.0281 LP             1 S1                 0.0000
     48 ****        -1.0682  -1.5446   3.6057 LP             1 S1                 0.0000
     49 ****        -0.7243  -0.3020   2.6036 LP             1 S1                 0.0000
     50 ****        -3.1632  -2.4394   3.0659 LP             1 S1                 0.0000
     51 ****        -4.1868  -1.5671   2.1395 LP             1 S1                 0.0000
     52 ****        -4.5557  -0.7829  -0.4543 LP             1 S1                 0.0000
     53 ****        -5.9344   0.2592  -0.3390 LP             1 S1                 0.0000
     54 ****        -5.7768   2.2647   0.7979 LP             1 S1                 0.0000
     55 ****        -4.0001   4.5932   2.7106 LP             1 S1                 0.0000
     56 ****        -5.5190   4.2044   1.9746 LP             1 S1                 0.0000
@<TRIPOS>BOND
    1    1    2 1     
    2    1   27 1     
    3    1   28 1     
    4    1   29 1     
    5    2   25 1     
    6    2    3 2     
    7    3    4 1     
    8    3   30 1     
    9    4    5 1     
   10    4   22 am    
   11    5   20 1     
   12    5    6 1     
   13    5   31 1     
   14    6    7 1     
   15    7    8 1     
   16    7   18 1     
   17    7   32 1     
   18    8    9 1     
   19    8   33 1     
   20    8   34 1     
   21    9   10 1     
   22   10   11 2     
   23   10   12 1     
   24   12   17 ar    
   25   12   13 ar    
   26   13   14 ar    
   27   13   35 1     
   28   14   15 ar    
   29   14   36 1     
   30   15   16 ar    
   31   15   37 1     
   32   16   17 ar    
   33   16   38 1     
   34   17   39 1     
   35   18   19 1     
   36   18   20 1     
   37   18   40 1     
   38   19   41 1     
   39   20   21 1     
   40   20   42 1     
   41   21   43 1     
   42   22   23 2     
   43   22   24 1     
   44   24   25 1     
   45   25   26 2     
   46    6   44 1     
   47    6   45 1     
   48   11   46 1     
   49   11   47 1     
   50   19   48 1     
   51   19   49 1     
   52   21   50 1     
   53   21   51 1     
   54   23   52 1     
   55   23   53 1     
   56   24   54 1     
   57   26   55 1     
   58   26   56 1     
@<TRIPOS>SUBSTRUCTURE
      1 S1             1
@<TRIPOS>SET
LONE_PAIRS      STATIC     ATOMS    <user>   **** ""
13 44 45 46 47 48 49 50 51 52 53 54 55 56
DONOR_HYDROGENS      STATIC     ATOMS    <user>   **** ""
2 41 43
ATOM$BLUE        STATIC     ATOMS    COLORGROUP SYSTEM
13 44 45 46 47 48 49 50 51 52 53 54 55 56
ATOM$RED        STATIC     ATOMS    COLORGROUP SYSTEM
2 41 43
