#       Name:                AV-unprocessed.smi:2973
#       Creating user name   scv26
#       Creation time:       Fri Mar 27 16:26:24 2020


#       File generated by GOLD software.
#

@<TRIPOS>MOLECULE
AV-unprocessed.smi:2973
    56    58     1
SMALL
NO_CHARGES


@<TRIPOS>ATOM
      1 ****        -4.9557   1.7963   0.0373 C.3            1 S1                 0.0000
      2 ****        -3.8895   2.8306   0.4613 C.3            1 S1                 0.0000
      3 ****        -4.0028   3.1115   1.9764 C.3            1 S1                 0.0000
      4 ****        -3.0145   4.1932   2.4355 C.3            1 S1                 0.0000
      5 ****        -1.5721   3.8155   2.0766 C.3            1 S1                 0.0000
      6 ****        -1.4326   3.5435   0.5687 C.3            1 S1                 0.0000
      7 ****        -2.4248   2.4734   0.0381 C.3            1 S1                 0.0000
      8 ****        -2.3154   2.4241  -1.4097 N.pl3          1 S1                -1.0000
      9 ****        -1.8827   1.1974  -1.7814 C.2            1 S1                 0.0000
     10 ****        -1.6700   0.8096  -2.9299 O.2            1 S1                 0.0000
     11 ****        -1.7023   0.4036  -0.7095 N.am           1 S1                 0.0000
     12 ****        -1.2228  -0.9835  -0.7648 C.3            1 S1                 0.0000
     13 ****         0.3069  -1.0906  -0.8289 C.2            1 S1                 0.0000
     14 ****         1.0252  -0.1971  -0.3784 O.2            1 S1                 0.0000
     15 ****         0.7919  -2.2133  -1.3796 N.am           1 S1                 0.0000
     16 ****         2.2072  -2.5229  -1.5416 C.3            1 S1                 0.0000
     17 ****         2.8296  -3.0369  -0.2327 C.3            1 S1                 0.0000
     18 ****         4.2887  -3.4137  -0.4029 C.ar           1 S1                 0.0000
     19 ****         4.6684  -4.7614  -0.5809 C.ar           1 S1                 0.0000
     20 ****         6.0357  -5.0573  -0.7436 C.ar           1 S1                 0.0000
     21 ****         6.9656  -3.9997  -0.7241 C.ar           1 S1                 0.0000
     22 ****         6.4846  -2.6877  -0.5417 C.ar           1 S1                 0.0000
     23 ****         5.1759  -2.3932  -0.3850 N.ar           1 S1                 0.0000
     24 ****        -1.9883   1.0601   0.4202 C.2            1 S1                 0.0000
     25 ****        -1.9225   0.6240   1.5705 O.2            1 S1                 0.0000
     26 ****        -4.8108   0.8365   0.5335 H              1 S1                 0.0000
     27 ****        -4.9420   1.6214  -1.0385 H              1 S1                 0.0000
     28 ****        -5.9566   2.1454   0.2916 H              1 S1                 0.0000
     29 ****        -4.1488   3.7611  -0.0470 H              1 S1                 0.0000
     30 ****        -5.0171   3.4320   2.2163 H              1 S1                 0.0000
     31 ****        -3.8345   2.1967   2.5450 H              1 S1                 0.0000
     32 ****        -3.2704   5.1442   1.9667 H              1 S1                 0.0000
     33 ****        -3.1023   4.3450   3.5116 H              1 S1                 0.0000
     34 ****        -0.8975   4.6208   2.3679 H              1 S1                 0.0000
     35 ****        -1.2647   2.9414   2.6505 H              1 S1                 0.0000
     36 ****        -1.5904   4.4812   0.0330 H              1 S1                 0.0000
     37 ****        -0.4036   3.2501   0.3525 H              1 S1                 0.0000
     38 ****        -1.5695  -1.5403   0.1071 H              1 S1                 0.0000
     39 ****        -1.6603  -1.4869  -1.6289 H              1 S1                 0.0000
     40 ****         0.1314  -2.8960  -1.7215 H              1 S1                 0.0000
     41 ****         2.2977  -3.2833  -2.3178 H              1 S1                 0.0000
     42 ****         2.7430  -1.6436  -1.9036 H              1 S1                 0.0000
     43 ****         2.7522  -2.2781   0.5474 H              1 S1                 0.0000
     44 ****         2.2751  -3.9039   0.1289 H              1 S1                 0.0000
     45 ****         3.9306  -5.5505  -0.5946 H              1 S1                 0.0000
     46 ****         6.3650  -6.0766  -0.8818 H              1 S1                 0.0000
     47 ****         8.0219  -4.1887  -0.8463 H              1 S1                 0.0000
     48 ****         7.1694  -1.8526  -0.5215 H              1 S1                 0.0000
     49 ****        -2.5265   3.1773  -2.0327 LP             1 S1                 0.0000
     50 ****        -1.8175   1.4280  -3.7018 LP             1 S1                 0.0000
     51 ****        -1.3497  -0.1239  -3.0912 LP             1 S1                 0.0000
     52 ****         0.6132   0.6138   0.0371 LP             1 S1                 0.0000
     53 ****         2.0203  -0.2827  -0.4282 LP             1 S1                 0.0000
     54 ****         4.8720  -1.4488  -0.2595 LP             1 S1                 0.0000
     55 ****        -2.1660   1.2111   2.3425 LP             1 S1                 0.0000
     56 ****        -1.6257  -0.3171   1.7322 LP             1 S1                 0.0000
@<TRIPOS>BOND
    1    1    2 1     
    2    1   26 1     
    3    1   27 1     
    4    1   28 1     
    5    2    7 1     
    6    2    3 1     
    7    2   29 1     
    8    3    4 1     
    9    3   30 1     
   10    3   31 1     
   11    4    5 1     
   12    4   32 1     
   13    4   33 1     
   14    5    6 1     
   15    5   34 1     
   16    5   35 1     
   17    6    7 1     
   18    6   36 1     
   19    6   37 1     
   20    7   24 1     
   21    7    8 1     
   22    8    9 1     
   23    9   10 2     
   24    9   11 am    
   25   11   12 1     
   26   11   24 am    
   27   12   13 1     
   28   12   38 1     
   29   12   39 1     
   30   13   14 2     
   31   13   15 am    
   32   15   16 1     
   33   15   40 1     
   34   16   17 1     
   35   16   41 1     
   36   16   42 1     
   37   17   18 1     
   38   17   43 1     
   39   17   44 1     
   40   18   23 ar    
   41   18   19 ar    
   42   19   20 ar    
   43   19   45 1     
   44   20   21 ar    
   45   20   46 1     
   46   21   22 ar    
   47   21   47 1     
   48   22   23 ar    
   49   22   48 1     
   50   24   25 2     
   51    8   49 1     
   52   10   50 1     
   53   10   51 1     
   54   14   52 1     
   55   14   53 1     
   56   23   54 1     
   57   25   55 1     
   58   25   56 1     
@<TRIPOS>SUBSTRUCTURE
      1 S1             1
@<TRIPOS>SET
LONE_PAIRS      STATIC     ATOMS    <user>   **** ""
8 49 50 51 52 53 54 55 56
DONOR_HYDROGENS      STATIC     ATOMS    <user>   **** ""
1 40
ATOM$BLUE        STATIC     ATOMS    COLORGROUP SYSTEM
8 49 50 51 52 53 54 55 56
ATOM$RED        STATIC     ATOMS    COLORGROUP SYSTEM
1 40
