AV-unprocessed.smi:667|AV-procd|sdf|3255|dock3
  -GOLD-   22720 0203D 1   1.00000     0.00000
 Structure written by MMmdl.
 48 49  0  0  0  0  0  0  0  0  1 V2000
  153.0625  140.8062  159.3664 C   0  0  0  0  0  0  0  0  0  0  0  0
  152.5399  142.1099  159.8987 C   0  0  0  0  0  0  0  0  0  0  0  0
  152.8504  142.4631  161.1344 N   0  0  0  0  0  0  0  0  0  0  0  0
  152.2592  143.6614  161.3100 N   0  0  0  0  0  0  0  0  0  0  0  0
  152.4107  144.3514  162.5760 C   0  0  0  0  0  0  0  0  0  0  0  0
  151.5691  144.0648  160.1841 C   0  0  0  0  0  0  0  0  0  0  0  0
  150.8355  145.3659  160.1255 C   0  0  0  0  0  0  0  0  0  0  0  0
  151.7306  143.0845  159.2413 C   0  0  0  0  0  0  0  0  0  0  0  0
  151.2080  143.0515  157.8263 C   0  0  0  0  0  0  0  0  0  0  0  0
  150.0105  142.1048  157.7755 C   0  0  0  0  0  0  0  0  0  0  0  0
  150.0658  141.0114  158.3375 O   0  0  0  0  0  0  0  0  0  0  0  0
  148.9190  142.5667  157.1460 N   0  0  0  0  0  0  0  0  0  0  0  0
  147.5931  141.9583  157.1929 C   0  0  0  0  0  0  0  0  0  0  0  0
  147.1406  141.4327  155.8120 C   0  0  2  0  0  0  0  0  0  0  0  0
  148.2698  140.9961  154.8953 C   0  0  0  0  0  0  0  0  0  0  0  0
  147.6017  140.9847  153.5190 C   0  0  0  0  0  0  0  0  0  0  0  0
  146.4574  141.8296  153.6164 O   0  0  0  0  0  0  0  0  0  0  0  0
  146.4191  142.4391  154.9010 C   0  0  1  0  0  0  0  0  0  0  0  0
  144.9811  142.8313  155.3052 C   0  0  0  0  0  0  0  0  0  0  0  0
  144.3326  143.8505  154.3522 C   0  0  0  0  0  0  0  0  0  0  0  0
  144.9443  143.3392  156.7546 C   0  0  0  0  0  0  0  0  0  0  0  0
  152.9927  140.7593  158.2800 H   0  0  0  0  0  0  0  0  0  0  0  0
  152.4983  139.9662  159.7713 H   0  0  0  0  0  0  0  0  0  0  0  0
  154.1109  140.6641  159.6316 H   0  0  0  0  0  0  0  0  0  0  0  0
  151.4289  144.5401  163.0105 H   0  0  0  0  0  0  0  0  0  0  0  0
  152.9190  145.3024  162.4151 H   0  0  0  0  0  0  0  0  0  0  0  0
  152.9967  143.7525  163.2747 H   0  0  0  0  0  0  0  0  0  0  0  0
  150.3877  145.5252  159.1448 H   0  0  0  0  0  0  0  0  0  0  0  0
  151.5091  146.2001  160.3213 H   0  0  0  0  0  0  0  0  0  0  0  0
  150.0369  145.3939  160.8667 H   0  0  0  0  0  0  0  0  0  0  0  0
  150.9063  144.0409  157.4815 H   0  0  0  0  0  0  0  0  0  0  0  0
  151.9689  142.7068  157.1255 H   0  0  0  0  0  0  0  0  0  0  0  0
  148.9837  143.4719  156.7033 H   0  0  0  0  0  0  0  0  0  0  0  0
  147.6222  141.1345  157.9063 H   0  0  0  0  0  0  0  0  0  0  0  0
  146.8515  142.6601  157.5774 H   0  0  0  0  0  0  0  0  0  0  0  0
  146.5025  140.5635  155.9715 H   0  0  0  0  0  0  0  0  0  0  0  0
  149.0791  141.7266  154.9019 H   0  0  0  0  0  0  0  0  0  0  0  0
  148.6896  140.0276  155.1680 H   0  0  0  0  0  0  0  0  0  0  0  0
  148.2792  141.3344  152.7393 H   0  0  0  0  0  0  0  0  0  0  0  0
  147.2704  139.9801  153.2547 H   0  0  0  0  0  0  0  0  0  0  0  0
  147.0202  143.3452  154.8218 H   0  0  0  0  0  0  0  0  0  0  0  0
  144.3736  141.9261  155.2762 H   0  0  0  0  0  0  0  0  0  0  0  0
  144.9133  144.7717  154.2987 H   0  0  0  0  0  0  0  0  0  0  0  0
  143.3296  144.1131  154.6892 H   0  0  0  0  0  0  0  0  0  0  0  0
  144.2347  143.4560  153.3418 H   0  0  0  0  0  0  0  0  0  0  0  0
  145.5286  144.2524  156.8706 H   0  0  0  0  0  0  0  0  0  0  0  0
  145.3501  142.5966  157.4413 H   0  0  0  0  0  0  0  0  0  0  0  0
  143.9234  143.5538  157.0713 H   0  0  0  0  0  0  0  0  0  0  0  0
  1  2  1  0  0  0  0
  1 22  1  0  0  0  0
  1 23  1  0  0  0  0
  1 24  1  0  0  0  0
  2  8  1  0  0  0  0
  2  3  2  0  0  0  0
  3  4  1  0  0  0  0
  4  5  1  0  0  0  0
  4  6  1  0  0  0  0
  5 25  1  0  0  0  0
  5 26  1  0  0  0  0
  5 27  1  0  0  0  0
  6  7  1  0  0  0  0
  6  8  2  0  0  0  0
  7 28  1  0  0  0  0
  7 29  1  0  0  0  0
  7 30  1  0  0  0  0
  8  9  1  0  0  0  0
  9 10  1  0  0  0  0
  9 31  1  0  0  0  0
  9 32  1  0  0  0  0
 10 11  2  0  0  0  0
 10 12  1  0  0  0  0
 12 13  1  0  0  0  0
 12 33  1  0  0  0  0
 13 14  1  0  0  0  0
 13 34  1  0  0  0  0
 13 35  1  0  0  0  0
 14 18  1  0  0  0  0
 14 15  1  0  0  0  0
 14 36  1  0  0  0  0
 15 16  1  0  0  0  0
 15 37  1  0  0  0  0
 15 38  1  0  0  0  0
 16 17  1  0  0  0  0
 16 39  1  0  0  0  0
 16 40  1  0  0  0  0
 17 18  1  0  0  0  0
 18 19  1  0  0  0  0
 18 41  1  0  0  0  0
 19 20  1  0  0  0  0
 19 21  1  0  0  0  0
 19 42  1  0  0  0  0
 20 43  1  0  0  0  0
 20 44  1  0  0  0  0
 20 45  1  0  0  0  0
 21 46  1  0  0  0  0
 21 47  1  0  0  0  0
 21 48  1  0  0  0  0
M  END
> <s_m_source_file>
AV-unprocessed.smi

> <i_m_source_file_index>
667

> <i_lp_mmshare_version>
43012

> <i_f3d_flags>
0

> <s_epik_input>
W0NIM11jMW5uKFtDSDNdKWMoW0NIM10pYzFbQ0gyXUMoPU8pW05IXVtDSDJdW0NAQEhdMltDSDJdW0NIMl1PW0NASF0yW0NIXShbQ0gzXSlbQ0gzXQ==

> <s_epik_cmdline>
J2VwaWtfcHl0aG9uJywgJy1waCcsICc3LjAnLCAnLXRuJywgJzgnLCAnLW1hJywgJzIwMCcsICctbWV0YWxfYmluZGluZycsICctaW1hZScsICc8aW5maWxlLm1hZT4nLCAnLW9tYWUnLCAnPG91dGZpbGUubWFlPic=

> <r_lp_tautomer_probability>
1

> <r_epik_Ionization_Penalty>
0.00315488

> <r_epik_Ionization_Penalty_Charging>
0

> <r_epik_Ionization_Penalty_Neutral>
0.00315488

> <r_epik_State_Penalty>
0.00222269

> <r_epik_Charging_Adjusted_Penalty>
0.00222269

> <i_epik_Tot_Q>
0

> <i_epik_Tot_abs_Q>
0

> <r_epik_Metal_State_Penalty>
-0

> <b_epik_Metal_Only>
0

> <s_lp_Force_Field>
OPLS_2005

> <r_lp_Energy>
14.51

> <b_lp_Chiralities_Consistent>
1

> <s_lp_Variant>
AV-unprocessed.smi:667-1

> <Gold.Version>
5.8.1

> <Gold.Id.Protein>
6NUR|6NUR_protein|mol2

> <Gold.PLP.Fitness>
44.3196

> <Gold.PLP.PLP>
-42.8417

> <Gold.PLP.part.hbond>
-1.0000

> <Gold.PLP.part.metal>
0.0000

> <Gold.PLP.part.buried>
-6.9724

> <Gold.PLP.part.nonpolar>
-35.1606

> <Gold.PLP.part.repulsive>
0.2423

> <Gold.PLP.ligand.clash>
0.0000

> <Gold.PLP.ligand.torsion>
0.7865

> <Gold.PLP.Chemscore.Hbond>
1.0000

> <Gold.PLP.Chemscore.CHOScore>
0.0000

> <Gold.PLP.Chemscore.Metal>
0.0000

> <Gold.Chemscore.Hbonds>
donor molecule, donor type, donor heavy atom, donor atom, acceptor molecule, acceptor atom, score
      L1  H    12    33       P1  8028  1.00

> <Gold.PLP.Chemscore.Internal.Correction>
0.0510

> <Gold.Rescore>
     Score         DG    S(hbond)    S(metal)    S(lipo)     H(rot)  DE(clash)    DE(int)     intcor
     16.19     -17.48       0.97        0.00     108.24       1.52       0.54       0.75       ----

> <Gold.Chemscore.Fitness>
16.1886

> <Gold.Chemscore.DG>
-17.4805

> <Gold.Chemscore.ZeroCoef>
-5.4800

> <Gold.Chemscore.Hbond>
0.9673

> <Gold.Chemscore.Metal>
0.0000

> <Gold.Chemscore.Lipo>
108.2419

> <Gold.Chemscore.Internal_Hbond>
0.0000

> <Gold.Chemscore.DEClash>
0.5371

> <Gold.Chemscore.DEInternal>
0.7548

> <Gold.Chemscore.Rot>
1.5213

> <Gold.Chemscore.Internal.Correction>
   9.000000E+99

> <Gold.Chemscore.Hbonds>
donor molecule, donor type, donor heavy atom, donor atom, acceptor molecule, acceptor atom, score
      L1  H    12    33       P1  8028  0.85

> <Gold.Chemscore.Hbond.Weighted>
-3.2307

> <Gold.Chemscore.Metal.Weighted>
-0.0000

> <Gold.Chemscore.Lipo.Weighted>
-12.6643

> <Gold.Chemscore.Internal_Hbond.Weighted>
0.0000

> <Gold.Chemscore.DEClash.Weighted>
0.5371

> <Gold.Chemscore.DEInternal.Weighted>
0.7548

> <Gold.Chemscore.Rot.Weighted>
3.8945

> <Gold.Chemscore.Internal.Correction.Weighted>
   9.000000E+99

> <Gold.Protein.RotatedTorsions>
[ 6907 6896 6895 6894 ] final   36.45 input  -60.11 | X-H torsion
[ 7974 7965 7964 7962 ] final  -39.37 input  175.53 | X-H torsion
[ 8008 7997 7996 7995 ] final   80.77 input   59.86 | X-H torsion
[ 10167 10162 10161 10158 ] final   -8.35 input  -65.29 | X-H torsion
[ 10718 10713 10712 10709 ] final  111.71 input   66.30 | X-H torsion
[ 10763 10752 10751 10750 ] final  170.07 input  -60.55 | X-H torsion
[ 11005 11000 10999 10996 ] final  -45.79 input  -57.11 | X-H torsion

> <Gold.Protein.ActiveResidues>
 VAL166  LYS551  ARG553  GLY616  TRP617  ASP618  TYR619  PRO620  LYS621  CYS622 
 ASP623  PHE694  ASN695  SER759  ASP760  ASP761  ALA762  ILE779  LEU786  VAL792 
 PHE793  MET794  SER795  GLU796  ALA797  LYS798  CYS799  TRP800  GLU811  SER814 

> <Gold.Protein.RotatedAtoms>
  152.1300  134.9142  160.0558 H   0  0  0  0  0  0  0  0  0  0  0  0  # atno 6907 bound_to 6896
  152.0250  133.3909  159.4282 H   0  0  0  0  0  0  0  0  0  0  0  0  # atno 6908 bound_to 6896
  150.6855  134.3505  159.4950 H   0  0  0  0  0  0  0  0  0  0  0  0  # atno 6909 bound_to 6896
  146.0402  140.6618  142.9090 H   0  0  0  0  0  0  0  0  0  0  0  0  # atno 7974 bound_to 7965
  155.8880  140.3440  155.5935 H   0  0  0  0  0  0  0  0  0  0  0  0  # atno 8008 bound_to 7997
  155.7644  140.0837  157.2158 H   0  0  0  0  0  0  0  0  0  0  0  0  # atno 8009 bound_to 7997
  154.4030  140.1530  156.2856 H   0  0  0  0  0  0  0  0  0  0  0  0  # atno 8010 bound_to 7997
  140.7056  143.5978  150.8828 H   0  0  0  0  0  0  0  0  0  0  0  0  # atno 10167 bound_to 10162
  157.6431  131.0955  150.6788 H   0  0  0  0  0  0  0  0  0  0  0  0  # atno 10718 bound_to 10713
  154.3923  135.2754  155.2147 H   0  0  0  0  0  0  0  0  0  0  0  0  # atno 10763 bound_to 10752
  154.4208  135.6000  153.6012 H   0  0  0  0  0  0  0  0  0  0  0  0  # atno 10764 bound_to 10752
  152.9832  135.5972  154.4180 H   0  0  0  0  0  0  0  0  0  0  0  0  # atno 10765 bound_to 10752
  141.0538  133.6733  156.3063 H   0  0  0  0  0  0  0  0  0  0  0  0  # atno 11005 bound_to 11000
  144.7071  140.3895  143.7109 LP  0  0  0  0  0  0  0  0  0  0  0  0  # atno 17320 bound_to 7965
  145.6896  139.1636  143.2654 LP  0  0  0  0  0  0  0  0  0  0  0  0  # atno 17321 bound_to 7965
  139.9703  143.6064  152.2975 LP  0  0  0  0  0  0  0  0  0  0  0  0  # atno 17342 bound_to 10162
  139.6648  144.7662  151.1893 LP  0  0  0  0  0  0  0  0  0  0  0  0  # atno 17343 bound_to 10162
  156.7109  130.4651  149.5547 LP  0  0  0  0  0  0  0  0  0  0  0  0  # atno 17370 bound_to 10713
  156.1731  130.6450  151.0861 LP  0  0  0  0  0  0  0  0  0  0  0  0  # atno 17371 bound_to 10713
  140.6004  134.5561  157.5516 LP  0  0  0  0  0  0  0  0  0  0  0  0  # atno 17394 bound_to 11000
  139.9373  134.7852  156.0770 LP  0  0  0  0  0  0  0  0  0  0  0  0  # atno 17395 bound_to 11000

$$$$
