AV-unprocessed.smi:2712|AV-procd|sdf|10475|dock9
  -GOLD-   2272014513D 1   1.00000     0.00000
 Structure written by MMmdl.
 52 53  0  0  0  0  0  0  0  0  1 V2000
  154.0701  140.9769  161.1505 C   0  0  0  0  0  0  0  0  0  0  0  0
  153.2958  142.2352  160.8914 C   0  0  0  0  0  0  0  0  0  0  0  0
  152.9714  143.1905  161.9334 C   0  0  0  0  0  0  0  0  0  0  0  0
  152.2683  144.2995  161.6188 C   0  0  0  0  0  0  0  0  0  0  0  0
  151.8228  144.5650  160.2524 C   0  0  0  0  0  0  0  0  0  0  0  0
  151.1793  145.5650  159.9343 O   0  0  0  0  0  0  0  0  0  0  0  0
  152.1838  143.5964  159.3589 N   0  0  0  0  0  0  0  0  0  0  0  0
  151.8022  143.6825  157.9417 C   0  0  0  0  0  0  0  0  0  0  0  0
  151.3063  142.3520  157.3551 C   0  0  0  0  0  0  0  0  0  0  0  0
  151.8382  141.2829  157.6593 O   0  0  0  0  0  0  0  0  0  0  0  0
  150.2765  142.4399  156.4989 N   0  0  0  0  0  0  0  0  0  0  0  0
  149.6414  141.3151  155.8143 C   0  0  1  0  0  0  0  0  0  0  0  0
  150.7377  140.3701  155.2883 C   0  0  0  0  0  0  0  0  0  0  0  0
  150.2391  138.9736  154.8879 C   0  0  0  0  0  0  0  0  0  0  0  0
  150.2540  137.9672  156.0547 C   0  0  0  0  0  0  0  0  0  0  0  0
  149.1507  138.1437  157.1359 C   0  0  1  0  0  0  0  0  0  0  0  0
  149.1978  137.0406  158.2580 C   0  0  0  0  0  0  0  0  0  0  0  0
  150.4316  137.2019  159.1727 C   0  0  0  0  0  0  0  0  0  0  0  0
  149.2313  135.6217  157.6438 C   0  0  0  0  0  0  0  0  0  0  0  0
  147.9244  137.0982  159.1355 C   0  0  0  0  0  0  0  0  0  0  0  0
  149.1291  139.5923  157.7032 C   0  0  0  0  0  0  0  0  0  0  0  0
  148.5838  140.6377  156.7140 C   0  0  0  0  0  0  0  0  0  0  0  0
  152.9080  142.4596  159.6789 N   0  0  0  0  0  0  0  0  0  0  0  0
  154.4035  140.9245  162.1870 H   0  0  0  0  0  0  0  0  0  0  0  0
  154.9534  140.9249  160.5132 H   0  0  0  0  0  0  0  0  0  0  0  0
  153.4568  140.0974  160.9515 H   0  0  0  0  0  0  0  0  0  0  0  0
  153.2916  143.0082  162.9486 H   0  0  0  0  0  0  0  0  0  0  0  0
  152.0259  145.0093  162.3961 H   0  0  0  0  0  0  0  0  0  0  0  0
  151.0302  144.4405  157.7986 H   0  0  0  0  0  0  0  0  0  0  0  0
  152.6556  144.0224  157.3516 H   0  0  0  0  0  0  0  0  0  0  0  0
  149.9005  143.3571  156.3069 H   0  0  0  0  0  0  0  0  0  0  0  0
  149.1130  141.7103  154.9446 H   0  0  0  0  0  0  0  0  0  0  0  0
  151.2008  140.8422  154.4208 H   0  0  0  0  0  0  0  0  0  0  0  0
  151.5398  140.2677  156.0210 H   0  0  0  0  0  0  0  0  0  0  0  0
  149.2556  139.0227  154.4194 H   0  0  0  0  0  0  0  0  0  0  0  0
  150.9107  138.5905  154.1186 H   0  0  0  0  0  0  0  0  0  0  0  0
  150.1517  136.9853  155.5956 H   0  0  0  0  0  0  0  0  0  0  0  0
  151.2407  137.9761  156.5169 H   0  0  0  0  0  0  0  0  0  0  0  0
  148.2015  137.9938  156.6193 H   0  0  0  0  0  0  0  0  0  0  0  0
  150.4557  136.4250  159.9377 H   0  0  0  0  0  0  0  0  0  0  0  0
  150.4309  138.1592  159.6936 H   0  0  0  0  0  0  0  0  0  0  0  0
  151.3653  137.1290  158.6157 H   0  0  0  0  0  0  0  0  0  0  0  0
  150.1761  135.4104  157.1434 H   0  0  0  0  0  0  0  0  0  0  0  0
  148.4274  135.4811  156.9204 H   0  0  0  0  0  0  0  0  0  0  0  0
  149.1164  134.8529  158.4090 H   0  0  0  0  0  0  0  0  0  0  0  0
  147.8788  136.2526  159.8228 H   0  0  0  0  0  0  0  0  0  0  0  0
  147.0191  137.0681  158.5281 H   0  0  0  0  0  0  0  0  0  0  0  0
  147.8779  137.9900  159.7583 H   0  0  0  0  0  0  0  0  0  0  0  0
  148.4769  139.6409  158.5711 H   0  0  0  0  0  0  0  0  0  0  0  0
  150.1132  139.8868  158.0689 H   0  0  0  0  0  0  0  0  0  0  0  0
  148.0465  141.4048  157.2732 H   0  0  0  0  0  0  0  0  0  0  0  0
  147.8186  140.1783  156.0877 H   0  0  0  0  0  0  0  0  0  0  0  0
  1  2  1  0  0  0  0
  1 24  1  0  0  0  0
  1 25  1  0  0  0  0
  1 26  1  0  0  0  0
  2 23  2  0  0  0  0
  2  3  1  0  0  0  0
  3  4  2  0  0  0  0
  3 27  1  0  0  0  0
  4  5  1  0  0  0  0
  4 28  1  0  0  0  0
  5  6  2  0  0  0  0
  5  7  1  0  0  0  0
  7  8  1  0  0  0  0
  7 23  1  0  0  0  0
  8  9  1  0  0  0  0
  8 29  1  0  0  0  0
  8 30  1  0  0  0  0
  9 10  2  0  0  0  0
  9 11  1  0  0  0  0
 11 12  1  0  0  0  0
 11 31  1  0  0  0  0
 12 22  1  0  0  0  0
 12 13  1  0  0  0  0
 12 32  1  0  0  0  0
 13 14  1  0  0  0  0
 13 33  1  0  0  0  0
 13 34  1  0  0  0  0
 14 15  1  0  0  0  0
 14 35  1  0  0  0  0
 14 36  1  0  0  0  0
 15 16  1  0  0  0  0
 15 37  1  0  0  0  0
 15 38  1  0  0  0  0
 16 17  1  0  0  0  0
 16 21  1  0  0  0  0
 16 39  1  0  0  0  0
 17 18  1  0  0  0  0
 17 19  1  0  0  0  0
 17 20  1  0  0  0  0
 18 40  1  0  0  0  0
 18 41  1  0  0  0  0
 18 42  1  0  0  0  0
 19 43  1  0  0  0  0
 19 44  1  0  0  0  0
 19 45  1  0  0  0  0
 20 46  1  0  0  0  0
 20 47  1  0  0  0  0
 20 48  1  0  0  0  0
 21 22  1  0  0  0  0
 21 49  1  0  0  0  0
 21 50  1  0  0  0  0
 22 51  1  0  0  0  0
 22 52  1  0  0  0  0
M  END
> <s_m_source_file>
AV-unprocessed.smi

> <i_m_source_file_index>
2712

> <i_lp_mmshare_version>
43012

> <i_f3d_flags>
0

> <s_epik_input>
W0NIM11jMVtjSF1bY0hdYyg9TyluKG4xKVtDSDJdQyg9TylbTkhdW0NAQEhdMltDSDJdW0NIMl1bQ0gyXVtDQEBIXShDKFtDSDNdKShbQ0gzXSlbQ0gzXSlbQ0gyXVtDSDJdMg==

> <s_epik_cmdline>
J2VwaWtfcHl0aG9uJywgJy1waCcsICc3LjAnLCAnLXRuJywgJzgnLCAnLW1hJywgJzIwMCcsICctbWV0YWxfYmluZGluZycsICctaW1hZScsICc8aW5maWxlLm1hZT4nLCAnLW9tYWUnLCAnPG91dGZpbGUubWFlPic=

> <r_lp_tautomer_probability>
1

> <r_epik_Ionization_Penalty>
8.71758e-07

> <r_epik_Ionization_Penalty_Charging>
8.50442e-07

> <r_epik_Ionization_Penalty_Neutral>
2.13165e-08

> <r_epik_State_Penalty>
-0

> <r_epik_Charging_Adjusted_Penalty>
8.50442e-07

> <i_epik_Tot_Q>
0

> <i_epik_Tot_abs_Q>
0

> <r_epik_Metal_State_Penalty>
-0

> <b_epik_Metal_Only>
0

> <s_lp_Force_Field>
OPLS_2005

> <r_lp_Energy>
40.0092

> <b_lp_Chiralities_Consistent>
1

> <s_lp_Variant>
AV-unprocessed.smi:2712-2

> <Gold.Version>
5.8.1

> <Gold.Id.Protein>
6NUR|6NUR_protein|mol2

> <Gold.PLP.Fitness>
45.6689

> <Gold.PLP.PLP>
-44.3465

> <Gold.PLP.part.hbond>
-1.4690

> <Gold.PLP.part.metal>
0.0000

> <Gold.PLP.part.buried>
-5.8053

> <Gold.PLP.part.nonpolar>
-37.0203

> <Gold.PLP.part.repulsive>
0.2681

> <Gold.PLP.ligand.clash>
0.0000

> <Gold.PLP.ligand.torsion>
0.8815

> <Gold.PLP.Chemscore.Hbond>
1.0000

> <Gold.PLP.Chemscore.CHOScore>
0.0000

> <Gold.PLP.Chemscore.Metal>
0.0000

> <Gold.Chemscore.Hbonds>
donor molecule, donor type, donor heavy atom, donor atom, acceptor molecule, acceptor atom, score
      L1  H    11    31       P1  8028  1.00

> <Gold.PLP.Chemscore.Internal.Correction>
0.0853

> <Gold.Rescore>
     Score         DG    S(hbond)    S(metal)    S(lipo)     H(rot)  DE(clash)    DE(int)     intcor
     12.39     -16.39       1.00        0.00      98.05       1.52       0.07       3.94       ----

> <Gold.Chemscore.Fitness>
12.3903

> <Gold.Chemscore.DG>
-16.3941

> <Gold.Chemscore.ZeroCoef>
-5.4800

> <Gold.Chemscore.Hbond>
0.9953

> <Gold.Chemscore.Metal>
0.0000

> <Gold.Chemscore.Lipo>
98.0454

> <Gold.Chemscore.Internal_Hbond>
0.0000

> <Gold.Chemscore.DEClash>
0.0659

> <Gold.Chemscore.DEInternal>
3.9379

> <Gold.Chemscore.Rot>
1.5162

> <Gold.Chemscore.Internal.Correction>
   9.000000E+99

> <Gold.Chemscore.Hbonds>
donor molecule, donor type, donor heavy atom, donor atom, acceptor molecule, acceptor atom, score
      L1  H    11    31       P1  8028  1.00

> <Gold.Chemscore.Hbond.Weighted>
-3.3242

> <Gold.Chemscore.Metal.Weighted>
-0.0000

> <Gold.Chemscore.Lipo.Weighted>
-11.4713

> <Gold.Chemscore.Internal_Hbond.Weighted>
0.0000

> <Gold.Chemscore.DEClash.Weighted>
0.0659

> <Gold.Chemscore.DEInternal.Weighted>
3.9379

> <Gold.Chemscore.Rot.Weighted>
3.8814

> <Gold.Chemscore.Internal.Correction.Weighted>
   9.000000E+99

> <Gold.Protein.RotatedTorsions>
[ 6907 6896 6895 6894 ] final   -3.97 input  -60.11 | X-H torsion
[ 7974 7965 7964 7962 ] final  -45.95 input  175.53 | X-H torsion
[ 8008 7997 7996 7995 ] final   26.49 input   59.86 | X-H torsion
[ 10167 10162 10161 10158 ] final  157.19 input  -65.29 | X-H torsion
[ 10718 10713 10712 10709 ] final -164.60 input   66.30 | X-H torsion
[ 10763 10752 10751 10750 ] final   70.95 input  -60.55 | X-H torsion
[ 11005 11000 10999 10996 ] final   67.24 input  -57.11 | X-H torsion

> <Gold.Protein.ActiveResidues>
 VAL166  LYS551  ARG553  GLY616  TRP617  ASP618  TYR619  PRO620  LYS621  CYS622 
 ASP623  PHE694  ASN695  SER759  ASP760  ASP761  ALA762  ILE779  LEU786  VAL792 
 PHE793  MET794  SER795  GLU796  ALA797  LYS798  CYS799  TRP800  GLU811  SER814 

> <Gold.Protein.RotatedAtoms>
  151.5051  135.1063  159.9838 H   0  0  0  0  0  0  0  0  0  0  0  0  # atno 6907 bound_to 6896
  152.4685  133.7973  159.6944 H   0  0  0  0  0  0  0  0  0  0  0  0  # atno 6908 bound_to 6896
  150.8681  133.7481  159.2996 H   0  0  0  0  0  0  0  0  0  0  0  0  # atno 6909 bound_to 6896
  145.9769  140.7325  142.9383 H   0  0  0  0  0  0  0  0  0  0  0  0  # atno 7974 bound_to 7965
  155.0281  140.3155  155.4768 H   0  0  0  0  0  0  0  0  0  0  0  0  # atno 8008 bound_to 7997
  156.2879  140.2185  156.5344 H   0  0  0  0  0  0  0  0  0  0  0  0  # atno 8009 bound_to 7997
  154.7394  140.0475  157.0785 H   0  0  0  0  0  0  0  0  0  0  0  0  # atno 8010 bound_to 7997
  139.4822  144.4940  151.8266 H   0  0  0  0  0  0  0  0  0  0  0  0  # atno 10167 bound_to 10162
  156.6414  130.8970  151.2996 H   0  0  0  0  0  0  0  0  0  0  0  0  # atno 10718 bound_to 10713
  153.0370  135.5155  154.7518 H   0  0  0  0  0  0  0  0  0  0  0  0  # atno 10763 bound_to 10752
  154.6486  135.2922  155.0017 H   0  0  0  0  0  0  0  0  0  0  0  0  # atno 10764 bound_to 10752
  154.0909  135.6650  153.4905 H   0  0  0  0  0  0  0  0  0  0  0  0  # atno 10765 bound_to 10752
  139.9783  134.6786  156.0311 H   0  0  0  0  0  0  0  0  0  0  0  0  # atno 11005 bound_to 11000
  144.6851  140.2842  143.7287 LP  0  0  0  0  0  0  0  0  0  0  0  0  # atno 17320 bound_to 7965
  145.7826  139.1897  143.2149 LP  0  0  0  0  0  0  0  0  0  0  0  0  # atno 17321 bound_to 7965
  140.4427  144.1964  150.5892 LP  0  0  0  0  0  0  0  0  0  0  0  0  # atno 17342 bound_to 10162
  140.4666  143.2428  151.9146 LP  0  0  0  0  0  0  0  0  0  0  0  0  # atno 17343 bound_to 10162
  157.7170  130.9509  150.1292 LP  0  0  0  0  0  0  0  0  0  0  0  0  # atno 17370 bound_to 10713
  156.2156  130.3670  149.8617 LP  0  0  0  0  0  0  0  0  0  0  0  0  # atno 17371 bound_to 10713
  141.1458  133.6556  156.3863 LP  0  0  0  0  0  0  0  0  0  0  0  0  # atno 17394 bound_to 11000
  140.5149  134.6360  157.5297 LP  0  0  0  0  0  0  0  0  0  0  0  0  # atno 17395 bound_to 11000

$$$$
