#       Name:                AV-unprocessed.smi:1312
#       Creating user name   scv26
#       Creation time:       Fri Mar 27 05:02:03 2020


#       File generated by GOLD software.
#

@<TRIPOS>MOLECULE
AV-unprocessed.smi:1312
    53    54     1
SMALL
NO_CHARGES


@<TRIPOS>ATOM
      1 ****        -4.0444   0.4363   2.3388 C.3            1 S1                 0.0000
      2 ****        -3.6688   1.0226   0.9686 C.3            1 S1                 0.0000
      3 ****        -2.1436   1.0592   0.6670 C.3            1 S1                 0.0000
      4 ****        -1.5767  -0.3907   0.6427 C.3            1 S1                 0.0000
      5 ****        -0.1214  -0.4722   0.5850 N.am           1 S1                 0.0000
      6 ****         0.7046  -0.2614   1.6230 C.2            1 S1                 0.0000
      7 ****         0.3052   0.0377   2.7476 O.2            1 S1                 0.0000
      8 ****         2.2085  -0.3716   1.3536 C.3            1 S1                 0.0000
      9 ****         2.5305  -1.6147   0.5586 C.2            1 S1                 0.0000
     10 ****         2.6649  -2.9461   1.0525 C.2            1 S1                 0.0000
     11 ****         2.5234  -3.4360   2.4656 C.3            1 S1                 0.0000
     12 ****         2.9498  -3.8128   0.0955 N.2            1 S1                 0.0000
     13 ****         3.0047  -3.0764  -1.0319 N.pl3          1 S1                 0.0000
     14 ****         3.3024  -3.7290  -2.2922 C.3            1 S1                 0.0000
     15 ****         2.7567  -1.7395  -0.7870 C.2            1 S1                 0.0000
     16 ****         2.7548  -0.7187  -1.8798 C.3            1 S1                 0.0000
     17 ****        -1.8424   1.7794  -0.6151 N.4            1 S1                 1.0000
     18 ****        -2.6275   3.0040  -0.8921 C.3            1 S1                 0.0000
     19 ****        -1.8502   3.7397  -1.9762 C.3            1 S1                 0.0000
     20 ****        -0.4006   3.4937  -1.5804 C.3            1 S1                 0.0000
     21 ****        -0.4197   2.1521  -0.8356 C.3            1 S1                 0.0000
     22 ****        -5.1020   0.6004   2.5467 H              1 S1                 0.0000
     23 ****        -3.4753   0.9080   3.1402 H              1 S1                 0.0000
     24 ****        -3.8771  -0.6388   2.3896 H              1 S1                 0.0000
     25 ****        -4.1929   0.4766   0.1833 H              1 S1                 0.0000
     26 ****        -4.0810   2.0306   0.9641 H              1 S1                 0.0000
     27 ****        -1.6740   1.6171   1.4786 H              1 S1                 0.0000
     28 ****        -1.8917  -0.9552   1.5192 H              1 S1                 0.0000
     29 ****        -1.9785  -0.9283  -0.2167 H              1 S1                 0.0000
     30 ****         0.2909  -0.7260  -0.3014 H              1 S1                 0.0000
     31 ****         2.5309   0.5331   0.8384 H              1 S1                 0.0000
     32 ****         2.7379  -0.3746   2.3073 H              1 S1                 0.0000
     33 ****         1.8604  -2.7925   3.0438 H              1 S1                 0.0000
     34 ****         3.4896  -3.4550   2.9697 H              1 S1                 0.0000
     35 ****         2.1097  -4.4444   2.4988 H              1 S1                 0.0000
     36 ****         2.5779  -3.4231  -3.0469 H              1 S1                 0.0000
     37 ****         3.2588  -4.8135  -2.1841 H              1 S1                 0.0000
     38 ****         4.3021  -3.4459  -2.6221 H              1 S1                 0.0000
     39 ****         2.7347   0.2944  -1.4799 H              1 S1                 0.0000
     40 ****         1.8812  -0.8423  -2.5201 H              1 S1                 0.0000
     41 ****         3.6459  -0.8111  -2.5011 H              1 S1                 0.0000
     42 ****        -3.6452   2.7770  -1.2116 H              1 S1                 0.0000
     43 ****        -2.6742   3.6239   0.0050 H              1 S1                 0.0000
     44 ****        -2.0526   3.2898  -2.9492 H              1 S1                 0.0000
     45 ****        -2.1008   4.7994  -2.0348 H              1 S1                 0.0000
     46 ****         0.2685   3.4859  -2.4416 H              1 S1                 0.0000
     47 ****        -0.0638   4.2830  -0.9068 H              1 S1                 0.0000
     48 ****         0.1190   2.2566   0.1069 H              1 S1                 0.0000
     49 ****         0.0741   1.3753  -1.4204 H              1 S1                 0.0000
     50 ****        -2.0818   1.1441  -1.3628 H              1 S1                 0.0000
     51 ****        -0.6750   0.1340   2.9209 LP             1 S1                 0.0000
     52 ****         0.9607   0.1845   3.4884 LP             1 S1                 0.0000
     53 ****         3.0930  -4.7982   0.1879 LP             1 S1                 0.0000
@<TRIPOS>BOND
    1    1    2 1     
    2    1   22 1     
    3    1   23 1     
    4    1   24 1     
    5    2    3 1     
    6    2   25 1     
    7    2   26 1     
    8    3    4 1     
    9    3   17 1     
   10    3   27 1     
   11    4    5 1     
   12    4   28 1     
   13    4   29 1     
   14    5    6 am    
   15    5   30 1     
   16    6    7 2     
   17    6    8 1     
   18    8    9 1     
   19    8   31 1     
   20    8   32 1     
   21    9   15 2     
   22    9   10 1     
   23   10   11 1     
   24   10   12 2     
   25   11   33 1     
   26   11   34 1     
   27   11   35 1     
   28   12   13 1     
   29   13   14 1     
   30   13   15 1     
   31   14   36 1     
   32   14   37 1     
   33   14   38 1     
   34   15   16 1     
   35   16   39 1     
   36   16   40 1     
   37   16   41 1     
   38   17   21 1     
   39   17   18 1     
   40   17   50 1     
   41   18   19 1     
   42   18   42 1     
   43   18   43 1     
   44   19   20 1     
   45   19   44 1     
   46   19   45 1     
   47   20   21 1     
   48   20   46 1     
   49   20   47 1     
   50   21   48 1     
   51   21   49 1     
   52    7   51 1     
   53    7   52 1     
   54   12   53 1     
@<TRIPOS>SUBSTRUCTURE
      1 S1             1
@<TRIPOS>SET
LONE_PAIRS      STATIC     ATOMS    <user>   **** ""
3 51 52 53
DONOR_HYDROGENS      STATIC     ATOMS    <user>   **** ""
2 30 50
ATOM$BLUE        STATIC     ATOMS    COLORGROUP SYSTEM
3 51 52 53
ATOM$RED        STATIC     ATOMS    COLORGROUP SYSTEM
2 30 50
