AV-unprocessed.smi:109|AV-procd|sdf|1060|dock4
  -GOLD-   2262018133D 1   1.00000     0.00000
 Structure written by MMmdl.
 58 61  0  0  0  0  0  0  0  0  1 V2000
  149.7047  140.3943  153.9049 O   0  0  0  0  0  0  0  0  0  0  0  0
  148.8842  140.8478  154.9596 C   0  0  0  0  0  0  0  0  0  0  0  0
  149.6979  141.7468  155.9037 C   0  0  0  0  0  0  0  0  0  0  0  0
  150.6752  140.9527  156.7988 C   0  0  1  0  0  0  0  0  0  0  0  0
  151.7957  140.4636  155.9958 N   0  0  0  0  0  0  0  0  0  0  0  0
  152.2110  139.1788  156.0640 C   0  0  0  0  0  0  0  0  0  0  0  0
  153.3929  138.8471  156.6457 N   0  0  0  0  0  0  0  0  0  0  0  0
  153.7727  137.5676  156.7042 C   0  0  0  0  0  0  0  0  0  0  0  0
  153.1320  136.4865  156.2555 N   0  0  0  0  0  0  0  0  0  0  0  0
  151.9425  136.8111  155.6712 C   0  0  0  0  0  0  0  0  0  0  0  0
  151.4187  138.1275  155.5347 C   0  0  0  0  0  0  0  0  0  0  0  0
  150.1932  138.0821  154.8841 N   0  0  0  0  0  0  0  0  0  0  0  0
  150.0048  136.8103  154.6559 C   0  0  0  0  0  0  0  0  0  0  0  0
  151.0053  135.9728  155.0977 N   0  0  0  0  0  0  0  0  0  0  0  0
  151.0473  134.4777  154.9816 C   0  0  2  0  0  0  0  0  0  0  0  0
  150.0443  134.0483  154.1077 O   0  0  0  0  0  0  0  0  0  0  0  0
  149.1376  133.1707  154.7756 C   0  0  1  0  0  0  0  0  0  0  0  0
  148.5860  132.1385  153.7804 C   0  0  0  0  0  0  0  0  0  0  0  0
  148.5880  132.6753  152.4748 O   0  0  0  0  0  0  0  0  0  0  0  0
  150.0081  132.5602  155.8754 C   0  0  2  0  0  0  0  0  0  0  0  0
  149.2623  131.9802  156.9285 O   0  0  0  0  0  0  0  0  0  0  0  0
  150.8431  133.7507  156.3245 C   0  0  2  0  0  0  0  0  0  0  0  0
  150.1860  134.5393  157.3054 O   0  0  0  0  0  0  0  0  0  0  0  0
  151.1857  141.7425  158.0358 C   0  0  0  0  0  0  0  0  0  0  0  0
  151.4128  143.2407  157.7371 C   0  0  0  0  0  0  0  0  0  0  0  0
  151.8189  144.0115  159.0038 C   0  0  0  0  0  0  0  0  0  0  0  0
  153.0672  143.3939  159.6530 C   0  0  0  0  0  0  0  0  0  0  0  0
  152.8529  141.9028  159.9555 C   0  0  0  0  0  0  0  0  0  0  0  0
  152.4448  141.1296  158.6905 C   0  0  0  0  0  0  0  0  0  0  0  0
  152.0172  134.2644  154.5305 H   0  0  0  0  0  0  0  0  0  0  0  0
  148.3309  133.7481  155.2305 H   0  0  0  0  0  0  0  0  0  0  0  0
  150.6636  131.8016  155.4444 H   0  0  0  0  0  0  0  0  0  0  0  0
  151.8094  133.4411  156.7238 H   0  0  0  0  0  0  0  0  0  0  0  0
  149.1670  140.2730  153.1372 H   0  0  0  0  0  0  0  0  0  0  0  0
  148.0399  141.3958  154.5402 H   0  0  0  0  0  0  0  0  0  0  0  0
  148.4826  139.9839  155.4898 H   0  0  0  0  0  0  0  0  0  0  0  0
  150.2426  142.4899  155.3198 H   0  0  0  0  0  0  0  0  0  0  0  0
  148.9947  142.3026  156.5223 H   0  0  0  0  0  0  0  0  0  0  0  0
  150.1187  140.0911  157.1698 H   0  0  0  0  0  0  0  0  0  0  0  0
  152.2760  141.1627  155.4474 H   0  0  0  0  0  0  0  0  0  0  0  0
  154.7241  137.3828  157.1810 H   0  0  0  0  0  0  0  0  0  0  0  0
  149.1197  136.4440  154.1565 H   0  0  0  0  0  0  0  0  0  0  0  0
  149.1583  131.2109  153.8116 H   0  0  0  0  0  0  0  0  0  0  0  0
  147.5536  131.8910  154.0294 H   0  0  0  0  0  0  0  0  0  0  0  0
  148.7913  131.9831  151.8648 H   0  0  0  0  0  0  0  0  0  0  0  0
  149.7783  132.0330  157.7191 H   0  0  0  0  0  0  0  0  0  0  0  0
  149.3219  134.7527  156.9880 H   0  0  0  0  0  0  0  0  0  0  0  0
  150.3929  141.7065  158.7843 H   0  0  0  0  0  0  0  0  0  0  0  0
  152.1912  143.3692  156.9857 H   0  0  0  0  0  0  0  0  0  0  0  0
  150.5053  143.6787  157.3203 H   0  0  0  0  0  0  0  0  0  0  0  0
  152.0071  145.0570  158.7578 H   0  0  0  0  0  0  0  0  0  0  0  0
  150.9939  144.0050  159.7172 H   0  0  0  0  0  0  0  0  0  0  0  0
  153.9223  143.5119  158.9863 H   0  0  0  0  0  0  0  0  0  0  0  0
  153.3135  143.9287  160.5706 H   0  0  0  0  0  0  0  0  0  0  0  0
  153.7633  141.4742  160.3754 H   0  0  0  0  0  0  0  0  0  0  0  0
  152.0798  141.7921  160.7170 H   0  0  0  0  0  0  0  0  0  0  0  0
  152.2669  140.0853  158.9486 H   0  0  0  0  0  0  0  0  0  0  0  0
  153.2777  141.1377  157.9870 H   0  0  0  0  0  0  0  0  0  0  0  0
  1  2  1  0  0  0  0
  1 34  1  0  0  0  0
  2  3  1  0  0  0  0
  2 35  1  0  0  0  0
  2 36  1  0  0  0  0
  3  4  1  0  0  0  0
  3 37  1  0  0  0  0
  3 38  1  0  0  0  0
  4  5  1  0  0  0  0
  4 24  1  0  0  0  0
  4 39  1  0  0  0  0
  5  6  1  0  0  0  0
  5 40  1  0  0  0  0
  6 11  1  0  0  0  0
  6  7  2  0  0  0  0
  7  8  1  0  0  0  0
  8  9  2  0  0  0  0
  8 41  1  0  0  0  0
  9 10  1  0  0  0  0
 10 14  1  0  0  0  0
 10 11  2  0  0  0  0
 11 12  1  0  0  0  0
 12 13  2  0  0  0  0
 13 14  1  0  0  0  0
 13 42  1  0  0  0  0
 14 15  1  0  0  0  0
 15 30  1  0  0  0  0
 15 22  1  0  0  0  0
 15 16  1  0  0  0  0
 16 17  1  0  0  0  0
 17 31  1  0  0  0  0
 17 18  1  0  0  0  0
 17 20  1  0  0  0  0
 18 19  1  0  0  0  0
 18 43  1  0  0  0  0
 18 44  1  0  0  0  0
 19 45  1  0  0  0  0
 20 32  1  0  0  0  0
 20 21  1  0  0  0  0
 20 22  1  0  0  0  0
 21 46  1  0  0  0  0
 22 33  1  0  0  0  0
 22 23  1  0  0  0  0
 23 47  1  0  0  0  0
 24 29  1  0  0  0  0
 24 25  1  0  0  0  0
 24 48  1  0  0  0  0
 25 26  1  0  0  0  0
 25 49  1  0  0  0  0
 25 50  1  0  0  0  0
 26 27  1  0  0  0  0
 26 51  1  0  0  0  0
 26 52  1  0  0  0  0
 27 28  1  0  0  0  0
 27 53  1  0  0  0  0
 27 54  1  0  0  0  0
 28 29  1  0  0  0  0
 28 55  1  0  0  0  0
 28 56  1  0  0  0  0
 29 57  1  0  0  0  0
 29 58  1  0  0  0  0
M  END
> <s_m_source_file>
AV-unprocessed.smi

> <i_m_source_file_index>
109

> <i_lp_mmshare_version>
43012

> <i_f3d_flags>
0

> <s_epik_input>
W0NIMl0xW0NIMl1bQ0gyXVtDSDJdW0NIMl1bQ0hdMVtDQEhdKFtDSDJdW0NIMl1bT0hdKVtOSF1jKG5bY0hdbjIpYyhjMjMpbltjSF1uM1tDQEBIXTRPW0NASF0oW0NIMl1bT0hdKVtDQEBIXShbT0hdKVtDQEhdNFtPSF0=

> <s_epik_cmdline>
J2VwaWtfcHl0aG9uJywgJy1waCcsICc3LjAnLCAnLXRuJywgJzgnLCAnLW1hJywgJzIwMCcsICctbWV0YWxfYmluZGluZycsICctaW1hZScsICc8aW5maWxlLm1hZT4nLCAnLW9tYWUnLCAnPG91dGZpbGUubWFlPic=

> <r_lp_tautomer_probability>
1

> <r_epik_Ionization_Penalty>
0.000793976

> <r_epik_Ionization_Penalty_Charging>
0

> <r_epik_Ionization_Penalty_Neutral>
0.000793976

> <r_epik_State_Penalty>
-0

> <r_epik_Charging_Adjusted_Penalty>
0

> <i_epik_Tot_Q>
0

> <i_epik_Tot_abs_Q>
0

> <r_epik_Metal_State_Penalty>
-0

> <b_epik_Metal_Only>
0

> <s_epik_Chemistry_Notes>
This compound contains an acetal/aminal-like group ( X-CH(R)-Y where X, Y are N, S, or O) that may be acid/base labile, releasing an aldehyde.

> <s_lp_Force_Field>
OPLS_2005

> <r_lp_Energy>
62.1287

> <b_lp_Chiralities_Consistent>
1

> <s_lp_Variant>
AV-unprocessed.smi:109-30

> <Gold.Version>
5.8.1

> <Gold.Id.Protein>
6NUR|6NUR_protein|mol2

> <Gold.PLP.Fitness>
58.5616

> <Gold.PLP.PLP>
-43.9668

> <Gold.PLP.part.hbond>
-5.7731

> <Gold.PLP.part.metal>
0.0000

> <Gold.PLP.part.buried>
-3.2783

> <Gold.PLP.part.nonpolar>
-35.0205

> <Gold.PLP.part.repulsive>
0.4613

> <Gold.PLP.ligand.clash>
0.0000

> <Gold.PLP.ligand.torsion>
2.2084

> <Gold.PLP.Chemscore.Hbond>
5.2605

> <Gold.PLP.Chemscore.CHOScore>
0.9314

> <Gold.PLP.Chemscore.Metal>
0.0000

> <Gold.Chemscore.Hbonds>
donor molecule, donor type, donor heavy atom, donor atom, acceptor molecule, acceptor atom, score
      L1  H     1    34       P1  7957  0.64
      L1  H    19    45       P1 10747  1.00
      P1  H  6896  6909       L1    23  0.53
      P1  H  7989  7998       L1     1  0.67
      P1  H  7997  8010       L1     7  0.85
      P1  H 10752 10765       L1     9  0.67
      L1  C    13    42       P1  7948  0.85

> <Gold.PLP.Chemscore.Internal.Correction>
0.4361

> <Gold.Rescore>
     Score         DG    S(hbond)    S(metal)    S(lipo)     H(rot)  DE(clash)    DE(int)     intcor
      8.92     -13.88       3.15        0.00     101.48       5.47       0.54       4.42       ----

> <Gold.Chemscore.Fitness>
8.9244

> <Gold.Chemscore.DG>
-13.8843

> <Gold.Chemscore.ZeroCoef>
-5.4800

> <Gold.Chemscore.Hbond>
3.1510

> <Gold.Chemscore.Metal>
0.0000

> <Gold.Chemscore.Lipo>
101.4824

> <Gold.Chemscore.Internal_Hbond>
0.0000

> <Gold.Chemscore.DEClash>
0.5448

> <Gold.Chemscore.DEInternal>
4.4151

> <Gold.Chemscore.Rot>
5.4662

> <Gold.Chemscore.Internal.Correction>
   9.000000E+99

> <Gold.Chemscore.Hbonds>
donor molecule, donor type, donor heavy atom, donor atom, acceptor molecule, acceptor atom, score
      L1  H     1    34       P1  7957  0.61
      L1  H    19    45       P1 10747  0.96
      P1  H  6896  6909       L1    23  0.49
      P1  H  7989  7998       L1     1  0.54
      P1  H  7997  8010       L1     7  0.78
      P1  H 10752 10765       L1     9  0.38

> <Gold.Chemscore.Hbond.Weighted>
-10.5244

> <Gold.Chemscore.Metal.Weighted>
-0.0000

> <Gold.Chemscore.Lipo.Weighted>
-11.8734

> <Gold.Chemscore.Internal_Hbond.Weighted>
0.0000

> <Gold.Chemscore.DEClash.Weighted>
0.5448

> <Gold.Chemscore.DEInternal.Weighted>
4.4151

> <Gold.Chemscore.Rot.Weighted>
13.9935

> <Gold.Chemscore.Internal.Correction.Weighted>
   9.000000E+99

> <Gold.Protein.RotatedTorsions>
[ 6907 6896 6895 6894 ] final   22.92 input  -60.11 | X-H torsion
[ 7974 7965 7964 7962 ] final   22.95 input  175.53 | X-H torsion
[ 8008 7997 7996 7995 ] final   43.93 input   59.86 | X-H torsion
[ 10167 10162 10161 10158 ] final  -99.29 input  -65.29 | X-H torsion
[ 10718 10713 10712 10709 ] final   22.89 input   66.30 | X-H torsion
[ 10763 10752 10751 10750 ] final -105.18 input  -60.55 | X-H torsion
[ 11005 11000 10999 10996 ] final -111.64 input  -57.11 | X-H torsion

> <Gold.Protein.ActiveResidues>
 VAL166  LYS551  ARG553  GLY616  TRP617  ASP618  TYR619  PRO620  LYS621  CYS622 
 ASP623  PHE694  ASN695  SER759  ASP760  ASP761  ALA762  ILE779  LEU786  VAL792 
 PHE793  MET794  SER795  GLU796  ALA797  LYS798  CYS799  TRP800  GLU811  SER814 

> <Gold.Protein.RotatedAtoms>
  151.9344  135.0242  160.0531 H   0  0  0  0  0  0  0  0  0  0  0  0  # atno 6907 bound_to 6896
  152.2090  133.4892  159.5108 H   0  0  0  0  0  0  0  0  0  0  0  0  # atno 6908 bound_to 6896
  150.6972  134.1408  159.4147 H   0  0  0  0  0  0  0  0  0  0  0  0  # atno 6909 bound_to 6896
  146.2006  139.7813  142.8764 H   0  0  0  0  0  0  0  0  0  0  0  0  # atno 7974 bound_to 7965
  155.3109  140.3391  155.4244 H   0  0  0  0  0  0  0  0  0  0  0  0  # atno 8008 bound_to 7997
  156.1956  140.1714  156.8043 H   0  0  0  0  0  0  0  0  0  0  0  0  # atno 8009 bound_to 7997
  154.5495  140.0708  156.8628 H   0  0  0  0  0  0  0  0  0  0  0  0  # atno 8010 bound_to 7997
  140.2640  143.3388  152.0599 H   0  0  0  0  0  0  0  0  0  0  0  0  # atno 10167 bound_to 10162
  157.1585  130.6706  149.6036 H   0  0  0  0  0  0  0  0  0  0  0  0  # atno 10718 bound_to 10713
  154.7929  135.4758  154.0094 H   0  0  0  0  0  0  0  0  0  0  0  0  # atno 10763 bound_to 10752
  153.1658  135.6816  153.8684 H   0  0  0  0  0  0  0  0  0  0  0  0  # atno 10764 bound_to 10752
  153.8282  135.3195  155.3394 H   0  0  0  0  0  0  0  0  0  0  0  0  # atno 10765 bound_to 10752
  141.0722  133.9360  157.2461 H   0  0  0  0  0  0  0  0  0  0  0  0  # atno 11005 bound_to 11000
  145.3497  141.0305  143.3346 LP  0  0  0  0  0  0  0  0  0  0  0  0  # atno 17320 bound_to 7965
  144.8675  139.5086  143.6783 LP  0  0  0  0  0  0  0  0  0  0  0  0  # atno 17321 bound_to 7965
  139.5008  144.6700  151.6265 LP  0  0  0  0  0  0  0  0  0  0  0  0  # atno 17342 bound_to 10162
  140.5943  143.9723  150.6344 LP  0  0  0  0  0  0  0  0  0  0  0  0  # atno 17343 bound_to 10162
  155.9758  130.4720  150.6483 LP  0  0  0  0  0  0  0  0  0  0  0  0  # atno 17370 bound_to 10713
  157.4155  131.0829  151.1181 LP  0  0  0  0  0  0  0  0  0  0  0  0  # atno 17371 bound_to 10713
  139.9535  135.0170  156.9062 LP  0  0  0  0  0  0  0  0  0  0  0  0  # atno 17394 bound_to 11000
  140.5649  134.0499  155.7411 LP  0  0  0  0  0  0  0  0  0  0  0  0  # atno 17395 bound_to 11000

$$$$
