AV-unprocessed.smi:2718|AV-procd|sdf|10488|dock7
  -GOLD-   2272014533D 1   1.00000     0.00000
 Structure written by MMmdl.
 47 48  0  0  0  0  0  0  0  0  1 V2000
  154.3276  140.7111  161.3712 C   0  0  0  0  0  0  0  0  0  0  0  0
  153.4092  141.9157  161.3095 C   0  0  0  0  0  0  0  0  0  0  0  0
  153.3324  142.7211  162.5952 C   0  0  0  0  0  0  0  0  0  0  0  0
  152.7323  142.2313  160.1887 C   0  0  0  0  0  0  0  0  0  0  0  0
  151.8242  143.4004  160.0038 C   0  0  2  0  0  0  0  0  0  0  0  0
  150.5484  143.3600  159.1737 C   0  0  2  0  0  0  0  0  0  0  0  0
  150.1489  142.1170  158.4280 C   0  0  0  0  0  0  0  0  0  0  0  0
  150.5401  140.9826  158.7025 O   0  0  0  0  0  0  0  0  0  0  0  0
  149.3063  142.3610  157.4129 N   0  0  0  0  0  0  0  0  0  0  0  0
  148.7811  141.3717  156.4744 C   0  0  0  0  0  0  0  0  0  0  0  0
  149.4706  141.3865  155.0901 C   0  0  2  0  0  0  0  0  0  0  0  0
  148.5124  141.8512  153.9842 C   0  0  0  0  0  0  0  0  0  0  0  0
  150.1241  140.0766  154.7399 C   0  0  0  0  0  0  0  0  0  0  0  0
  151.4502  139.8853  154.7397 N   0  0  0  0  0  0  0  0  0  0  0  0
  151.6378  138.5666  154.3780 N   0  0  0  0  0  0  0  0  0  0  0  0
  150.4064  138.0871  154.2111 C   0  0  0  0  0  0  0  0  0  0  0  0
  149.4193  138.9689  154.4269 N   0  0  0  0  0  0  0  0  0  0  0  0
  147.9881  138.7581  154.3444 C   0  0  0  0  0  0  0  0  0  0  0  0
  151.7357  144.2043  158.7146 C   0  0  0  0  0  0  0  0  0  0  0  0
  151.5926  145.7146  158.8018 C   0  0  0  0  0  0  0  0  0  0  0  0
  152.5884  143.8650  157.4928 C   0  0  0  0  0  0  0  0  0  0  0  0
  155.3480  141.0262  161.5900 H   0  0  0  0  0  0  0  0  0  0  0  0
  154.3369  140.1638  160.4279 H   0  0  0  0  0  0  0  0  0  0  0  0
  154.0052  140.0268  162.1557 H   0  0  0  0  0  0  0  0  0  0  0  0
  153.0784  142.0710  163.4317 H   0  0  0  0  0  0  0  0  0  0  0  0
  152.5818  143.5098  162.5529 H   0  0  0  0  0  0  0  0  0  0  0  0
  154.2975  143.1816  162.8072 H   0  0  0  0  0  0  0  0  0  0  0  0
  152.8569  141.5905  159.3293 H   0  0  0  0  0  0  0  0  0  0  0  0
  151.7589  143.9758  160.9254 H   0  0  0  0  0  0  0  0  0  0  0  0
  149.7109  143.9160  159.5935 H   0  0  0  0  0  0  0  0  0  0  0  0
  149.0215  143.3179  157.2619 H   0  0  0  0  0  0  0  0  0  0  0  0
  148.9263  140.3959  156.9386 H   0  0  0  0  0  0  0  0  0  0  0  0
  147.7031  141.5011  156.3659 H   0  0  0  0  0  0  0  0  0  0  0  0
  150.2512  142.1440  155.1466 H   0  0  0  0  0  0  0  0  0  0  0  0
  149.0327  141.9448  153.0304 H   0  0  0  0  0  0  0  0  0  0  0  0
  148.0807  142.8237  154.2218 H   0  0  0  0  0  0  0  0  0  0  0  0
  147.6915  141.1468  153.8479 H   0  0  0  0  0  0  0  0  0  0  0  0
  150.2201  137.0616  153.9277 H   0  0  0  0  0  0  0  0  0  0  0  0
  147.7748  137.7174  154.0995 H   0  0  0  0  0  0  0  0  0  0  0  0
  147.5660  139.3986  153.5699 H   0  0  0  0  0  0  0  0  0  0  0  0
  147.5247  138.9975  155.3016 H   0  0  0  0  0  0  0  0  0  0  0  0
  151.1102  146.1031  157.9044 H   0  0  0  0  0  0  0  0  0  0  0  0
  152.5708  146.1855  158.9044 H   0  0  0  0  0  0  0  0  0  0  0  0
  150.9882  145.9985  159.6640 H   0  0  0  0  0  0  0  0  0  0  0  0
  152.0578  144.1353  156.5793 H   0  0  0  0  0  0  0  0  0  0  0  0
  152.8441  142.8098  157.4339 H   0  0  0  0  0  0  0  0  0  0  0  0
  153.5255  144.4218  157.5213 H   0  0  0  0  0  0  0  0  0  0  0  0
  1  2  1  0  0  0  0
  1 22  1  0  0  0  0
  1 23  1  0  0  0  0
  1 24  1  0  0  0  0
  2  3  1  0  0  0  0
  2  4  2  0  0  0  0
  3 25  1  0  0  0  0
  3 26  1  0  0  0  0
  3 27  1  0  0  0  0
  4  5  1  0  0  0  0
  4 28  1  0  0  0  0
  5 19  1  0  0  0  0
  5  6  1  0  0  0  0
  5 29  1  0  0  0  0
  6  7  1  0  0  0  0
  6 19  1  0  0  0  0
  6 30  1  0  0  0  0
  7  8  2  0  0  0  0
  7  9  1  0  0  0  0
  9 10  1  0  0  0  0
  9 31  1  0  0  0  0
 10 11  1  0  0  0  0
 10 32  1  0  0  0  0
 10 33  1  0  0  0  0
 11 12  1  0  0  0  0
 11 13  1  0  0  0  0
 11 34  1  0  0  0  0
 12 35  1  0  0  0  0
 12 36  1  0  0  0  0
 12 37  1  0  0  0  0
 13 17  1  0  0  0  0
 13 14  2  0  0  0  0
 14 15  1  0  0  0  0
 15 16  2  0  0  0  0
 16 17  1  0  0  0  0
 16 38  1  0  0  0  0
 17 18  1  0  0  0  0
 18 39  1  0  0  0  0
 18 40  1  0  0  0  0
 18 41  1  0  0  0  0
 19 20  1  0  0  0  0
 19 21  1  0  0  0  0
 20 42  1  0  0  0  0
 20 43  1  0  0  0  0
 20 44  1  0  0  0  0
 21 45  1  0  0  0  0
 21 46  1  0  0  0  0
 21 47  1  0  0  0  0
M  END
> <s_m_source_file>
AV-unprocessed.smi

> <i_m_source_file_index>
2718

> <i_lp_mmshare_version>
43012

> <i_f3d_flags>
0

> <s_epik_input>
W0NIM11DKFtDSDNdKT1bQ0hdW0NAQEhdKEMxKFtDSDNdKVtDSDNdKVtDQEhdMUMoPU8pW05IXVtDSDJdW0NASF0oW0NIM10pYzJubltjSF1uMltDSDNd

> <s_epik_cmdline>
J2VwaWtfcHl0aG9uJywgJy1waCcsICc3LjAnLCAnLXRuJywgJzgnLCAnLW1hJywgJzIwMCcsICctbWV0YWxfYmluZGluZycsICctaW1hZScsICc8aW5maWxlLm1hZT4nLCAnLW9tYWUnLCAnPG91dGZpbGUubWFlPic=

> <r_lp_tautomer_probability>
1

> <r_epik_Ionization_Penalty>
0.000449586

> <r_epik_Ionization_Penalty_Charging>
0

> <r_epik_Ionization_Penalty_Neutral>
0.000449586

> <r_epik_State_Penalty>
0.000243372

> <r_epik_Charging_Adjusted_Penalty>
0.000243372

> <i_epik_Tot_Q>
0

> <i_epik_Tot_abs_Q>
0

> <r_epik_Metal_State_Penalty>
-0

> <b_epik_Metal_Only>
0

> <s_lp_Force_Field>
OPLS_2005

> <r_lp_Energy>
15.3261

> <b_lp_Chiralities_Consistent>
1

> <s_lp_Variant>
AV-unprocessed.smi:2718-3

> <Gold.Version>
5.8.1

> <Gold.Id.Protein>
6NUR|6NUR_protein|mol2

> <Gold.PLP.Fitness>
44.5804

> <Gold.PLP.PLP>
-41.4839

> <Gold.PLP.part.hbond>
-2.1318

> <Gold.PLP.part.metal>
0.0000

> <Gold.PLP.part.buried>
0.5838

> <Gold.PLP.part.nonpolar>
-40.0657

> <Gold.PLP.part.repulsive>
0.2607

> <Gold.PLP.ligand.clash>
0.0000

> <Gold.PLP.ligand.torsion>
2.0215

> <Gold.PLP.Chemscore.Hbond>
1.2233

> <Gold.PLP.Chemscore.CHOScore>
1.0482

> <Gold.PLP.Chemscore.Metal>
0.0000

> <Gold.Chemscore.Hbonds>
donor molecule, donor type, donor heavy atom, donor atom, acceptor molecule, acceptor atom, score
      L1  H     9    31       P1  8028  0.62
      P1  H  7989  7998       L1    14  0.60
      L1  C    16    38       P1  7948  0.95
      L1  C    16    38       P1  7949  0.07

> <Gold.PLP.Chemscore.Internal.Correction>
0.3249

> <Gold.Rescore>
     Score         DG    S(hbond)    S(metal)    S(lipo)     H(rot)  DE(clash)    DE(int)     intcor
     11.59     -16.95       0.69        0.00     120.98       1.95       2.28       3.08       ----

> <Gold.Chemscore.Fitness>
11.5890

> <Gold.Chemscore.DG>
-16.9496

> <Gold.Chemscore.ZeroCoef>
-5.4800

> <Gold.Chemscore.Hbond>
0.6932

> <Gold.Chemscore.Metal>
0.0000

> <Gold.Chemscore.Lipo>
120.9812

> <Gold.Chemscore.Internal_Hbond>
0.0000

> <Gold.Chemscore.DEClash>
2.2832

> <Gold.Chemscore.DEInternal>
3.0774

> <Gold.Chemscore.Rot>
1.9533

> <Gold.Chemscore.Internal.Correction>
   9.000000E+99

> <Gold.Chemscore.Hbonds>
donor molecule, donor type, donor heavy atom, donor atom, acceptor molecule, acceptor atom, score
      L1  H     9    31       P1  8028  0.37
      P1  H  7989  7998       L1    14  0.03

> <Gold.Chemscore.Hbond.Weighted>
-2.3153

> <Gold.Chemscore.Metal.Weighted>
-0.0000

> <Gold.Chemscore.Lipo.Weighted>
-14.1548

> <Gold.Chemscore.Internal_Hbond.Weighted>
0.0000

> <Gold.Chemscore.DEClash.Weighted>
2.2832

> <Gold.Chemscore.DEInternal.Weighted>
3.0774

> <Gold.Chemscore.Rot.Weighted>
5.0005

> <Gold.Chemscore.Internal.Correction.Weighted>
   9.000000E+99

> <Gold.Protein.RotatedTorsions>
[ 6907 6896 6895 6894 ] final  154.28 input  -60.11 | X-H torsion
[ 7974 7965 7964 7962 ] final  -61.58 input  175.53 | X-H torsion
[ 8008 7997 7996 7995 ] final  -24.45 input   59.86 | X-H torsion
[ 10167 10162 10161 10158 ] final  130.19 input  -65.29 | X-H torsion
[ 10718 10713 10712 10709 ] final -134.54 input   66.30 | X-H torsion
[ 10763 10752 10751 10750 ] final   89.14 input  -60.55 | X-H torsion
[ 11005 11000 10999 10996 ] final   58.59 input  -57.11 | X-H torsion

> <Gold.Protein.ActiveResidues>
 VAL166  LYS551  ARG553  GLY616  TRP617  ASP618  TYR619  PRO620  LYS621  CYS622 
 ASP623  PHE694  ASN695  SER759  ASP760  ASP761  ALA762  ILE779  LEU786  VAL792 
 PHE793  MET794  SER795  GLU796  ALA797  LYS798  CYS799  TRP800  GLU811  SER814 

> <Gold.Protein.RotatedAtoms>
  152.0608  133.4061  159.4416 H   0  0  0  0  0  0  0  0  0  0  0  0  # atno 6907 bound_to 6896
  150.6866  134.3203  159.4793 H   0  0  0  0  0  0  0  0  0  0  0  0  # atno 6908 bound_to 6896
  152.1023  134.9332  160.0620 H   0  0  0  0  0  0  0  0  0  0  0  0  # atno 6909 bound_to 6896
  145.8018  140.8651  143.0227 H   0  0  0  0  0  0  0  0  0  0  0  0  # atno 7974 bound_to 7965
  154.4528  140.1953  156.0466 H   0  0  0  0  0  0  0  0  0  0  0  0  # atno 8008 bound_to 7997
  156.0685  140.3287  155.7519 H   0  0  0  0  0  0  0  0  0  0  0  0  # atno 8009 bound_to 7997
  155.5301  140.0577  157.2881 H   0  0  0  0  0  0  0  0  0  0  0  0  # atno 8010 bound_to 7997
  139.5442  144.6758  151.4527 H   0  0  0  0  0  0  0  0  0  0  0  0  # atno 10167 bound_to 10162
  156.2565  130.7184  151.1103 H   0  0  0  0  0  0  0  0  0  0  0  0  # atno 10718 bound_to 10713
  153.1841  135.4481  155.0065 H   0  0  0  0  0  0  0  0  0  0  0  0  # atno 10763 bound_to 10752
  154.8049  135.3270  154.7460 H   0  0  0  0  0  0  0  0  0  0  0  0  # atno 10764 bound_to 10752
  153.7921  135.6969  153.4925 H   0  0  0  0  0  0  0  0  0  0  0  0  # atno 10765 bound_to 10752
  140.0366  134.5934  155.9436 H   0  0  0  0  0  0  0  0  0  0  0  0  # atno 11005 bound_to 11000
  144.6768  140.0269  143.7483 LP  0  0  0  0  0  0  0  0  0  0  0  0  # atno 17320 bound_to 7965
  145.9870  139.2985  143.1007 LP  0  0  0  0  0  0  0  0  0  0  0  0  # atno 17321 bound_to 7965
  140.6683  143.8348  150.6969 LP  0  0  0  0  0  0  0  0  0  0  0  0  # atno 17342 bound_to 10162
  140.1765  143.4151  152.1964 LP  0  0  0  0  0  0  0  0  0  0  0  0  # atno 17343 bound_to 10162
  157.7235  131.0666  150.6036 LP  0  0  0  0  0  0  0  0  0  0  0  0  # atno 17370 bound_to 10713
  156.6120  130.4382  149.5855 LP  0  0  0  0  0  0  0  0  0  0  0  0  # atno 17371 bound_to 10713
  141.1861  133.6556  156.5224 LP  0  0  0  0  0  0  0  0  0  0  0  0  # atno 17394 bound_to 11000
  140.4137  134.7249  157.4850 LP  0  0  0  0  0  0  0  0  0  0  0  0  # atno 17395 bound_to 11000

$$$$
