#       Name:                AV-unprocessed.smi:2278
#       Creating user name   scv26
#       Creation time:       Fri Mar 27 12:39:57 2020


#       File generated by GOLD software.
#

@<TRIPOS>MOLECULE
AV-unprocessed.smi:2278
    51    52     1
SMALL
NO_CHARGES


@<TRIPOS>ATOM
      1 ****        -4.0803   5.0831   0.7178 C.3            1 S1                 0.0000
      2 ****        -3.5361   3.6675   0.6456 C.2            1 S1                 0.0000
      3 ****        -3.4920   2.9746   1.8591 N.2            1 S1                 0.0000
      4 ****        -3.0428   1.7629   1.8944 C.2            1 S1                 0.0000
      5 ****        -2.5898   1.1107   0.7360 N.am           1 S1                 0.0000
      6 ****        -2.0886  -0.2626   0.9105 C.3            1 S1                 0.0000
      7 ****        -0.5441  -0.3187   0.9321 C.3            1 S1                 0.0000
      8 ****        -0.1095  -0.1137   2.2622 O.3            1 S1                 0.0000
      9 ****        -0.0188  -1.6982   0.4847 C.3            1 S1                 0.0000
     10 ****         1.4621  -1.7304   0.3727 N.4            1 S1                 1.0000
     11 ****         1.9703  -1.1113  -0.8803 C.3            1 S1                 0.0000
     12 ****         3.5078  -1.0418  -0.8802 C.3            1 S1                 0.0000
     13 ****         4.1534  -2.4221  -0.6601 C.3            1 S1                 0.0000
     14 ****         4.0576  -3.3283  -1.9000 C.3            1 S1                 0.0000
     15 ****         3.5544  -3.0718   0.6006 C.3            1 S1                 0.0000
     16 ****         2.0154  -3.0942   0.5710 C.3            1 S1                 0.0000
     17 ****        -2.5946   1.7151  -0.4876 C.2            1 S1                 0.0000
     18 ****        -2.1809   1.1360  -1.4943 O.2            1 S1                 0.0000
     19 ****        -3.1118   3.0925  -0.5127 C.2            1 S1                 0.0000
     20 ****        -3.1341   3.7976  -1.8630 C.3            1 S1                 0.0000
     21 ****        -4.9587   5.1886   0.0806 H              1 S1                 0.0000
     22 ****        -3.3250   5.7992   0.3929 H              1 S1                 0.0000
     23 ****        -4.3730   5.3449   1.7355 H              1 S1                 0.0000
     24 ****        -2.9847   1.1808   2.8158 H              1 S1                 0.0000
     25 ****        -2.5058  -0.7496   1.7948 H              1 S1                 0.0000
     26 ****        -2.4641  -0.8622   0.0791 H              1 S1                 0.0000
     27 ****        -0.1295   0.4653   0.2997 H              1 S1                 0.0000
     28 ****        -0.4023   0.7385   2.5485 H              1 S1                 0.0000
     29 ****        -0.3585  -2.4480   1.2012 H              1 S1                 0.0000
     30 ****        -0.4513  -1.9825  -0.4759 H              1 S1                 0.0000
     31 ****         1.6147  -1.6793  -1.7410 H              1 S1                 0.0000
     32 ****         1.5754  -0.1024  -0.9930 H              1 S1                 0.0000
     33 ****         3.8632  -0.6026  -1.8130 H              1 S1                 0.0000
     34 ****         3.8299  -0.3660  -0.0866 H              1 S1                 0.0000
     35 ****         5.2167  -2.2630  -0.4756 H              1 S1                 0.0000
     36 ****         3.0255  -3.5494  -2.1709 H              1 S1                 0.0000
     37 ****         4.5632  -4.2790  -1.7281 H              1 S1                 0.0000
     38 ****         4.5311  -2.8593  -2.7629 H              1 S1                 0.0000
     39 ****         3.9417  -4.0837   0.7251 H              1 S1                 0.0000
     40 ****         3.8820  -2.5138   1.4789 H              1 S1                 0.0000
     41 ****         1.6514  -3.5030   1.5145 H              1 S1                 0.0000
     42 ****         1.6547  -3.7560  -0.2176 H              1 S1                 0.0000
     43 ****        -2.1253   3.8566  -2.2728 H              1 S1                 0.0000
     44 ****        -3.5259   4.8121  -1.8117 H              1 S1                 0.0000
     45 ****        -3.7537   3.2418  -2.5674 H              1 S1                 0.0000
     46 ****         1.8104  -1.1740   1.1406 H              1 S1                 0.0000
     47 ****        -3.8077   3.4159   2.6991 LP             1 S1                 0.0000
     48 ****         0.8888  -0.1571   2.3006 LP             1 S1                 0.0000
     49 ****        -0.4968  -0.8195   2.8554 LP             1 S1                 0.0000
     50 ****        -1.8312   0.2016  -1.4254 LP             1 S1                 0.0000
     51 ****        -2.1950   1.6006  -2.3797 LP             1 S1                 0.0000
@<TRIPOS>BOND
    1    1    2 1     
    2    1   21 1     
    3    1   22 1     
    4    1   23 1     
    5    2   19 2     
    6    2    3 1     
    7    3    4 2     
    8    4    5 1     
    9    4   24 1     
   10    5    6 1     
   11    5   17 am    
   12    6    7 1     
   13    6   25 1     
   14    6   26 1     
   15    7    8 1     
   16    7    9 1     
   17    7   27 1     
   18    8   28 1     
   19    9   10 1     
   20    9   29 1     
   21    9   30 1     
   22   10   16 1     
   23   10   11 1     
   24   10   46 1     
   25   11   12 1     
   26   11   31 1     
   27   11   32 1     
   28   12   13 1     
   29   12   33 1     
   30   12   34 1     
   31   13   14 1     
   32   13   15 1     
   33   13   35 1     
   34   14   36 1     
   35   14   37 1     
   36   14   38 1     
   37   15   16 1     
   38   15   39 1     
   39   15   40 1     
   40   16   41 1     
   41   16   42 1     
   42   17   18 2     
   43   17   19 1     
   44   19   20 1     
   45   20   43 1     
   46   20   44 1     
   47   20   45 1     
   48    3   47 1     
   49    8   48 1     
   50    8   49 1     
   51   18   50 1     
   52   18   51 1     
@<TRIPOS>SUBSTRUCTURE
      1 S1             1
@<TRIPOS>SET
LONE_PAIRS      STATIC     ATOMS    <user>   **** ""
5 47 48 49 50 51
DONOR_HYDROGENS      STATIC     ATOMS    <user>   **** ""
2 28 46
ATOM$BLUE        STATIC     ATOMS    COLORGROUP SYSTEM
5 47 48 49 50 51
ATOM$RED        STATIC     ATOMS    COLORGROUP SYSTEM
2 28 46
