AV-unprocessed.smi:1026|AV-procd|sdf|4468|dock5
  -GOLD-   22720 2443D 1   1.00000     0.00000
 Structure written by MMmdl.
 40 41  0  0  0  0  0  0  0  0  1 V2000
  152.6903  144.8800  157.6679 C   0  0  0  0  0  0  0  0  0  0  0  0
  151.3627  144.1260  157.5371 C   0  0  0  0  0  0  0  0  0  0  0  0
  151.5540  142.6788  157.2279 C   0  0  0  0  0  0  0  0  0  0  0  0
  150.9947  142.0708  156.1785 N   0  0  0  0  0  0  0  0  0  0  0  0
  151.2944  140.7061  156.1224 C   0  0  0  0  0  0  0  0  0  0  0  0
  150.7548  139.8693  155.0024 C   0  0  0  0  0  0  0  0  0  0  0  0
  151.4849  138.5217  154.8775 C   0  0  0  0  0  0  0  0  0  0  0  0
  150.5778  137.4584  154.4614 N   0  0  0  0  0  0  0  0  0  0  0  0
  150.4288  136.2817  155.0932 C   0  0  0  0  0  0  0  0  0  0  0  0
  151.0438  135.9795  156.1141 O   0  0  0  0  0  0  0  0  0  0  0  0
  149.5440  135.4418  154.5259 N   0  0  0  0  0  0  0  0  0  0  0  0
  149.1520  134.0982  154.9572 C   0  0  0  0  0  0  0  0  0  0  0  0
  150.3491  133.3682  155.6029 C   0  0  0  0  0  0  0  0  0  0  0  0
  149.9756  131.9723  156.1229 C   0  0  0  0  0  0  0  0  0  0  0  0
  149.4304  130.8896  154.7740 S   0  0  0  0  0  0  0  0  0  0  0  0
  148.0903  131.9239  154.1244 C   0  0  0  0  0  0  0  0  0  0  0  0
  148.5996  133.3223  153.7460 C   0  0  0  0  0  0  0  0  0  0  0  0
  152.0884  140.2837  157.1594 C   0  0  0  0  0  0  0  0  0  0  0  0
  152.4833  141.5861  158.2477 S   0  0  0  0  0  0  0  0  0  0  0  0
  152.5186  145.9319  157.8967 H   0  0  0  0  0  0  0  0  0  0  0  0
  153.2643  144.8292  156.7423 H   0  0  0  0  0  0  0  0  0  0  0  0
  153.3032  144.4611  158.4666 H   0  0  0  0  0  0  0  0  0  0  0  0
  150.7906  144.2165  158.4613 H   0  0  0  0  0  0  0  0  0  0  0  0
  150.7563  144.5740  156.7495 H   0  0  0  0  0  0  0  0  0  0  0  0
  149.6893  139.6911  155.1523 H   0  0  0  0  0  0  0  0  0  0  0  0
  150.8349  140.4195  154.0641 H   0  0  0  0  0  0  0  0  0  0  0  0
  152.3169  138.5990  154.1753 H   0  0  0  0  0  0  0  0  0  0  0  0
  151.9160  138.2427  155.8392 H   0  0  0  0  0  0  0  0  0  0  0  0
  150.0281  137.6249  153.6313 H   0  0  0  0  0  0  0  0  0  0  0  0
  149.0746  135.7855  153.7003 H   0  0  0  0  0  0  0  0  0  0  0  0
  148.3464  134.1775  155.6894 H   0  0  0  0  0  0  0  0  0  0  0  0
  151.1664  133.2845  154.8850 H   0  0  0  0  0  0  0  0  0  0  0  0
  150.7363  133.9572  156.4350 H   0  0  0  0  0  0  0  0  0  0  0  0
  150.8328  131.5111  156.6133 H   0  0  0  0  0  0  0  0  0  0  0  0
  149.1813  132.0429  156.8664 H   0  0  0  0  0  0  0  0  0  0  0  0
  147.6611  131.4306  153.2521 H   0  0  0  0  0  0  0  0  0  0  0  0
  147.3001  131.9947  154.8726 H   0  0  0  0  0  0  0  0  0  0  0  0
  147.7787  133.8847  153.2990 H   0  0  0  0  0  0  0  0  0  0  0  0
  149.3658  133.2361  152.9741 H   0  0  0  0  0  0  0  0  0  0  0  0
  152.4608  139.2883  157.3509 H   0  0  0  0  0  0  0  0  0  0  0  0
  1  2  1  0  0  0  0
  1 20  1  0  0  0  0
  1 21  1  0  0  0  0
  1 22  1  0  0  0  0
  2  3  1  0  0  0  0
  2 23  1  0  0  0  0
  2 24  1  0  0  0  0
  3 19  1  0  0  0  0
  3  4  2  0  0  0  0
  4  5  1  0  0  0  0
  5  6  1  0  0  0  0
  5 18  2  0  0  0  0
  6  7  1  0  0  0  0
  6 25  1  0  0  0  0
  6 26  1  0  0  0  0
  7  8  1  0  0  0  0
  7 27  1  0  0  0  0
  7 28  1  0  0  0  0
  8  9  1  0  0  0  0
  8 29  1  0  0  0  0
  9 10  2  0  0  0  0
  9 11  1  0  0  0  0
 11 12  1  0  0  0  0
 11 30  1  0  0  0  0
 12 17  1  0  0  0  0
 12 13  1  0  0  0  0
 12 31  1  0  0  0  0
 13 14  1  0  0  0  0
 13 32  1  0  0  0  0
 13 33  1  0  0  0  0
 14 15  1  0  0  0  0
 14 34  1  0  0  0  0
 14 35  1  0  0  0  0
 15 16  1  0  0  0  0
 16 17  1  0  0  0  0
 16 36  1  0  0  0  0
 16 37  1  0  0  0  0
 17 38  1  0  0  0  0
 17 39  1  0  0  0  0
 18 19  1  0  0  0  0
 18 40  1  0  0  0  0
M  END
> <s_m_source_file>
AV-unprocessed.smi

> <i_m_source_file_index>
1026

> <i_lp_mmshare_version>
43012

> <i_f3d_flags>
0

> <s_epik_input>
W0NIM11bQ0gyXWMxbmMoW2NIXXMxKVtDSDJdW0NIMl1bTkhdQyg9TylbTkhdW0NIXTJbQ0gyXVtDSDJdU1tDSDJdW0NIMl0y

> <s_epik_cmdline>
J2VwaWtfcHl0aG9uJywgJy1waCcsICc3LjAnLCAnLXRuJywgJzgnLCAnLW1hJywgJzIwMCcsICctbWV0YWxfYmluZGluZycsICctaW1hZScsICc8aW5maWxlLm1hZT4nLCAnLW9tYWUnLCAnPG91dGZpbGUubWFlPic=

> <r_epik_Ionization_Penalty>
0.00199316

> <r_epik_Ionization_Penalty_Charging>
0

> <r_epik_Ionization_Penalty_Neutral>
0.00199316

> <r_epik_State_Penalty>
0.00132065

> <r_epik_Charging_Adjusted_Penalty>
0.00132065

> <i_epik_Tot_Q>
0

> <i_epik_Tot_abs_Q>
0

> <r_epik_Metal_State_Penalty>
-0

> <b_epik_Metal_Only>
0

> <s_lp_Force_Field>
OPLS_2005

> <r_lp_Energy>
4.0728

> <b_lp_Chiralities_Consistent>
1

> <s_lp_Variant>
AV-unprocessed.smi:1026-1

> <Gold.Version>
5.8.1

> <Gold.Id.Protein>
6NUR|6NUR_protein|mol2

> <Gold.PLP.Fitness>
42.1438

> <Gold.PLP.PLP>
-39.2199

> <Gold.PLP.part.hbond>
-2.1669

> <Gold.PLP.part.metal>
0.0000

> <Gold.PLP.part.buried>
-4.1478

> <Gold.PLP.part.nonpolar>
-31.5550

> <Gold.PLP.part.repulsive>
0.2379

> <Gold.PLP.ligand.clash>
0.0000

> <Gold.PLP.ligand.torsion>
0.8309

> <Gold.PLP.Chemscore.Hbond>
1.5176

> <Gold.PLP.Chemscore.CHOScore>
0.0000

> <Gold.PLP.Chemscore.Metal>
0.0000

> <Gold.Chemscore.Hbonds>
donor molecule, donor type, donor heavy atom, donor atom, acceptor molecule, acceptor atom, score
      L1  H    11    30       P1  7948  1.00
      P1  H 10752 10763       L1    10  0.03

> <Gold.PLP.Chemscore.Internal.Correction>
0.0331

> <Gold.Rescore>
     Score         DG    S(hbond)    S(metal)    S(lipo)     H(rot)  DE(clash)    DE(int)     intcor
     14.05     -16.31       0.86        0.00     102.68       1.58       0.04       2.22       ----

> <Gold.Chemscore.Fitness>
14.0531

> <Gold.Chemscore.DG>
-16.3128

> <Gold.Chemscore.ZeroCoef>
-5.4800

> <Gold.Chemscore.Hbond>
0.8551

> <Gold.Chemscore.Metal>
0.0000

> <Gold.Chemscore.Lipo>
102.6782

> <Gold.Chemscore.Internal_Hbond>
0.0000

> <Gold.Chemscore.DEClash>
0.0373

> <Gold.Chemscore.DEInternal>
2.2224

> <Gold.Chemscore.Rot>
1.5768

> <Gold.Chemscore.Internal.Correction>
   9.000000E+99

> <Gold.Chemscore.Hbonds>
donor molecule, donor type, donor heavy atom, donor atom, acceptor molecule, acceptor atom, score
      L1  H     8    29       P1  7948  0.02
      L1  H    11    30       P1  7948  0.83

> <Gold.Chemscore.Hbond.Weighted>
-2.8562

> <Gold.Chemscore.Metal.Weighted>
-0.0000

> <Gold.Chemscore.Lipo.Weighted>
-12.0133

> <Gold.Chemscore.Internal_Hbond.Weighted>
0.0000

> <Gold.Chemscore.DEClash.Weighted>
0.0373

> <Gold.Chemscore.DEInternal.Weighted>
2.2224

> <Gold.Chemscore.Rot.Weighted>
4.0367

> <Gold.Chemscore.Internal.Correction.Weighted>
   9.000000E+99

> <Gold.Protein.RotatedTorsions>
[ 6907 6896 6895 6894 ] final   14.39 input  -60.11 | X-H torsion
[ 7974 7965 7964 7962 ] final   30.37 input  175.53 | X-H torsion
[ 8008 7997 7996 7995 ] final  153.64 input   59.86 | X-H torsion
[ 10167 10162 10161 10158 ] final  -95.01 input  -65.29 | X-H torsion
[ 10718 10713 10712 10709 ] final  142.97 input   66.30 | X-H torsion
[ 10763 10752 10751 10750 ] final   67.93 input  -60.55 | X-H torsion
[ 11005 11000 10999 10996 ] final   32.40 input  -57.11 | X-H torsion

> <Gold.Protein.ActiveResidues>
 VAL166  LYS551  ARG553  GLY616  TRP617  ASP618  TYR619  PRO620  LYS621  CYS622 
 ASP623  PHE694  ASN695  SER759  ASP760  ASP761  ALA762  ILE779  LEU786  VAL792 
 PHE793  MET794  SER795  GLU796  ALA797  LYS798  CYS799  TRP800  GLU811  SER814 

> <Gold.Protein.RotatedAtoms>
  151.8015  135.0707  160.0400 H   0  0  0  0  0  0  0  0  0  0  0  0  # atno 6907 bound_to 6896
  152.3085  133.5724  159.5674 H   0  0  0  0  0  0  0  0  0  0  0  0  # atno 6908 bound_to 6896
  150.7308  134.0103  159.3709 H   0  0  0  0  0  0  0  0  0  0  0  0  # atno 6909 bound_to 6896
  146.1615  139.6797  142.9030 H   0  0  0  0  0  0  0  0  0  0  0  0  # atno 7974 bound_to 7965
  156.2571  140.1988  156.6521 H   0  0  0  0  0  0  0  0  0  0  0  0  # atno 8008 bound_to 7997
  154.6528  140.0570  157.0000 H   0  0  0  0  0  0  0  0  0  0  0  0  # atno 8009 bound_to 7997
  155.1392  140.3241  155.4459 H   0  0  0  0  0  0  0  0  0  0  0  0  # atno 8010 bound_to 7997
  140.3086  143.3119  152.0173 H   0  0  0  0  0  0  0  0  0  0  0  0  # atno 10167 bound_to 10162
  157.3744  131.0983  151.0798 H   0  0  0  0  0  0  0  0  0  0  0  0  # atno 10718 bound_to 10713
  153.0210  135.5266  154.7056 H   0  0  0  0  0  0  0  0  0  0  0  0  # atno 10763 bound_to 10752
  154.6152  135.2883  155.0390 H   0  0  0  0  0  0  0  0  0  0  0  0  # atno 10764 bound_to 10752
  154.1397  135.6580  153.4992 H   0  0  0  0  0  0  0  0  0  0  0  0  # atno 10765 bound_to 10752
  140.2738  134.3051  155.7820 H   0  0  0  0  0  0  0  0  0  0  0  0  # atno 11005 bound_to 11000
  145.4575  141.0431  143.2770 LP  0  0  0  0  0  0  0  0  0  0  0  0  # atno 17320 bound_to 7965
  144.8034  139.6097  143.7061 LP  0  0  0  0  0  0  0  0  0  0  0  0  # atno 17321 bound_to 7965
  139.4899  144.6402  151.6893 LP  0  0  0  0  0  0  0  0  0  0  0  0  # atno 17342 bound_to 10162
  140.5588  144.0303  150.6160 LP  0  0  0  0  0  0  0  0  0  0  0  0  # atno 17343 bound_to 10162
  157.1890  130.6343  149.5698 LP  0  0  0  0  0  0  0  0  0  0  0  0  # atno 17370 bound_to 10713
  155.9762  130.4728  150.6513 LP  0  0  0  0  0  0  0  0  0  0  0  0  # atno 17371 bound_to 10713
  141.2173  133.7483  156.9376 LP  0  0  0  0  0  0  0  0  0  0  0  0  # atno 17394 bound_to 11000
  140.1348  134.9332  157.2386 LP  0  0  0  0  0  0  0  0  0  0  0  0  # atno 17395 bound_to 11000

$$$$
