AV-unprocessed.smi:2784|AV-procd|sdf|10735|dock9
  -GOLD-   2272015173D 1   1.00000     0.00000
 Structure written by MMmdl.
 31 32  0  0  0  0  0  0  0  0  1 V2000
  154.0723  141.9432  159.8911 C   0  0  0  0  0  0  0  0  0  0  0  0
  153.0625  142.6086  159.1503 O   0  0  0  0  0  0  0  0  0  0  0  0
  151.9080  142.9373  159.9186 C   0  0  1  0  0  0  0  0  0  0  0  0
  152.2155  144.2568  160.6289 C   0  0  0  0  0  0  0  0  0  0  0  0
  151.9143  145.3264  159.5833 C   0  0  0  0  0  0  0  0  0  0  0  0
  150.6916  144.7954  158.8314 C   0  0  0  0  0  0  0  0  0  0  0  0
  150.7001  143.2639  159.0081 C   0  0  1  0  0  0  0  0  0  0  0  0
  150.7586  142.5886  157.7127 N   0  0  0  0  0  0  0  0  0  0  0  0
  150.9651  141.2769  157.5251 C   0  0  0  0  0  0  0  0  0  0  0  0
  151.1263  140.5065  158.4770 O   0  0  0  0  0  0  0  0  0  0  0  0
  150.9742  140.9880  156.1678 N   0  0  0  0  0  0  0  0  0  0  0  0
  151.0934  139.7604  155.7634 C   0  0  0  0  0  0  0  0  0  0  0  0
  151.2251  138.5476  156.4346 N   0  0  0  0  0  0  0  0  0  0  0  0
  151.3119  137.5515  155.5028 C   0  0  0  0  0  0  0  0  0  0  0  0
  151.2402  138.1078  154.2974 C   0  0  0  0  0  0  0  0  0  0  0  0
  151.1063  139.4579  154.4249 O   0  0  0  0  0  0  0  0  0  0  0  0
  154.9037  141.6916  159.2328 H   0  0  0  0  0  0  0  0  0  0  0  0
  153.7001  141.0184  160.3322 H   0  0  0  0  0  0  0  0  0  0  0  0
  154.4551  142.5814  160.6885 H   0  0  0  0  0  0  0  0  0  0  0  0
  151.6669  142.1566  160.6431 H   0  0  0  0  0  0  0  0  0  0  0  0
  151.5431  144.3800  161.4788 H   0  0  0  0  0  0  0  0  0  0  0  0
  153.2376  144.3092  161.0058 H   0  0  0  0  0  0  0  0  0  0  0  0
  151.7425  146.3086  160.0239 H   0  0  0  0  0  0  0  0  0  0  0  0
  152.7576  145.4134  158.8969 H   0  0  0  0  0  0  0  0  0  0  0  0
  149.7824  145.2063  159.2715 H   0  0  0  0  0  0  0  0  0  0  0  0
  150.7076  145.1065  157.7857 H   0  0  0  0  0  0  0  0  0  0  0  0
  149.7800  142.9885  159.5272 H   0  0  0  0  0  0  0  0  0  0  0  0
  150.6462  143.1689  156.8939 H   0  0  0  0  0  0  0  0  0  0  0  0
  151.2520  138.3857  157.4312 H   0  0  0  0  0  0  0  0  0  0  0  0
  151.4184  136.5219  155.8110 H   0  0  0  0  0  0  0  0  0  0  0  0
  151.2671  137.6994  153.2981 H   0  0  0  0  0  0  0  0  0  0  0  0
  1  2  1  0  0  0  0
  1 17  1  0  0  0  0
  1 18  1  0  0  0  0
  1 19  1  0  0  0  0
  2  3  1  0  0  0  0
  3  7  1  0  0  0  0
  3  4  1  0  0  0  0
  3 20  1  0  0  0  0
  4  5  1  0  0  0  0
  4 21  1  0  0  0  0
  4 22  1  0  0  0  0
  5  6  1  0  0  0  0
  5 23  1  0  0  0  0
  5 24  1  0  0  0  0
  6  7  1  0  0  0  0
  6 25  1  0  0  0  0
  6 26  1  0  0  0  0
  7  8  1  0  0  0  0
  7 27  1  0  0  0  0
  8 28  1  0  0  0  0
  8  9  1  0  0  0  0
  9 11  1  0  0  0  0
  9 10  2  0  0  0  0
 11 12  2  0  0  0  0
 12 16  1  0  0  0  0
 12 13  1  0  0  0  0
 13 29  1  0  0  0  0
 13 14  1  0  0  0  0
 14 30  1  0  0  0  0
 14 15  2  0  0  0  0
 15 31  1  0  0  0  0
 15 16  1  0  0  0  0
M  END
> <s_m_source_file>
AV-unprocessed.smi

> <i_m_source_file_index>
2784

> <i_lp_mmshare_version>
43012

> <i_f3d_flags>
0

> <s_epik_input>
W0NIM11PW0NAQEhdMVtDSDJdW0NIMl1bQ0gyXVtDQEhdMVtOSF1DKD1PKVtOSF1jMm5bY0hdW2NIXW8y

> <s_epik_cmdline>
J2VwaWtfcHl0aG9uJywgJy1waCcsICc3LjAnLCAnLXRuJywgJzgnLCAnLW1hJywgJzIwMCcsICctbWV0YWxfYmluZGluZycsICctaW1hZScsICc8aW5maWxlLm1hZT4nLCAnLW9tYWUnLCAnPG91dGZpbGUubWFlPic=

> <r_lp_tautomer_probability>
0.107061

> <r_epik_Ionization_Penalty>
1.29244

> <r_epik_Ionization_Penalty_Charging>
1.29208

> <r_epik_Ionization_Penalty_Neutral>
0.000359742

> <r_epik_State_Penalty>
2.59896

> <r_epik_Charging_Adjusted_Penalty>
3.89105

> <i_epik_Tot_Q>
0

> <i_epik_Tot_abs_Q>
0

> <r_epik_Metal_State_Penalty>
3.62496

> <b_epik_Metal_Only>
0

> <s_lp_Force_Field>
OPLS_2005

> <r_lp_Energy>
46.0915

> <b_lp_Chiralities_Consistent>
1

> <s_lp_Variant>
AV-unprocessed.smi:2784-10

> <Gold.Version>
5.8.1

> <Gold.Id.Protein>
6NUR|6NUR_protein|mol2

> <Gold.PLP.Fitness>
37.1611

> <Gold.PLP.PLP>
-31.7199

> <Gold.PLP.part.hbond>
-1.0000

> <Gold.PLP.part.metal>
0.0000

> <Gold.PLP.part.buried>
-6.2722

> <Gold.PLP.part.nonpolar>
-24.9395

> <Gold.PLP.part.repulsive>
0.2416

> <Gold.PLP.ligand.clash>
0.0000

> <Gold.PLP.ligand.torsion>
0.2855

> <Gold.PLP.Chemscore.Hbond>
1.0000

> <Gold.PLP.Chemscore.CHOScore>
1.0000

> <Gold.PLP.Chemscore.Metal>
0.0000

> <Gold.Chemscore.Hbonds>
donor molecule, donor type, donor heavy atom, donor atom, acceptor molecule, acceptor atom, score
      P1  H  7989  7998       L1    16  1.00
      L1  C    15    31       P1  7949  1.00

> <Gold.PLP.Chemscore.Internal.Correction>
0.0122

> <Gold.Rescore>
     Score         DG    S(hbond)    S(metal)    S(lipo)     H(rot)  DE(clash)    DE(int)     intcor
     14.25     -14.34       0.96        0.00      77.18       1.32       0.00       0.09       ----

> <Gold.Chemscore.Fitness>
14.2521

> <Gold.Chemscore.DG>
-14.3409

> <Gold.Chemscore.ZeroCoef>
-5.4800

> <Gold.Chemscore.Hbond>
0.9638

> <Gold.Chemscore.Metal>
0.0000

> <Gold.Chemscore.Lipo>
77.1778

> <Gold.Chemscore.Internal_Hbond>
0.0000

> <Gold.Chemscore.DEClash>
0.0000

> <Gold.Chemscore.DEInternal>
0.0888

> <Gold.Chemscore.Rot>
1.3235

> <Gold.Chemscore.Internal.Correction>
   9.000000E+99

> <Gold.Chemscore.Hbonds>
donor molecule, donor type, donor heavy atom, donor atom, acceptor molecule, acceptor atom, score
      P1  H  7989  7998       L1    16  0.74

> <Gold.Chemscore.Hbond.Weighted>
-3.2192

> <Gold.Chemscore.Metal.Weighted>
-0.0000

> <Gold.Chemscore.Lipo.Weighted>
-9.0298

> <Gold.Chemscore.Internal_Hbond.Weighted>
0.0000

> <Gold.Chemscore.DEClash.Weighted>
0.0000

> <Gold.Chemscore.DEInternal.Weighted>
0.0888

> <Gold.Chemscore.Rot.Weighted>
3.3882

> <Gold.Chemscore.Internal.Correction.Weighted>
   9.000000E+99

> <Gold.Protein.RotatedTorsions>
[ 6907 6896 6895 6894 ] final   86.87 input  -60.11 | X-H torsion
[ 7974 7965 7964 7962 ] final -156.45 input  175.53 | X-H torsion
[ 8008 7997 7996 7995 ] final -102.18 input   59.86 | X-H torsion
[ 10167 10162 10161 10158 ] final  169.66 input  -65.29 | X-H torsion
[ 10718 10713 10712 10709 ] final -145.57 input   66.30 | X-H torsion
[ 10763 10752 10751 10750 ] final  -80.85 input  -60.55 | X-H torsion
[ 11005 11000 10999 10996 ] final   52.57 input  -57.11 | X-H torsion

> <Gold.Protein.ActiveResidues>
 VAL166  LYS551  ARG553  GLY616  TRP617  ASP618  TYR619  PRO620  LYS621  CYS622 
 ASP623  PHE694  ASN695  SER759  ASP760  ASP761  ALA762  ILE779  LEU786  VAL792 
 PHE793  MET794  SER795  GLU796  ALA797  LYS798  CYS799  TRP800  GLU811  SER814 

> <Gold.Protein.RotatedAtoms>
  152.5402  134.2365  159.8844 H   0  0  0  0  0  0  0  0  0  0  0  0  # atno 6907 bound_to 6896
  151.2334  133.4431  159.2612 H   0  0  0  0  0  0  0  0  0  0  0  0  # atno 6908 bound_to 6896
  151.0694  134.9802  159.8357 H   0  0  0  0  0  0  0  0  0  0  0  0  # atno 6909 bound_to 6896
  144.7592  140.4108  143.5989 H   0  0  0  0  0  0  0  0  0  0  0  0  # atno 7974 bound_to 7965
  154.8530  140.0430  157.1616 H   0  0  0  0  0  0  0  0  0  0  0  0  # atno 8008 bound_to 7997
  154.8922  140.2988  155.5344 H   0  0  0  0  0  0  0  0  0  0  0  0  # atno 8009 bound_to 7997
  156.2996  140.2391  156.3939 H   0  0  0  0  0  0  0  0  0  0  0  0  # atno 8010 bound_to 7997
  139.4998  144.3682  151.9753 H   0  0  0  0  0  0  0  0  0  0  0  0  # atno 10167 bound_to 10162
  156.3841  130.7852  151.2047 H   0  0  0  0  0  0  0  0  0  0  0  0  # atno 10718 bound_to 10713
  154.5563  135.5647  153.6966 H   0  0  0  0  0  0  0  0  0  0  0  0  # atno 10763 bound_to 10752
  153.0004  135.6263  154.2306 H   0  0  0  0  0  0  0  0  0  0  0  0  # atno 10764 bound_to 10752
  154.2243  135.2868  155.2893 H   0  0  0  0  0  0  0  0  0  0  0  0  # atno 10765 bound_to 10752
  140.0838  134.5302  155.8919 H   0  0  0  0  0  0  0  0  0  0  0  0  # atno 11005 bound_to 11000
  145.6674  139.1593  143.2774 LP  0  0  0  0  0  0  0  0  0  0  0  0  # atno 17320 bound_to 7965
  146.1638  140.6749  142.9265 LP  0  0  0  0  0  0  0  0  0  0  0  0  # atno 17321 bound_to 7965
  140.3118  144.3529  150.6032 LP  0  0  0  0  0  0  0  0  0  0  0  0  # atno 17342 bound_to 10162
  140.5793  143.2174  151.7458 LP  0  0  0  0  0  0  0  0  0  0  0  0  # atno 17343 bound_to 10162
  157.7494  131.0335  150.4275 LP  0  0  0  0  0  0  0  0  0  0  0  0  # atno 17370 bound_to 10713
  156.4525  130.4014  149.6627 LP  0  0  0  0  0  0  0  0  0  0  0  0  # atno 17371 bound_to 10713
  141.2056  133.6648  156.6189 LP  0  0  0  0  0  0  0  0  0  0  0  0  # atno 17394 bound_to 11000
  140.3449  134.7818  157.4425 LP  0  0  0  0  0  0  0  0  0  0  0  0  # atno 17395 bound_to 11000

$$$$
