AV-unprocessed.smi:1588|AV-procd|sdf|6389|dock3
  -GOLD-   22720 7 23D 1   1.00000     0.00000
 Structure written by MMmdl.
 37 38  0  0  0  0  0  0  0  0  2 V2000
  145.4271  128.8308  151.8759 C   0  0  0  0  0  0  0  0  0  0  0  0
  146.5719  129.1610  152.8435 C   0  0  0  0  0  0  0  0  0  0  0  0
  147.2674  130.4164  152.4759 N   0  3  1  0  0  0  0  0  0  0  0  0
  146.3806  131.5685  152.1808 C   0  0  0  0  0  0  0  0  0  0  0  0
  146.9754  132.7847  152.9028 C   0  0  0  0  0  0  0  0  0  0  0  0
  148.4088  132.3712  153.2285 C   0  0  1  0  0  0  0  0  0  0  0  0
  149.0362  133.1562  154.3971 C   0  0  0  0  0  0  0  0  0  0  0  0
  149.2669  134.5573  154.0605 N   0  0  0  0  0  0  0  0  0  0  0  0
  150.0554  135.3934  154.7509 C   0  0  0  0  0  0  0  0  0  0  0  0
  150.6744  135.0629  155.7624 O   0  0  0  0  0  0  0  0  0  0  0  0
  150.0679  136.6193  154.2025 N   0  0  0  0  0  0  0  0  0  0  0  0
  150.7784  137.7583  154.6593 C   0  0  0  0  0  0  0  0  0  0  0  0
  150.5313  139.0912  154.2320 C   0  0  0  0  0  0  0  0  0  0  0  0
  151.3488  139.9488  154.8261 N   0  0  0  0  0  0  0  0  0  0  0  0
  152.1174  139.1757  155.6261 N   0  0  0  0  0  0  0  0  0  0  0  0
  151.8065  137.8356  155.5567 C   0  0  0  0  0  0  0  0  0  0  0  0
  148.2628  130.8682  153.4694 C   0  0  0  0  0  0  0  0  0  0  0  0
  152.8427  139.5727  156.2064 H   0  0  0  0  0  0  0  0  0  0  0  0
  144.9608  127.8816  152.1410 H   0  0  0  0  0  0  0  0  0  0  0  0
  145.7894  128.7461  150.8509 H   0  0  0  0  0  0  0  0  0  0  0  0
  144.6489  129.5938  151.8946 H   0  0  0  0  0  0  0  0  0  0  0  0
  146.2008  129.2258  153.8673 H   0  0  0  0  0  0  0  0  0  0  0  0
  147.2935  128.3431  152.8224 H   0  0  0  0  0  0  0  0  0  0  0  0
  146.3619  131.7251  151.1018 H   0  0  0  0  0  0  0  0  0  0  0  0
  145.3542  131.3964  152.5076 H   0  0  0  0  0  0  0  0  0  0  0  0
  146.9277  133.6939  152.3027 H   0  0  0  0  0  0  0  0  0  0  0  0
  146.4200  132.9667  153.8240 H   0  0  0  0  0  0  0  0  0  0  0  0
  149.0109  132.5172  152.3300 H   0  0  0  0  0  0  0  0  0  0  0  0
  148.3993  133.0904  155.2808 H   0  0  0  0  0  0  0  0  0  0  0  0
  149.9938  132.7149  154.6750 H   0  0  0  0  0  0  0  0  0  0  0  0
  148.8021  134.9118  153.2375 H   0  0  0  0  0  0  0  0  0  0  0  0
  149.5050  136.7561  153.3758 H   0  0  0  0  0  0  0  0  0  0  0  0
  149.8001  139.4574  153.5265 H   0  0  0  0  0  0  0  0  0  0  0  0
  152.3322  137.0893  156.1340 H   0  0  0  0  0  0  0  0  0  0  0  0
  147.8848  130.6874  154.4774 H   0  0  0  0  0  0  0  0  0  0  0  0
  149.2059  130.3317  153.3609 H   0  0  0  0  0  0  0  0  0  0  0  0
  147.7863  130.2348  151.6284 H   0  0  0  0  0  0  0  0  0  0  0  0
  1  2  1  0  0  0  0
  1 19  1  0  0  0  0
  1 20  1  0  0  0  0
  1 21  1  0  0  0  0
  2  3  1  0  0  0  0
  2 22  1  0  0  0  0
  2 23  1  0  0  0  0
  3 17  1  0  0  0  0
  3  4  1  0  0  0  0
  3 37  1  0  0  0  0
  4  5  1  0  0  0  0
  4 24  1  0  0  0  0
  4 25  1  0  0  0  0
  5  6  1  0  0  0  0
  5 26  1  0  0  0  0
  5 27  1  0  0  0  0
  6  7  1  0  0  0  0
  6 17  1  0  0  0  0
  6 28  1  0  0  0  0
  7  8  1  0  0  0  0
  7 29  1  0  0  0  0
  7 30  1  0  0  0  0
  8  9  1  0  0  0  0
  8 31  1  0  0  0  0
  9 10  2  0  0  0  0
  9 11  1  0  0  0  0
 11 12  1  0  0  0  0
 11 32  1  0  0  0  0
 12 16  2  0  0  0  0
 12 13  1  0  0  0  0
 13 14  2  0  0  0  0
 13 33  1  0  0  0  0
 14 15  1  0  0  0  0
 15 18  1  0  0  0  0
 15 16  1  0  0  0  0
 16 34  1  0  0  0  0
 17 35  1  0  0  0  0
 17 36  1  0  0  0  0
M  CHG  1   3   1
M  END
> <s_m_source_file>
AV-unprocessed.smi

> <i_m_source_file_index>
1588

> <i_lp_mmshare_version>
43012

> <i_f3d_flags>
0

> <s_epik_input>
W0NIM11bQ0gyXU4xW0NIMl1bQ0gyXVtDQEhdKFtDSDJdMSlbQ0gyXVtOSF1DKD1PKVtOSF1jMltjSF1uW25IXVtjSF0y

> <s_epik_cmdline>
J2VwaWtfcHl0aG9uJywgJy1waCcsICc3LjAnLCAnLXRuJywgJzgnLCAnLW1hJywgJzIwMCcsICctbWV0YWxfYmluZGluZycsICctaW1hZScsICc8aW5maWxlLm1hZT4nLCAnLW9tYWUnLCAnPG91dGZpbGUubWFlPic=

> <r_lp_tautomer_probability>
0.5

> <r_epik_Ionization_Penalty>
0.000628417

> <r_epik_Ionization_Penalty_Charging>
0.000582718

> <r_epik_Ionization_Penalty_Neutral>
4.56984e-05

> <r_epik_State_Penalty>
0.000366292

> <r_epik_Charging_Adjusted_Penalty>
0.00094901

> <i_epik_Tot_Q>
1

> <i_epik_Tot_abs_Q>
1

> <r_epik_Metal_State_Penalty>
-0

> <b_epik_Metal_Only>
0

> <s_lp_Force_Field>
OPLS_2005

> <r_lp_Energy>
30.3182

> <b_lp_Chiralities_Consistent>
1

> <s_lp_Variant>
AV-unprocessed.smi:1588-1

> <Gold.Version>
5.8.1

> <Gold.Id.Protein>
6NUR|6NUR_protein|mol2

> <Gold.PLP.Fitness>
47.7507

> <Gold.PLP.PLP>
-31.6135

> <Gold.PLP.part.hbond>
-5.9106

> <Gold.PLP.part.metal>
0.0000

> <Gold.PLP.part.buried>
-1.3726

> <Gold.PLP.part.nonpolar>
-24.1338

> <Gold.PLP.part.repulsive>
0.4364

> <Gold.PLP.ligand.clash>
0.0000

> <Gold.PLP.ligand.torsion>
0.2255

> <Gold.PLP.Chemscore.Hbond>
4.5483

> <Gold.PLP.Chemscore.CHOScore>
0.9721

> <Gold.PLP.Chemscore.Metal>
0.0000

> <Gold.Chemscore.Hbonds>
donor molecule, donor type, donor heavy atom, donor atom, acceptor molecule, acceptor atom, score
      L1  H     3    37       P1 10747  1.00
      L1  H     8    31       P1  7948  0.85
      L1  H    11    32       P1  7948  0.99
      P1  H  7989  7998       L1    14  0.85
      L1  C    13    33       P1  7957  1.00

> <Gold.PLP.Chemscore.Internal.Correction>
0.0271

> <Gold.Rescore>
     Score         DG    S(hbond)    S(metal)    S(lipo)     H(rot)  DE(clash)    DE(int)     intcor
     18.02     -19.87       3.13        0.00      68.25       1.58       0.46       1.40       ----

> <Gold.Chemscore.Fitness>
18.0160

> <Gold.Chemscore.DG>
-19.8743

> <Gold.Chemscore.ZeroCoef>
-5.4800

> <Gold.Chemscore.Hbond>
3.1262

> <Gold.Chemscore.Metal>
0.0000

> <Gold.Chemscore.Lipo>
68.2519

> <Gold.Chemscore.Internal_Hbond>
0.0000

> <Gold.Chemscore.DEClash>
0.4599

> <Gold.Chemscore.DEInternal>
1.3984

> <Gold.Chemscore.Rot>
1.5753

> <Gold.Chemscore.Internal.Correction>
   9.000000E+99

> <Gold.Chemscore.Hbonds>
donor molecule, donor type, donor heavy atom, donor atom, acceptor molecule, acceptor atom, score
      L1  H     3    37       P1 10747  0.94
      L1  H     8    31       P1  7948  0.29
      L1  H    11    32       P1  7948  0.73
      P1  H  7989  7998       L1    14  0.15

> <Gold.Chemscore.Hbond.Weighted>
-10.4416

> <Gold.Chemscore.Metal.Weighted>
-0.0000

> <Gold.Chemscore.Lipo.Weighted>
-7.9855

> <Gold.Chemscore.Internal_Hbond.Weighted>
0.0000

> <Gold.Chemscore.DEClash.Weighted>
0.4599

> <Gold.Chemscore.DEInternal.Weighted>
1.3984

> <Gold.Chemscore.Rot.Weighted>
4.0328

> <Gold.Chemscore.Internal.Correction.Weighted>
   9.000000E+99

> <Gold.Protein.RotatedTorsions>
[ 6907 6896 6895 6894 ] final -114.12 input  -60.11 | X-H torsion
[ 7974 7965 7964 7962 ] final   43.65 input  175.53 | X-H torsion
[ 8008 7997 7996 7995 ] final  -86.04 input   59.86 | X-H torsion
[ 10167 10162 10161 10158 ] final -101.43 input  -65.29 | X-H torsion
[ 10718 10713 10712 10709 ] final -165.69 input   66.30 | X-H torsion
[ 10763 10752 10751 10750 ] final -165.08 input  -60.55 | X-H torsion
[ 11005 11000 10999 10996 ] final  -22.59 input  -57.11 | X-H torsion

> <Gold.Protein.ActiveResidues>
 VAL166  LYS551  ARG553  GLY616  TRP617  ASP618  TYR619  PRO620  LYS621  CYS622 
 ASP623  PHE694  ASN695  SER759  ASP760  ASP761  ALA762  ILE779  LEU786  VAL792 
 PHE793  MET794  SER795  GLU796  ALA797  LYS798  CYS799  TRP800  GLU811  SER814 

> <Gold.Protein.RotatedAtoms>
  150.7878  133.8847  159.3295 H   0  0  0  0  0  0  0  0  0  0  0  0  # atno 6907 bound_to 6896
  151.6693  135.0976  160.0204 H   0  0  0  0  0  0  0  0  0  0  0  0  # atno 6908 bound_to 6896
  152.3946  133.6690  159.6301 H   0  0  0  0  0  0  0  0  0  0  0  0  # atno 6909 bound_to 6896
  146.0637  139.5163  142.9642 H   0  0  0  0  0  0  0  0  0  0  0  0  # atno 7974 bound_to 7965
  154.6475  140.0583  156.9917 H   0  0  0  0  0  0  0  0  0  0  0  0  # atno 8008 bound_to 7997
  155.1422  140.3266  155.4431 H   0  0  0  0  0  0  0  0  0  0  0  0  # atno 8009 bound_to 7997
  156.2560  140.1962  156.6537 H   0  0  0  0  0  0  0  0  0  0  0  0  # atno 8010 bound_to 7997
  140.2414  143.3536  152.0798 H   0  0  0  0  0  0  0  0  0  0  0  0  # atno 10167 bound_to 10162
  156.6570  130.9031  151.3023 H   0  0  0  0  0  0  0  0  0  0  0  0  # atno 10718 bound_to 10713
  154.6966  135.2980  154.9402 H   0  0  0  0  0  0  0  0  0  0  0  0  # atno 10763 bound_to 10752
  154.0348  135.6665  153.4788 H   0  0  0  0  0  0  0  0  0  0  0  0  # atno 10764 bound_to 10752
  153.0650  135.5093  154.8087 H   0  0  0  0  0  0  0  0  0  0  0  0  # atno 10765 bound_to 10752
  140.8671  133.7746  156.0143 H   0  0  0  0  0  0  0  0  0  0  0  0  # atno 11005 bound_to 11000
  145.6515  141.0262  143.1758 LP  0  0  0  0  0  0  0  0  0  0  0  0  # atno 17320 bound_to 7965
  144.7190  139.8097  143.7389 LP  0  0  0  0  0  0  0  0  0  0  0  0  # atno 17321 bound_to 7965
  139.5076  144.6835  151.5948 LP  0  0  0  0  0  0  0  0  0  0  0  0  # atno 17342 bound_to 10162
  140.6111  143.9435  150.6454 LP  0  0  0  0  0  0  0  0  0  0  0  0  # atno 17343 bound_to 10162
  157.7122  130.9454  150.1129 LP  0  0  0  0  0  0  0  0  0  0  0  0  # atno 17370 bound_to 10713
  156.2040  130.3662  149.8753 LP  0  0  0  0  0  0  0  0  0  0  0  0  # atno 17371 bound_to 10713
  140.8616  134.2834  157.5232 LP  0  0  0  0  0  0  0  0  0  0  0  0  # atno 17394 bound_to 11000
  139.8710  134.9521  156.4104 LP  0  0  0  0  0  0  0  0  0  0  0  0  # atno 17395 bound_to 11000

$$$$
