AV-unprocessed.smi:289|AV-procd|sdf|2213|dock7
  -GOLD-   2262022 43D 1   1.00000     0.00000
 Structure written by MMmdl.
 51 54  0  0  0  0  0  0  0  0  1 V2000
  150.3569  139.1507  155.0756 O   0  0  0  0  0  0  0  0  0  0  0  0
  150.7061  138.5883  156.1154 C   0  0  0  0  0  0  0  0  0  0  0  0
  152.1551  138.7722  156.6146 C   0  0  0  0  0  0  0  0  0  0  0  0
  152.3101  139.8518  157.6159 N   0  0  0  0  0  0  0  0  0  0  0  0
  152.9998  139.5696  158.8204 C   0  0  0  0  0  0  0  0  0  0  0  0
  153.4852  138.4578  159.0341 O   0  0  0  0  0  0  0  0  0  0  0  0
  153.0725  140.6693  159.7746 C   0  0  0  0  0  0  0  0  0  0  0  0
  153.6750  140.4816  160.9610 F   0  0  0  0  0  0  0  0  0  0  0  0
  152.5282  141.8710  159.4940 C   0  0  0  0  0  0  0  0  0  0  0  0
  151.8892  142.1490  158.2967 N   0  0  0  0  0  0  0  0  0  0  0  0
  151.2012  143.4781  158.0211 C   0  0  2  0  0  0  0  0  0  0  0  0
  152.1502  144.6830  157.9686 C   0  0  0  0  0  0  0  0  0  0  0  0
  152.0495  145.2708  159.3739 C   0  0  0  0  0  0  0  0  0  0  0  0
  151.0460  144.3711  160.1037 C   0  0  0  0  0  0  0  0  0  0  0  0
  150.3145  143.7399  159.0616 O   0  0  0  0  0  0  0  0  0  0  0  0
  151.7287  141.1145  157.3473 C   0  0  0  0  0  0  0  0  0  0  0  0
  151.0927  141.3066  156.3084 O   0  0  0  0  0  0  0  0  0  0  0  0
  149.8568  137.8137  156.8339 N   0  0  0  0  0  0  0  0  0  0  0  0
  150.1630  137.1567  158.1134 C   0  0  0  0  0  0  0  0  0  0  0  0
  149.2497  137.7327  159.2150 C   0  0  0  0  0  0  0  0  0  0  0  0
  147.8390  137.5492  158.8290 N   0  0  0  0  0  0  0  0  0  0  0  0
  146.9361  136.7616  159.4663 C   0  0  0  0  0  0  0  0  0  0  0  0
  145.8798  136.4064  158.9425 O   0  0  0  0  0  0  0  0  0  0  0  0
  147.2131  136.3149  160.8488 C   0  0  0  0  0  0  0  0  0  0  0  0
  146.9635  135.1127  161.4541 C   0  0  0  0  0  0  0  0  0  0  0  0
  147.3767  135.2444  162.8086 C   0  0  0  0  0  0  0  0  0  0  0  0
  147.8274  136.5263  162.9407 C   0  0  0  0  0  0  0  0  0  0  0  0
  147.7202  137.1960  161.7612 O   0  0  0  0  0  0  0  0  0  0  0  0
  147.5438  138.1906  157.5377 C   0  0  0  0  0  0  0  0  0  0  0  0
  148.4555  137.5963  156.4479 C   0  0  0  0  0  0  0  0  0  0  0  0
  152.5096  137.8213  157.0157 H   0  0  0  0  0  0  0  0  0  0  0  0
  152.8026  138.9660  155.7581 H   0  0  0  0  0  0  0  0  0  0  0  0
  152.5955  142.6278  160.2592 H   0  0  0  0  0  0  0  0  0  0  0  0
  150.6787  143.3432  157.0727 H   0  0  0  0  0  0  0  0  0  0  0  0
  153.1564  144.4153  157.6469 H   0  0  0  0  0  0  0  0  0  0  0  0
  151.7531  145.3963  157.2454 H   0  0  0  0  0  0  0  0  0  0  0  0
  153.0122  145.2918  159.8851 H   0  0  0  0  0  0  0  0  0  0  0  0
  151.6778  146.2947  159.3228 H   0  0  0  0  0  0  0  0  0  0  0  0
  151.5600  143.6172  160.7013 H   0  0  0  0  0  0  0  0  0  0  0  0
  150.3876  144.9319  160.7671 H   0  0  0  0  0  0  0  0  0  0  0  0
  149.9919  136.0841  158.0101 H   0  0  0  0  0  0  0  0  0  0  0  0
  151.2007  137.2572  158.4249 H   0  0  0  0  0  0  0  0  0  0  0  0
  149.5158  137.2443  160.1498 H   0  0  0  0  0  0  0  0  0  0  0  0
  149.4482  138.7959  159.3577 H   0  0  0  0  0  0  0  0  0  0  0  0
  146.5366  134.2420  160.9780 H   0  0  0  0  0  0  0  0  0  0  0  0
  147.3399  134.4988  163.5892 H   0  0  0  0  0  0  0  0  0  0  0  0
  148.2301  137.0993  163.7628 H   0  0  0  0  0  0  0  0  0  0  0  0
  146.4995  138.0827  157.2413 H   0  0  0  0  0  0  0  0  0  0  0  0
  147.7162  139.2644  157.6262 H   0  0  0  0  0  0  0  0  0  0  0  0
  148.2065  138.0401  155.4833 H   0  0  0  0  0  0  0  0  0  0  0  0
  148.2711  136.5262  156.3411 H   0  0  0  0  0  0  0  0  0  0  0  0
  1  2  2  0  0  0  0
  2  3  1  0  0  0  0
  2 18  1  0  0  0  0
  3  4  1  0  0  0  0
  3 31  1  0  0  0  0
  3 32  1  0  0  0  0
  4 16  1  0  0  0  0
  4  5  1  0  0  0  0
  5  6  2  0  0  0  0
  5  7  1  0  0  0  0
  7  8  1  0  0  0  0
  7  9  2  0  0  0  0
  9 10  1  0  0  0  0
  9 33  1  0  0  0  0
 10 11  1  0  0  0  0
 10 16  1  0  0  0  0
 11 15  1  0  0  0  0
 11 12  1  0  0  0  0
 11 34  1  0  0  0  0
 12 13  1  0  0  0  0
 12 35  1  0  0  0  0
 12 36  1  0  0  0  0
 13 14  1  0  0  0  0
 13 37  1  0  0  0  0
 13 38  1  0  0  0  0
 14 15  1  0  0  0  0
 14 39  1  0  0  0  0
 14 40  1  0  0  0  0
 16 17  2  0  0  0  0
 18 30  1  0  0  0  0
 18 19  1  0  0  0  0
 19 20  1  0  0  0  0
 19 41  1  0  0  0  0
 19 42  1  0  0  0  0
 20 21  1  0  0  0  0
 20 43  1  0  0  0  0
 20 44  1  0  0  0  0
 21 22  1  0  0  0  0
 21 29  1  0  0  0  0
 22 23  2  0  0  0  0
 22 24  1  0  0  0  0
 24 28  1  0  0  0  0
 24 25  2  0  0  0  0
 25 26  1  0  0  0  0
 25 45  1  0  0  0  0
 26 27  2  0  0  0  0
 26 46  1  0  0  0  0
 27 28  1  0  0  0  0
 27 47  1  0  0  0  0
 29 30  1  0  0  0  0
 29 48  1  0  0  0  0
 29 49  1  0  0  0  0
 30 50  1  0  0  0  0
 30 51  1  0  0  0  0
M  END
> <s_m_source_file>
AV-unprocessed.smi

> <i_m_source_file_index>
289

> <i_lp_mmshare_version>
43012

> <i_f3d_flags>
0

> <s_epik_input>
bzFbY0hdW2NIXVtjSF1jMUMoPU8pTihbQ0gyXVtDSDJdMilbQ0gyXVtDSDJdTjJDKD1PKVtDSDJdbjNjKD1PKWMoRilbY0hdbihjMz1PKVtDQEBIXTRbQ0gyXVtDSDJdW0NIMl1PNA==

> <s_epik_cmdline>
J2VwaWtfcHl0aG9uJywgJy1waCcsICc3LjAnLCAnLXRuJywgJzgnLCAnLW1hJywgJzIwMCcsICctbWV0YWxfYmluZGluZycsICctaW1hZScsICc8aW5maWxlLm1hZT4nLCAnLW9tYWUnLCAnPG91dGZpbGUubWFlPic=

> <r_lp_tautomer_probability>
1

> <r_epik_Ionization_Penalty>
6.38128e-09

> <r_epik_Ionization_Penalty_Charging>
4.20153e-09

> <r_epik_Ionization_Penalty_Neutral>
2.17976e-09

> <r_epik_State_Penalty>
-0

> <r_epik_Charging_Adjusted_Penalty>
4.20153e-09

> <i_epik_Tot_Q>
0

> <i_epik_Tot_abs_Q>
0

> <r_epik_Metal_State_Penalty>
-0

> <b_epik_Metal_Only>
0

> <s_epik_Chemistry_Notes>
This compound contains an acetal/aminal-like group ( X-CH(R)-Y where X, Y are N, S, or O) that may be acid/base labile, releasing an aldehyde.

> <s_lp_Force_Field>
OPLS_2005

> <r_lp_Energy>
70.009

> <b_lp_Chiralities_Consistent>
1

> <s_lp_Variant>
AV-unprocessed.smi:289-1

> <Gold.Version>
5.8.1

> <Gold.Id.Protein>
6NUR|6NUR_protein|mol2

> <Gold.PLP.Fitness>
51.8513

> <Gold.PLP.PLP>
-50.0055

> <Gold.PLP.part.hbond>
-2.0000

> <Gold.PLP.part.metal>
0.0000

> <Gold.PLP.part.buried>
-5.3081

> <Gold.PLP.part.nonpolar>
-42.1520

> <Gold.PLP.part.repulsive>
0.2522

> <Gold.PLP.ligand.clash>
1.0029

> <Gold.PLP.ligand.torsion>
1.2290

> <Gold.PLP.Chemscore.Hbond>
1.5873

> <Gold.PLP.Chemscore.CHOScore>
0.0000

> <Gold.PLP.Chemscore.Metal>
0.0000

> <Gold.Chemscore.Hbonds>
donor molecule, donor type, donor heavy atom, donor atom, acceptor molecule, acceptor atom, score
      P1  H  6931  6943       L1    28  1.00
      P1  H  6934  6947       L1    28  0.63

> <Gold.PLP.Chemscore.Internal.Correction>
0.5450

> <Gold.Rescore>
     Score         DG    S(hbond)    S(metal)    S(lipo)     H(rot)  DE(clash)    DE(int)     intcor
     11.66     -18.23       1.90        0.00      90.96       1.66       0.18       6.39       ----

> <Gold.Chemscore.Fitness>
11.6600

> <Gold.Chemscore.DG>
-18.2306

> <Gold.Chemscore.ZeroCoef>
-5.4800

> <Gold.Chemscore.Hbond>
1.9022

> <Gold.Chemscore.Metal>
0.0000

> <Gold.Chemscore.Lipo>
90.9565

> <Gold.Chemscore.Internal_Hbond>
0.0000

> <Gold.Chemscore.DEClash>
0.1789

> <Gold.Chemscore.DEInternal>
6.3917

> <Gold.Chemscore.Rot>
1.6580

> <Gold.Chemscore.Internal.Correction>
   9.000000E+99

> <Gold.Chemscore.Hbonds>
donor molecule, donor type, donor heavy atom, donor atom, acceptor molecule, acceptor atom, score
      P1  H  6931  6943       L1    28  0.25
      P1  H  6934  6947       L1    28  0.23

> <Gold.Chemscore.Hbond.Weighted>
-6.3533

> <Gold.Chemscore.Metal.Weighted>
-0.0000

> <Gold.Chemscore.Lipo.Weighted>
-10.6419

> <Gold.Chemscore.Internal_Hbond.Weighted>
0.0000

> <Gold.Chemscore.DEClash.Weighted>
0.1789

> <Gold.Chemscore.DEInternal.Weighted>
6.3917

> <Gold.Chemscore.Rot.Weighted>
4.2446

> <Gold.Chemscore.Internal.Correction.Weighted>
   9.000000E+99

> <Gold.Protein.RotatedTorsions>
[ 6907 6896 6895 6894 ] final  102.27 input  -60.11 | X-H torsion
[ 7974 7965 7964 7962 ] final   85.96 input  175.53 | X-H torsion
[ 8008 7997 7996 7995 ] final -112.85 input   59.86 | X-H torsion
[ 10167 10162 10161 10158 ] final  155.61 input  -65.29 | X-H torsion
[ 10718 10713 10712 10709 ] final    6.81 input   66.30 | X-H torsion
[ 10763 10752 10751 10750 ] final  127.72 input  -60.55 | X-H torsion
[ 11005 11000 10999 10996 ] final -139.71 input  -57.11 | X-H torsion

> <Gold.Protein.ActiveResidues>
 VAL166  LYS551  ARG553  GLY616  TRP617  ASP618  TYR619  PRO620  LYS621  CYS622 
 ASP623  PHE694  ASN695  SER759  ASP760  ASP761  ALA762  ILE779  LEU786  VAL792 
 PHE793  MET794  SER795  GLU796  ALA797  LYS798  CYS799  TRP800  GLU811  SER814 

> <Gold.Protein.RotatedAtoms>
  152.5328  134.0000  159.7890 H   0  0  0  0  0  0  0  0  0  0  0  0  # atno 6907 bound_to 6896
  151.0220  133.5860  159.2677 H   0  0  0  0  0  0  0  0  0  0  0  0  # atno 6908 bound_to 6896
  151.2896  135.0745  159.9252 H   0  0  0  0  0  0  0  0  0  0  0  0  # atno 6909 bound_to 6896
  145.5786  139.2322  143.2365 H   0  0  0  0  0  0  0  0  0  0  0  0  # atno 7974 bound_to 7965
  155.0117  140.0393  157.2402 H   0  0  0  0  0  0  0  0  0  0  0  0  # atno 8008 bound_to 7997
  154.7455  140.2757  155.6314 H   0  0  0  0  0  0  0  0  0  0  0  0  # atno 8009 bound_to 7997
  156.2874  140.2657  156.2194 H   0  0  0  0  0  0  0  0  0  0  0  0  # atno 8010 bound_to 7997
  139.4821  144.5083  151.8064 H   0  0  0  0  0  0  0  0  0  0  0  0  # atno 10167 bound_to 10162
  156.9276  130.5814  149.5649 H   0  0  0  0  0  0  0  0  0  0  0  0  # atno 10718 bound_to 10713
  153.7140  135.3264  155.3252 H   0  0  0  0  0  0  0  0  0  0  0  0  # atno 10763 bound_to 10752
  154.8376  135.4483  154.1285 H   0  0  0  0  0  0  0  0  0  0  0  0  # atno 10764 bound_to 10752
  153.2387  135.6968  153.7887 H   0  0  0  0  0  0  0  0  0  0  0  0  # atno 10765 bound_to 10752
  140.8493  134.2305  157.4769 H   0  0  0  0  0  0  0  0  0  0  0  0  # atno 11005 bound_to 11000
  146.1732  140.6613  142.9223 LP  0  0  0  0  0  0  0  0  0  0  0  0  # atno 17320 bound_to 7965
  144.7404  140.4927  143.6873 LP  0  0  0  0  0  0  0  0  0  0  0  0  # atno 17321 bound_to 7965
  140.4583  144.1758  150.5903 LP  0  0  0  0  0  0  0  0  0  0  0  0  # atno 17342 bound_to 10162
  140.4512  143.2486  151.9345 LP  0  0  0  0  0  0  0  0  0  0  0  0  # atno 17343 bound_to 10162
  156.0462  130.5538  150.8885 LP  0  0  0  0  0  0  0  0  0  0  0  0  # atno 17370 bound_to 10713
  157.5867  131.0945  150.9184 LP  0  0  0  0  0  0  0  0  0  0  0  0  # atno 17371 bound_to 10713
  139.8704  134.9675  156.4600 LP  0  0  0  0  0  0  0  0  0  0  0  0  # atno 17394 bound_to 11000
  140.8808  133.7919  155.9464 LP  0  0  0  0  0  0  0  0  0  0  0  0  # atno 17395 bound_to 11000

$$$$
