#       Name:                AV-unprocessed.smi:514
#       Creating user name   scv26
#       Creation time:       Thu Mar 26 23:25:03 2020


#       File generated by GOLD software.
#

@<TRIPOS>MOLECULE
AV-unprocessed.smi:514
    53    55     1
SMALL
NO_CHARGES


@<TRIPOS>ATOM
      1 ****        -4.3123   2.1422  -0.3155 C.3            1 S1                 0.0000
      2 ****        -3.5184   2.7936   0.8256 C.3            1 S1                 0.0000
      3 ****        -2.1170   2.6604   0.6343 O.3            1 S1                 0.0000
      4 ****        -1.6009   1.3852   0.9854 C.3            1 S1                 0.0000
      5 ****        -0.0861   1.3811   0.7242 C.3            1 S1                 0.0000
      6 ****         0.4927   0.0465   0.8522 N.pl3          1 S1                 0.0000
      7 ****         0.8768  -0.8201  -0.1297 C.2            1 S1                 0.0000
      8 ****         0.7468  -0.5495  -1.4985 N.pl3          1 S1                 0.0000
      9 ****         1.6677  -1.0512  -2.5178 C.3            1 S1                 0.0000
     10 ****         2.1385   0.0843  -3.4482 C.3            1 S1                 0.0000
     11 ****         0.9920   0.6627  -4.1395 N.3            1 S1                 0.0000
     12 ****         0.0667   1.1836  -3.1400 C.3            1 S1                 0.0000
     13 ****        -0.3871   0.0383  -2.2135 C.3            1 S1                 0.0000
     14 ****         1.4293  -1.9485   0.3231 N.2            1 S1                 0.0000
     15 ****         1.3758  -1.8026   1.6991 C.2            1 S1                 0.0000
     16 ****         0.8285  -0.6076   2.0438 C.2            1 S1                 0.0000
     17 ****         0.6721  -0.1507   3.4438 C.2            1 S1                 0.0000
     18 ****         0.1859   0.9478   3.7041 O.2            1 S1                 0.0000
     19 ****         1.1280  -1.0773   4.3451 N.pl3          1 S1                -1.0000
     20 ****         1.6842  -2.3005   4.0384 C.2            1 S1                 0.0000
     21 ****         2.0774  -3.0735   4.9131 O.2            1 S1                 0.0000
     22 ****         1.8120  -2.6805   2.7284 N.am           1 S1                 0.0000
     23 ****         2.3977  -3.9756   2.3708 C.3            1 S1                 0.0000
     24 ****        -5.3787   2.3369  -0.2014 H              1 S1                 0.0000
     25 ****        -4.1801   1.0612  -0.3388 H              1 S1                 0.0000
     26 ****        -4.0032   2.5400  -1.2823 H              1 S1                 0.0000
     27 ****        -3.7452   3.8596   0.8462 H              1 S1                 0.0000
     28 ****        -3.8217   2.3945   1.7945 H              1 S1                 0.0000
     29 ****        -1.8096   1.1768   2.0346 H              1 S1                 0.0000
     30 ****        -2.0884   0.6013   0.4081 H              1 S1                 0.0000
     31 ****         0.1359   1.7806  -0.2627 H              1 S1                 0.0000
     32 ****         0.4197   2.0555   1.4144 H              1 S1                 0.0000
     33 ****         2.5385  -1.4996  -2.0389 H              1 S1                 0.0000
     34 ****         1.1862  -1.8449  -3.0905 H              1 S1                 0.0000
     35 ****         2.6621   0.8561  -2.8822 H              1 S1                 0.0000
     36 ****         2.8385  -0.3027  -4.1887 H              1 S1                 0.0000
     37 ****         1.3010   1.4130  -4.7407 H              1 S1                 0.0000
     38 ****         0.5417   1.9844  -2.5717 H              1 S1                 0.0000
     39 ****        -0.7938   1.6179  -3.6490 H              1 S1                 0.0000
     40 ****        -0.8790  -0.7401  -2.7986 H              1 S1                 0.0000
     41 ****        -1.1417   0.3978  -1.5213 H              1 S1                 0.0000
     42 ****         3.4503  -4.0065   2.6544 H              1 S1                 0.0000
     43 ****         2.3379  -4.1826   1.3027 H              1 S1                 0.0000
     44 ****         1.8814  -4.7881   2.8839 H              1 S1                 0.0000
     45 ****        -1.6571   3.3498   1.1938 LP             1 S1                 0.0000
     46 ****        -1.9151   2.8255  -0.3311 LP             1 S1                 0.0000
     47 ****         0.5394  -0.0330  -4.6974 LP             1 S1                 0.0000
     48 ****         1.7942  -2.7151  -0.2051 LP             1 S1                 0.0000
     49 ****        -0.1123   1.5507   2.9640 LP             1 S1                 0.0000
     50 ****         0.0885   1.2387   4.6559 LP             1 S1                 0.0000
     51 ****         1.0498  -0.8443   5.3144 LP             1 S1                 0.0000
     52 ****         1.9973  -2.8200   5.8771 LP             1 S1                 0.0000
     53 ****         2.4766  -3.9544   4.6592 LP             1 S1                 0.0000
@<TRIPOS>BOND
    1    1    2 1     
    2    1   24 1     
    3    1   25 1     
    4    1   26 1     
    5    2    3 1     
    6    2   27 1     
    7    2   28 1     
    8    3    4 1     
    9    4    5 1     
   10    4   29 1     
   11    4   30 1     
   12    5    6 1     
   13    5   31 1     
   14    5   32 1     
   15    6   16 1     
   16    6    7 1     
   17    7    8 1     
   18    7   14 2     
   19    8   13 1     
   20    8    9 1     
   21    9   10 1     
   22    9   33 1     
   23    9   34 1     
   24   10   11 1     
   25   10   35 1     
   26   10   36 1     
   27   11   12 1     
   28   11   37 1     
   29   12   13 1     
   30   12   38 1     
   31   12   39 1     
   32   13   40 1     
   33   13   41 1     
   34   14   15 1     
   35   15   22 1     
   36   15   16 2     
   37   16   17 1     
   38   17   18 2     
   39   17   19 1     
   40   19   20 1     
   41   20   21 2     
   42   20   22 am    
   43   22   23 1     
   44   23   42 1     
   45   23   43 1     
   46   23   44 1     
   47    3   45 1     
   48    3   46 1     
   49   11   47 1     
   50   14   48 1     
   51   18   49 1     
   52   18   50 1     
   53   19   51 1     
   54   21   52 1     
   55   21   53 1     
@<TRIPOS>SUBSTRUCTURE
      1 S1             1
@<TRIPOS>SET
LONE_PAIRS      STATIC     ATOMS    <user>   **** ""
9 45 46 47 48 49 50 51 52 53
DONOR_HYDROGENS      STATIC     ATOMS    <user>   **** ""
1 37
ATOM$BLUE        STATIC     ATOMS    COLORGROUP SYSTEM
9 45 46 47 48 49 50 51 52 53
ATOM$RED        STATIC     ATOMS    COLORGROUP SYSTEM
1 37
