#       Name:                AV-unprocessed.smi:2594
#       Creating user name   scv26
#       Creation time:       Fri Mar 27 14:18:15 2020


#       File generated by GOLD software.
#

@<TRIPOS>MOLECULE
AV-unprocessed.smi:2594
    36    37     1
SMALL
NO_CHARGES


@<TRIPOS>ATOM
      1 ****         0.0991   1.4985  -0.9039 O.2            1 S1                 0.0000
      2 ****         0.8926   0.5607  -0.8067 C.2            1 S1                 0.0000
      3 ****         2.4065   0.8084  -0.7634 C.3            1 S1                 0.0000
      4 ****         2.7953   2.1125  -1.3023 N.am           1 S1                 0.0000
      5 ****         3.1192   3.1003  -0.4251 N.2            1 S1                 0.0000
      6 ****         3.4279   4.1852  -1.0331 C.2            1 S1                 0.0000
      7 ****         3.3651   4.1348  -2.7996 S.3            1 S1                 0.0000
      8 ****         2.8586   2.4289  -2.6565 C.2            1 S1                 0.0000
      9 ****         2.6206   1.7078  -3.6236 O.2            1 S1                 0.0000
     10 ****         0.5059  -0.7202  -0.7112 N.am           1 S1                 0.0000
     11 ****        -0.8776  -1.1812  -0.7109 C.3            1 S1                 0.0000
     12 ****        -1.5272  -1.0215   0.6735 C.3            1 S1                 0.0000
     13 ****        -2.9931  -1.4454   0.7179 C.3            1 S1                 0.0000
     14 ****        -3.1783  -1.7305   2.1908 C.3            1 S1                 0.0000
     15 ****        -1.8403  -2.3656   2.5629 C.3            1 S1                 0.0000
     16 ****        -0.8860  -1.8596   1.6316 O.3            1 S1                 0.0000
     17 ****         2.7436   0.7132   0.2702 H              1 S1                 0.0000
     18 ****         2.9181   0.0259  -1.3264 H              1 S1                 0.0000
     19 ****         3.7222   5.1240  -0.5644 H              1 S1                 0.0000
     20 ****         1.2213  -1.4274  -0.6235 H              1 S1                 0.0000
     21 ****        -1.4498  -0.6344  -1.4623 H              1 S1                 0.0000
     22 ****        -0.8917  -2.2288  -1.0134 H              1 S1                 0.0000
     23 ****        -1.4487   0.0110   1.0184 H              1 S1                 0.0000
     24 ****        -3.6695  -0.6774   0.3420 H              1 S1                 0.0000
     25 ****        -3.1507  -2.3564   0.1384 H              1 S1                 0.0000
     26 ****        -3.3146  -0.7957   2.7359 H              1 S1                 0.0000
     27 ****        -4.0315  -2.3760   2.4010 H              1 S1                 0.0000
     28 ****        -1.5499  -2.1404   3.5894 H              1 S1                 0.0000
     29 ****        -1.8863  -3.4499   2.4547 H              1 S1                 0.0000
     30 ****         0.4388   2.4376  -0.9559 LP             1 S1                 0.0000
     31 ****        -0.8846   1.3204  -0.9309 LP             1 S1                 0.0000
     32 ****         3.1167   2.9933   0.5691 LP             1 S1                 0.0000
     33 ****         2.3399   0.7584  -3.4824 LP             1 S1                 0.0000
     34 ****         2.7076   2.0707  -4.5514 LP             1 S1                 0.0000
     35 ****        -0.1943  -1.3302   2.1227 LP             1 S1                 0.0000
     36 ****        -0.4475  -2.6246   1.1599 LP             1 S1                 0.0000
@<TRIPOS>BOND
    1    1    2 2     
    2    2    3 1     
    3    2   10 am    
    4    3    4 1     
    5    3   17 1     
    6    3   18 1     
    7    4    8 am    
    8    4    5 1     
    9    5    6 2     
   10    6    7 1     
   11    6   19 1     
   12    7    8 1     
   13    8    9 2     
   14   10   11 1     
   15   10   20 1     
   16   11   12 1     
   17   11   21 1     
   18   11   22 1     
   19   12   16 1     
   20   12   13 1     
   21   12   23 1     
   22   13   14 1     
   23   13   24 1     
   24   13   25 1     
   25   14   15 1     
   26   14   26 1     
   27   14   27 1     
   28   15   16 1     
   29   15   28 1     
   30   15   29 1     
   31    1   30 1     
   32    1   31 1     
   33    5   32 1     
   34    9   33 1     
   35    9   34 1     
   36   16   35 1     
   37   16   36 1     
@<TRIPOS>SUBSTRUCTURE
      1 S1             1
@<TRIPOS>SET
LONE_PAIRS      STATIC     ATOMS    <user>   **** ""
7 30 31 32 33 34 35 36
DONOR_HYDROGENS      STATIC     ATOMS    <user>   **** ""
1 20
ATOM$BLUE        STATIC     ATOMS    COLORGROUP SYSTEM
7 30 31 32 33 34 35 36
ATOM$RED        STATIC     ATOMS    COLORGROUP SYSTEM
1 20
