AV-unprocessed.smi:2149|AV-procd|sdf|8754|dock10
  -GOLD-   2272011533D 1   1.00000     0.00000
 Structure written by MMmdl.
 43 44  0  0  0  0  0  0  0  0  2 V2000
  135.3258  137.9955  154.2280 C   0  0  0  0  0  0  0  0  0  0  0  0
  136.1509  138.1341  155.8659 S   0  0  0  0  0  0  0  0  0  0  0  0
  135.4987  139.2174  156.6170 O   0  0  0  0  0  0  0  0  0  0  0  0
  136.2347  136.7868  156.4516 O   0  0  0  0  0  0  0  0  0  0  0  0
  137.7684  138.6514  155.4858 N   0  0  0  0  0  0  0  0  0  0  0  0
  137.9887  139.8173  154.6050 C   0  0  0  0  0  0  0  0  0  0  0  0
  138.3922  139.3901  153.1813 C   0  0  0  0  0  0  0  0  0  0  0  0
  139.5857  138.4261  153.2003 C   0  0  0  0  0  0  0  0  0  0  0  0
  139.2456  137.2105  154.0787 C   0  0  1  0  0  0  0  0  0  0  0  0
  140.3986  136.2012  154.1357 C   0  0  0  0  0  0  0  0  0  0  0  0
  141.0414  136.0429  155.1735 O   0  0  0  0  0  0  0  0  0  0  0  0
  140.6182  135.4913  153.0187 N   0  0  0  0  0  0  0  0  0  0  0  0
  141.5488  134.3730  152.8983 C   0  0  0  0  0  0  0  0  0  0  0  0
  142.9855  134.8213  152.5518 C   0  0  0  0  0  0  0  0  0  0  0  0
  143.7559  133.8134  151.7137 C   0  0  0  0  0  0  0  0  0  0  0  0
  144.9682  133.2411  152.1578 C   0  0  0  0  0  0  0  0  0  0  0  0
  145.6163  132.2826  151.3516 C   0  0  0  0  0  0  0  0  0  0  0  0
  145.0437  131.9231  150.1144 C   0  0  0  0  0  0  0  0  0  0  0  0
  143.8372  132.5332  149.7141 C   0  0  0  0  0  0  0  0  0  0  0  0
  143.2442  133.4444  150.5172 N   0  3  0  0  0  0  0  0  0  0  0  0
  138.8745  137.6758  155.5029 C   0  0  0  0  0  0  0  0  0  0  0  0
  134.2868  137.7027  154.3777 H   0  0  0  0  0  0  0  0  0  0  0  0
  135.8214  137.2383  153.6237 H   0  0  0  0  0  0  0  0  0  0  0  0
  135.3505  138.9571  153.7180 H   0  0  0  0  0  0  0  0  0  0  0  0
  137.0981  140.4444  154.5753 H   0  0  0  0  0  0  0  0  0  0  0  0
  138.7808  140.4285  155.0390 H   0  0  0  0  0  0  0  0  0  0  0  0
  137.5486  138.9172  152.6796 H   0  0  0  0  0  0  0  0  0  0  0  0
  138.6399  140.2721  152.5900 H   0  0  0  0  0  0  0  0  0  0  0  0
  139.8231  138.1097  152.1836 H   0  0  0  0  0  0  0  0  0  0  0  0
  140.4671  138.9424  153.5839 H   0  0  0  0  0  0  0  0  0  0  0  0
  138.3849  136.7089  153.6366 H   0  0  0  0  0  0  0  0  0  0  0  0
  140.0525  135.7007  152.2089 H   0  0  0  0  0  0  0  0  0  0  0  0
  141.5555  133.8636  153.8621 H   0  0  0  0  0  0  0  0  0  0  0  0
  141.1851  133.6473  152.1693 H   0  0  0  0  0  0  0  0  0  0  0  0
  142.9588  135.7783  152.0290 H   0  0  0  0  0  0  0  0  0  0  0  0
  143.5407  135.0009  153.4733 H   0  0  0  0  0  0  0  0  0  0  0  0
  145.3898  133.5200  153.1129 H   0  0  0  0  0  0  0  0  0  0  0  0
  146.5383  131.8259  151.6809 H   0  0  0  0  0  0  0  0  0  0  0  0
  145.5234  131.1894  149.4828 H   0  0  0  0  0  0  0  0  0  0  0  0
  143.3302  132.3178  148.7850 H   0  0  0  0  0  0  0  0  0  0  0  0
  139.7349  138.1463  155.9815 H   0  0  0  0  0  0  0  0  0  0  0  0
  138.6076  136.8242  156.1269 H   0  0  0  0  0  0  0  0  0  0  0  0
  142.3679  133.8671  150.2101 H   0  0  0  0  0  0  0  0  0  0  0  0
  1  2  1  0  0  0  0
  1 22  1  0  0  0  0
  1 23  1  0  0  0  0
  1 24  1  0  0  0  0
  2  3  2  0  0  0  0
  2  4  2  0  0  0  0
  2  5  1  0  0  0  0
  5 21  1  0  0  0  0
  5  6  1  0  0  0  0
  6  7  1  0  0  0  0
  6 25  1  0  0  0  0
  6 26  1  0  0  0  0
  7  8  1  0  0  0  0
  7 27  1  0  0  0  0
  7 28  1  0  0  0  0
  8  9  1  0  0  0  0
  8 29  1  0  0  0  0
  8 30  1  0  0  0  0
  9 10  1  0  0  0  0
  9 21  1  0  0  0  0
  9 31  1  0  0  0  0
 10 11  2  0  0  0  0
 10 12  1  0  0  0  0
 12 13  1  0  0  0  0
 12 32  1  0  0  0  0
 13 14  1  0  0  0  0
 13 33  1  0  0  0  0
 13 34  1  0  0  0  0
 14 15  1  0  0  0  0
 14 35  1  0  0  0  0
 14 36  1  0  0  0  0
 15 20  1  0  0  0  0
 15 16  2  0  0  0  0
 16 17  1  0  0  0  0
 16 37  1  0  0  0  0
 17 18  2  0  0  0  0
 17 38  1  0  0  0  0
 18 19  1  0  0  0  0
 18 39  1  0  0  0  0
 19 20  2  0  0  0  0
 19 40  1  0  0  0  0
 20 43  1  0  0  0  0
 21 41  1  0  0  0  0
 21 42  1  0  0  0  0
M  CHG  1  20   1
M  END
> <s_m_source_file>
AV-unprocessed.smi

> <i_m_source_file_index>
2149

> <i_lp_mmshare_version>
43012

> <i_f3d_flags>
0

> <s_epik_input>
W0NIM11TKD1PKSg9TylOMVtDSDJdW0NIMl1bQ0gyXVtDQEhdKFtDSDJdMSlDKD1PKVtOSF1bQ0gyXVtDSDJdYzJbY0hdW2NIXVtjSF1bY0hdbjI=

> <s_epik_cmdline>
J2VwaWtfcHl0aG9uJywgJy1waCcsICc3LjAnLCAnLXRuJywgJzgnLCAnLW1hJywgJzIwMCcsICctbWV0YWxfYmluZGluZycsICctaW1hZScsICc8aW5maWxlLm1hZT4nLCAnLW9tYWUnLCAnPG91dGZpbGUubWFlPic=

> <r_epik_Ionization_Penalty>
1.83523

> <r_epik_Ionization_Penalty_Charging>
1.83523

> <r_epik_Ionization_Penalty_Neutral>
2.62835e-08

> <r_epik_State_Penalty>
1.95153

> <r_epik_Charging_Adjusted_Penalty>
3.78676

> <i_epik_Tot_Q>
1

> <i_epik_Tot_abs_Q>
1

> <r_epik_Metal_State_Penalty>
1.97791

> <b_epik_Metal_Only>
0

> <s_lp_Force_Field>
OPLS_2005

> <r_lp_Energy>
6.48015

> <b_lp_Chiralities_Consistent>
1

> <s_lp_Variant>
AV-unprocessed.smi:2149-3

> <Gold.Version>
5.8.1

> <Gold.Id.Protein>
6NUR|6NUR_protein|mol2

> <Gold.PLP.Fitness>
43.6416

> <Gold.PLP.PLP>
-36.5183

> <Gold.PLP.part.hbond>
-3.0000

> <Gold.PLP.part.metal>
0.0000

> <Gold.PLP.part.buried>
-3.4410

> <Gold.PLP.part.nonpolar>
-31.1793

> <Gold.PLP.part.repulsive>
0.2454

> <Gold.PLP.ligand.clash>
0.0000

> <Gold.PLP.ligand.torsion>
1.7133

> <Gold.PLP.Chemscore.Hbond>
2.8120

> <Gold.PLP.Chemscore.CHOScore>
0.0000

> <Gold.PLP.Chemscore.Metal>
0.0000

> <Gold.Chemscore.Hbonds>
donor molecule, donor type, donor heavy atom, donor atom, acceptor molecule, acceptor atom, score
      L1  H    12    32       P1 10187  0.40
      L1  H    20    43       P1 10186  2.00
      P1  H 11000 11005       L1    11  0.45

> <Gold.PLP.Chemscore.Internal.Correction>
2.1140

> <Gold.Rescore>
     Score         DG    S(hbond)    S(metal)    S(lipo)     H(rot)  DE(clash)    DE(int)     intcor
     14.09     -15.96       1.07        0.00      95.11       1.65       0.30       1.56       ----

> <Gold.Chemscore.Fitness>
14.0909

> <Gold.Chemscore.DG>
-15.9557

> <Gold.Chemscore.ZeroCoef>
-5.4800

> <Gold.Chemscore.Hbond>
1.0722

> <Gold.Chemscore.Metal>
0.0000

> <Gold.Chemscore.Lipo>
95.1129

> <Gold.Chemscore.Internal_Hbond>
0.0000

> <Gold.Chemscore.DEClash>
0.3039

> <Gold.Chemscore.DEInternal>
1.5609

> <Gold.Chemscore.Rot>
1.6538

> <Gold.Chemscore.Internal.Correction>
   9.000000E+99

> <Gold.Chemscore.Hbonds>
donor molecule, donor type, donor heavy atom, donor atom, acceptor molecule, acceptor atom, score
      L1  H    12    32       P1 10187  0.01
      L1  H    20    43       P1 10186  0.98
      P1  H 11000 11005       L1    11  0.14

> <Gold.Chemscore.Hbond.Weighted>
-3.5811

> <Gold.Chemscore.Metal.Weighted>
-0.0000

> <Gold.Chemscore.Lipo.Weighted>
-11.1282

> <Gold.Chemscore.Internal_Hbond.Weighted>
0.0000

> <Gold.Chemscore.DEClash.Weighted>
0.3039

> <Gold.Chemscore.DEInternal.Weighted>
1.5609

> <Gold.Chemscore.Rot.Weighted>
4.2337

> <Gold.Chemscore.Internal.Correction.Weighted>
   9.000000E+99

> <Gold.Protein.RotatedTorsions>
[ 6907 6896 6895 6894 ] final   46.06 input  -60.11 | X-H torsion
[ 7974 7965 7964 7962 ] final  179.19 input  175.53 | X-H torsion
[ 8008 7997 7996 7995 ] final   92.80 input   59.86 | X-H torsion
[ 10167 10162 10161 10158 ] final  119.13 input  -65.29 | X-H torsion
[ 10718 10713 10712 10709 ] final   25.66 input   66.30 | X-H torsion
[ 10763 10752 10751 10750 ] final   51.12 input  -60.55 | X-H torsion
[ 11005 11000 10999 10996 ] final   71.14 input  -57.11 | X-H torsion

> <Gold.Protein.ActiveResidues>
 VAL166  LYS551  ARG553  GLY616  TRP617  ASP618  TYR619  PRO620  LYS621  CYS622 
 ASP623  PHE694  ASN695  SER759  ASP760  ASP761  ALA762  ILE779  LEU786  VAL792 
 PHE793  MET794  SER795  GLU796  ALA797  LYS798  CYS799  TRP800  GLU811  SER814 

> <Gold.Protein.RotatedAtoms>
  152.2520  134.8123  160.0444 H   0  0  0  0  0  0  0  0  0  0  0  0  # atno 6907 bound_to 6896
  151.8800  133.3488  159.3771 H   0  0  0  0  0  0  0  0  0  0  0  0  # atno 6908 bound_to 6896
  150.7087  134.4954  159.5580 H   0  0  0  0  0  0  0  0  0  0  0  0  # atno 6909 bound_to 6896
  144.7148  140.0510  143.6435 H   0  0  0  0  0  0  0  0  0  0  0  0  # atno 7974 bound_to 7965
  156.0396  140.3321  155.7228 H   0  0  0  0  0  0  0  0  0  0  0  0  # atno 8008 bound_to 7997
  155.5765  140.0633  157.2811 H   0  0  0  0  0  0  0  0  0  0  0  0  # atno 8009 bound_to 7997
  154.4387  140.1851  156.0920 H   0  0  0  0  0  0  0  0  0  0  0  0  # atno 8010 bound_to 7997
  139.6066  144.7071  151.2940 H   0  0  0  0  0  0  0  0  0  0  0  0  # atno 10167 bound_to 10162
  157.1964  130.6869  149.6170 H   0  0  0  0  0  0  0  0  0  0  0  0  # atno 10718 bound_to 10713
  152.9785  135.5856  154.4363 H   0  0  0  0  0  0  0  0  0  0  0  0  # atno 10763 bound_to 10752
  154.3970  135.2768  155.2122 H   0  0  0  0  0  0  0  0  0  0  0  0  # atno 10764 bound_to 10752
  154.3969  135.6112  153.5929 H   0  0  0  0  0  0  0  0  0  0  0  0  # atno 10765 bound_to 10752
  139.9559  134.7144  156.0753 H   0  0  0  0  0  0  0  0  0  0  0  0  # atno 11005 bound_to 11000
  145.9944  139.3040  143.0965 LP  0  0  0  0  0  0  0  0  0  0  0  0  # atno 17320 bound_to 7965
  145.8866  140.9330  143.0574 LP  0  0  0  0  0  0  0  0  0  0  0  0  # atno 17321 bound_to 7965
  140.7289  143.6922  150.7912 LP  0  0  0  0  0  0  0  0  0  0  0  0  # atno 17342 bound_to 10162
  140.0509  143.5250  152.2674 LP  0  0  0  0  0  0  0  0  0  0  0  0  # atno 17343 bound_to 10162
  155.9705  130.4597  150.6047 LP  0  0  0  0  0  0  0  0  0  0  0  0  # atno 17370 bound_to 10713
  157.3810  131.0781  151.1476 LP  0  0  0  0  0  0  0  0  0  0  0  0  # atno 17371 bound_to 10713
  141.1231  133.6607  156.3266 LP  0  0  0  0  0  0  0  0  0  0  0  0  # atno 17394 bound_to 11000
  140.5609  134.5935  157.5433 LP  0  0  0  0  0  0  0  0  0  0  0  0  # atno 17395 bound_to 11000

$$$$
