AV-unprocessed.smi:3303|AV-procd|sdf|12663|dock1
  -GOLD-   2272018593D 1   1.00000     0.00000
 Structure written by MMmdl.
 45 46  0  0  0  0  0  0  0  0  3 V2000
  145.6822  143.1217  153.8420 C   0  0  0  0  0  0  0  0  0  0  0  0
  147.0525  142.4848  154.1350 C   0  0  2  0  0  0  0  0  0  0  0  0
  147.3597  141.3288  153.1606 C   0  0  0  0  0  0  0  0  0  0  0  0
  146.5292  140.1253  153.4308 N   0  3  1  0  0  0  0  0  0  0  0  0
  146.7331  139.0958  152.3824 C   0  0  0  0  0  0  0  0  0  0  0  0
  146.7114  139.6199  154.8248 C   0  0  2  0  0  0  0  0  0  0  0  0
  145.8401  138.3853  155.1279 C   0  0  0  0  0  0  0  0  0  0  0  0
  146.3974  140.7328  155.8495 C   0  0  0  0  0  0  0  0  0  0  0  0
  147.1891  142.0296  155.6032 C   0  0  1  0  0  0  0  0  0  0  0  0
  148.6135  141.8586  155.9775 N   0  3  0  0  0  0  0  0  0  0  0  0
  148.8361  141.3640  157.3510 C   0  0  0  0  0  0  0  0  0  0  0  0
  150.3335  141.2195  157.6537 C   0  0  0  0  0  0  0  0  0  0  0  0
  150.9075  142.4715  158.2891 C   0  0  0  0  0  0  0  0  0  0  0  0
  152.1969  142.4659  158.8626 C   0  0  0  0  0  0  0  0  0  0  0  0
  152.6836  143.6609  159.4278 C   0  0  0  0  0  0  0  0  0  0  0  0
  151.8675  144.8081  159.3955 C   0  0  0  0  0  0  0  0  0  0  0  0
  150.5953  144.7097  158.7979 C   0  0  0  0  0  0  0  0  0  0  0  0
  150.1192  143.5691  158.2528 N   0  0  0  0  0  0  0  0  0  0  0  0
  144.8647  142.4121  153.9704 H   0  0  0  0  0  0  0  0  0  0  0  0
  145.6358  143.4943  152.8183 H   0  0  0  0  0  0  0  0  0  0  0  0
  145.4931  143.9682  154.5029 H   0  0  0  0  0  0  0  0  0  0  0  0
  147.7892  143.2704  153.9584 H   0  0  0  0  0  0  0  0  0  0  0  0
  147.1968  141.6680  152.1364 H   0  0  0  0  0  0  0  0  0  0  0  0
  148.4138  141.0549  153.2277 H   0  0  0  0  0  0  0  0  0  0  0  0
  147.7192  138.6375  152.4681 H   0  0  0  0  0  0  0  0  0  0  0  0
  146.6492  139.5343  151.3874 H   0  0  0  0  0  0  0  0  0  0  0  0
  145.9792  138.3113  152.4395 H   0  0  0  0  0  0  0  0  0  0  0  0
  147.7562  139.3272  154.9413 H   0  0  0  0  0  0  0  0  0  0  0  0
  145.9178  138.1020  156.1781 H   0  0  0  0  0  0  0  0  0  0  0  0
  146.1474  137.5139  154.5499 H   0  0  0  0  0  0  0  0  0  0  0  0
  144.7875  138.5788  154.9172 H   0  0  0  0  0  0  0  0  0  0  0  0
  145.3303  140.9569  155.8143 H   0  0  0  0  0  0  0  0  0  0  0  0
  146.5870  140.3752  156.8628 H   0  0  0  0  0  0  0  0  0  0  0  0
  146.7626  142.8035  156.2443 H   0  0  0  0  0  0  0  0  0  0  0  0
  149.0389  141.2036  155.3367 H   0  0  0  0  0  0  0  0  0  0  0  0
  148.3790  142.0544  158.0617 H   0  0  0  0  0  0  0  0  0  0  0  0
  148.3368  140.4007  157.4660 H   0  0  0  0  0  0  0  0  0  0  0  0
  150.5021  140.3749  158.3238 H   0  0  0  0  0  0  0  0  0  0  0  0
  150.8812  140.9984  156.7365 H   0  0  0  0  0  0  0  0  0  0  0  0
  152.8017  141.5710  158.8702 H   0  0  0  0  0  0  0  0  0  0  0  0
  153.6655  143.6973  159.8764 H   0  0  0  0  0  0  0  0  0  0  0  0
  152.2080  145.7417  159.8184 H   0  0  0  0  0  0  0  0  0  0  0  0
  149.9434  145.5696  158.7547 H   0  0  0  0  0  0  0  0  0  0  0  0
  149.0801  142.7494  155.8828 H   0  0  0  0  0  0  0  0  0  0  0  0
  145.5661  140.4204  153.3517 H   0  0  0  0  0  0  0  0  0  0  0  0
  1  2  1  0  0  0  0
  1 19  1  0  0  0  0
  1 20  1  0  0  0  0
  1 21  1  0  0  0  0
  2  9  1  0  0  0  0
  2  3  1  0  0  0  0
  2 22  1  0  0  0  0
  3  4  1  0  0  0  0
  3 23  1  0  0  0  0
  3 24  1  0  0  0  0
  4  5  1  0  0  0  0
  4  6  1  0  0  0  0
  4 45  1  0  0  0  0
  5 25  1  0  0  0  0
  5 26  1  0  0  0  0
  5 27  1  0  0  0  0
  6  7  1  0  0  0  0
  6  8  1  0  0  0  0
  6 28  1  0  0  0  0
  7 29  1  0  0  0  0
  7 30  1  0  0  0  0
  7 31  1  0  0  0  0
  8  9  1  0  0  0  0
  8 32  1  0  0  0  0
  8 33  1  0  0  0  0
  9 10  1  0  0  0  0
  9 34  1  0  0  0  0
 10 11  1  0  0  0  0
 10 35  1  0  0  0  0
 10 44  1  0  0  0  0
 11 12  1  0  0  0  0
 11 36  1  0  0  0  0
 11 37  1  0  0  0  0
 12 13  1  0  0  0  0
 12 38  1  0  0  0  0
 12 39  1  0  0  0  0
 13 18  1  0  0  0  0
 13 14  2  0  0  0  0
 14 15  1  0  0  0  0
 14 40  1  0  0  0  0
 15 16  2  0  0  0  0
 15 41  1  0  0  0  0
 16 17  1  0  0  0  0
 16 42  1  0  0  0  0
 17 18  2  0  0  0  0
 17 43  1  0  0  0  0
M  CHG  1   4   1
M  CHG  1  10   1
M  END
> <s_m_source_file>
AV-unprocessed.smi

> <i_m_source_file_index>
3303

> <i_lp_mmshare_version>
43012

> <i_f3d_flags>
0

> <s_epik_input>
W0NIM11bQ0BASF0xW0NIMl1OKFtDSDNdKVtDQEBIXShbQ0gzXSlbQ0gyXVtDQEhdMVtOSF1bQ0gyXVtDSDJdYzJbY0hdW2NIXVtjSF1bY0hdbjI=

> <s_epik_cmdline>
J2VwaWtfcHl0aG9uJywgJy1waCcsICc3LjAnLCAnLXRuJywgJzgnLCAnLW1hJywgJzIwMCcsICctbWV0YWxfYmluZGluZycsICctaW1hZScsICc8aW5maWxlLm1hZT4nLCAnLW9tYWUnLCAnPG91dGZpbGUubWFlPic=

> <r_epik_Ionization_Penalty>
0.0769462

> <r_epik_Ionization_Penalty_Charging>
0.0759813

> <r_epik_Ionization_Penalty_Neutral>
0.000964829

> <r_epik_State_Penalty>
0.0654373

> <r_epik_Charging_Adjusted_Penalty>
0.141419

> <i_epik_Tot_Q>
2

> <i_epik_Tot_abs_Q>
2

> <r_epik_Metal_State_Penalty>
0.0656439

> <b_epik_Metal_Only>
0

> <s_lp_Force_Field>
OPLS_2005

> <r_lp_Energy>
35.1377

> <b_lp_Chiralities_Consistent>
1

> <s_lp_Variant>
AV-unprocessed.smi:3303-7

> <Gold.Version>
5.8.1

> <Gold.Id.Protein>
6NUR|6NUR_protein|mol2

> <Gold.PLP.Fitness>
48.0421

> <Gold.PLP.PLP>
-34.1206

> <Gold.PLP.part.hbond>
-2.0000

> <Gold.PLP.part.metal>
0.0000

> <Gold.PLP.part.buried>
-4.2436

> <Gold.PLP.part.nonpolar>
-29.6023

> <Gold.PLP.part.repulsive>
1.2447

> <Gold.PLP.ligand.clash>
0.0000

> <Gold.PLP.ligand.torsion>
0.3495

> <Gold.PLP.Chemscore.Hbond>
3.8705

> <Gold.PLP.Chemscore.CHOScore>
0.9962

> <Gold.PLP.Chemscore.Metal>
0.0000

> <Gold.Chemscore.Hbonds>
donor molecule, donor type, donor heavy atom, donor atom, acceptor molecule, acceptor atom, score
      L1  H     4    45       P1 10175  1.79
      L1  H    10    44       P1  8028  1.86
      L1  C    17    43       P1  8029  0.96

> <Gold.PLP.Chemscore.Internal.Correction>
0.0202

> <Gold.Rescore>
     Score         DG    S(hbond)    S(metal)    S(lipo)     H(rot)  DE(clash)    DE(int)     intcor
     19.41     -20.36       1.86        0.00     104.22       1.37       0.64       0.31       ----

> <Gold.Chemscore.Fitness>
19.4095

> <Gold.Chemscore.DG>
-20.3605

> <Gold.Chemscore.ZeroCoef>
-5.4800

> <Gold.Chemscore.Hbond>
1.8578

> <Gold.Chemscore.Metal>
0.0000

> <Gold.Chemscore.Lipo>
104.2215

> <Gold.Chemscore.Internal_Hbond>
0.0000

> <Gold.Chemscore.DEClash>
0.6379

> <Gold.Chemscore.DEInternal>
0.3131

> <Gold.Chemscore.Rot>
1.3744

> <Gold.Chemscore.Internal.Correction>
   9.000000E+99

> <Gold.Chemscore.Hbonds>
donor molecule, donor type, donor heavy atom, donor atom, acceptor molecule, acceptor atom, score
      L1  H     4    45       P1 10175  0.81
      L1  H    10    44       P1  8028  0.87

> <Gold.Chemscore.Hbond.Weighted>
-6.2050

> <Gold.Chemscore.Metal.Weighted>
-0.0000

> <Gold.Chemscore.Lipo.Weighted>
-12.1939

> <Gold.Chemscore.Internal_Hbond.Weighted>
0.0000

> <Gold.Chemscore.DEClash.Weighted>
0.6379

> <Gold.Chemscore.DEInternal.Weighted>
0.3131

> <Gold.Chemscore.Rot.Weighted>
3.5185

> <Gold.Chemscore.Internal.Correction.Weighted>
   9.000000E+99

> <Gold.Protein.RotatedTorsions>
[ 6907 6896 6895 6894 ] final   96.44 input  -60.11 | X-H torsion
[ 7974 7965 7964 7962 ] final  102.36 input  175.53 | X-H torsion
[ 8008 7997 7996 7995 ] final  -67.36 input   59.86 | X-H torsion
[ 10167 10162 10161 10158 ] final  150.99 input  -65.29 | X-H torsion
[ 10718 10713 10712 10709 ] final  -91.52 input   66.30 | X-H torsion
[ 10763 10752 10751 10750 ] final  159.35 input  -60.55 | X-H torsion
[ 11005 11000 10999 10996 ] final  151.52 input  -57.11 | X-H torsion

> <Gold.Protein.ActiveResidues>
 VAL166  LYS551  ARG553  GLY616  TRP617  ASP618  TYR619  PRO620  LYS621  CYS622 
 ASP623  PHE694  ASN695  SER759  ASP760  ASP761  ALA762  ILE779  LEU786  VAL792 
 PHE793  MET794  SER795  GLU796  ALA797  LYS798  CYS799  TRP800  GLU811  SER814 

> <Gold.Protein.RotatedAtoms>
  152.5435  134.0886  159.8266 H   0  0  0  0  0  0  0  0  0  0  0  0  # atno 6907 bound_to 6896
  151.0978  133.5259  159.2619 H   0  0  0  0  0  0  0  0  0  0  0  0  # atno 6908 bound_to 6896
  151.2025  135.0457  159.8932 H   0  0  0  0  0  0  0  0  0  0  0  0  # atno 6909 bound_to 6896
  145.3601  139.2420  143.3511 H   0  0  0  0  0  0  0  0  0  0  0  0  # atno 7974 bound_to 7965
  154.4795  140.0894  156.7343 H   0  0  0  0  0  0  0  0  0  0  0  0  # atno 8008 bound_to 7997
  155.4508  140.3457  155.4282 H   0  0  0  0  0  0  0  0  0  0  0  0  # atno 8009 bound_to 7997
  156.1169  140.1463  156.9248 H   0  0  0  0  0  0  0  0  0  0  0  0  # atno 8010 bound_to 7997
  139.4844  144.5477  151.7455 H   0  0  0  0  0  0  0  0  0  0  0  0  # atno 10167 bound_to 10162
  155.9994  130.4951  150.5486 H   0  0  0  0  0  0  0  0  0  0  0  0  # atno 10718 bound_to 10713
  154.2304  135.2778  155.2892 H   0  0  0  0  0  0  0  0  0  0  0  0  # atno 10763 bound_to 10752
  154.5628  135.5642  153.7026 H   0  0  0  0  0  0  0  0  0  0  0  0  # atno 10764 bound_to 10752
  153.0021  135.6302  154.2446 H   0  0  0  0  0  0  0  0  0  0  0  0  # atno 10765 bound_to 10752
  140.1226  134.8854  157.2093 H   0  0  0  0  0  0  0  0  0  0  0  0  # atno 11005 bound_to 11000
  146.2931  140.4233  142.8732 LP  0  0  0  0  0  0  0  0  0  0  0  0  # atno 17320 bound_to 7965
  144.8653  140.7197  143.6081 LP  0  0  0  0  0  0  0  0  0  0  0  0  # atno 17321 bound_to 7965
  140.5026  144.1146  150.5975 LP  0  0  0  0  0  0  0  0  0  0  0  0  # atno 17342 bound_to 10162
  140.4044  143.2687  151.9908 LP  0  0  0  0  0  0  0  0  0  0  0  0  # atno 17343 bound_to 10162
  157.3412  131.0717  151.1786 LP  0  0  0  0  0  0  0  0  0  0  0  0  # atno 17370 bound_to 10713
  157.2634  130.6669  149.5985 LP  0  0  0  0  0  0  0  0  0  0  0  0  # atno 17371 bound_to 10713
  140.2946  134.3201  155.7306 LP  0  0  0  0  0  0  0  0  0  0  0  0  # atno 17394 bound_to 11000
  141.2155  133.7555  156.9552 LP  0  0  0  0  0  0  0  0  0  0  0  0  # atno 17395 bound_to 11000

$$$$
