AV-unprocessed.smi:281|AV-procd|sdf|2107|dock7
  -GOLD-   2262021403D 1   1.00000     0.00000
 Structure written by MMmdl.
 55 59  0  0  0  0  0  0  0  0  1 V2000
  151.9340  139.1066  154.6926 C   0  0  0  0  0  0  0  0  0  0  0  0
  150.4331  139.1789  154.9902 C   0  0  2  0  0  0  0  0  0  0  0  0
  149.6826  137.9402  154.4726 C   0  0  0  0  0  0  0  0  0  0  0  0
  148.2513  138.1051  154.6867 N   0  0  0  0  0  0  0  0  0  0  0  0
  147.5063  136.9741  154.6125 C   0  0  0  0  0  0  0  0  0  0  0  0
  147.8073  135.9109  155.4052 N   0  0  0  0  0  0  0  0  0  0  0  0
  147.0826  134.7906  155.3351 C   0  0  0  0  0  0  0  0  0  0  0  0
  146.0359  134.5215  154.5527 N   0  0  0  0  0  0  0  0  0  0  0  0
  145.7311  135.5820  153.7513 C   0  0  0  0  0  0  0  0  0  0  0  0
  146.4090  136.8335  153.7166 C   0  0  0  0  0  0  0  0  0  0  0  0
  145.8290  137.6578  152.7594 N   0  0  0  0  0  0  0  0  0  0  0  0
  144.8608  136.9380  152.2623 C   0  0  0  0  0  0  0  0  0  0  0  0
  144.7249  135.6801  152.8055 N   0  0  0  0  0  0  0  0  0  0  0  0
  143.7448  134.6696  152.4365 C   0  0  0  0  0  0  0  0  0  0  0  0
  144.3687  133.3688  151.8778 C   0  0  2  0  0  0  0  0  0  0  0  0
  144.9700  132.6470  152.9387 O   0  0  0  0  0  0  0  0  0  0  0  0
  145.4309  133.6359  150.8184 C   0  0  0  0  0  0  0  0  0  0  0  0
  145.3484  132.3979  149.9363 C   0  0  0  0  0  0  0  0  0  0  0  0
  143.9551  132.1463  149.8774 O   0  0  0  0  0  0  0  0  0  0  0  0
  143.3800  132.4349  151.1484 C   0  0  0  0  0  0  0  0  0  0  0  0
  147.7129  139.3330  154.1088 C   0  0  0  0  0  0  0  0  0  0  0  0
  148.5168  140.5717  154.5830 C   0  0  1  0  0  0  0  0  0  0  0  0
  148.1352  141.7968  153.7620 C   0  0  0  0  0  0  0  0  0  0  0  0
  146.9878  142.3954  154.5584 C   0  0  0  0  0  0  0  0  0  0  0  0
  147.4122  142.2469  155.9020 O   0  0  0  0  0  0  0  0  0  0  0  0
  148.2230  141.0797  156.0256 C   0  0  1  0  0  0  0  0  0  0  0  0
  147.5480  140.1054  157.0066 C   0  0  0  0  0  0  0  0  0  0  0  0
  149.9111  140.3452  154.3559 O   0  0  0  0  0  0  0  0  0  0  0  0
  152.3858  138.2347  155.1659 H   0  0  0  0  0  0  0  0  0  0  0  0
  152.4478  139.9921  155.0677 H   0  0  0  0  0  0  0  0  0  0  0  0
  152.1213  139.0414  153.6204 H   0  0  0  0  0  0  0  0  0  0  0  0
  150.3030  139.2609  156.0698 H   0  0  0  0  0  0  0  0  0  0  0  0
  149.8643  137.8083  153.4051 H   0  0  0  0  0  0  0  0  0  0  0  0
  150.0623  137.0484  154.9699 H   0  0  0  0  0  0  0  0  0  0  0  0
  147.3864  133.9954  155.9998 H   0  0  0  0  0  0  0  0  0  0  0  0
  144.2186  137.3079  151.4766 H   0  0  0  0  0  0  0  0  0  0  0  0
  143.1398  134.4481  153.3167 H   0  0  0  0  0  0  0  0  0  0  0  0
  143.0652  135.1046  151.7024 H   0  0  0  0  0  0  0  0  0  0  0  0
  144.3225  132.5096  153.6131 H   0  0  0  0  0  0  0  0  0  0  0  0
  145.1624  134.5110  150.2253 H   0  0  0  0  0  0  0  0  0  0  0  0
  146.4275  133.8064  151.2277 H   0  0  0  0  0  0  0  0  0  0  0  0
  145.7716  132.5559  148.9441 H   0  0  0  0  0  0  0  0  0  0  0  0
  145.8566  131.5506  150.3995 H   0  0  0  0  0  0  0  0  0  0  0  0
  143.2029  131.5091  151.6983 H   0  0  0  0  0  0  0  0  0  0  0  0
  142.4117  132.9050  150.9797 H   0  0  0  0  0  0  0  0  0  0  0  0
  147.7757  139.2479  153.0227 H   0  0  0  0  0  0  0  0  0  0  0  0
  146.6566  139.4454  154.3557 H   0  0  0  0  0  0  0  0  0  0  0  0
  148.9617  142.5092  153.7397 H   0  0  0  0  0  0  0  0  0  0  0  0
  147.8665  141.5703  152.7296 H   0  0  0  0  0  0  0  0  0  0  0  0
  146.7986  143.4399  154.3104 H   0  0  0  0  0  0  0  0  0  0  0  0
  146.0670  141.8317  154.4028 H   0  0  0  0  0  0  0  0  0  0  0  0
  149.1577  141.4190  156.4738 H   0  0  0  0  0  0  0  0  0  0  0  0
  148.1570  139.2182  157.1770 H   0  0  0  0  0  0  0  0  0  0  0  0
  146.5700  139.7839  156.6489 H   0  0  0  0  0  0  0  0  0  0  0  0
  147.3972  140.5831  157.9749 H   0  0  0  0  0  0  0  0  0  0  0  0
  1  2  1  0  0  0  0
  1 29  1  0  0  0  0
  1 30  1  0  0  0  0
  1 31  1  0  0  0  0
  2 28  1  0  0  0  0
  2  3  1  0  0  0  0
  2 32  1  0  0  0  0
  3  4  1  0  0  0  0
  3 33  1  0  0  0  0
  3 34  1  0  0  0  0
  4  5  1  0  0  0  0
  4 21  1  0  0  0  0
  5 10  1  0  0  0  0
  5  6  2  0  0  0  0
  6  7  1  0  0  0  0
  7  8  2  0  0  0  0
  7 35  1  0  0  0  0
  8  9  1  0  0  0  0
  9 13  1  0  0  0  0
  9 10  2  0  0  0  0
 10 11  1  0  0  0  0
 11 12  2  0  0  0  0
 12 13  1  0  0  0  0
 12 36  1  0  0  0  0
 13 14  1  0  0  0  0
 14 15  1  0  0  0  0
 14 37  1  0  0  0  0
 14 38  1  0  0  0  0
 15 20  1  0  0  0  0
 15 16  1  0  0  0  0
 15 17  1  0  0  0  0
 16 39  1  0  0  0  0
 17 18  1  0  0  0  0
 17 40  1  0  0  0  0
 17 41  1  0  0  0  0
 18 19  1  0  0  0  0
 18 42  1  0  0  0  0
 18 43  1  0  0  0  0
 19 20  1  0  0  0  0
 20 44  1  0  0  0  0
 20 45  1  0  0  0  0
 21 22  1  0  0  0  0
 21 46  1  0  0  0  0
 21 47  1  0  0  0  0
 22 26  1  0  0  0  0
 22 23  1  0  0  0  0
 22 28  1  0  0  0  0
 23 24  1  0  0  0  0
 23 48  1  0  0  0  0
 23 49  1  0  0  0  0
 24 25  1  0  0  0  0
 24 50  1  0  0  0  0
 24 51  1  0  0  0  0
 25 26  1  0  0  0  0
 26 27  1  0  0  0  0
 26 52  1  0  0  0  0
 27 53  1  0  0  0  0
 27 54  1  0  0  0  0
 27 55  1  0  0  0  0
M  END
> <s_m_source_file>
AV-unprocessed.smi

> <i_m_source_file_index>
281

> <i_lp_mmshare_version>
43012

> <i_f3d_flags>
0

> <s_epik_input>
W0NIM11bQ0BASF0xT1tDSDJdW0NIMl1bQ0BAXTEyW0NIMl1OKFtDSDJdW0NASF0oTzIpW0NIM10pYyhuW2NIXW4zKWMoYzM0KW5bY0hdbjRbQ0gyXVtDQEBdNShbT0hdKVtDSDJdW0NIMl1PW0NIMl01

> <s_epik_cmdline>
J2VwaWtfcHl0aG9uJywgJy1waCcsICc3LjAnLCAnLXRuJywgJzgnLCAnLW1hJywgJzIwMCcsICctbWV0YWxfYmluZGluZycsICctaW1hZScsICc8aW5maWxlLm1hZT4nLCAnLW9tYWUnLCAnPG91dGZpbGUubWFlPic=

> <r_lp_tautomer_probability>
1

> <r_epik_Ionization_Penalty>
0.00571331

> <r_epik_Ionization_Penalty_Charging>
0

> <r_epik_Ionization_Penalty_Neutral>
0.00571331

> <r_epik_State_Penalty>
0.00399586

> <r_epik_Charging_Adjusted_Penalty>
0.00399586

> <i_epik_Tot_Q>
0

> <i_epik_Tot_abs_Q>
0

> <r_epik_Metal_State_Penalty>
-0

> <b_epik_Metal_Only>
0

> <s_lp_Force_Field>
OPLS_2005

> <r_lp_Energy>
55.2886

> <b_lp_Chiralities_Consistent>
1

> <s_lp_Variant>
AV-unprocessed.smi:281-7

> <Gold.Version>
5.8.1

> <Gold.Id.Protein>
6NUR|6NUR_protein|mol2

> <Gold.PLP.Fitness>
40.9789

> <Gold.PLP.PLP>
-32.6881

> <Gold.PLP.part.hbond>
-2.6104

> <Gold.PLP.part.metal>
0.0000

> <Gold.PLP.part.buried>
-4.9125

> <Gold.PLP.part.nonpolar>
-28.3626

> <Gold.PLP.part.repulsive>
1.8042

> <Gold.PLP.ligand.clash>
0.0000

> <Gold.PLP.ligand.torsion>
0.3672

> <Gold.PLP.Chemscore.Hbond>
1.8775

> <Gold.PLP.Chemscore.CHOScore>
1.0000

> <Gold.PLP.Chemscore.Metal>
0.0000

> <Gold.Chemscore.Hbonds>
donor molecule, donor type, donor heavy atom, donor atom, acceptor molecule, acceptor atom, score
      L1  H    16    39       P1 10957  0.71
      P1  H  7989  7998       L1    28  0.70
      P1  H 10785 10796       L1    19  0.01
      L1  C    12    36       P1 10171  1.00

> <Gold.PLP.Chemscore.Internal.Correction>
0.3928

> <Gold.Rescore>
     Score         DG    S(hbond)    S(metal)    S(lipo)     H(rot)  DE(clash)    DE(int)     intcor
     12.02     -14.50       1.36        0.00      83.92       2.09       0.80       1.67       ----

> <Gold.Chemscore.Fitness>
12.0190

> <Gold.Chemscore.DG>
-14.4971

> <Gold.Chemscore.ZeroCoef>
-5.4800

> <Gold.Chemscore.Hbond>
1.3641

> <Gold.Chemscore.Metal>
0.0000

> <Gold.Chemscore.Lipo>
83.9161

> <Gold.Chemscore.Internal_Hbond>
0.0000

> <Gold.Chemscore.DEClash>
0.8034

> <Gold.Chemscore.DEInternal>
1.6747

> <Gold.Chemscore.Rot>
2.0927

> <Gold.Chemscore.Internal.Correction>
   9.000000E+99

> <Gold.Chemscore.Hbonds>
donor molecule, donor type, donor heavy atom, donor atom, acceptor molecule, acceptor atom, score
      L1  H    16    39       P1 10957  0.25
      P1  H  7989  7998       L1    28  0.10
      P1  H 10785 10796       L1    19  0.07

> <Gold.Chemscore.Hbond.Weighted>
-4.5562

> <Gold.Chemscore.Metal.Weighted>
-0.0000

> <Gold.Chemscore.Lipo.Weighted>
-9.8182

> <Gold.Chemscore.Internal_Hbond.Weighted>
0.0000

> <Gold.Chemscore.DEClash.Weighted>
0.8034

> <Gold.Chemscore.DEInternal.Weighted>
1.6747

> <Gold.Chemscore.Rot.Weighted>
5.3573

> <Gold.Chemscore.Internal.Correction.Weighted>
   9.000000E+99

> <Gold.Protein.RotatedTorsions>
[ 6907 6896 6895 6894 ] final  -67.43 input  -60.11 | X-H torsion
[ 7974 7965 7964 7962 ] final  113.61 input  175.53 | X-H torsion
[ 8008 7997 7996 7995 ] final -156.44 input   59.86 | X-H torsion
[ 10167 10162 10161 10158 ] final -170.49 input  -65.29 | X-H torsion
[ 10718 10713 10712 10709 ] final -175.92 input   66.30 | X-H torsion
[ 10763 10752 10751 10750 ] final -142.47 input  -60.55 | X-H torsion
[ 11005 11000 10999 10996 ] final  131.16 input  -57.11 | X-H torsion

> <Gold.Protein.ActiveResidues>
 VAL166  LYS551  ARG553  GLY616  TRP617  ASP618  TYR619  PRO620  LYS621  CYS622 
 ASP623  PHE694  ASN695  SER759  ASP760  ASP761  ALA762  ILE779  LEU786  VAL792 
 PHE793  MET794  SER795  GLU796  ALA797  LYS798  CYS799  TRP800  GLU811  SER814 

> <Gold.Protein.RotatedAtoms>
  150.7410  134.5882  159.5973 H   0  0  0  0  0  0  0  0  0  0  0  0  # atno 6907 bound_to 6896
  152.3277  134.7296  160.0306 H   0  0  0  0  0  0  0  0  0  0  0  0  # atno 6908 bound_to 6896
  151.7790  133.3312  159.3503 H   0  0  0  0  0  0  0  0  0  0  0  0  # atno 6909 bound_to 6896
  145.2147  139.2889  143.4249 H   0  0  0  0  0  0  0  0  0  0  0  0  # atno 7974 bound_to 7965
  155.7172  140.0785  157.2346 H   0  0  0  0  0  0  0  0  0  0  0  0  # atno 8008 bound_to 7997
  154.4050  140.1619  156.2416 H   0  0  0  0  0  0  0  0  0  0  0  0  # atno 8009 bound_to 7997
  155.9229  140.3396  155.6190 H   0  0  0  0  0  0  0  0  0  0  0  0  # atno 8010 bound_to 7997
  139.5859  144.1320  152.1574 H   0  0  0  0  0  0  0  0  0  0  0  0  # atno 10167 bound_to 10162
  156.8069  130.9572  151.3117 H   0  0  0  0  0  0  0  0  0  0  0  0  # atno 10718 bound_to 10713
  154.8507  135.3495  154.6033 H   0  0  0  0  0  0  0  0  0  0  0  0  # atno 10763 bound_to 10752
  153.6642  135.6988  153.5172 H   0  0  0  0  0  0  0  0  0  0  0  0  # atno 10764 bound_to 10752
  153.2794  135.4268  155.1021 H   0  0  0  0  0  0  0  0  0  0  0  0  # atno 10765 bound_to 10752
  139.9714  134.9576  156.9398 H   0  0  0  0  0  0  0  0  0  0  0  0  # atno 11005 bound_to 11000
  146.3389  140.2434  142.8596 LP  0  0  0  0  0  0  0  0  0  0  0  0  # atno 17320 bound_to 7965
  144.9822  140.8470  143.5390 LP  0  0  0  0  0  0  0  0  0  0  0  0  # atno 17321 bound_to 7965
  140.0884  144.5642  150.7072 LP  0  0  0  0  0  0  0  0  0  0  0  0  # atno 17342 bound_to 10162
  140.7130  143.2521  151.4521 LP  0  0  0  0  0  0  0  0  0  0  0  0  # atno 17343 bound_to 10162
  157.6525  130.8896  149.9662 LP  0  0  0  0  0  0  0  0  0  0  0  0  # atno 17370 bound_to 10713
  156.1067  130.3652  150.0121 LP  0  0  0  0  0  0  0  0  0  0  0  0  # atno 17371 bound_to 10713
  140.5286  134.0836  155.7310 LP  0  0  0  0  0  0  0  0  0  0  0  0  # atno 17394 bound_to 11000
  141.1393  133.9166  157.2362 LP  0  0  0  0  0  0  0  0  0  0  0  0  # atno 17395 bound_to 11000

$$$$
