#       Name:                AV-unprocessed.smi:1228
#       Creating user name   scv26
#       Creation time:       Fri Mar 27 04:21:54 2020


#       File generated by GOLD software.
#

@<TRIPOS>MOLECULE
AV-unprocessed.smi:1228
    47    49     1
SMALL
NO_CHARGES


@<TRIPOS>ATOM
      1 ****        -7.1056  -0.2856   0.9727 C.3            1 S1                 0.0000
      2 ****        -5.7901   0.3698   0.6724 C.2            1 S1                 0.0000
      3 ****        -4.5343  -0.2568   0.4242 C.2            1 S1                 0.0000
      4 ****        -3.7024   0.8090   0.2147 C.2            1 S1                 0.0000
      5 ****        -2.3736   0.8134  -0.0734 N.am           1 S1                 0.0000
      6 ****        -1.5306  -0.2301  -0.1634 C.2            1 S1                 0.0000
      7 ****        -1.8298  -1.4094   0.0248 O.2            1 S1                 0.0000
      8 ****        -0.2923   0.1730  -0.4848 N.am           1 S1                 0.0000
      9 ****         0.8565  -0.7099  -0.6660 C.3            1 S1                 0.0000
     10 ****         1.5014  -1.0575   0.6887 C.3            1 S1                 0.0000
     11 ****         2.7725  -1.9067   0.4987 C.3            1 S1                 0.0000
     12 ****         3.7527  -1.2535  -0.4065 N.4            1 S1                 1.0000
     13 ****         4.4708  -0.1215   0.2248 C.3            1 S1                 0.0000
     14 ****         5.8817   0.0592  -0.2844 C.3            1 S1                 0.0000
     15 ****         5.6415  -0.5470   1.0800 C.3            1 S1                 0.0000
     16 ****         3.1562  -0.9112  -1.7237 C.3            1 S1                 0.0000
     17 ****         1.8944  -0.0391  -1.5808 C.3            1 S1                 0.0000
     18 ****        -4.4309   1.9718   0.3314 N.pl3          1 S1                 0.0000
     19 ****        -3.9965   3.3482   0.1941 C.3            1 S1                 0.0000
     20 ****        -5.7217   1.6952   0.6168 N.2            1 S1                 0.0000
     21 ****        -7.0419  -1.3678   0.8568 H              1 S1                 0.0000
     22 ****        -7.8871   0.0736   0.3026 H              1 S1                 0.0000
     23 ****        -7.4210  -0.0795   1.9956 H              1 S1                 0.0000
     24 ****        -4.3063  -1.3119   0.4063 H              1 S1                 0.0000
     25 ****        -1.9742   1.7254  -0.2380 H              1 S1                 0.0000
     26 ****        -0.1347   1.1612  -0.6196 H              1 S1                 0.0000
     27 ****         0.5255  -1.6319  -1.1481 H              1 S1                 0.0000
     28 ****         1.7446  -0.1431   1.2315 H              1 S1                 0.0000
     29 ****         0.7924  -1.6017   1.3138 H              1 S1                 0.0000
     30 ****         3.2376  -2.1164   1.4626 H              1 S1                 0.0000
     31 ****         2.5028  -2.8736   0.0720 H              1 S1                 0.0000
     32 ****         3.8742   0.7438   0.5064 H              1 S1                 0.0000
     33 ****         6.2351  -0.6035  -1.0725 H              1 S1                 0.0000
     34 ****         6.2785   1.0719  -0.3170 H              1 S1                 0.0000
     35 ****         5.8787   0.0666   1.9467 H              1 S1                 0.0000
     36 ****         5.8367  -1.6115   1.1970 H              1 S1                 0.0000
     37 ****         3.8959  -0.4103  -2.3493 H              1 S1                 0.0000
     38 ****         2.8998  -1.8395  -2.2359 H              1 S1                 0.0000
     39 ****         1.4614   0.1393  -2.5658 H              1 S1                 0.0000
     40 ****         2.1651   0.9409  -1.1854 H              1 S1                 0.0000
     41 ****        -3.2254   3.5640   0.9340 H              1 S1                 0.0000
     42 ****        -4.8330   4.0321   0.3447 H              1 S1                 0.0000
     43 ****        -3.5875   3.5054  -0.8044 H              1 S1                 0.0000
     44 ****         4.4641  -1.9458  -0.5939 H              1 S1                 0.0000
     45 ****        -2.7686  -1.6545   0.2669 LP             1 S1                 0.0000
     46 ****        -1.1341  -2.1221  -0.0645 LP             1 S1                 0.0000
     47 ****        -6.4662   2.3481   0.7563 LP             1 S1                 0.0000
@<TRIPOS>BOND
    1    1    2 1     
    2    1   21 1     
    3    1   22 1     
    4    1   23 1     
    5    2   20 2     
    6    2    3 1     
    7    3    4 2     
    8    3   24 1     
    9    4    5 1     
   10    4   18 1     
   11    5    6 am    
   12    5   25 1     
   13    6    7 2     
   14    6    8 am    
   15    8    9 1     
   16    8   26 1     
   17    9   17 1     
   18    9   10 1     
   19    9   27 1     
   20   10   11 1     
   21   10   28 1     
   22   10   29 1     
   23   11   12 1     
   24   11   30 1     
   25   11   31 1     
   26   12   13 1     
   27   12   16 1     
   28   12   44 1     
   29   13   15 1     
   30   13   14 1     
   31   13   32 1     
   32   14   15 1     
   33   14   33 1     
   34   14   34 1     
   35   15   35 1     
   36   15   36 1     
   37   16   17 1     
   38   16   37 1     
   39   16   38 1     
   40   17   39 1     
   41   17   40 1     
   42   18   19 1     
   43   18   20 1     
   44   19   41 1     
   45   19   42 1     
   46   19   43 1     
   47    7   45 1     
   48    7   46 1     
   49   20   47 1     
@<TRIPOS>SUBSTRUCTURE
      1 S1             1
@<TRIPOS>SET
LONE_PAIRS      STATIC     ATOMS    <user>   **** ""
3 45 46 47
DONOR_HYDROGENS      STATIC     ATOMS    <user>   **** ""
3 25 26 44
ATOM$BLUE        STATIC     ATOMS    COLORGROUP SYSTEM
3 45 46 47
ATOM$RED        STATIC     ATOMS    COLORGROUP SYSTEM
3 25 26 44
