AV-unprocessed.smi:2358|AV-procd|sdf|9406|dock8
  -GOLD-   2272013 43D 1   1.00000     0.00000
 Structure written by MMmdl.
 46 48  0  0  0  0  0  0  0  0  2 V2000
  153.1041  143.0418  162.5553 C   0  0  0  0  0  0  0  0  0  0  0  0
  152.7558  142.6582  161.1317 C   0  0  0  0  0  0  0  0  0  0  0  0
  152.0754  143.5674  160.2976 C   0  0  0  0  0  0  0  0  0  0  0  0
  151.7488  143.2051  158.9764 C   0  0  0  0  0  0  0  0  0  0  0  0
  151.0176  144.1867  158.0840 C   0  0  0  0  0  0  0  0  0  0  0  0
  152.1070  141.9307  158.4920 C   0  0  0  0  0  0  0  0  0  0  0  0
  152.7873  141.0087  159.3133 C   0  0  0  0  0  0  0  0  0  0  0  0
  153.0940  139.7852  158.7570 O   0  0  0  0  0  0  0  0  0  0  0  0
  153.1673  138.6534  159.6142 C   0  0  0  0  0  0  0  0  0  0  0  0
  153.5639  137.4230  158.7801 C   0  0  1  0  0  0  0  0  0  0  0  0
  152.6113  136.4148  159.0556 O   0  0  0  0  0  0  0  0  0  0  0  0
  153.5278  137.7154  157.2629 C   0  0  0  0  0  0  0  0  0  0  0  0
  152.2161  137.4090  156.6789 N   0  0  0  0  0  0  0  0  0  0  0  0
  151.8973  136.0620  156.6826 N   0  0  0  0  0  0  0  0  0  0  0  0
  150.7691  135.6414  156.2109 C   0  0  0  0  0  0  0  0  0  0  0  0
  150.4409  134.2242  156.2223 N   0  0  0  0  0  0  0  0  0  0  0  0
  149.4703  133.5918  155.4849 C   0  0  0  0  0  0  0  0  0  0  0  0
  149.5301  132.2647  155.8240 C   0  0  0  0  0  0  0  0  0  0  0  0
  150.5315  132.1439  156.7508 N   0  3  0  0  0  0  0  0  0  0  0  0
  151.0886  133.3356  156.9951 C   0  0  0  0  0  0  0  0  0  0  0  0
  149.8160  136.5999  155.6612 C   0  0  0  0  0  0  0  0  0  0  0  0
  150.1354  137.9120  155.6677 C   0  0  0  0  0  0  0  0  0  0  0  0
  151.4035  138.3986  156.2066 C   0  0  0  0  0  0  0  0  0  0  0  0
  151.7091  139.5898  156.2374 O   0  0  0  0  0  0  0  0  0  0  0  0
  153.1091  141.3842  160.6420 C   0  0  0  0  0  0  0  0  0  0  0  0
  153.0178  144.1180  162.7078 H   0  0  0  0  0  0  0  0  0  0  0  0
  154.1272  142.7481  162.7911 H   0  0  0  0  0  0  0  0  0  0  0  0
  152.4331  142.5417  163.2539 H   0  0  0  0  0  0  0  0  0  0  0  0
  151.8019  144.5442  160.6697 H   0  0  0  0  0  0  0  0  0  0  0  0
  150.6588  143.7049  157.1739 H   0  0  0  0  0  0  0  0  0  0  0  0
  151.6809  145.0040  157.8000 H   0  0  0  0  0  0  0  0  0  0  0  0
  150.1575  144.6074  158.6059 H   0  0  0  0  0  0  0  0  0  0  0  0
  151.8584  141.6519  157.4782 H   0  0  0  0  0  0  0  0  0  0  0  0
  153.8693  138.8120  160.4352 H   0  0  0  0  0  0  0  0  0  0  0  0
  152.1782  138.4957  160.0469 H   0  0  0  0  0  0  0  0  0  0  0  0
  154.5597  137.0896  159.0763 H   0  0  0  0  0  0  0  0  0  0  0  0
  151.8691  136.5358  158.4829 H   0  0  0  0  0  0  0  0  0  0  0  0
  153.8439  138.7384  157.0484 H   0  0  0  0  0  0  0  0  0  0  0  0
  154.2642  137.0910  156.7538 H   0  0  0  0  0  0  0  0  0  0  0  0
  148.8254  134.1135  154.7921 H   0  0  0  0  0  0  0  0  0  0  0  0
  148.9501  131.4190  155.4838 H   0  0  0  0  0  0  0  0  0  0  0  0
  151.8960  133.5036  157.6831 H   0  0  0  0  0  0  0  0  0  0  0  0
  148.8664  136.3019  155.2487 H   0  0  0  0  0  0  0  0  0  0  0  0
  149.4340  138.6262  155.2618 H   0  0  0  0  0  0  0  0  0  0  0  0
  153.6276  140.7095  161.3062 H   0  0  0  0  0  0  0  0  0  0  0  0
  150.8126  131.2760  157.1900 H   0  0  0  0  0  0  0  0  0  0  0  0
  1  2  1  0  0  0  0
  1 26  1  0  0  0  0
  1 27  1  0  0  0  0
  1 28  1  0  0  0  0
  2 25  1  0  0  0  0
  2  3  2  0  0  0  0
  3  4  1  0  0  0  0
  3 29  1  0  0  0  0
  4  5  1  0  0  0  0
  4  6  2  0  0  0  0
  5 30  1  0  0  0  0
  5 31  1  0  0  0  0
  5 32  1  0  0  0  0
  6  7  1  0  0  0  0
  6 33  1  0  0  0  0
  7  8  1  0  0  0  0
  7 25  2  0  0  0  0
  8  9  1  0  0  0  0
  9 10  1  0  0  0  0
  9 34  1  0  0  0  0
  9 35  1  0  0  0  0
 10 11  1  0  0  0  0
 10 12  1  0  0  0  0
 10 36  1  0  0  0  0
 11 37  1  0  0  0  0
 12 13  1  0  0  0  0
 12 38  1  0  0  0  0
 12 39  1  0  0  0  0
 13 23  1  0  0  0  0
 13 14  1  0  0  0  0
 14 15  2  0  0  0  0
 15 16  1  0  0  0  0
 15 21  1  0  0  0  0
 16 20  1  0  0  0  0
 16 17  1  0  0  0  0
 17 18  2  0  0  0  0
 17 40  1  0  0  0  0
 18 19  1  0  0  0  0
 18 41  1  0  0  0  0
 19 20  2  0  0  0  0
 19 46  1  0  0  0  0
 20 42  1  0  0  0  0
 21 22  2  0  0  0  0
 21 43  1  0  0  0  0
 22 23  1  0  0  0  0
 22 44  1  0  0  0  0
 23 24  2  0  0  0  0
 25 45  1  0  0  0  0
M  CHG  1  19   1
M  END
> <s_m_source_file>
AV-unprocessed.smi

> <i_m_source_file_index>
2358

> <i_lp_mmshare_version>
43012

> <i_f3d_flags>
0

> <s_epik_input>
W0NIM11jMVtjSF1jKFtDSDNdKVtjSF1jKFtjSF0xKU9bQ0gyXVtDQEhdKFtPSF0pW0NIMl1uMm5jKFtjSF1bY0hdYzI9TyktbjNbY0hdW2NIXW5bY0hdMw==

> <s_epik_cmdline>
J2VwaWtfcHl0aG9uJywgJy1waCcsICc3LjAnLCAnLXRuJywgJzgnLCAnLW1hJywgJzIwMCcsICctbWV0YWxfYmluZGluZycsICctaW1hZScsICc8aW5maWxlLm1hZT4nLCAnLW9tYWUnLCAnPG91dGZpbGUubWFlPic=

> <r_lp_tautomer_probability>
1

> <r_epik_Ionization_Penalty>
1.66053

> <r_epik_Ionization_Penalty_Charging>
2.42216e-09

> <r_epik_Ionization_Penalty_Neutral>
1.66053

> <r_epik_State_Penalty>
1.76336

> <r_epik_Charging_Adjusted_Penalty>
1.76336

> <i_epik_Tot_Q>
1

> <i_epik_Tot_abs_Q>
1

> <r_epik_Metal_State_Penalty>
1.79856

> <b_epik_Metal_Only>
0

> <s_lp_Force_Field>
OPLS_2005

> <r_lp_Energy>
39.182

> <b_lp_Chiralities_Consistent>
1

> <s_lp_Variant>
AV-unprocessed.smi:2358-4

> <Gold.Version>
5.8.1

> <Gold.Id.Protein>
6NUR|6NUR_protein|mol2

> <Gold.PLP.Fitness>
58.7335

> <Gold.PLP.PLP>
-50.7438

> <Gold.PLP.part.hbond>
-3.7136

> <Gold.PLP.part.metal>
0.0000

> <Gold.PLP.part.buried>
-4.3003

> <Gold.PLP.part.nonpolar>
-41.6311

> <Gold.PLP.part.repulsive>
0.0468

> <Gold.PLP.ligand.clash>
0.0000

> <Gold.PLP.ligand.torsion>
1.6915

> <Gold.PLP.Chemscore.Hbond>
2.7520

> <Gold.PLP.Chemscore.CHOScore>
1.0000

> <Gold.PLP.Chemscore.Metal>
0.0000

> <Gold.Chemscore.Hbonds>
donor molecule, donor type, donor heavy atom, donor atom, acceptor molecule, acceptor atom, score
      P1  H  6896  6909       L1    11  0.61
      P1  H 10752 10765       L1    14  0.61

> <Gold.PLP.Chemscore.Internal.Correction>
0.1167

> <Gold.Rescore>
     Score         DG    S(hbond)    S(metal)    S(lipo)     H(rot)  DE(clash)    DE(int)     intcor
     14.26     -18.95       1.70        0.00     124.64       2.65       0.01       4.68       ----

> <Gold.Chemscore.Fitness>
14.2629

> <Gold.Chemscore.DG>
-18.9475

> <Gold.Chemscore.ZeroCoef>
-5.4800

> <Gold.Chemscore.Hbond>
1.6999

> <Gold.Chemscore.Metal>
0.0000

> <Gold.Chemscore.Lipo>
124.6443

> <Gold.Chemscore.Internal_Hbond>
0.0000

> <Gold.Chemscore.DEClash>
0.0075

> <Gold.Chemscore.DEInternal>
4.6771

> <Gold.Chemscore.Rot>
2.6537

> <Gold.Chemscore.Internal.Correction>
   9.000000E+99

> <Gold.Chemscore.Hbonds>
donor molecule, donor type, donor heavy atom, donor atom, acceptor molecule, acceptor atom, score
      P1  H  6896  6909       L1    11  0.08
      P1  H 10752 10765       L1    14  0.06

> <Gold.Chemscore.Hbond.Weighted>
-5.6776

> <Gold.Chemscore.Metal.Weighted>
-0.0000

> <Gold.Chemscore.Lipo.Weighted>
-14.5834

> <Gold.Chemscore.Internal_Hbond.Weighted>
0.0000

> <Gold.Chemscore.DEClash.Weighted>
0.0075

> <Gold.Chemscore.DEInternal.Weighted>
4.6771

> <Gold.Chemscore.Rot.Weighted>
6.7935

> <Gold.Chemscore.Internal.Correction.Weighted>
   9.000000E+99

> <Gold.Protein.RotatedTorsions>
[ 6907 6896 6895 6894 ] final  135.38 input  -60.11 | X-H torsion
[ 7974 7965 7964 7962 ] final -116.68 input  175.53 | X-H torsion
[ 8008 7997 7996 7995 ] final  -35.18 input   59.86 | X-H torsion
[ 10167 10162 10161 10158 ] final  130.38 input  -65.29 | X-H torsion
[ 10718 10713 10712 10709 ] final   73.77 input   66.30 | X-H torsion
[ 10763 10752 10751 10750 ] final -130.76 input  -60.55 | X-H torsion
[ 11005 11000 10999 10996 ] final  -16.02 input  -57.11 | X-H torsion

> <Gold.Protein.ActiveResidues>
 VAL166  LYS551  ARG553  GLY616  TRP617  ASP618  TYR619  PRO620  LYS621  CYS622 
 ASP623  PHE694  ASN695  SER759  ASP760  ASP761  ALA762  ILE779  LEU786  VAL792 
 PHE793  MET794  SER795  GLU796  ALA797  LYS798  CYS799  TRP800  GLU811  SER814 

> <Gold.Protein.RotatedAtoms>
  152.3011  133.5656  159.5618 H   0  0  0  0  0  0  0  0  0  0  0  0  # atno 6907 bound_to 6896
  150.7278  134.0291  159.3736 H   0  0  0  0  0  0  0  0  0  0  0  0  # atno 6908 bound_to 6896
  151.8190  135.0658  160.0473 H   0  0  0  0  0  0  0  0  0  0  0  0  # atno 6909 bound_to 6896
  145.0939  140.8508  143.3966 H   0  0  0  0  0  0  0  0  0  0  0  0  # atno 7974 bound_to 7965
  154.4102  140.1664  156.2170 H   0  0  0  0  0  0  0  0  0  0  0  0  # atno 8008 bound_to 7997
  155.9396  140.3409  155.6293 H   0  0  0  0  0  0  0  0  0  0  0  0  # atno 8009 bound_to 7997
  155.7006  140.0744  157.2402 H   0  0  0  0  0  0  0  0  0  0  0  0  # atno 8010 bound_to 7997
  139.5433  144.6750  151.4555 H   0  0  0  0  0  0  0  0  0  0  0  0  # atno 10167 bound_to 10162
  157.6562  130.9645  150.1116 H   0  0  0  0  0  0  0  0  0  0  0  0  # atno 10718 bound_to 10713
  154.8754  135.3852  154.4136 H   0  0  0  0  0  0  0  0  0  0  0  0  # atno 10763 bound_to 10752
  153.4847  135.7030  153.5923 H   0  0  0  0  0  0  0  0  0  0  0  0  # atno 10764 bound_to 10752
  153.4323  135.3876  155.2145 H   0  0  0  0  0  0  0  0  0  0  0  0  # atno 10765 bound_to 10752
  140.8026  133.8202  155.9484 H   0  0  0  0  0  0  0  0  0  0  0  0  # atno 11005 bound_to 11000
  145.1034  139.2807  143.5674 LP  0  0  0  0  0  0  0  0  0  0  0  0  # atno 17320 bound_to 7965
  146.3531  140.0607  142.8629 LP  0  0  0  0  0  0  0  0  0  0  0  0  # atno 17321 bound_to 7965
  140.6671  143.8374  150.6955 LP  0  0  0  0  0  0  0  0  0  0  0  0  # atno 17342 bound_to 10162
  140.1787  143.4133  152.1949 LP  0  0  0  0  0  0  0  0  0  0  0  0  # atno 17343 bound_to 10162
  156.2011  130.3660  149.8787 LP  0  0  0  0  0  0  0  0  0  0  0  0  # atno 17370 bound_to 10713
  156.6691  130.8813  151.3559 LP  0  0  0  0  0  0  0  0  0  0  0  0  # atno 17371 bound_to 10713
  140.9279  134.2059  157.4883 LP  0  0  0  0  0  0  0  0  0  0  0  0  # atno 17394 bound_to 11000
  139.8720  134.9820  156.5140 LP  0  0  0  0  0  0  0  0  0  0  0  0  # atno 17395 bound_to 11000

$$$$
