AV-unprocessed.smi:213|AV-procd|sdf|1635|dock7
  -GOLD-   2262019593D 1   1.00000     0.00000
 Structure written by MMmdl.
 59 62  0  0  0  0  0  0  0  0  2 V2000
  147.4022  135.5860  156.1962 C   0  0  0  0  0  0  0  0  0  0  0  0
  148.3824  135.3609  155.0336 C   0  0  2  0  0  0  0  0  0  0  0  0
  148.1348  133.9978  154.3432 C   0  0  0  0  0  0  0  0  0  0  0  0
  147.2350  134.0993  153.1663 N   0  3  0  0  0  0  0  0  0  0  0  0
  147.0345  132.8064  152.4730 C   0  0  0  0  0  0  0  0  0  0  0  0
  146.1743  133.0097  151.2140 C   0  0  0  0  0  0  0  0  0  0  0  0
  144.9331  133.6052  151.5724 O   0  0  0  0  0  0  0  0  0  0  0  0
  145.1071  134.8837  152.1712 C   0  0  0  0  0  0  0  0  0  0  0  0
  145.9297  134.7389  153.4619 C   0  0  0  0  0  0  0  0  0  0  0  0
  149.7780  135.5298  155.4660 N   0  0  0  0  0  0  0  0  0  0  0  0
  150.7037  134.4008  155.3768 C   0  0  0  0  0  0  0  0  0  0  0  0
  150.3111  136.7724  155.3258 C   0  0  0  0  0  0  0  0  0  0  0  0
  151.3485  136.9594  154.4654 N   0  0  0  0  0  0  0  0  0  0  0  0
  151.8624  138.1786  154.2799 C   0  0  0  0  0  0  0  0  0  0  0  0
  151.4931  139.3319  154.8386 N   0  0  0  0  0  0  0  0  0  0  0  0
  150.4603  139.1517  155.7099 C   0  0  0  0  0  0  0  0  0  0  0  0
  149.8165  137.9183  156.0115 C   0  0  0  0  0  0  0  0  0  0  0  0
  148.8122  138.1284  156.9495 N   0  0  0  0  0  0  0  0  0  0  0  0
  148.8572  139.4111  157.1860 C   0  0  0  0  0  0  0  0  0  0  0  0
  149.8189  140.1015  156.4849 N   0  0  0  0  0  0  0  0  0  0  0  0
  150.0906  141.5261  156.5622 C   0  0  0  0  0  0  0  0  0  0  0  0
  150.4117  141.9814  158.0017 C   0  0  1  0  0  0  0  0  0  0  0  0
  151.5866  141.3503  158.4712 O   0  0  0  0  0  0  0  0  0  0  0  0
  150.5685  143.5072  158.1694 C   0  0  2  0  0  0  0  0  0  0  0  0
  151.9339  144.0526  157.7464 C   0  0  0  0  0  0  0  0  0  0  0  0
  152.0733  145.3375  158.5490 C   0  0  0  0  0  0  0  0  0  0  0  0
  150.9711  145.2413  159.6077 C   0  0  0  0  0  0  0  0  0  0  0  0
  150.4991  143.9039  159.5310 O   0  0  0  0  0  0  0  0  0  0  0  0
  146.3716  135.5762  155.8405 H   0  0  0  0  0  0  0  0  0  0  0  0
  147.5739  136.5526  156.6709 H   0  0  0  0  0  0  0  0  0  0  0  0
  147.4881  134.8149  156.9615 H   0  0  0  0  0  0  0  0  0  0  0  0
  148.1433  136.1344  154.3070 H   0  0  0  0  0  0  0  0  0  0  0  0
  149.0953  133.5891  154.0258 H   0  0  0  0  0  0  0  0  0  0  0  0
  147.7221  133.2785  155.0523 H   0  0  0  0  0  0  0  0  0  0  0  0
  147.9992  132.3825  152.1916 H   0  0  0  0  0  0  0  0  0  0  0  0
  146.5545  132.0970  153.1489 H   0  0  0  0  0  0  0  0  0  0  0  0
  146.6932  133.6346  150.4850 H   0  0  0  0  0  0  0  0  0  0  0  0
  145.9808  132.0510  150.7323 H   0  0  0  0  0  0  0  0  0  0  0  0
  145.5956  135.5643  151.4720 H   0  0  0  0  0  0  0  0  0  0  0  0
  144.1278  135.3069  152.3949 H   0  0  0  0  0  0  0  0  0  0  0  0
  145.3821  134.1379  154.1895 H   0  0  0  0  0  0  0  0  0  0  0  0
  146.0755  135.7232  153.9056 H   0  0  0  0  0  0  0  0  0  0  0  0
  151.6163  134.6032  155.9389 H   0  0  0  0  0  0  0  0  0  0  0  0
  150.9772  134.2013  154.3404 H   0  0  0  0  0  0  0  0  0  0  0  0
  150.2640  133.4951  155.7919 H   0  0  0  0  0  0  0  0  0  0  0  0
  152.6834  138.2399  153.5805 H   0  0  0  0  0  0  0  0  0  0  0  0
  148.1892  139.8920  157.8860 H   0  0  0  0  0  0  0  0  0  0  0  0
  150.9166  141.7602  155.8896 H   0  0  0  0  0  0  0  0  0  0  0  0
  149.2189  142.0556  156.1777 H   0  0  0  0  0  0  0  0  0  0  0  0
  149.6103  141.6499  158.6634 H   0  0  0  0  0  0  0  0  0  0  0  0
  151.4511  141.0928  159.3702 H   0  0  0  0  0  0  0  0  0  0  0  0
  149.7950  144.0326  157.6048 H   0  0  0  0  0  0  0  0  0  0  0  0
  152.7305  143.3637  158.0280 H   0  0  0  0  0  0  0  0  0  0  0  0
  152.0022  144.2170  156.6705 H   0  0  0  0  0  0  0  0  0  0  0  0
  153.0620  145.4048  159.0037 H   0  0  0  0  0  0  0  0  0  0  0  0
  151.9308  146.2198  157.9242 H   0  0  0  0  0  0  0  0  0  0  0  0
  151.3307  145.4746  160.6101 H   0  0  0  0  0  0  0  0  0  0  0  0
  150.1536  145.9241  159.3723 H   0  0  0  0  0  0  0  0  0  0  0  0
  147.7090  134.6969  152.5033 H   0  0  0  0  0  0  0  0  0  0  0  0
  1  2  1  0  0  0  0
  1 29  1  0  0  0  0
  1 30  1  0  0  0  0
  1 31  1  0  0  0  0
  2  3  1  0  0  0  0
  2 10  1  0  0  0  0
  2 32  1  0  0  0  0
  3  4  1  0  0  0  0
  3 33  1  0  0  0  0
  3 34  1  0  0  0  0
  4  9  1  0  0  0  0
  4  5  1  0  0  0  0
  4 59  1  0  0  0  0
  5  6  1  0  0  0  0
  5 35  1  0  0  0  0
  5 36  1  0  0  0  0
  6  7  1  0  0  0  0
  6 37  1  0  0  0  0
  6 38  1  0  0  0  0
  7  8  1  0  0  0  0
  8  9  1  0  0  0  0
  8 39  1  0  0  0  0
  8 40  1  0  0  0  0
  9 41  1  0  0  0  0
  9 42  1  0  0  0  0
 10 11  1  0  0  0  0
 10 12  1  0  0  0  0
 11 43  1  0  0  0  0
 11 44  1  0  0  0  0
 11 45  1  0  0  0  0
 12 17  1  0  0  0  0
 12 13  2  0  0  0  0
 13 14  1  0  0  0  0
 14 15  2  0  0  0  0
 14 46  1  0  0  0  0
 15 16  1  0  0  0  0
 16 20  1  0  0  0  0
 16 17  2  0  0  0  0
 17 18  1  0  0  0  0
 18 19  2  0  0  0  0
 19 20  1  0  0  0  0
 19 47  1  0  0  0  0
 20 21  1  0  0  0  0
 21 22  1  0  0  0  0
 21 48  1  0  0  0  0
 21 49  1  0  0  0  0
 22 23  1  0  0  0  0
 22 24  1  0  0  0  0
 22 50  1  0  0  0  0
 23 51  1  0  0  0  0
 24 28  1  0  0  0  0
 24 25  1  0  0  0  0
 24 52  1  0  0  0  0
 25 26  1  0  0  0  0
 25 53  1  0  0  0  0
 25 54  1  0  0  0  0
 26 27  1  0  0  0  0
 26 55  1  0  0  0  0
 26 56  1  0  0  0  0
 27 28  1  0  0  0  0
 27 57  1  0  0  0  0
 27 58  1  0  0  0  0
M  CHG  1   4   1
M  END
> <s_m_source_file>
AV-unprocessed.smi

> <i_m_source_file_index>
213

> <i_lp_mmshare_version>
43012

> <i_f3d_flags>
0

> <s_epik_input>
W0NIMl0xW0NIMl1PW0NIMl1bQ0gyXU4xW0NIMl1bQ0BASF0oW0NIM10pTihbQ0gzXSljKG5bY0hdbjIpYyhjMjMpbltjSF1uM1tDSDJdW0NASF0oW09IXSlbQ0BASF00W0NIMl1bQ0gyXVtDSDJdTzQ=

> <s_epik_cmdline>
J2VwaWtfcHl0aG9uJywgJy1waCcsICc3LjAnLCAnLXRuJywgJzgnLCAnLW1hJywgJzIwMCcsICctbWV0YWxfYmluZGluZycsICctaW1hZScsICc8aW5maWxlLm1hZT4nLCAnLW9tYWUnLCAnPG91dGZpbGUubWFlPic=

> <r_lp_tautomer_probability>
1

> <r_epik_Ionization_Penalty>
0.399679

> <r_epik_Ionization_Penalty_Charging>
0.399433

> <r_epik_Ionization_Penalty_Neutral>
0.000246213

> <r_epik_State_Penalty>
0.286032

> <r_epik_Charging_Adjusted_Penalty>
0.685465

> <i_epik_Tot_Q>
1

> <i_epik_Tot_abs_Q>
1

> <r_epik_Metal_State_Penalty>
0.286072

> <b_epik_Metal_Only>
0

> <s_lp_Force_Field>
OPLS_2005

> <r_lp_Energy>
46.8913

> <b_lp_Chiralities_Consistent>
1

> <s_lp_Variant>
AV-unprocessed.smi:213-3

> <Gold.Version>
5.8.1

> <Gold.Id.Protein>
6NUR|6NUR_protein|mol2

> <Gold.PLP.Fitness>
52.7953

> <Gold.PLP.PLP>
-43.8659

> <Gold.PLP.part.hbond>
-3.0000

> <Gold.PLP.part.metal>
0.0000

> <Gold.PLP.part.buried>
-6.0791

> <Gold.PLP.part.nonpolar>
-34.4176

> <Gold.PLP.part.repulsive>
0.4406

> <Gold.PLP.ligand.clash>
0.0000

> <Gold.PLP.ligand.torsion>
2.0085

> <Gold.PLP.Chemscore.Hbond>
3.9100

> <Gold.PLP.Chemscore.CHOScore>
0.0000

> <Gold.PLP.Chemscore.Metal>
0.0000

> <Gold.Chemscore.Hbonds>
donor molecule, donor type, donor heavy atom, donor atom, acceptor molecule, acceptor atom, score
      L1  H     4    59       P1  7948  1.95
      P1  H  7989  7998       L1    15  0.99
      P1  H 10752 10763       L1    13  0.91

> <Gold.PLP.Chemscore.Internal.Correction>
1.2165

> <Gold.Rescore>
     Score         DG    S(hbond)    S(metal)    S(lipo)     H(rot)  DE(clash)    DE(int)     intcor
     13.63     -16.84       2.14        0.00      97.75       2.83       0.40       2.81       ----

> <Gold.Chemscore.Fitness>
13.6307

> <Gold.Chemscore.DG>
-16.8421

> <Gold.Chemscore.ZeroCoef>
-5.4800

> <Gold.Chemscore.Hbond>
2.1430

> <Gold.Chemscore.Metal>
0.0000

> <Gold.Chemscore.Lipo>
97.7548

> <Gold.Chemscore.Internal_Hbond>
0.0000

> <Gold.Chemscore.DEClash>
0.4042

> <Gold.Chemscore.DEInternal>
2.8072

> <Gold.Chemscore.Rot>
2.8254

> <Gold.Chemscore.Internal.Correction>
   9.000000E+99

> <Gold.Chemscore.Hbonds>
donor molecule, donor type, donor heavy atom, donor atom, acceptor molecule, acceptor atom, score
      L1  H     4    59       P1  7948  0.75
      P1  H  7989  7998       L1    15  0.68
      P1  H 10752 10763       L1    13  0.52

> <Gold.Chemscore.Hbond.Weighted>
-7.1578

> <Gold.Chemscore.Metal.Weighted>
-0.0000

> <Gold.Chemscore.Lipo.Weighted>
-11.4373

> <Gold.Chemscore.Internal_Hbond.Weighted>
0.0000

> <Gold.Chemscore.DEClash.Weighted>
0.4042

> <Gold.Chemscore.DEInternal.Weighted>
2.8072

> <Gold.Chemscore.Rot.Weighted>
7.2330

> <Gold.Chemscore.Internal.Correction.Weighted>
   9.000000E+99

> <Gold.Protein.RotatedTorsions>
[ 6907 6896 6895 6894 ] final  -14.58 input  -60.11 | X-H torsion
[ 7974 7965 7964 7962 ] final  116.50 input  175.53 | X-H torsion
[ 8008 7997 7996 7995 ] final -105.21 input   59.86 | X-H torsion
[ 10167 10162 10161 10158 ] final  -75.66 input  -65.29 | X-H torsion
[ 10718 10713 10712 10709 ] final  -58.68 input   66.30 | X-H torsion
[ 10763 10752 10751 10750 ] final   51.60 input  -60.55 | X-H torsion
[ 11005 11000 10999 10996 ] final  -41.98 input  -57.11 | X-H torsion

> <Gold.Protein.ActiveResidues>
 VAL166  LYS551  ARG553  GLY616  TRP617  ASP618  TYR619  PRO620  LYS621  CYS622 
 ASP623  PHE694  ASN695  SER759  ASP760  ASP761  ALA762  ILE779  LEU786  VAL792 
 PHE793  MET794  SER795  GLU796  ALA797  LYS798  CYS799  TRP800  GLU811  SER814 

> <Gold.Protein.RotatedAtoms>
  151.3372  135.0855  159.9358 H   0  0  0  0  0  0  0  0  0  0  0  0  # atno 6907 bound_to 6896
  152.5220  133.9483  159.7670 H   0  0  0  0  0  0  0  0  0  0  0  0  # atno 6908 bound_to 6896
  150.9833  133.6170  159.2749 H   0  0  0  0  0  0  0  0  0  0  0  0  # atno 6909 bound_to 6896
  145.1788  139.3061  143.4429 H   0  0  0  0  0  0  0  0  0  0  0  0  # atno 7974 bound_to 7965
  154.8965  140.0414  157.1869 H   0  0  0  0  0  0  0  0  0  0  0  0  # atno 8008 bound_to 7997
  154.8487  140.2926  155.5591 H   0  0  0  0  0  0  0  0  0  0  0  0  # atno 8009 bound_to 7997
  156.2995  140.2469  156.3442 H   0  0  0  0  0  0  0  0  0  0  0  0  # atno 8010 bound_to 7997
  140.4924  143.2377  151.7886 H   0  0  0  0  0  0  0  0  0  0  0  0  # atno 10167 bound_to 10162
  156.1117  130.4174  150.0610 H   0  0  0  0  0  0  0  0  0  0  0  0  # atno 10718 bound_to 10713
  152.9786  135.5840  154.4442 H   0  0  0  0  0  0  0  0  0  0  0  0  # atno 10763 bound_to 10752
  154.4040  135.2769  155.2081 H   0  0  0  0  0  0  0  0  0  0  0  0  # atno 10764 bound_to 10752
  154.3900  135.6127  153.5892 H   0  0  0  0  0  0  0  0  0  0  0  0  # atno 10765 bound_to 10752
  141.0284  133.6831  156.2532 H   0  0  0  0  0  0  0  0  0  0  0  0  # atno 11005 bound_to 11000
  146.3456  140.1960  142.8589 LP  0  0  0  0  0  0  0  0  0  0  0  0  # atno 17320 bound_to 7965
  145.0157  140.8752  143.5197 LP  0  0  0  0  0  0  0  0  0  0  0  0  # atno 17321 bound_to 7965
  139.4854  144.4632  151.9516 LP  0  0  0  0  0  0  0  0  0  0  0  0  # atno 17342 bound_to 10162
  140.3719  144.2845  150.5919 LP  0  0  0  0  0  0  0  0  0  0  0  0  # atno 17343 bound_to 10162
  156.8572  130.9479  151.3621 LP  0  0  0  0  0  0  0  0  0  0  0  0  # atno 17370 bound_to 10713
  157.6299  130.8721  149.9255 LP  0  0  0  0  0  0  0  0  0  0  0  0  # atno 17371 bound_to 10713
  140.6450  134.5126  157.5573 LP  0  0  0  0  0  0  0  0  0  0  0  0  # atno 17394 bound_to 11000
  139.9191  134.8185  156.1269 LP  0  0  0  0  0  0  0  0  0  0  0  0  # atno 17395 bound_to 11000

$$$$
