AV-unprocessed.smi:1864|AV-procd|sdf|7552|dock2
  -GOLD-   22720 9263D 1   1.00000     0.00000
 Structure written by MMmdl.
 34 35  0  0  0  0  0  0  0  0  1 V2000
  146.7669  135.9716  162.6318 C   0  0  0  0  0  0  0  0  0  0  0  0
  147.6396  136.1169  161.4327 C   0  0  0  0  0  0  0  0  0  0  0  0
  148.3200  135.0838  160.9517 N   0  0  0  0  0  0  0  0  0  0  0  0
  148.9911  135.6257  159.8459 O   0  0  0  0  0  0  0  0  0  0  0  0
  148.6434  136.9345  159.8073 C   0  0  0  0  0  0  0  0  0  0  0  0
  149.1631  137.7867  158.6982 C   0  0  0  0  0  0  0  0  0  0  0  0
  150.6461  138.1454  158.8825 C   0  0  0  0  0  0  0  0  0  0  0  0
  150.8389  139.5829  159.0346 N   0  0  0  0  0  0  0  0  0  0  0  0
  151.9918  140.2384  158.8075 C   0  0  0  0  0  0  0  0  0  0  0  0
  153.0234  139.6712  158.4463 O   0  0  0  0  0  0  0  0  0  0  0  0
  151.9579  141.7108  159.0177 C   0  0  0  0  0  0  0  0  0  0  0  0
  152.0256  142.1973  160.2175 N   0  0  0  0  0  0  0  0  0  0  0  0
  152.0089  143.5561  160.4589 N   0  0  0  0  0  0  0  0  0  0  0  0
  152.3642  143.9412  161.8233 C   0  0  0  0  0  0  0  0  0  0  0  0
  151.6633  144.4976  159.5455 C   0  0  0  0  0  0  0  0  0  0  0  0
  151.6635  145.7068  159.7755 O   0  0  0  0  0  0  0  0  0  0  0  0
  151.2234  143.9855  158.1709 C   0  0  0  0  0  0  0  0  0  0  0  0
  151.8727  142.6325  157.8173 C   0  0  0  0  0  0  0  0  0  0  0  0
  147.7886  137.2926  160.7624 N   0  0  0  0  0  0  0  0  0  0  0  0
  147.3559  135.6501  163.4910 H   0  0  0  0  0  0  0  0  0  0  0  0
  145.9895  135.2303  162.4455 H   0  0  0  0  0  0  0  0  0  0  0  0
  146.2874  136.9196  162.8778 H   0  0  0  0  0  0  0  0  0  0  0  0
  149.0188  137.2573  157.7556 H   0  0  0  0  0  0  0  0  0  0  0  0
  148.5556  138.6909  158.6452 H   0  0  0  0  0  0  0  0  0  0  0  0
  151.0634  137.6187  159.7426 H   0  0  0  0  0  0  0  0  0  0  0  0
  151.2167  137.8194  158.0123 H   0  0  0  0  0  0  0  0  0  0  0  0
  150.0380  140.1238  159.3285 H   0  0  0  0  0  0  0  0  0  0  0  0
  153.2279  144.6081  161.8222 H   0  0  0  0  0  0  0  0  0  0  0  0
  152.6169  143.0771  162.4403 H   0  0  0  0  0  0  0  0  0  0  0  0
  151.5332  144.4580  162.3059 H   0  0  0  0  0  0  0  0  0  0  0  0
  150.1384  143.8771  158.1944 H   0  0  0  0  0  0  0  0  0  0  0  0
  151.4490  144.7269  157.4036 H   0  0  0  0  0  0  0  0  0  0  0  0
  152.8743  142.7939  157.4171 H   0  0  0  0  0  0  0  0  0  0  0  0
  151.2927  142.1706  157.0172 H   0  0  0  0  0  0  0  0  0  0  0  0
  1  2  1  0  0  0  0
  1 20  1  0  0  0  0
  1 21  1  0  0  0  0
  1 22  1  0  0  0  0
  2 19  1  0  0  0  0
  2  3  2  0  0  0  0
  3  4  1  0  0  0  0
  4  5  1  0  0  0  0
  5  6  1  0  0  0  0
  5 19  2  0  0  0  0
  6  7  1  0  0  0  0
  6 23  1  0  0  0  0
  6 24  1  0  0  0  0
  7  8  1  0  0  0  0
  7 25  1  0  0  0  0
  7 26  1  0  0  0  0
  8  9  1  0  0  0  0
  8 27  1  0  0  0  0
  9 10  2  0  0  0  0
  9 11  1  0  0  0  0
 11 18  1  0  0  0  0
 11 12  2  0  0  0  0
 12 13  1  0  0  0  0
 13 14  1  0  0  0  0
 13 15  1  0  0  0  0
 14 28  1  0  0  0  0
 14 29  1  0  0  0  0
 14 30  1  0  0  0  0
 15 16  2  0  0  0  0
 15 17  1  0  0  0  0
 17 18  1  0  0  0  0
 17 31  1  0  0  0  0
 17 32  1  0  0  0  0
 18 33  1  0  0  0  0
 18 34  1  0  0  0  0
M  END
> <s_m_source_file>
AV-unprocessed.smi

> <i_m_source_file_index>
1864

> <i_lp_mmshare_version>
43012

> <i_f3d_flags>
0

> <s_epik_input>
W0NIM11jMW5vYyhuMSlbQ0gyXVtDSDJdW05IXUMoPU8pQzI9Tk4oW0NIM10pQyg9TylbQ0gyXVtDSDJdMg==

> <s_epik_cmdline>
J2VwaWtfcHl0aG9uJywgJy1waCcsICc3LjAnLCAnLXRuJywgJzgnLCAnLW1hJywgJzIwMCcsICctbWV0YWxfYmluZGluZycsICctaW1hZScsICc8aW5maWxlLm1hZT4nLCAnLW9tYWUnLCAnPG91dGZpbGUubWFlPic=

> <r_lp_tautomer_probability>
1

> <r_epik_Ionization_Penalty>
0.00011851

> <r_epik_Ionization_Penalty_Charging>
0

> <r_epik_Ionization_Penalty_Neutral>
0.00011851

> <r_epik_State_Penalty>
-0

> <r_epik_Charging_Adjusted_Penalty>
0

> <i_epik_Tot_Q>
0

> <i_epik_Tot_abs_Q>
0

> <r_epik_Metal_State_Penalty>
0.091363

> <b_epik_Metal_Only>
0

> <s_epik_Chemistry_Notes>
This compound has an imine and may undergo hydrolysis.

> <s_lp_Force_Field>
OPLS_2005

> <r_lp_Energy>
12.468

> <b_lp_Chiralities_Consistent>
1

> <s_lp_Variant>
AV-unprocessed.smi:1864-1

> <Gold.Version>
5.8.1

> <Gold.Id.Protein>
6NUR|6NUR_protein|mol2

> <Gold.PLP.Fitness>
42.1470

> <Gold.PLP.PLP>
-35.5062

> <Gold.PLP.part.hbond>
-4.2832

> <Gold.PLP.part.metal>
0.0000

> <Gold.PLP.part.buried>
-5.3761

> <Gold.PLP.part.nonpolar>
-25.8105

> <Gold.PLP.part.repulsive>
0.3812

> <Gold.PLP.ligand.clash>
0.0000

> <Gold.PLP.ligand.torsion>
2.1107

> <Gold.PLP.Chemscore.Hbond>
3.6161

> <Gold.PLP.Chemscore.CHOScore>
0.0000

> <Gold.PLP.Chemscore.Metal>
0.0000

> <Gold.Chemscore.Hbonds>
donor molecule, donor type, donor heavy atom, donor atom, acceptor molecule, acceptor atom, score
      P1  H  6896  6908       L1     4  1.00
      P1  H  6931  6943       L1    19  0.71
      P1  H  6934  6947       L1    19  0.85
      P1  H  7997  8008       L1    10  0.65

> <Gold.PLP.Chemscore.Internal.Correction>
0.0138

> <Gold.Rescore>
     Score         DG    S(hbond)    S(metal)    S(lipo)     H(rot)  DE(clash)    DE(int)     intcor
     13.53     -15.68       2.43        0.00      57.18       1.80       0.21       1.94       ----

> <Gold.Chemscore.Fitness>
13.5279

> <Gold.Chemscore.DG>
-15.6823

> <Gold.Chemscore.ZeroCoef>
-5.4800

> <Gold.Chemscore.Hbond>
2.4337

> <Gold.Chemscore.Metal>
0.0000

> <Gold.Chemscore.Lipo>
57.1844

> <Gold.Chemscore.Internal_Hbond>
0.0000

> <Gold.Chemscore.DEClash>
0.2136

> <Gold.Chemscore.DEInternal>
1.9408

> <Gold.Chemscore.Rot>
1.8034

> <Gold.Chemscore.Internal.Correction>
   9.000000E+99

> <Gold.Chemscore.Hbonds>
donor molecule, donor type, donor heavy atom, donor atom, acceptor molecule, acceptor atom, score
      P1  H  6896  6908       L1     4  0.65
      P1  H  6931  6943       L1    19  0.05
      P1  H  6934  6947       L1    19  0.82
      P1  H  7997  8008       L1    10  0.64

> <Gold.Chemscore.Hbond.Weighted>
-8.1285

> <Gold.Chemscore.Metal.Weighted>
-0.0000

> <Gold.Chemscore.Lipo.Weighted>
-6.6906

> <Gold.Chemscore.Internal_Hbond.Weighted>
0.0000

> <Gold.Chemscore.DEClash.Weighted>
0.2136

> <Gold.Chemscore.DEInternal.Weighted>
1.9408

> <Gold.Chemscore.Rot.Weighted>
4.6167

> <Gold.Chemscore.Internal.Correction.Weighted>
   9.000000E+99

> <Gold.Protein.RotatedTorsions>
[ 6907 6896 6895 6894 ] final -171.02 input  -60.11 | X-H torsion
[ 7974 7965 7964 7962 ] final  -28.81 input  175.53 | X-H torsion
[ 8008 7997 7996 7995 ] final  -74.99 input   59.86 | X-H torsion
[ 10167 10162 10161 10158 ] final  -27.25 input  -65.29 | X-H torsion
[ 10718 10713 10712 10709 ] final  -66.01 input   66.30 | X-H torsion
[ 10763 10752 10751 10750 ] final    8.92 input  -60.55 | X-H torsion
[ 11005 11000 10999 10996 ] final -131.79 input  -57.11 | X-H torsion

> <Gold.Protein.ActiveResidues>
 VAL166  LYS551  ARG553  GLY616  TRP617  ASP618  TYR619  PRO620  LYS621  CYS622 
 ASP623  PHE694  ASN695  SER759  ASP760  ASP761  ALA762  ILE779  LEU786  VAL792 
 PHE793  MET794  SER795  GLU796  ALA797  LYS798  CYS799  TRP800  GLU811  SER814 

> <Gold.Protein.RotatedAtoms>
  151.5170  133.3474  159.2894 H   0  0  0  0  0  0  0  0  0  0  0  0  # atno 6907 bound_to 6896
  150.8676  134.8045  159.7141 H   0  0  0  0  0  0  0  0  0  0  0  0  # atno 6908 bound_to 6896
  152.4675  134.5049  159.9788 H   0  0  0  0  0  0  0  0  0  0  0  0  # atno 6909 bound_to 6896
  146.1261  140.5332  142.8714 H   0  0  0  0  0  0  0  0  0  0  0  0  # atno 7974 bound_to 7965
  154.5378  140.0752  156.8457 H   0  0  0  0  0  0  0  0  0  0  0  0  # atno 8008 bound_to 7997
  155.3243  140.3398  155.4222 H   0  0  0  0  0  0  0  0  0  0  0  0  # atno 8009 bound_to 7997
  156.1845  140.1664  156.8198 H   0  0  0  0  0  0  0  0  0  0  0  0  # atno 8010 bound_to 7997
  140.7278  143.4109  151.1107 H   0  0  0  0  0  0  0  0  0  0  0  0  # atno 10167 bound_to 10162
  156.0636  130.4255  150.1647 H   0  0  0  0  0  0  0  0  0  0  0  0  # atno 10718 bound_to 10713
  153.2196  135.6879  153.8015 H   0  0  0  0  0  0  0  0  0  0  0  0  # atno 10763 bound_to 10752
  153.7219  135.3266  155.3269 H   0  0  0  0  0  0  0  0  0  0  0  0  # atno 10764 bound_to 10752
  154.8263  135.4615  154.1038 H   0  0  0  0  0  0  0  0  0  0  0  0  # atno 10765 bound_to 10752
  140.9228  134.1422  157.4300 H   0  0  0  0  0  0  0  0  0  0  0  0  # atno 11005 bound_to 11000
  144.7644  140.5496  143.6713 LP  0  0  0  0  0  0  0  0  0  0  0  0  # atno 17320 bound_to 7965
  145.5362  139.1475  143.3472 LP  0  0  0  0  0  0  0  0  0  0  0  0  # atno 17321 bound_to 7965
  139.7742  143.8449  152.3126 LP  0  0  0  0  0  0  0  0  0  0  0  0  # atno 17342 bound_to 10162
  139.8378  144.7224  150.9369 LP  0  0  0  0  0  0  0  0  0  0  0  0  # atno 17343 bound_to 10162
  156.9711  130.9835  151.3458 LP  0  0  0  0  0  0  0  0  0  0  0  0  # atno 17370 bound_to 10713
  157.5663  130.8280  149.8332 LP  0  0  0  0  0  0  0  0  0  0  0  0  # atno 17371 bound_to 10713
  139.8779  134.9977  156.5863 LP  0  0  0  0  0  0  0  0  0  0  0  0  # atno 17394 bound_to 11000
  140.7965  133.8539  155.8690 LP  0  0  0  0  0  0  0  0  0  0  0  0  # atno 17395 bound_to 11000

$$$$
