AV-unprocessed.smi:2825|AV-procd|sdf|10890|dock5
  -GOLD-   2272015333D 1   1.00000     0.00000
 Structure written by MMmdl.
 49 50  0  0  0  0  0  0  0  0  2 V2000
  150.6579  142.2481  158.0422 C   0  0  0  0  0  0  0  0  0  0  0  0
  150.7817  141.2704  156.8693 C   0  0  0  0  0  0  0  0  0  0  0  0
  149.5363  141.2698  155.9704 C   0  0  0  0  0  0  0  0  0  0  0  0
  149.1727  139.5875  155.2986 S   0  0  0  0  0  0  0  0  0  0  0  0
  150.3133  139.1732  154.4673 O   0  0  0  0  0  0  0  0  0  0  0  0
  148.7061  138.7183  156.3904 O   0  0  0  0  0  0  0  0  0  0  0  0
  147.8305  139.8617  154.2282 N   0  0  0  0  0  0  0  0  0  0  0  0
  147.5565  141.2295  153.7654 C   0  0  0  0  0  0  0  0  0  0  0  0
  146.7144  138.8914  154.1768 C   0  0  0  0  0  0  0  0  0  0  0  0
  146.5758  138.1312  152.8354 C   0  0  2  0  0  0  0  0  0  0  0  0
  146.1007  139.0080  151.8348 O   0  0  0  0  0  0  0  0  0  0  0  0
  145.5704  136.9688  152.9594 C   0  0  0  0  0  0  0  0  0  0  0  0
  145.6915  135.9916  151.8690 N   0  0  0  0  0  0  0  0  0  0  0  0
  145.6577  136.1717  150.5206 C   0  0  0  0  0  0  0  0  0  0  0  0
  145.8179  134.9501  149.9399 N   0  3  0  0  0  0  0  0  0  0  0  0
  145.9554  133.9766  150.9319 C   0  0  0  0  0  0  0  0  0  0  0  0
  146.1392  132.6019  150.8414 C   0  0  0  0  0  0  0  0  0  0  0  0
  146.2446  131.8840  152.0543 C   0  0  0  0  0  0  0  0  0  0  0  0
  146.4450  130.3793  151.9912 C   0  0  0  0  0  0  0  0  0  0  0  0
  146.1644  132.5486  153.3058 C   0  0  0  0  0  0  0  0  0  0  0  0
  146.2781  131.7673  154.6039 C   0  0  0  0  0  0  0  0  0  0  0  0
  145.9787  133.9478  153.3765 C   0  0  0  0  0  0  0  0  0  0  0  0
  145.8757  134.6389  152.1721 C   0  0  0  0  0  0  0  0  0  0  0  0
  151.5539  142.2248  158.6632 H   0  0  0  0  0  0  0  0  0  0  0  0
  149.8067  141.9973  158.6758 H   0  0  0  0  0  0  0  0  0  0  0  0
  150.5244  143.2710  157.6888 H   0  0  0  0  0  0  0  0  0  0  0  0
  151.6600  141.5292  156.2769 H   0  0  0  0  0  0  0  0  0  0  0  0
  150.9593  140.2675  157.2569 H   0  0  0  0  0  0  0  0  0  0  0  0
  148.6540  141.6369  156.4932 H   0  0  0  0  0  0  0  0  0  0  0  0
  149.7010  141.9332  155.1212 H   0  0  0  0  0  0  0  0  0  0  0  0
  147.1091  141.8200  154.5650 H   0  0  0  0  0  0  0  0  0  0  0  0
  146.8830  141.2195  152.9080 H   0  0  0  0  0  0  0  0  0  0  0  0
  148.4783  141.7188  153.4520 H   0  0  0  0  0  0  0  0  0  0  0  0
  146.8953  138.1660  154.9707 H   0  0  0  0  0  0  0  0  0  0  0  0
  145.7746  139.3794  154.4355 H   0  0  0  0  0  0  0  0  0  0  0  0
  147.5293  137.7184  152.5094 H   0  0  0  0  0  0  0  0  0  0  0  0
  145.3890  138.5854  151.3787 H   0  0  0  0  0  0  0  0  0  0  0  0
  145.6963  136.4410  153.9056 H   0  0  0  0  0  0  0  0  0  0  0  0
  144.5467  137.3465  152.9519 H   0  0  0  0  0  0  0  0  0  0  0  0
  145.5308  137.1127  150.0049 H   0  0  0  0  0  0  0  0  0  0  0  0
  146.1993  132.1024  149.8853 H   0  0  0  0  0  0  0  0  0  0  0  0
  145.5918  129.8628  152.4313 H   0  0  0  0  0  0  0  0  0  0  0  0
  147.3443  130.0874  152.5334 H   0  0  0  0  0  0  0  0  0  0  0  0
  146.5510  130.0334  150.9624 H   0  0  0  0  0  0  0  0  0  0  0  0
  146.1425  132.4140  155.4713 H   0  0  0  0  0  0  0  0  0  0  0  0
  147.2609  131.3023  154.6845 H   0  0  0  0  0  0  0  0  0  0  0  0
  145.5190  130.9861  154.6506 H   0  0  0  0  0  0  0  0  0  0  0  0
  145.9203  134.4546  154.3285 H   0  0  0  0  0  0  0  0  0  0  0  0
  145.8328  134.7952  148.9398 H   0  0  0  0  0  0  0  0  0  0  0  0
  1  2  1  0  0  0  0
  1 24  1  0  0  0  0
  1 25  1  0  0  0  0
  1 26  1  0  0  0  0
  2  3  1  0  0  0  0
  2 27  1  0  0  0  0
  2 28  1  0  0  0  0
  3  4  1  0  0  0  0
  3 29  1  0  0  0  0
  3 30  1  0  0  0  0
  4  5  2  0  0  0  0
  4  6  2  0  0  0  0
  4  7  1  0  0  0  0
  7  8  1  0  0  0  0
  7  9  1  0  0  0  0
  8 31  1  0  0  0  0
  8 32  1  0  0  0  0
  8 33  1  0  0  0  0
  9 10  1  0  0  0  0
  9 34  1  0  0  0  0
  9 35  1  0  0  0  0
 10 11  1  0  0  0  0
 10 12  1  0  0  0  0
 10 36  1  0  0  0  0
 11 37  1  0  0  0  0
 12 13  1  0  0  0  0
 12 38  1  0  0  0  0
 12 39  1  0  0  0  0
 13 23  1  0  0  0  0
 13 14  1  0  0  0  0
 14 15  2  0  0  0  0
 14 40  1  0  0  0  0
 15 16  1  0  0  0  0
 15 49  1  0  0  0  0
 16 23  2  0  0  0  0
 16 17  1  0  0  0  0
 17 18  2  0  0  0  0
 17 41  1  0  0  0  0
 18 19  1  0  0  0  0
 18 20  1  0  0  0  0
 19 42  1  0  0  0  0
 19 43  1  0  0  0  0
 19 44  1  0  0  0  0
 20 21  1  0  0  0  0
 20 22  2  0  0  0  0
 21 45  1  0  0  0  0
 21 46  1  0  0  0  0
 21 47  1  0  0  0  0
 22 23  1  0  0  0  0
 22 48  1  0  0  0  0
M  CHG  1  15   1
M  END
> <s_m_source_file>
AV-unprocessed.smi

> <i_m_source_file_index>
2825

> <i_lp_mmshare_version>
43012

> <i_f3d_flags>
0

> <s_epik_input>
W0NIM11bQ0gyXVtDSDJdUyg9TykoPU8pTihbQ0gzXSlbQ0gyXVtDQEhdKFtPSF0pW0NIMl1uKFtjSF1uMSljKGMxMilbY0hdYyhbQ0gzXSljKFtjSF0yKVtDSDNd

> <s_epik_cmdline>
J2VwaWtfcHl0aG9uJywgJy1waCcsICc3LjAnLCAnLXRuJywgJzgnLCAnLW1hJywgJzIwMCcsICctbWV0YWxfYmluZGluZycsICctaW1hZScsICc8aW5maWxlLm1hZT4nLCAnLW9tYWUnLCAnPG91dGZpbGUubWFlPic=

> <r_epik_Ionization_Penalty>
1.0773

> <r_epik_Ionization_Penalty_Charging>
1.0773

> <r_epik_Ionization_Penalty_Neutral>
1.44651e-06

> <r_epik_State_Penalty>
1.13242

> <r_epik_Charging_Adjusted_Penalty>
2.20972

> <i_epik_Tot_Q>
1

> <i_epik_Tot_abs_Q>
1

> <r_epik_Metal_State_Penalty>
5.13045

> <b_epik_Metal_Only>
0

> <s_lp_Force_Field>
OPLS_2005

> <r_lp_Energy>
13.8299

> <b_lp_Chiralities_Consistent>
1

> <s_lp_Variant>
AV-unprocessed.smi:2825-3

> <Gold.Version>
5.8.1

> <Gold.Id.Protein>
6NUR|6NUR_protein|mol2

> <Gold.PLP.Fitness>
47.9741

> <Gold.PLP.PLP>
-37.4290

> <Gold.PLP.part.hbond>
-3.8133

> <Gold.PLP.part.metal>
0.0000

> <Gold.PLP.part.buried>
-3.7944

> <Gold.PLP.part.nonpolar>
-31.1709

> <Gold.PLP.part.repulsive>
0.7537

> <Gold.PLP.ligand.clash>
0.0000

> <Gold.PLP.ligand.torsion>
1.8994

> <Gold.PLP.Chemscore.Hbond>
2.9600

> <Gold.PLP.Chemscore.CHOScore>
1.0000

> <Gold.PLP.Chemscore.Metal>
0.0000

> <Gold.Chemscore.Hbonds>
donor molecule, donor type, donor heavy atom, donor atom, acceptor molecule, acceptor atom, score
      L1  H    11    37       P1 10171  0.64
      L1  H    15    49       P1  7921  0.52
      P1  H  7989  7998       L1     5  0.19
      L1  C    14    40       P1 10171  1.00

> <Gold.PLP.Chemscore.Internal.Correction>
2.4640

> <Gold.Rescore>
     Score         DG    S(hbond)    S(metal)    S(lipo)     H(rot)  DE(clash)    DE(int)     intcor
     14.04     -16.91       2.60        0.00      78.55       2.51       0.95       1.92       ----

> <Gold.Chemscore.Fitness>
14.0410

> <Gold.Chemscore.DG>
-16.9128

> <Gold.Chemscore.ZeroCoef>
-5.4800

> <Gold.Chemscore.Hbond>
2.5958

> <Gold.Chemscore.Metal>
0.0000

> <Gold.Chemscore.Lipo>
78.5466

> <Gold.Chemscore.Internal_Hbond>
0.0000

> <Gold.Chemscore.DEClash>
0.9476

> <Gold.Chemscore.DEInternal>
1.9242

> <Gold.Chemscore.Rot>
2.5106

> <Gold.Chemscore.Internal.Correction>
   9.000000E+99

> <Gold.Chemscore.Hbonds>
donor molecule, donor type, donor heavy atom, donor atom, acceptor molecule, acceptor atom, score
      L1  H    11    37       P1 10171  0.61
      L1  H    15    49       P1  7921  0.49
      P1  H  7989  7998       L1     5  0.20

> <Gold.Chemscore.Hbond.Weighted>
-8.6699

> <Gold.Chemscore.Metal.Weighted>
-0.0000

> <Gold.Chemscore.Lipo.Weighted>
-9.1900

> <Gold.Chemscore.Internal_Hbond.Weighted>
0.0000

> <Gold.Chemscore.DEClash.Weighted>
0.9476

> <Gold.Chemscore.DEInternal.Weighted>
1.9242

> <Gold.Chemscore.Rot.Weighted>
6.4271

> <Gold.Chemscore.Internal.Correction.Weighted>
   9.000000E+99

> <Gold.Protein.RotatedTorsions>
[ 6907 6896 6895 6894 ] final -174.95 input  -60.11 | X-H torsion
[ 7974 7965 7964 7962 ] final -123.51 input  175.53 | X-H torsion
[ 8008 7997 7996 7995 ] final  174.96 input   59.86 | X-H torsion
[ 10167 10162 10161 10158 ] final  157.15 input  -65.29 | X-H torsion
[ 10718 10713 10712 10709 ] final   53.16 input   66.30 | X-H torsion
[ 10763 10752 10751 10750 ] final  135.46 input  -60.55 | X-H torsion
[ 11005 11000 10999 10996 ] final  -51.50 input  -57.11 | X-H torsion

> <Gold.Protein.ActiveResidues>
 VAL166  LYS551  ARG553  GLY616  TRP617  ASP618  TYR619  PRO620  LYS621  CYS622 
 ASP623  PHE694  ASN695  SER759  ASP760  ASP761  ALA762  ILE779  LEU786  VAL792 
 PHE793  MET794  SER795  GLU796  ALA797  LYS798  CYS799  TRP800  GLU811  SER814 

> <Gold.Protein.RotatedAtoms>
  151.5806  133.3378  159.3007 H   0  0  0  0  0  0  0  0  0  0  0  0  # atno 6907 bound_to 6896
  150.8315  134.7574  159.6869 H   0  0  0  0  0  0  0  0  0  0  0  0  # atno 6908 bound_to 6896
  152.4398  134.5620  159.9948 H   0  0  0  0  0  0  0  0  0  0  0  0  # atno 6909 bound_to 6896
  145.0180  140.7963  143.4398 H   0  0  0  0  0  0  0  0  0  0  0  0  # atno 7974 bound_to 7965
  156.0920  140.1421  156.9579 H   0  0  0  0  0  0  0  0  0  0  0  0  # atno 8008 bound_to 7997
  154.4648  140.0930  156.7037 H   0  0  0  0  0  0  0  0  0  0  0  0  # atno 8009 bound_to 7997
  155.4903  140.3448  155.4356 H   0  0  0  0  0  0  0  0  0  0  0  0  # atno 8010 bound_to 7997
  139.4822  144.4944  151.8261 H   0  0  0  0  0  0  0  0  0  0  0  0  # atno 10167 bound_to 10162
  157.5142  130.8521  149.8474 H   0  0  0  0  0  0  0  0  0  0  0  0  # atno 10718 bound_to 10713
  153.8405  135.3092  155.3425 H   0  0  0  0  0  0  0  0  0  0  0  0  # atno 10763 bound_to 10752
  154.7935  135.4769  154.0109 H   0  0  0  0  0  0  0  0  0  0  0  0  # atno 10764 bound_to 10752
  153.1579  135.6855  153.8878 H   0  0  0  0  0  0  0  0  0  0  0  0  # atno 10765 bound_to 10752
  141.0874  133.6639  156.3886 H   0  0  0  0  0  0  0  0  0  0  0  0  # atno 11005 bound_to 11000
  145.1934  139.2289  143.5231 LP  0  0  0  0  0  0  0  0  0  0  0  0  # atno 17320 bound_to 7965
  146.3481  140.1735  142.8589 LP  0  0  0  0  0  0  0  0  0  0  0  0  # atno 17321 bound_to 7965
  140.4431  144.1959  150.5892 LP  0  0  0  0  0  0  0  0  0  0  0  0  # atno 17342 bound_to 10162
  140.4662  143.2430  151.9152 LP  0  0  0  0  0  0  0  0  0  0  0  0  # atno 17343 bound_to 10162
  156.0309  130.3765  150.1691 LP  0  0  0  0  0  0  0  0  0  0  0  0  # atno 17370 bound_to 10713
  156.9880  130.9884  151.3421 LP  0  0  0  0  0  0  0  0  0  0  0  0  # atno 17371 bound_to 10713
  140.5331  134.6193  157.5356 LP  0  0  0  0  0  0  0  0  0  0  0  0  # atno 17394 bound_to 11000
  139.9694  134.7317  156.0071 LP  0  0  0  0  0  0  0  0  0  0  0  0  # atno 17395 bound_to 11000

$$$$
