AV-unprocessed.smi:2047|AV-procd|sdf|8318|dock3
  -GOLD-   2272010583D 1   1.00000     0.00000
 Structure written by MMmdl.
 43 45  0  0  0  0  0  0  0  0  2 V2000
  150.1895  136.8448  159.4180 O   0  0  0  0  0  0  0  0  0  0  0  0
  149.3470  136.3907  158.6446 C   0  0  0  0  0  0  0  0  0  0  0  0
  148.2164  135.7630  159.0099 N   0  0  0  0  0  0  0  0  0  0  0  0
  147.7267  135.5049  160.3232 C   0  0  0  0  0  0  0  0  0  0  0  0
  148.0779  136.2969  161.4470 C   0  0  0  0  0  0  0  0  0  0  0  0
  147.5370  135.9942  162.7122 C   0  0  0  0  0  0  0  0  0  0  0  0
  146.6455  134.9129  162.8355 C   0  0  0  0  0  0  0  0  0  0  0  0
  146.3187  134.1879  161.7455 N   0  3  0  0  0  0  0  0  0  0  0  0
  146.8112  134.4366  160.5071 C   0  0  0  0  0  0  0  0  0  0  0  0
  146.4095  133.6170  159.4380 N   0  0  0  0  0  0  0  0  0  0  0  0
  144.9888  133.6269  159.1309 C   0  0  0  0  0  0  0  0  0  0  0  0
  144.7580  132.4073  158.2352 C   0  0  0  0  0  0  0  0  0  0  0  0
  145.9371  131.4720  158.5310 C   0  0  0  0  0  0  0  0  0  0  0  0
  146.7842  132.2187  159.5650 C   0  0  0  0  0  0  0  0  0  0  0  0
  149.4589  136.4524  157.3103 N   0  0  0  0  0  0  0  0  0  0  0  0
  150.5672  137.0745  156.5916 C   0  0  1  0  0  0  0  0  0  0  0  0
  150.4282  136.8711  155.0715 C   0  0  0  0  0  0  0  0  0  0  0  0
  151.3911  137.8278  154.3579 C   0  0  0  0  0  0  0  0  0  0  0  0
  151.5198  139.3110  155.4274 S   0  0  0  0  0  0  0  0  0  0  0  0
  152.9324  139.5273  155.7744 O   0  0  0  0  0  0  0  0  0  0  0  0
  150.7031  140.3970  154.8647 O   0  0  0  0  0  0  0  0  0  0  0  0
  150.6412  138.5860  156.8629 C   0  0  0  0  0  0  0  0  0  0  0  0
  147.6678  135.3690  158.2596 H   0  0  0  0  0  0  0  0  0  0  0  0
  148.7419  137.1432  161.3626 H   0  0  0  0  0  0  0  0  0  0  0  0
  147.7997  136.5883  163.5755 H   0  0  0  0  0  0  0  0  0  0  0  0
  146.1826  134.6115  163.7640 H   0  0  0  0  0  0  0  0  0  0  0  0
  144.3954  133.5390  160.0417 H   0  0  0  0  0  0  0  0  0  0  0  0
  144.7028  134.5522  158.6296 H   0  0  0  0  0  0  0  0  0  0  0  0
  143.7943  131.9384  158.4359 H   0  0  0  0  0  0  0  0  0  0  0  0
  144.7722  132.7003  157.1846 H   0  0  0  0  0  0  0  0  0  0  0  0
  145.6119  130.5014  158.9066 H   0  0  0  0  0  0  0  0  0  0  0  0
  146.5127  131.2991  157.6209 H   0  0  0  0  0  0  0  0  0  0  0  0
  147.8509  132.0797  159.3860 H   0  0  0  0  0  0  0  0  0  0  0  0
  146.5602  131.8529  160.5681 H   0  0  0  0  0  0  0  0  0  0  0  0
  148.7249  136.0457  156.7487 H   0  0  0  0  0  0  0  0  0  0  0  0
  151.5088  136.6178  156.9028 H   0  0  0  0  0  0  0  0  0  0  0  0
  150.6077  135.8351  154.7820 H   0  0  0  0  0  0  0  0  0  0  0  0
  149.4089  137.1143  154.7678 H   0  0  0  0  0  0  0  0  0  0  0  0
  152.3846  137.3860  154.2762 H   0  0  0  0  0  0  0  0  0  0  0  0
  151.0524  138.1091  153.3607 H   0  0  0  0  0  0  0  0  0  0  0  0
  149.6462  139.0307  156.9011 H   0  0  0  0  0  0  0  0  0  0  0  0
  151.1666  138.8288  157.7869 H   0  0  0  0  0  0  0  0  0  0  0  0
  145.6667  133.4119  161.8611 H   0  0  0  0  0  0  0  0  0  0  0  0
  1  2  2  0  0  0  0
  2  3  1  0  0  0  0
  2 15  1  0  0  0  0
  3  4  1  0  0  0  0
  3 23  1  0  0  0  0
  4  9  1  0  0  0  0
  4  5  2  0  0  0  0
  5  6  1  0  0  0  0
  5 24  1  0  0  0  0
  6  7  2  0  0  0  0
  6 25  1  0  0  0  0
  7  8  1  0  0  0  0
  7 26  1  0  0  0  0
  8  9  2  0  0  0  0
  8 43  1  0  0  0  0
  9 10  1  0  0  0  0
 10 14  1  0  0  0  0
 10 11  1  0  0  0  0
 11 12  1  0  0  0  0
 11 27  1  0  0  0  0
 11 28  1  0  0  0  0
 12 13  1  0  0  0  0
 12 29  1  0  0  0  0
 12 30  1  0  0  0  0
 13 14  1  0  0  0  0
 13 31  1  0  0  0  0
 13 32  1  0  0  0  0
 14 33  1  0  0  0  0
 14 34  1  0  0  0  0
 15 16  1  0  0  0  0
 15 35  1  0  0  0  0
 16 22  1  0  0  0  0
 16 17  1  0  0  0  0
 16 36  1  0  0  0  0
 17 18  1  0  0  0  0
 17 37  1  0  0  0  0
 17 38  1  0  0  0  0
 18 19  1  0  0  0  0
 18 39  1  0  0  0  0
 18 40  1  0  0  0  0
 19 20  2  0  0  0  0
 19 21  2  0  0  0  0
 19 22  1  0  0  0  0
 22 41  1  0  0  0  0
 22 42  1  0  0  0  0
M  CHG  1   8   1
M  END
> <s_m_source_file>
AV-unprocessed.smi

> <i_m_source_file_index>
2047

> <i_lp_mmshare_version>
43012

> <i_f3d_flags>
0

> <s_epik_input>
Tz1TMSg9TylbQ0gyXVtDSDJdW0NASF0oW0NIMl0xKVtOSF1DKD1PKVtOSF1jMltjSF1bY0hdW2NIXW5jMk4zW0NIMl1bQ0gyXVtDSDJdW0NIMl0z

> <s_epik_cmdline>
J2VwaWtfcHl0aG9uJywgJy1waCcsICc3LjAnLCAnLXRuJywgJzgnLCAnLW1hJywgJzIwMCcsICctbWV0YWxfYmluZGluZycsICctaW1hZScsICc8aW5maWxlLm1hZT4nLCAnLW9tYWUnLCAnPG91dGZpbGUubWFlPic=

> <r_lp_tautomer_probability>
0.999994

> <r_epik_Ionization_Penalty>
1.20225

> <r_epik_Ionization_Penalty_Charging>
1.20223

> <r_epik_Ionization_Penalty_Neutral>
2.10783e-05

> <r_epik_State_Penalty>
1.26794

> <r_epik_Charging_Adjusted_Penalty>
2.47017

> <i_epik_Tot_Q>
1

> <i_epik_Tot_abs_Q>
1

> <r_epik_Metal_State_Penalty>
1.34322

> <b_epik_Metal_Only>
0

> <s_lp_Force_Field>
OPLS_2005

> <r_lp_Energy>
42.594

> <b_lp_Chiralities_Consistent>
1

> <s_lp_Variant>
AV-unprocessed.smi:2047-4

> <Gold.Version>
5.8.1

> <Gold.Id.Protein>
6NUR|6NUR_protein|mol2

> <Gold.PLP.Fitness>
37.9526

> <Gold.PLP.PLP>
-29.2400

> <Gold.PLP.part.hbond>
-3.0000

> <Gold.PLP.part.metal>
0.0000

> <Gold.PLP.part.buried>
-5.3538

> <Gold.PLP.part.nonpolar>
-21.7957

> <Gold.PLP.part.repulsive>
0.2294

> <Gold.PLP.ligand.clash>
0.0000

> <Gold.PLP.ligand.torsion>
0.1543

> <Gold.PLP.Chemscore.Hbond>
3.0000

> <Gold.PLP.Chemscore.CHOScore>
0.0000

> <Gold.PLP.Chemscore.Metal>
0.0000

> <Gold.Chemscore.Hbonds>
donor molecule, donor type, donor heavy atom, donor atom, acceptor molecule, acceptor atom, score
      P1  H  6896  6907       L1     1  0.79
      P1  H  7989  7998       L1    21  1.00
      P1  H  7997  8008       L1    20  1.00

> <Gold.PLP.Chemscore.Internal.Correction>
0.0211

> <Gold.Rescore>
     Score         DG    S(hbond)    S(metal)    S(lipo)     H(rot)  DE(clash)    DE(int)     intcor
     17.50     -18.75       2.91        0.00      57.76       1.26       0.01       1.24       ----

> <Gold.Chemscore.Fitness>
17.4954

> <Gold.Chemscore.DG>
-18.7457

> <Gold.Chemscore.ZeroCoef>
-5.4800

> <Gold.Chemscore.Hbond>
2.9135

> <Gold.Chemscore.Metal>
0.0000

> <Gold.Chemscore.Lipo>
57.7577

> <Gold.Chemscore.Internal_Hbond>
0.0000

> <Gold.Chemscore.DEClash>
0.0126

> <Gold.Chemscore.DEInternal>
1.2376

> <Gold.Chemscore.Rot>
1.2590

> <Gold.Chemscore.Internal.Correction>
   9.000000E+99

> <Gold.Chemscore.Hbonds>
donor molecule, donor type, donor heavy atom, donor atom, acceptor molecule, acceptor atom, score
      P1  H  6896  6907       L1     1  0.11
      P1  H  7989  7998       L1    21  0.34
      P1  H  7997  8008       L1    20  0.99

> <Gold.Chemscore.Hbond.Weighted>
-9.7311

> <Gold.Chemscore.Metal.Weighted>
-0.0000

> <Gold.Chemscore.Lipo.Weighted>
-6.7577

> <Gold.Chemscore.Internal_Hbond.Weighted>
0.0000

> <Gold.Chemscore.DEClash.Weighted>
0.0126

> <Gold.Chemscore.DEInternal.Weighted>
1.2376

> <Gold.Chemscore.Rot.Weighted>
3.2231

> <Gold.Chemscore.Internal.Correction.Weighted>
   9.000000E+99

> <Gold.Protein.RotatedTorsions>
[ 6907 6896 6895 6894 ] final  -30.82 input  -60.11 | X-H torsion
[ 7974 7965 7964 7962 ] final -110.72 input  175.53 | X-H torsion
[ 8008 7997 7996 7995 ] final  -35.86 input   59.86 | X-H torsion
[ 10167 10162 10161 10158 ] final   94.26 input  -65.29 | X-H torsion
[ 10718 10713 10712 10709 ] final -141.06 input   66.30 | X-H torsion
[ 10763 10752 10751 10750 ] final   20.30 input  -60.55 | X-H torsion
[ 11005 11000 10999 10996 ] final    4.22 input  -57.11 | X-H torsion

> <Gold.Protein.ActiveResidues>
 VAL166  LYS551  ARG553  GLY616  TRP617  ASP618  TYR619  PRO620  LYS621  CYS622 
 ASP623  PHE694  ASN695  SER759  ASP760  ASP761  ALA762  ILE779  LEU786  VAL792 
 PHE793  MET794  SER795  GLU796  ALA797  LYS798  CYS799  TRP800  GLU811  SER814 

> <Gold.Protein.RotatedAtoms>
  151.1004  134.9969  159.8445 H   0  0  0  0  0  0  0  0  0  0  0  0  # atno 6907 bound_to 6896
  152.5436  134.1957  159.8702 H   0  0  0  0  0  0  0  0  0  0  0  0  # atno 6908 bound_to 6896
  151.2000  133.4572  159.2629 H   0  0  0  0  0  0  0  0  0  0  0  0  # atno 6909 bound_to 6896
  145.1648  140.8896  143.3569 H   0  0  0  0  0  0  0  0  0  0  0  0  # atno 7974 bound_to 7965
  154.4086  140.1646  156.2281 H   0  0  0  0  0  0  0  0  0  0  0  0  # atno 8008 bound_to 7997
  155.9306  140.3415  155.6223 H   0  0  0  0  0  0  0  0  0  0  0  0  # atno 8009 bound_to 7997
  155.7111  140.0757  157.2361 H   0  0  0  0  0  0  0  0  0  0  0  0  # atno 8010 bound_to 7997
  139.8101  144.6777  150.9651 H   0  0  0  0  0  0  0  0  0  0  0  0  # atno 10167 bound_to 10162
  156.3296  130.7579  151.1694 H   0  0  0  0  0  0  0  0  0  0  0  0  # atno 10718 bound_to 10713
  153.1089  135.6691  153.9537 H   0  0  0  0  0  0  0  0  0  0  0  0  # atno 10763 bound_to 10752
  153.9086  135.3027  155.3450 H   0  0  0  0  0  0  0  0  0  0  0  0  # atno 10764 bound_to 10752
  154.7509  135.5035  153.9364 H   0  0  0  0  0  0  0  0  0  0  0  0  # atno 10765 bound_to 10752
  140.5844  133.9983  155.8061 H   0  0  0  0  0  0  0  0  0  0  0  0  # atno 11005 bound_to 11000
  145.0293  139.3355  143.6032 LP  0  0  0  0  0  0  0  0  0  0  0  0  # atno 17320 bound_to 7965
  146.3477  139.9624  142.8716 LP  0  0  0  0  0  0  0  0  0  0  0  0  # atno 17321 bound_to 7965
  140.7818  143.4194  151.0866 LP  0  0  0  0  0  0  0  0  0  0  0  0  # atno 17342 bound_to 10162
  139.7861  143.8286  152.3145 LP  0  0  0  0  0  0  0  0  0  0  0  0  # atno 17343 bound_to 10162
  157.7428  131.0485  150.4998 LP  0  0  0  0  0  0  0  0  0  0  0  0  # atno 17370 bound_to 10713
  156.5162  130.4151  149.6274 LP  0  0  0  0  0  0  0  0  0  0  0  0  # atno 17371 bound_to 10713
  141.0976  133.9819  157.3134 LP  0  0  0  0  0  0  0  0  0  0  0  0  # atno 17394 bound_to 11000
  139.9303  135.0200  156.8376 LP  0  0  0  0  0  0  0  0  0  0  0  0  # atno 17395 bound_to 11000

$$$$
