AV-unprocessed.smi:2173|AV-procd|sdf|8839|dock6
  -GOLD-   2272012 33D 1   1.00000     0.00000
 Structure written by MMmdl.
 35 36  0  0  0  0  0  0  0  0  1 V2000
  150.9329  140.3067  156.6702 O   0  0  0  0  0  0  0  0  0  0  0  0
  150.6187  141.4966  156.7179 C   0  0  0  0  0  0  0  0  0  0  0  0
  149.8558  142.0932  155.7895 N   0  0  0  0  0  0  0  0  0  0  0  0
  149.2320  141.4189  154.6556 C   0  0  0  0  0  0  0  0  0  0  0  0
  147.7640  141.0228  154.9204 C   0  0  0  0  0  0  0  0  0  0  0  0
  146.7713  142.1516  154.6907 C   0  0  0  0  0  0  0  0  0  0  0  0
  146.8051  142.9036  153.4973 C   0  0  0  0  0  0  0  0  0  0  0  0
  145.8809  143.9549  153.3400 C   0  0  0  0  0  0  0  0  0  0  0  0
  144.9640  144.2139  154.3771 C   0  0  0  0  0  0  0  0  0  0  0  0
  145.0103  143.4048  155.5296 C   0  0  0  0  0  0  0  0  0  0  0  0
  145.8916  142.3946  155.6895 N   0  0  0  0  0  0  0  0  0  0  0  0
  151.0809  142.3757  157.8870 C   0  0  1  0  0  0  0  0  0  0  0  0
  152.0668  141.6061  158.7954 C   0  0  0  0  0  0  0  0  0  0  0  0
  152.7338  142.5129  159.8141 C   0  0  0  0  0  0  0  0  0  0  0  0
  152.7375  143.8535  159.7194 C   0  0  0  0  0  0  0  0  0  0  0  0
  152.0803  144.6133  158.5803 C   0  0  0  0  0  0  0  0  0  0  0  0
  151.7136  143.6944  157.3989 C   0  0  0  0  0  0  0  0  0  0  0  0
  149.6484  143.0744  155.9066 H   0  0  0  0  0  0  0  0  0  0  0  0
  149.2730  142.1039  153.8085 H   0  0  0  0  0  0  0  0  0  0  0  0
  149.8158  140.5424  154.3698 H   0  0  0  0  0  0  0  0  0  0  0  0
  147.4944  140.1793  154.2843 H   0  0  0  0  0  0  0  0  0  0  0  0
  147.6593  140.6660  155.9462 H   0  0  0  0  0  0  0  0  0  0  0  0
  147.5246  142.6836  152.7223 H   0  0  0  0  0  0  0  0  0  0  0  0
  145.8765  144.5531  152.4410 H   0  0  0  0  0  0  0  0  0  0  0  0
  144.2423  145.0127  154.2915 H   0  0  0  0  0  0  0  0  0  0  0  0
  144.3230  143.5743  156.3453 H   0  0  0  0  0  0  0  0  0  0  0  0
  150.2038  142.6350  158.4834 H   0  0  0  0  0  0  0  0  0  0  0  0
  151.5362  140.8162  159.3282 H   0  0  0  0  0  0  0  0  0  0  0  0
  152.8503  141.1219  158.2105 H   0  0  0  0  0  0  0  0  0  0  0  0
  153.2332  142.0305  160.6414 H   0  0  0  0  0  0  0  0  0  0  0  0
  153.2178  144.4445  160.4856 H   0  0  0  0  0  0  0  0  0  0  0  0
  151.1866  145.1001  158.9716 H   0  0  0  0  0  0  0  0  0  0  0  0
  152.7498  145.4042  158.2414 H   0  0  0  0  0  0  0  0  0  0  0  0
  152.6162  143.4748  156.8261 H   0  0  0  0  0  0  0  0  0  0  0  0
  151.0395  144.2191  156.7205 H   0  0  0  0  0  0  0  0  0  0  0  0
  1  2  2  0  0  0  0
  2  3  1  0  0  0  0
  2 12  1  0  0  0  0
  3  4  1  0  0  0  0
  3 18  1  0  0  0  0
  4  5  1  0  0  0  0
  4 19  1  0  0  0  0
  4 20  1  0  0  0  0
  5  6  1  0  0  0  0
  5 21  1  0  0  0  0
  5 22  1  0  0  0  0
  6 11  1  0  0  0  0
  6  7  2  0  0  0  0
  7  8  1  0  0  0  0
  7 23  1  0  0  0  0
  8  9  2  0  0  0  0
  8 24  1  0  0  0  0
  9 10  1  0  0  0  0
  9 25  1  0  0  0  0
 10 11  2  0  0  0  0
 10 26  1  0  0  0  0
 12 17  1  0  0  0  0
 12 13  1  0  0  0  0
 12 27  1  0  0  0  0
 13 14  1  0  0  0  0
 13 28  1  0  0  0  0
 13 29  1  0  0  0  0
 14 15  2  0  0  0  0
 14 30  1  0  0  0  0
 15 16  1  0  0  0  0
 15 31  1  0  0  0  0
 16 17  1  0  0  0  0
 16 32  1  0  0  0  0
 16 33  1  0  0  0  0
 17 34  1  0  0  0  0
 17 35  1  0  0  0  0
M  END
> <s_m_source_file>
AV-unprocessed.smi

> <i_m_source_file_index>
2173

> <i_lp_mmshare_version>
43012

> <i_f3d_flags>
0

> <s_epik_input>
W0NIMl0xW0NIMl1bQ0hdPVtDSF1bQ0gyXVtDQEhdMUMoPU8pW05IXVtDSDJdW0NIMl1jMltjSF1bY0hdW2NIXVtjSF1uMg==

> <s_epik_cmdline>
J2VwaWtfcHl0aG9uJywgJy1waCcsICc3LjAnLCAnLXRuJywgJzgnLCAnLW1hJywgJzIwMCcsICctbWV0YWxfYmluZGluZycsICctaW1hZScsICc8aW5maWxlLm1hZT4nLCAnLW9tYWUnLCAnPG91dGZpbGUubWFlPic=

> <r_epik_Ionization_Penalty>
0.0268825

> <r_epik_Ionization_Penalty_Charging>
0

> <r_epik_Ionization_Penalty_Neutral>
0.0268825

> <r_epik_State_Penalty>
0.0219706

> <r_epik_Charging_Adjusted_Penalty>
0.0219706

> <i_epik_Tot_Q>
0

> <i_epik_Tot_abs_Q>
0

> <r_epik_Metal_State_Penalty>
0.0210138

> <b_epik_Metal_Only>
0

> <s_lp_Force_Field>
OPLS_2005

> <r_lp_Energy>
8.2635

> <b_lp_Chiralities_Consistent>
1

> <s_lp_Variant>
AV-unprocessed.smi:2173-2

> <Gold.Version>
5.8.1

> <Gold.Id.Protein>
6NUR|6NUR_protein|mol2

> <Gold.PLP.Fitness>
44.2114

> <Gold.PLP.PLP>
-42.2043

> <Gold.PLP.part.hbond>
-1.0000

> <Gold.PLP.part.metal>
0.0000

> <Gold.PLP.part.buried>
-6.8172

> <Gold.PLP.part.nonpolar>
-34.8801

> <Gold.PLP.part.repulsive>
0.2591

> <Gold.PLP.ligand.clash>
0.0000

> <Gold.PLP.ligand.torsion>
0.5132

> <Gold.PLP.Chemscore.Hbond>
1.0000

> <Gold.PLP.Chemscore.CHOScore>
0.0000

> <Gold.PLP.Chemscore.Metal>
0.0000

> <Gold.Chemscore.Hbonds>
donor molecule, donor type, donor heavy atom, donor atom, acceptor molecule, acceptor atom, score
      L1  H     3    18       P1  8028  1.00

> <Gold.PLP.Chemscore.Internal.Correction>
0.0335

> <Gold.Rescore>
     Score         DG    S(hbond)    S(metal)    S(lipo)     H(rot)  DE(clash)    DE(int)     intcor
     17.58     -18.14       1.00        0.00     110.22       1.39       0.05       0.51       ----

> <Gold.Chemscore.Fitness>
17.5849

> <Gold.Chemscore.DG>
-18.1423

> <Gold.Chemscore.ZeroCoef>
-5.4800

> <Gold.Chemscore.Hbond>
0.9960

> <Gold.Chemscore.Metal>
0.0000

> <Gold.Chemscore.Lipo>
110.2197

> <Gold.Chemscore.Internal_Hbond>
0.0000

> <Gold.Chemscore.DEClash>
0.0479

> <Gold.Chemscore.DEInternal>
0.5095

> <Gold.Chemscore.Rot>
1.3907

> <Gold.Chemscore.Internal.Correction>
   9.000000E+99

> <Gold.Chemscore.Hbonds>
donor molecule, donor type, donor heavy atom, donor atom, acceptor molecule, acceptor atom, score
      L1  H     3    18       P1  8028  1.00

> <Gold.Chemscore.Hbond.Weighted>
-3.3267

> <Gold.Chemscore.Metal.Weighted>
-0.0000

> <Gold.Chemscore.Lipo.Weighted>
-12.8957

> <Gold.Chemscore.Internal_Hbond.Weighted>
0.0000

> <Gold.Chemscore.DEClash.Weighted>
0.0479

> <Gold.Chemscore.DEInternal.Weighted>
0.5095

> <Gold.Chemscore.Rot.Weighted>
3.5601

> <Gold.Chemscore.Internal.Correction.Weighted>
   9.000000E+99

> <Gold.Protein.RotatedTorsions>
[ 6907 6896 6895 6894 ] final  -12.66 input  -60.11 | X-H torsion
[ 7974 7965 7964 7962 ] final -150.84 input  175.53 | X-H torsion
[ 8008 7997 7996 7995 ] final  -88.81 input   59.86 | X-H torsion
[ 10167 10162 10161 10158 ] final -170.68 input  -65.29 | X-H torsion
[ 10718 10713 10712 10709 ] final  -86.95 input   66.30 | X-H torsion
[ 10763 10752 10751 10750 ] final -157.92 input  -60.55 | X-H torsion
[ 11005 11000 10999 10996 ] final -116.44 input  -57.11 | X-H torsion

> <Gold.Protein.ActiveResidues>
 VAL166  LYS551  ARG553  GLY616  TRP617  ASP618  TYR619  PRO620  LYS621  CYS622 
 ASP623  PHE694  ASN695  SER759  ASP760  ASP761  ALA762  ILE779  LEU786  VAL792 
 PHE793  MET794  SER795  GLU796  ALA797  LYS798  CYS799  TRP800  GLU811  SER814 

> <Gold.Protein.RotatedAtoms>
  151.3671  135.0915  159.9452 H   0  0  0  0  0  0  0  0  0  0  0  0  # atno 6907 bound_to 6896
  152.5146  133.9201  159.7541 H   0  0  0  0  0  0  0  0  0  0  0  0  # atno 6908 bound_to 6896
  150.9607  133.6393  159.2784 H   0  0  0  0  0  0  0  0  0  0  0  0  # atno 6909 bound_to 6896
  144.7884  140.4877  143.5790 H   0  0  0  0  0  0  0  0  0  0  0  0  # atno 7974 bound_to 7965
  154.6792  140.0549  157.0248 H   0  0  0  0  0  0  0  0  0  0  0  0  # atno 8008 bound_to 7997
  155.0976  140.3225  155.4537 H   0  0  0  0  0  0  0  0  0  0  0  0  # atno 8009 bound_to 7997
  156.2688  140.2037  156.6102 H   0  0  0  0  0  0  0  0  0  0  0  0  # atno 8010 bound_to 7997
  139.5847  144.1344  152.1560 H   0  0  0  0  0  0  0  0  0  0  0  0  # atno 10167 bound_to 10162
  155.9987  130.4783  150.4793 H   0  0  0  0  0  0  0  0  0  0  0  0  # atno 10718 bound_to 10713
  154.7598  135.3114  154.8401 H   0  0  0  0  0  0  0  0  0  0  0  0  # atno 10763 bound_to 10752
  153.9165  135.6800  153.4753 H   0  0  0  0  0  0  0  0  0  0  0  0  # atno 10764 bound_to 10752
  153.1197  135.4828  154.9106 H   0  0  0  0  0  0  0  0  0  0  0  0  # atno 10765 bound_to 10752
  141.0421  133.9819  157.2977 H   0  0  0  0  0  0  0  0  0  0  0  0  # atno 11005 bound_to 11000
  145.5860  139.1492  143.3209 LP  0  0  0  0  0  0  0  0  0  0  0  0  # atno 17320 bound_to 7965
  146.2126  140.5988  142.9053 LP  0  0  0  0  0  0  0  0  0  0  0  0  # atno 17321 bound_to 7965
  140.0905  144.5624  150.7058 LP  0  0  0  0  0  0  0  0  0  0  0  0  # atno 17342 bound_to 10162
  140.7121  143.2513  151.4550 LP  0  0  0  0  0  0  0  0  0  0  0  0  # atno 17343 bound_to 10162
  157.2800  131.0605  151.2204 LP  0  0  0  0  0  0  0  0  0  0  0  0  # atno 17370 bound_to 10713
  157.3253  130.6958  149.6293 LP  0  0  0  0  0  0  0  0  0  0  0  0  # atno 17371 bound_to 10713
  139.9284  135.0201  156.8315 LP  0  0  0  0  0  0  0  0  0  0  0  0  # atno 17394 bound_to 11000
  140.6214  133.9990  155.7620 LP  0  0  0  0  0  0  0  0  0  0  0  0  # atno 17395 bound_to 11000

$$$$
