AV-unprocessed.smi:1934|AV-procd|sdf|7823|dock3
  -GOLD-   22720 9573D 1   1.00000     0.00000
 Structure written by MMmdl.
 46 47  0  0  0  0  0  0  0  0  2 V2000
  151.6958  141.6015  157.8095 C   0  0  0  0  0  0  0  0  0  0  0  0
  151.3741  140.6976  156.6562 C   0  0  0  0  0  0  0  0  0  0  0  0
  150.1368  140.5686  155.9609 C   0  0  0  0  0  0  0  0  0  0  0  0
  150.4180  139.6168  155.0192 C   0  0  0  0  0  0  0  0  0  0  0  0
  149.6039  139.0893  154.0664 N   0  0  0  0  0  0  0  0  0  0  0  0
  148.3152  139.3759  153.8118 C   0  0  0  0  0  0  0  0  0  0  0  0
  147.6251  140.1847  154.4331 O   0  0  0  0  0  0  0  0  0  0  0  0
  147.8521  138.6600  152.7769 N   0  0  0  0  0  0  0  0  0  0  0  0
  146.4988  138.7556  152.2424 C   0  0  0  0  0  0  0  0  0  0  0  0
  146.2407  137.6913  151.1582 C   0  0  0  0  0  0  0  0  0  0  0  0
  146.1946  136.3179  151.7191 N   0  3  1  0  0  0  0  0  0  0  0  0
  145.5185  136.2708  153.0413 C   0  0  0  0  0  0  0  0  0  0  0  0
  145.6088  134.8665  153.6595 C   0  0  0  0  0  0  0  0  0  0  0  0
  145.0290  133.8093  152.7112 C   0  0  0  0  0  0  0  0  0  0  0  0
  145.7156  133.8909  151.3371 C   0  0  1  0  0  0  0  0  0  0  0  0
  145.1361  132.8610  150.3571 C   0  0  0  0  0  0  0  0  0  0  0  0
  145.6150  135.3233  150.7761 C   0  0  0  0  0  0  0  0  0  0  0  0
  151.7299  139.2229  155.1630 N   0  0  0  0  0  0  0  0  0  0  0  0
  152.4865  138.2433  154.4080 C   0  0  0  0  0  0  0  0  0  0  0  0
  152.3170  139.8935  156.1778 N   0  0  0  0  0  0  0  0  0  0  0  0
  150.8377  142.2180  158.0782 H   0  0  0  0  0  0  0  0  0  0  0  0
  152.5209  142.2711  157.5656 H   0  0  0  0  0  0  0  0  0  0  0  0
  151.9804  141.0269  158.6912 H   0  0  0  0  0  0  0  0  0  0  0  0
  149.2123  141.0964  156.1406 H   0  0  0  0  0  0  0  0  0  0  0  0
  150.0348  138.4004  153.4677 H   0  0  0  0  0  0  0  0  0  0  0  0
  148.4827  138.0178  152.3187 H   0  0  0  0  0  0  0  0  0  0  0  0
  145.7866  138.6744  153.0639 H   0  0  0  0  0  0  0  0  0  0  0  0
  146.3708  139.7528  151.8207 H   0  0  0  0  0  0  0  0  0  0  0  0
  145.2853  137.9219  150.6844 H   0  0  0  0  0  0  0  0  0  0  0  0
  146.9925  137.7368  150.3685 H   0  0  0  0  0  0  0  0  0  0  0  0
  145.9816  136.9884  153.7200 H   0  0  0  0  0  0  0  0  0  0  0  0
  144.4746  136.5677  152.9288 H   0  0  0  0  0  0  0  0  0  0  0  0
  146.6503  134.6291  153.8804 H   0  0  0  0  0  0  0  0  0  0  0  0
  145.0777  134.8433  154.6118 H   0  0  0  0  0  0  0  0  0  0  0  0
  145.1574  132.8154  153.1413 H   0  0  0  0  0  0  0  0  0  0  0  0
  143.9546  133.9652  152.6014 H   0  0  0  0  0  0  0  0  0  0  0  0
  146.7726  133.6557  151.4723 H   0  0  0  0  0  0  0  0  0  0  0  0
  144.0749  133.0360  150.1774 H   0  0  0  0  0  0  0  0  0  0  0  0
  145.2454  131.8471  150.7432 H   0  0  0  0  0  0  0  0  0  0  0  0
  145.6477  132.9029  149.3949 H   0  0  0  0  0  0  0  0  0  0  0  0
  144.5726  135.5777  150.5759 H   0  0  0  0  0  0  0  0  0  0  0  0
  146.1352  135.3662  149.8198 H   0  0  0  0  0  0  0  0  0  0  0  0
  152.3543  138.4188  153.3400 H   0  0  0  0  0  0  0  0  0  0  0  0
  152.1319  137.2416  154.6520 H   0  0  0  0  0  0  0  0  0  0  0  0
  153.5488  138.3125  154.6465 H   0  0  0  0  0  0  0  0  0  0  0  0
  147.1527  136.0446  151.8852 H   0  0  0  0  0  0  0  0  0  0  0  0
  1  2  1  0  0  0  0
  1 21  1  0  0  0  0
  1 22  1  0  0  0  0
  1 23  1  0  0  0  0
  2 20  2  0  0  0  0
  2  3  1  0  0  0  0
  3  4  2  0  0  0  0
  3 24  1  0  0  0  0
  4  5  1  0  0  0  0
  4 18  1  0  0  0  0
  5  6  1  0  0  0  0
  5 25  1  0  0  0  0
  6  7  2  0  0  0  0
  6  8  1  0  0  0  0
  8  9  1  0  0  0  0
  8 26  1  0  0  0  0
  9 10  1  0  0  0  0
  9 27  1  0  0  0  0
  9 28  1  0  0  0  0
 10 11  1  0  0  0  0
 10 29  1  0  0  0  0
 10 30  1  0  0  0  0
 11 17  1  0  0  0  0
 11 12  1  0  0  0  0
 11 46  1  0  0  0  0
 12 13  1  0  0  0  0
 12 31  1  0  0  0  0
 12 32  1  0  0  0  0
 13 14  1  0  0  0  0
 13 33  1  0  0  0  0
 13 34  1  0  0  0  0
 14 15  1  0  0  0  0
 14 35  1  0  0  0  0
 14 36  1  0  0  0  0
 15 16  1  0  0  0  0
 15 17  1  0  0  0  0
 15 37  1  0  0  0  0
 16 38  1  0  0  0  0
 16 39  1  0  0  0  0
 16 40  1  0  0  0  0
 17 41  1  0  0  0  0
 17 42  1  0  0  0  0
 18 19  1  0  0  0  0
 18 20  1  0  0  0  0
 19 43  1  0  0  0  0
 19 44  1  0  0  0  0
 19 45  1  0  0  0  0
M  CHG  1  11   1
M  END
> <s_m_source_file>
AV-unprocessed.smi

> <i_m_source_file_index>
1934

> <i_lp_mmshare_version>
43012

> <i_f3d_flags>
0

> <s_epik_input>
W0NIM11jMVtjSF1jKG4objEpW0NIM10pW05IXUMoPU8pW05IXVtDSDJdW0NIMl1OMltDSDJdW0NIMl1bQ0gyXVtDQEBIXShbQ0gzXSlbQ0gyXTI=

> <s_epik_cmdline>
J2VwaWtfcHl0aG9uJywgJy1waCcsICc3LjAnLCAnLXRuJywgJzgnLCAnLW1hJywgJzIwMCcsICctbWV0YWxfYmluZGluZycsICctaW1hZScsICc8aW5maWxlLm1hZT4nLCAnLW9tYWUnLCAnPG91dGZpbGUubWFlPic=

> <r_lp_tautomer_probability>
1

> <r_epik_Ionization_Penalty>
0.00202955

> <r_epik_Ionization_Penalty_Charging>
0.00195276

> <r_epik_Ionization_Penalty_Neutral>
7.67968e-05

> <r_epik_State_Penalty>
0.00133177

> <r_epik_Charging_Adjusted_Penalty>
0.00328452

> <i_epik_Tot_Q>
1

> <i_epik_Tot_abs_Q>
1

> <r_epik_Metal_State_Penalty>
-0

> <b_epik_Metal_Only>
0

> <s_lp_Force_Field>
OPLS_2005

> <r_lp_Energy>
17.7582

> <b_lp_Chiralities_Consistent>
1

> <s_lp_Variant>
AV-unprocessed.smi:1934-1

> <Gold.Version>
5.8.1

> <Gold.Id.Protein>
6NUR|6NUR_protein|mol2

> <Gold.PLP.Fitness>
47.2216

> <Gold.PLP.PLP>
-35.5969

> <Gold.PLP.part.hbond>
-5.0000

> <Gold.PLP.part.metal>
0.0000

> <Gold.PLP.part.buried>
-0.0792

> <Gold.PLP.part.nonpolar>
-31.1417

> <Gold.PLP.part.repulsive>
0.3093

> <Gold.PLP.ligand.clash>
0.0000

> <Gold.PLP.ligand.torsion>
0.2007

> <Gold.PLP.Chemscore.Hbond>
4.0000

> <Gold.PLP.Chemscore.CHOScore>
0.0000

> <Gold.PLP.Chemscore.Metal>
0.0000

> <Gold.Chemscore.Hbonds>
donor molecule, donor type, donor heavy atom, donor atom, acceptor molecule, acceptor atom, score
      L1  H     8    26       P1  7948  1.00
      L1  H    11    46       P1  7948  2.00
      P1  H  7997  8008       L1    20  0.98

> <Gold.PLP.Chemscore.Internal.Correction>
0.0262

> <Gold.Rescore>
     Score         DG    S(hbond)    S(metal)    S(lipo)     H(rot)  DE(clash)    DE(int)     intcor
     17.67     -20.25       2.86        0.00      76.96       1.48       1.35       1.23       ----

> <Gold.Chemscore.Fitness>
17.6692

> <Gold.Chemscore.DG>
-20.2506

> <Gold.Chemscore.ZeroCoef>
-5.4800

> <Gold.Chemscore.Hbond>
2.8635

> <Gold.Chemscore.Metal>
0.0000

> <Gold.Chemscore.Lipo>
76.9648

> <Gold.Chemscore.Internal_Hbond>
0.0000

> <Gold.Chemscore.DEClash>
1.3531

> <Gold.Chemscore.DEInternal>
1.2284

> <Gold.Chemscore.Rot>
1.4838

> <Gold.Chemscore.Internal.Correction>
   9.000000E+99

> <Gold.Chemscore.Hbonds>
donor molecule, donor type, donor heavy atom, donor atom, acceptor molecule, acceptor atom, score
      L1  H     8    26       P1  7948  0.95
      L1  H    11    46       P1  7948  0.99
      P1  H  7997  8008       L1    20  0.91

> <Gold.Chemscore.Hbond.Weighted>
-9.5642

> <Gold.Chemscore.Metal.Weighted>
-0.0000

> <Gold.Chemscore.Lipo.Weighted>
-9.0049

> <Gold.Chemscore.Internal_Hbond.Weighted>
0.0000

> <Gold.Chemscore.DEClash.Weighted>
1.3531

> <Gold.Chemscore.DEInternal.Weighted>
1.2284

> <Gold.Chemscore.Rot.Weighted>
3.7985

> <Gold.Chemscore.Internal.Correction.Weighted>
   9.000000E+99

> <Gold.Protein.RotatedTorsions>
[ 6907 6896 6895 6894 ] final  165.81 input  -60.11 | X-H torsion
[ 7974 7965 7964 7962 ] final -166.89 input  175.53 | X-H torsion
[ 8008 7997 7996 7995 ] final  -36.66 input   59.86 | X-H torsion
[ 10167 10162 10161 10158 ] final  -37.52 input  -65.29 | X-H torsion
[ 10718 10713 10712 10709 ] final  133.47 input   66.30 | X-H torsion
[ 10763 10752 10751 10750 ] final   -5.82 input  -60.55 | X-H torsion
[ 11005 11000 10999 10996 ] final  149.95 input  -57.11 | X-H torsion

> <Gold.Protein.ActiveResidues>
 VAL166  LYS551  ARG553  GLY616  TRP617  ASP618  TYR619  PRO620  LYS621  CYS622 
 ASP623  PHE694  ASN695  SER759  ASP760  ASP761  ALA762  ILE779  LEU786  VAL792 
 PHE793  MET794  SER795  GLU796  ALA797  LYS798  CYS799  TRP800  GLU811  SER814 

> <Gold.Protein.RotatedAtoms>
  151.8887  133.3511  159.3790 H   0  0  0  0  0  0  0  0  0  0  0  0  # atno 6907 bound_to 6896
  150.7109  134.4946  159.5541 H   0  0  0  0  0  0  0  0  0  0  0  0  # atno 6908 bound_to 6896
  152.2512  134.8131  160.0496 H   0  0  0  0  0  0  0  0  0  0  0  0  # atno 6909 bound_to 6896
  144.7235  140.2599  143.6266 H   0  0  0  0  0  0  0  0  0  0  0  0  # atno 7974 bound_to 7965
  154.4068  140.1625  156.2410 H   0  0  0  0  0  0  0  0  0  0  0  0  # atno 8008 bound_to 7997
  155.9201  140.3422  155.6143 H   0  0  0  0  0  0  0  0  0  0  0  0  # atno 8009 bound_to 7997
  155.7232  140.0771  157.2312 H   0  0  0  0  0  0  0  0  0  0  0  0  # atno 8010 bound_to 7997
  140.7116  143.3336  151.2512 H   0  0  0  0  0  0  0  0  0  0  0  0  # atno 10167 bound_to 10162
  157.4770  131.1083  150.9731 H   0  0  0  0  0  0  0  0  0  0  0  0  # atno 10718 bound_to 10713
  153.4038  135.7005  153.6407 H   0  0  0  0  0  0  0  0  0  0  0  0  # atno 10763 bound_to 10752
  153.4929  135.3669  155.2501 H   0  0  0  0  0  0  0  0  0  0  0  0  # atno 10764 bound_to 10752
  154.8712  135.4093  154.3378 H   0  0  0  0  0  0  0  0  0  0  0  0  # atno 10765 bound_to 10752
  140.1089  134.8937  157.1907 H   0  0  0  0  0  0  0  0  0  0  0  0  # atno 11005 bound_to 11000
  145.8146  139.2017  143.1973 LP  0  0  0  0  0  0  0  0  0  0  0  0  # atno 17320 bound_to 7965
  146.0567  140.8014  142.9755 LP  0  0  0  0  0  0  0  0  0  0  0  0  # atno 17321 bound_to 7965
  139.6825  143.9829  152.2816 LP  0  0  0  0  0  0  0  0  0  0  0  0  # atno 17342 bound_to 10162
  139.9464  144.6649  150.8215 LP  0  0  0  0  0  0  0  0  0  0  0  0  # atno 17343 bound_to 10162
  157.0477  130.5774  149.5365 LP  0  0  0  0  0  0  0  0  0  0  0  0  # atno 17370 bound_to 10713
  156.0102  130.5192  150.7962 LP  0  0  0  0  0  0  0  0  0  0  0  0  # atno 17371 bound_to 10713
  140.3118  134.3015  155.7265 LP  0  0  0  0  0  0  0  0  0  0  0  0  # atno 17394 bound_to 11000
  141.2125  133.7655  156.9787 LP  0  0  0  0  0  0  0  0  0  0  0  0  # atno 17395 bound_to 11000

$$$$
