AV-unprocessed.smi:1152|AV-procd|sdf|4898|dock2
  -GOLD-   22720 3473D 1   1.00000     0.00000
 Structure written by MMmdl.
 31 32  0  0  0  0  0  0  0  0  2 V2000
  147.0414  139.0662  152.5973 C   0  0  0  0  0  0  0  0  0  0  0  0
  148.3297  138.8177  153.2279 N   0  0  0  0  0  0  0  0  0  0  0  0
  148.9447  139.6512  154.0778 C   0  0  0  0  0  0  0  0  0  0  0  0
  148.4055  140.7205  154.3699 O   0  0  0  0  0  0  0  0  0  0  0  0
  150.1373  139.1772  154.5214 N   0  5  0  0  0  0  0  0  0  0  0  0
  150.8687  139.7081  155.5273 C   0  0  0  0  0  0  0  0  0  0  0  0
  151.8949  139.1166  156.1664 N   0  0  0  0  0  0  0  0  0  0  0  0
  152.4587  139.9023  157.1589 N   0  0  0  0  0  0  0  0  0  0  0  0
  151.8546  141.0878  157.2660 C   0  0  0  0  0  0  0  0  0  0  0  0
  152.2649  142.1298  158.2591 C   0  0  0  0  0  0  0  0  0  0  0  0
  152.1981  141.6206  159.7122 C   0  0  0  0  0  0  0  0  0  0  0  0
  152.6652  142.6972  160.7055 C   0  0  0  0  0  0  0  0  0  0  0  0
  151.8758  144.0042  160.5261 C   0  0  0  0  0  0  0  0  0  0  0  0
  151.9726  144.5187  159.0807 C   0  0  0  0  0  0  0  0  0  0  0  0
  151.5005  143.4553  158.0755 C   0  0  0  0  0  0  0  0  0  0  0  0
  150.5306  141.3270  156.1393 S   0  0  0  0  0  0  0  0  0  0  0  0
  146.7756  138.2279  151.9537 H   0  0  0  0  0  0  0  0  0  0  0  0
  147.0767  139.9687  151.9857 H   0  0  0  0  0  0  0  0  0  0  0  0
  146.2585  139.1827  153.3477 H   0  0  0  0  0  0  0  0  0  0  0  0
  148.7931  137.9489  153.0055 H   0  0  0  0  0  0  0  0  0  0  0  0
  153.3145  142.3454  158.0533 H   0  0  0  0  0  0  0  0  0  0  0  0
  151.1762  141.3252  159.9535 H   0  0  0  0  0  0  0  0  0  0  0  0
  152.8133  140.7270  159.8238 H   0  0  0  0  0  0  0  0  0  0  0  0
  152.5540  142.3325  161.7269 H   0  0  0  0  0  0  0  0  0  0  0  0
  153.7289  142.8909  160.5610 H   0  0  0  0  0  0  0  0  0  0  0  0
  150.8296  143.8381  160.7859 H   0  0  0  0  0  0  0  0  0  0  0  0
  152.2497  144.7615  161.2157 H   0  0  0  0  0  0  0  0  0  0  0  0
  151.3779  145.4255  158.9678 H   0  0  0  0  0  0  0  0  0  0  0  0
  153.0042  144.7967  158.8608 H   0  0  0  0  0  0  0  0  0  0  0  0
  151.6346  143.8265  157.0588 H   0  0  0  0  0  0  0  0  0  0  0  0
  150.4306  143.2857  158.2046 H   0  0  0  0  0  0  0  0  0  0  0  0
  1  2  1  0  0  0  0
  1 17  1  0  0  0  0
  1 18  1  0  0  0  0
  1 19  1  0  0  0  0
  2  3  1  0  0  0  0
  2 20  1  0  0  0  0
  3  4  2  0  0  0  0
  3  5  1  0  0  0  0
  5  6  1  0  0  0  0
  6 16  1  0  0  0  0
  6  7  2  0  0  0  0
  7  8  1  0  0  0  0
  8  9  2  0  0  0  0
  9 10  1  0  0  0  0
  9 16  1  0  0  0  0
 10 15  1  0  0  0  0
 10 11  1  0  0  0  0
 10 21  1  0  0  0  0
 11 12  1  0  0  0  0
 11 22  1  0  0  0  0
 11 23  1  0  0  0  0
 12 13  1  0  0  0  0
 12 24  1  0  0  0  0
 12 25  1  0  0  0  0
 13 14  1  0  0  0  0
 13 26  1  0  0  0  0
 13 27  1  0  0  0  0
 14 15  1  0  0  0  0
 14 28  1  0  0  0  0
 14 29  1  0  0  0  0
 15 30  1  0  0  0  0
 15 31  1  0  0  0  0
M  CHG  1   5  -1
M  END
> <s_m_source_file>
AV-unprocessed.smi

> <i_m_source_file_index>
1152

> <i_lp_mmshare_version>
43012

> <i_f3d_flags>
0

> <s_epik_input>
W0NIM11bTkhdQyg9TylbTkhdYzFubmMoczEpW0NIXTJbQ0gyXVtDSDJdW0NIMl1bQ0gyXVtDSDJdMg==

> <s_epik_cmdline>
J2VwaWtfcHl0aG9uJywgJy1waCcsICc3LjAnLCAnLXRuJywgJzgnLCAnLW1hJywgJzIwMCcsICctbWV0YWxfYmluZGluZycsICctaW1hZScsICc8aW5maWxlLm1hZT4nLCAnLW9tYWUnLCAnPG91dGZpbGUubWFlPic=

> <r_lp_tautomer_probability>
1

> <r_epik_Ionization_Penalty>
4.62071

> <r_epik_Ionization_Penalty_Charging>
4.36597

> <r_epik_Ionization_Penalty_Neutral>
0.254736

> <r_epik_State_Penalty>
4.3656

> <r_epik_Charging_Adjusted_Penalty>
8.73157

> <i_epik_Tot_Q>
-1

> <i_epik_Tot_abs_Q>
1

> <r_epik_Metal_State_Penalty>
0.756176

> <b_epik_Metal_Only>
1

> <s_lp_Force_Field>
OPLS_2005

> <r_lp_Energy>
5.71757

> <b_lp_Chiralities_Consistent>
1

> <s_lp_Variant>
AV-unprocessed.smi:1152-2

> <Gold.Version>
5.8.1

> <Gold.Id.Protein>
6NUR|6NUR_protein|mol2

> <Gold.PLP.Fitness>
39.2505

> <Gold.PLP.PLP>
-33.4116

> <Gold.PLP.part.hbond>
-3.0000

> <Gold.PLP.part.metal>
0.0000

> <Gold.PLP.part.buried>
-3.5168

> <Gold.PLP.part.nonpolar>
-26.6183

> <Gold.PLP.part.repulsive>
0.3208

> <Gold.PLP.ligand.clash>
0.0000

> <Gold.PLP.ligand.torsion>
0.1114

> <Gold.PLP.Chemscore.Hbond>
2.0000

> <Gold.PLP.Chemscore.CHOScore>
0.0000

> <Gold.PLP.Chemscore.Metal>
0.0000

> <Gold.Chemscore.Hbonds>
donor molecule, donor type, donor heavy atom, donor atom, acceptor molecule, acceptor atom, score
      L1  H     2    20       P1  7948  0.96
      P1  H  7997  8010       L1     8  1.00

> <Gold.PLP.Chemscore.Internal.Correction>
0.0617

> <Gold.Rescore>
     Score         DG    S(hbond)    S(metal)    S(lipo)     H(rot)  DE(clash)    DE(int)     intcor
     17.30     -18.97       1.72        0.00      87.93       1.00       0.21       1.46       ----

> <Gold.Chemscore.Fitness>
17.2985

> <Gold.Chemscore.DG>
-18.9658

> <Gold.Chemscore.ZeroCoef>
-5.4800

> <Gold.Chemscore.Hbond>
1.7239

> <Gold.Chemscore.Metal>
0.0000

> <Gold.Chemscore.Lipo>
87.9321

> <Gold.Chemscore.Internal_Hbond>
0.0000

> <Gold.Chemscore.DEClash>
0.2073

> <Gold.Chemscore.DEInternal>
1.4599

> <Gold.Chemscore.Rot>
1.0000

> <Gold.Chemscore.Internal.Correction>
   9.000000E+99

> <Gold.Chemscore.Hbonds>
donor molecule, donor type, donor heavy atom, donor atom, acceptor molecule, acceptor atom, score
      L1  H     2    20       P1  7948  0.87
      P1  H  7997  8010       L1     8  0.50

> <Gold.Chemscore.Hbond.Weighted>
-5.7577

> <Gold.Chemscore.Metal.Weighted>
-0.0000

> <Gold.Chemscore.Lipo.Weighted>
-10.2881

> <Gold.Chemscore.Internal_Hbond.Weighted>
0.0000

> <Gold.Chemscore.DEClash.Weighted>
0.2073

> <Gold.Chemscore.DEInternal.Weighted>
1.4599

> <Gold.Chemscore.Rot.Weighted>
2.5600

> <Gold.Chemscore.Internal.Correction.Weighted>
   9.000000E+99

> <Gold.Protein.RotatedTorsions>
[ 6907 6896 6895 6894 ] final   35.50 input  -60.11 | X-H torsion
[ 7974 7965 7964 7962 ] final   90.23 input  175.53 | X-H torsion
[ 8008 7997 7996 7995 ] final   49.81 input   59.86 | X-H torsion
[ 10167 10162 10161 10158 ] final  115.37 input  -65.29 | X-H torsion
[ 10718 10713 10712 10709 ] final  -94.73 input   66.30 | X-H torsion
[ 10763 10752 10751 10750 ] final  -34.45 input  -60.55 | X-H torsion
[ 11005 11000 10999 10996 ] final   58.15 input  -57.11 | X-H torsion

> <Gold.Protein.ActiveResidues>
 VAL166  LYS551  ARG553  GLY616  TRP617  ASP618  TYR619  PRO620  LYS621  CYS622 
 ASP623  PHE694  ASN695  SER759  ASP760  ASP761  ALA762  ILE779  LEU786  VAL792 
 PHE793  MET794  SER795  GLU796  ALA797  LYS798  CYS799  TRP800  GLU811  SER814 

> <Gold.Protein.RotatedAtoms>
  152.1169  134.9233  160.0564 H   0  0  0  0  0  0  0  0  0  0  0  0  # atno 6907 bound_to 6896
  152.0389  133.3964  159.4337 H   0  0  0  0  0  0  0  0  0  0  0  0  # atno 6908 bound_to 6896
  150.6846  134.3358  159.4890 H   0  0  0  0  0  0  0  0  0  0  0  0  # atno 6909 bound_to 6896
  145.5218  139.2279  143.2667 H   0  0  0  0  0  0  0  0  0  0  0  0  # atno 7974 bound_to 7965
  155.4084  140.3441  155.4262 H   0  0  0  0  0  0  0  0  0  0  0  0  # atno 8008 bound_to 7997
  156.1463  140.1557  156.8873 H   0  0  0  0  0  0  0  0  0  0  0  0  # atno 8009 bound_to 7997
  154.5013  140.0814  156.7785 H   0  0  0  0  0  0  0  0  0  0  0  0  # atno 8010 bound_to 7997
  139.6322  144.7116  151.2409 H   0  0  0  0  0  0  0  0  0  0  0  0  # atno 10167 bound_to 10162
  156.0031  130.5080  150.5970 H   0  0  0  0  0  0  0  0  0  0  0  0  # atno 10718 bound_to 10713
  153.8469  135.6852  153.4796 H   0  0  0  0  0  0  0  0  0  0  0  0  # atno 10763 bound_to 10752
  153.1420  135.4653  154.9508 H   0  0  0  0  0  0  0  0  0  0  0  0  # atno 10764 bound_to 10752
  154.7820  135.3272  154.7917 H   0  0  0  0  0  0  0  0  0  0  0  0  # atno 10765 bound_to 10752
  140.0399  134.5888  155.9395 H   0  0  0  0  0  0  0  0  0  0  0  0  # atno 11005 bound_to 11000
  146.2101  140.6030  142.9063 LP  0  0  0  0  0  0  0  0  0  0  0  0  # atno 17320 bound_to 7965
  144.7672  140.5557  143.6695 LP  0  0  0  0  0  0  0  0  0  0  0  0  # atno 17321 bound_to 7965
  140.7445  143.6460  150.8292 LP  0  0  0  0  0  0  0  0  0  0  0  0  # atno 17342 bound_to 10162
  140.0086  143.5667  152.2848 LP  0  0  0  0  0  0  0  0  0  0  0  0  # atno 17343 bound_to 10162
  157.3826  131.0783  151.1464 LP  0  0  0  0  0  0  0  0  0  0  0  0  # atno 17370 bound_to 10713
  157.2181  130.6469  149.5800 LP  0  0  0  0  0  0  0  0  0  0  0  0  # atno 17371 bound_to 10713
  141.1877  133.6560  156.5295 LP  0  0  0  0  0  0  0  0  0  0  0  0  # atno 17394 bound_to 11000
  140.4086  134.7293  157.4822 LP  0  0  0  0  0  0  0  0  0  0  0  0  # atno 17395 bound_to 11000

$$$$
