AV-unprocessed.smi:2401|AV-procd|sdf|9503|dock3
  -GOLD-   2272013133D 1   1.00000     0.00000
 Structure written by MMmdl.
 34 35  0  0  0  0  0  0  0  0  1 V2000
  155.8019  136.4237  163.9785 C   0  0  0  0  0  0  0  0  0  0  0  0
  155.6093  137.4430  162.8696 C   0  0  0  0  0  0  0  0  0  0  0  0
  154.9059  136.9909  161.7496 N   0  0  0  0  0  0  0  0  0  0  0  0
  154.6941  137.7902  160.7559 C   0  0  0  0  0  0  0  0  0  0  0  0
  155.1522  139.1185  160.7650 N   0  0  0  0  0  0  0  0  0  0  0  0
  154.8482  139.9228  159.5686 C   0  0  0  0  0  0  0  0  0  0  0  0
  153.3283  140.0961  159.3461 C   0  0  2  0  0  0  0  0  0  0  0  0
  152.9932  139.6225  158.0571 O   0  0  0  0  0  0  0  0  0  0  0  0
  152.9143  141.5499  159.5166 C   0  0  0  0  0  0  0  0  0  0  0  0
  153.1604  142.2165  160.7362 C   0  0  0  0  0  0  0  0  0  0  0  0
  152.7835  143.5642  160.8971 C   0  0  0  0  0  0  0  0  0  0  0  0
  152.1608  144.2540  159.8391 C   0  0  0  0  0  0  0  0  0  0  0  0
  151.7000  145.9048  160.0370 Cl  0  0  0  0  0  0  0  0  0  0  0  0
  151.9159  143.5951  158.6187 C   0  0  0  0  0  0  0  0  0  0  0  0
  152.2920  142.2475  158.4576 C   0  0  0  0  0  0  0  0  0  0  0  0
  155.8472  139.6394  161.8173 C   0  0  0  0  0  0  0  0  0  0  0  0
  156.2467  140.8052  161.8176 O   0  0  0  0  0  0  0  0  0  0  0  0
  156.0823  138.7172  162.9404 C   0  0  0  0  0  0  0  0  0  0  0  0
  156.8559  139.2644  164.1336 C   0  0  0  0  0  0  0  0  0  0  0  0
  156.8632  136.2546  164.1625 H   0  0  0  0  0  0  0  0  0  0  0  0
  155.3511  135.4647  163.7194 H   0  0  0  0  0  0  0  0  0  0  0  0
  155.3384  136.7719  164.9020 H   0  0  0  0  0  0  0  0  0  0  0  0
  154.1560  137.4860  159.8563 H   0  0  0  0  0  0  0  0  0  0  0  0
  155.3028  140.9080  159.6935 H   0  0  0  0  0  0  0  0  0  0  0  0
  155.3259  139.5221  158.6723 H   0  0  0  0  0  0  0  0  0  0  0  0
  152.7758  139.4959  160.0702 H   0  0  0  0  0  0  0  0  0  0  0  0
  152.1346  139.9464  157.8320 H   0  0  0  0  0  0  0  0  0  0  0  0
  153.6391  141.6980  161.5540 H   0  0  0  0  0  0  0  0  0  0  0  0
  152.9736  144.0675  161.8336 H   0  0  0  0  0  0  0  0  0  0  0  0
  151.4399  144.1217  157.8044 H   0  0  0  0  0  0  0  0  0  0  0  0
  152.1025  141.7505  157.5173 H   0  0  0  0  0  0  0  0  0  0  0  0
  156.3270  140.1140  164.5669 H   0  0  0  0  0  0  0  0  0  0  0  0
  157.8424  139.6050  163.8176 H   0  0  0  0  0  0  0  0  0  0  0  0
  157.0012  138.5309  164.9249 H   0  0  0  0  0  0  0  0  0  0  0  0
  1  2  1  0  0  0  0
  1 20  1  0  0  0  0
  1 21  1  0  0  0  0
  1 22  1  0  0  0  0
  2 18  2  0  0  0  0
  2  3  1  0  0  0  0
  3  4  2  0  0  0  0
  4  5  1  0  0  0  0
  4 23  1  0  0  0  0
  5  6  1  0  0  0  0
  5 16  1  0  0  0  0
  6  7  1  0  0  0  0
  6 24  1  0  0  0  0
  6 25  1  0  0  0  0
  7  8  1  0  0  0  0
  7  9  1  0  0  0  0
  7 26  1  0  0  0  0
  8 27  1  0  0  0  0
  9 15  1  0  0  0  0
  9 10  2  0  0  0  0
 10 11  1  0  0  0  0
 10 28  1  0  0  0  0
 11 12  2  0  0  0  0
 11 29  1  0  0  0  0
 12 13  1  0  0  0  0
 12 14  1  0  0  0  0
 14 15  2  0  0  0  0
 14 30  1  0  0  0  0
 15 31  1  0  0  0  0
 16 17  2  0  0  0  0
 16 18  1  0  0  0  0
 18 19  1  0  0  0  0
 19 32  1  0  0  0  0
 19 33  1  0  0  0  0
 19 34  1  0  0  0  0
M  END
> <s_m_source_file>
AV-unprocessed.smi

> <i_m_source_file_index>
2401

> <i_lp_mmshare_version>
43012

> <i_f3d_flags>
0

> <s_epik_input>
W0NIM11jMW5bY0hdbihjKD1PKWMxW0NIM10pW0NIMl1bQ0BIXShbT0hdKWMyW2NIXVtjSF1jKENsKVtjSF1bY0hdMg==

> <s_epik_cmdline>
J2VwaWtfcHl0aG9uJywgJy1waCcsICc3LjAnLCAnLXRuJywgJzgnLCAnLW1hJywgJzIwMCcsICctbWV0YWxfYmluZGluZycsICctaW1hZScsICc8aW5maWxlLm1hZT4nLCAnLW9tYWUnLCAnPG91dGZpbGUubWFlPic=

> <r_lp_tautomer_probability>
1

> <r_epik_Ionization_Penalty>
5.07713e-05

> <r_epik_Ionization_Penalty_Charging>
7.56727e-08

> <r_epik_Ionization_Penalty_Neutral>
5.06957e-05

> <r_epik_State_Penalty>
-0

> <r_epik_Charging_Adjusted_Penalty>
7.56727e-08

> <i_epik_Tot_Q>
0

> <i_epik_Tot_abs_Q>
0

> <r_epik_Metal_State_Penalty>
-0

> <b_epik_Metal_Only>
0

> <s_lp_Force_Field>
OPLS_2005

> <r_lp_Energy>
19.2898

> <b_lp_Chiralities_Consistent>
1

> <s_lp_Variant>
AV-unprocessed.smi:2401-1

> <Gold.Version>
5.8.1

> <Gold.Id.Protein>
6NUR|6NUR_protein|mol2

> <Gold.PLP.Fitness>
46.7567

> <Gold.PLP.PLP>
-45.3442

> <Gold.PLP.part.hbond>
-2.0000

> <Gold.PLP.part.metal>
0.0000

> <Gold.PLP.part.buried>
-4.7686

> <Gold.PLP.part.nonpolar>
-37.8498

> <Gold.PLP.part.repulsive>
0.0000

> <Gold.PLP.ligand.clash>
0.1286

> <Gold.PLP.ligand.torsion>
0.7438

> <Gold.PLP.Chemscore.Hbond>
1.0000

> <Gold.PLP.Chemscore.CHOScore>
0.0000

> <Gold.PLP.Chemscore.Metal>
0.0000

> <Gold.Chemscore.Hbonds>
donor molecule, donor type, donor heavy atom, donor atom, acceptor molecule, acceptor atom, score
      P1  H  7997  8010       L1     8  1.00

> <Gold.PLP.Chemscore.Internal.Correction>
0.0286

> <Gold.Rescore>
     Score         DG    S(hbond)    S(metal)    S(lipo)     H(rot)  DE(clash)    DE(int)     intcor
     16.95     -18.19       0.94        0.00     123.88       1.93       0.26       0.98       ----

> <Gold.Chemscore.Fitness>
16.9533

> <Gold.Chemscore.DG>
-18.1921

> <Gold.Chemscore.ZeroCoef>
-5.4800

> <Gold.Chemscore.Hbond>
0.9431

> <Gold.Chemscore.Metal>
0.0000

> <Gold.Chemscore.Lipo>
123.8788

> <Gold.Chemscore.Internal_Hbond>
0.0000

> <Gold.Chemscore.DEClash>
0.2620

> <Gold.Chemscore.DEInternal>
0.9769

> <Gold.Chemscore.Rot>
1.9265

> <Gold.Chemscore.Internal.Correction>
   9.000000E+99

> <Gold.Chemscore.Hbonds>
donor molecule, donor type, donor heavy atom, donor atom, acceptor molecule, acceptor atom, score
      P1  H  7997  8010       L1     8  0.61

> <Gold.Chemscore.Hbond.Weighted>
-3.1500

> <Gold.Chemscore.Metal.Weighted>
-0.0000

> <Gold.Chemscore.Lipo.Weighted>
-14.4938

> <Gold.Chemscore.Internal_Hbond.Weighted>
0.0000

> <Gold.Chemscore.DEClash.Weighted>
0.2620

> <Gold.Chemscore.DEInternal.Weighted>
0.9769

> <Gold.Chemscore.Rot.Weighted>
4.9317

> <Gold.Chemscore.Internal.Correction.Weighted>
   9.000000E+99

> <Gold.Protein.RotatedTorsions>
[ 6907 6896 6895 6894 ] final  -14.94 input  -60.11 | X-H torsion
[ 7974 7965 7964 7962 ] final  -98.44 input  175.53 | X-H torsion
[ 8008 7997 7996 7995 ] final   48.92 input   59.86 | X-H torsion
[ 10167 10162 10161 10158 ] final -107.43 input  -65.29 | X-H torsion
[ 10718 10713 10712 10709 ] final  127.28 input   66.30 | X-H torsion
[ 10763 10752 10751 10750 ] final   95.56 input  -60.55 | X-H torsion
[ 11005 11000 10999 10996 ] final  179.76 input  -57.11 | X-H torsion

> <Gold.Protein.ActiveResidues>
 VAL166  LYS551  ARG553  GLY616  TRP617  ASP618  TYR619  PRO620  LYS621  CYS622 
 ASP623  PHE694  ASN695  SER759  ASP760  ASP761  ALA762  ILE779  LEU786  VAL792 
 PHE793  MET794  SER795  GLU796  ALA797  LYS798  CYS799  TRP800  GLU811  SER814 

> <Gold.Protein.RotatedAtoms>
  151.3317  135.0843  159.9340 H   0  0  0  0  0  0  0  0  0  0  0  0  # atno 6907 bound_to 6896
  152.5233  133.9536  159.7694 H   0  0  0  0  0  0  0  0  0  0  0  0  # atno 6908 bound_to 6896
  150.9876  133.6129  159.2743 H   0  0  0  0  0  0  0  0  0  0  0  0  # atno 6909 bound_to 6896
  145.3205  140.9420  143.2718 H   0  0  0  0  0  0  0  0  0  0  0  0  # atno 7974 bound_to 7965
  155.3937  140.3434  155.4253 H   0  0  0  0  0  0  0  0  0  0  0  0  # atno 8008 bound_to 7997
  156.1543  140.1580  156.8751 H   0  0  0  0  0  0  0  0  0  0  0  0  # atno 8009 bound_to 7997
  154.5080  140.0797  156.7915 H   0  0  0  0  0  0  0  0  0  0  0  0  # atno 8010 bound_to 7997
  140.1770  143.3997  152.1310 H   0  0  0  0  0  0  0  0  0  0  0  0  # atno 10167 bound_to 10162
  157.5347  131.1098  150.8954 H   0  0  0  0  0  0  0  0  0  0  0  0  # atno 10718 bound_to 10713
  153.2546  135.4249  155.0833 H   0  0  0  0  0  0  0  0  0  0  0  0  # atno 10763 bound_to 10752
  154.8396  135.3434  154.6464 H   0  0  0  0  0  0  0  0  0  0  0  0  # atno 10764 bound_to 10752
  153.6884  135.7035  153.5154 H   0  0  0  0  0  0  0  0  0  0  0  0  # atno 10765 bound_to 10752
  140.4097  134.6703  157.4607 H   0  0  0  0  0  0  0  0  0  0  0  0  # atno 11005 bound_to 11000
  144.8943  139.4733  143.6663 LP  0  0  0  0  0  0  0  0  0  0  0  0  # atno 17320 bound_to 7965
  146.3084  139.7659  142.9039 LP  0  0  0  0  0  0  0  0  0  0  0  0  # atno 17321 bound_to 7965
  139.5312  144.7161  151.5048 LP  0  0  0  0  0  0  0  0  0  0  0  0  # atno 17342 bound_to 10162
  140.6544  143.8629  150.6820 LP  0  0  0  0  0  0  0  0  0  0  0  0  # atno 17343 bound_to 10162
  156.9525  130.5425  149.5283 LP  0  0  0  0  0  0  0  0  0  0  0  0  # atno 17370 bound_to 10713
  156.0449  130.5527  150.8858 LP  0  0  0  0  0  0  0  0  0  0  0  0  # atno 17371 bound_to 10713
  140.0276  134.6453  155.9150 LP  0  0  0  0  0  0  0  0  0  0  0  0  # atno 17394 bound_to 11000
  141.1826  133.6549  156.5082 LP  0  0  0  0  0  0  0  0  0  0  0  0  # atno 17395 bound_to 11000

$$$$
