AV-unprocessed.smi:2748|AV-procd|sdf|10581|dock7
  -GOLD-   2272015 33D 1   1.00000     0.00000
 Structure written by MMmdl.
 30 32  0  0  0  0  0  0  0  0  1 V2000
  146.8919  139.2338  152.6441 O   0  0  0  0  0  0  0  0  0  0  0  0
  147.7897  139.6309  153.3843 C   0  0  0  0  0  0  0  0  0  0  0  0
  148.9202  138.8358  153.5953 N   0  0  0  0  0  0  0  0  0  0  0  0
  150.0050  139.1656  154.4083 C   0  0  0  0  0  0  0  0  0  0  0  0
  150.9545  138.3888  154.5106 O   0  0  0  0  0  0  0  0  0  0  0  0
  149.9429  140.4088  155.0786 N   0  0  0  0  0  0  0  0  0  0  0  0
  151.0593  140.7846  155.9106 C   0  0  0  0  0  0  0  0  0  0  0  0
  150.7020  140.8376  157.4087 C   0  0  2  0  0  0  0  0  0  0  0  0
  150.3597  142.2733  157.8889 C   0  0  0  0  0  0  0  0  0  0  0  0
  151.3899  142.4973  158.9396 C   0  0  0  0  0  0  0  0  0  0  0  0
  151.5876  143.6357  159.7395 C   0  0  0  0  0  0  0  0  0  0  0  0
  152.6484  143.6100  160.6719 C   0  0  0  0  0  0  0  0  0  0  0  0
  153.4762  142.4669  160.7846 C   0  0  0  0  0  0  0  0  0  0  0  0
  153.2542  141.3360  159.9667 C   0  0  0  0  0  0  0  0  0  0  0  0
  152.1946  141.3768  159.0434 C   0  0  0  0  0  0  0  0  0  0  0  0
  151.8312  140.3826  158.1801 O   0  0  0  0  0  0  0  0  0  0  0  0
  148.8455  141.2349  154.8909 C   0  0  0  0  0  0  0  0  0  0  0  0
  147.7976  140.9080  154.0967 C   0  0  0  0  0  0  0  0  0  0  0  0
  146.4654  141.9919  153.9115 Cl  0  0  0  0  0  0  0  0  0  0  0  0
  148.9566  137.9487  153.1145 H   0  0  0  0  0  0  0  0  0  0  0  0
  151.8447  140.0506  155.7216 H   0  0  0  0  0  0  0  0  0  0  0  0
  151.4392  141.7381  155.5374 H   0  0  0  0  0  0  0  0  0  0  0  0
  149.8588  140.1796  157.6228 H   0  0  0  0  0  0  0  0  0  0  0  0
  150.4545  143.0190  157.0989 H   0  0  0  0  0  0  0  0  0  0  0  0
  149.3578  142.3326  158.3151 H   0  0  0  0  0  0  0  0  0  0  0  0
  150.9502  144.5023  159.6440 H   0  0  0  0  0  0  0  0  0  0  0  0
  152.8293  144.4680  161.3025 H   0  0  0  0  0  0  0  0  0  0  0  0
  154.2836  142.4590  161.5021 H   0  0  0  0  0  0  0  0  0  0  0  0
  153.8825  140.4615  160.0493 H   0  0  0  0  0  0  0  0  0  0  0  0
  148.8225  142.1891  155.3981 H   0  0  0  0  0  0  0  0  0  0  0  0
  1  2  2  0  0  0  0
  2 18  1  0  0  0  0
  2  3  1  0  0  0  0
  3 20  1  0  0  0  0
  3  4  1  0  0  0  0
  4  5  2  0  0  0  0
  4  6  1  0  0  0  0
  6  7  1  0  0  0  0
  6 17  1  0  0  0  0
  7  8  1  0  0  0  0
  7 21  1  0  0  0  0
  7 22  1  0  0  0  0
  8 16  1  0  0  0  0
  8  9  1  0  0  0  0
  8 23  1  0  0  0  0
  9 10  1  0  0  0  0
  9 24  1  0  0  0  0
  9 25  1  0  0  0  0
 10 15  2  0  0  0  0
 10 11  1  0  0  0  0
 11 12  2  0  0  0  0
 11 26  1  0  0  0  0
 12 13  1  0  0  0  0
 12 27  1  0  0  0  0
 13 14  2  0  0  0  0
 13 28  1  0  0  0  0
 14 15  1  0  0  0  0
 14 29  1  0  0  0  0
 15 16  1  0  0  0  0
 17 18  2  0  0  0  0
 17 30  1  0  0  0  0
 18 19  1  0  0  0  0
M  END
> <s_m_source_file>
AV-unprocessed.smi

> <i_m_source_file_index>
2748

> <i_lp_mmshare_version>
43012

> <i_f3d_flags>
0

> <s_epik_input>
Tz1jMVtuSF1jKD1PKW4oW2NIXWMxQ2wpW0NIMl1bQ0BIXShbQ0gyXTIpT2MoYzIzKVtjSF1bY0hdW2NIXVtjSF0z

> <s_epik_cmdline>
J2VwaWtfcHl0aG9uJywgJy1waCcsICc3LjAnLCAnLXRuJywgJzgnLCAnLW1hJywgJzIwMCcsICctbWV0YWxfYmluZGluZycsICctaW1hZScsICc8aW5maWxlLm1hZT4nLCAnLW9tYWUnLCAnPG91dGZpbGUubWFlPic=

> <r_lp_tautomer_probability>
0.999537

> <r_epik_Ionization_Penalty>
0.0203523

> <r_epik_Ionization_Penalty_Charging>
0.0203523

> <r_epik_Ionization_Penalty_Neutral>
0

> <r_epik_State_Penalty>
0.0163078

> <r_epik_Charging_Adjusted_Penalty>
0.0366602

> <i_epik_Tot_Q>
0

> <i_epik_Tot_abs_Q>
0

> <r_epik_Metal_State_Penalty>
1.99317

> <b_epik_Metal_Only>
0

> <s_lp_Force_Field>
OPLS_2005

> <r_lp_Energy>
20.6728

> <b_lp_Chiralities_Consistent>
1

> <s_lp_Variant>
AV-unprocessed.smi:2748-1

> <Gold.Version>
5.8.1

> <Gold.Id.Protein>
6NUR|6NUR_protein|mol2

> <Gold.PLP.Fitness>
46.3866

> <Gold.PLP.PLP>
-41.8309

> <Gold.PLP.part.hbond>
-1.8330

> <Gold.PLP.part.metal>
0.0000

> <Gold.PLP.part.buried>
-3.5019

> <Gold.PLP.part.nonpolar>
-36.6308

> <Gold.PLP.part.repulsive>
1.4969

> <Gold.PLP.ligand.clash>
0.0000

> <Gold.PLP.ligand.torsion>
0.5588

> <Gold.PLP.Chemscore.Hbond>
0.8938

> <Gold.PLP.Chemscore.CHOScore>
0.9967

> <Gold.PLP.Chemscore.Metal>
0.0000

> <Gold.Chemscore.Hbonds>
donor molecule, donor type, donor heavy atom, donor atom, acceptor molecule, acceptor atom, score
      L1  H     3    20       P1  7948  0.83
      L1  C    17    30       P1  8028  0.98

> <Gold.PLP.Chemscore.Internal.Correction>
0.0020

> <Gold.Rescore>
     Score         DG    S(hbond)    S(metal)    S(lipo)     H(rot)  DE(clash)    DE(int)     intcor
     16.84     -17.59       0.99        0.00     104.02       1.31       0.38       0.37       ----

> <Gold.Chemscore.Fitness>
16.8388

> <Gold.Chemscore.DG>
-17.5873

> <Gold.Chemscore.ZeroCoef>
-5.4800

> <Gold.Chemscore.Hbond>
0.9875

> <Gold.Chemscore.Metal>
0.0000

> <Gold.Chemscore.Lipo>
104.0155

> <Gold.Chemscore.Internal_Hbond>
0.0000

> <Gold.Chemscore.DEClash>
0.3805

> <Gold.Chemscore.DEInternal>
0.3680

> <Gold.Chemscore.Rot>
1.3129

> <Gold.Chemscore.Internal.Correction>
   9.000000E+99

> <Gold.Chemscore.Hbonds>
donor molecule, donor type, donor heavy atom, donor atom, acceptor molecule, acceptor atom, score
      L1  H     3    20       P1  7948  0.80

> <Gold.Chemscore.Hbond.Weighted>
-3.2984

> <Gold.Chemscore.Metal.Weighted>
-0.0000

> <Gold.Chemscore.Lipo.Weighted>
-12.1698

> <Gold.Chemscore.Internal_Hbond.Weighted>
0.0000

> <Gold.Chemscore.DEClash.Weighted>
0.3805

> <Gold.Chemscore.DEInternal.Weighted>
0.3680

> <Gold.Chemscore.Rot.Weighted>
3.3610

> <Gold.Chemscore.Internal.Correction.Weighted>
   9.000000E+99

> <Gold.Protein.RotatedTorsions>
[ 6907 6896 6895 6894 ] final  -14.66 input  -60.11 | X-H torsion
[ 7974 7965 7964 7962 ] final  130.06 input  175.53 | X-H torsion
[ 8008 7997 7996 7995 ] final   73.35 input   59.86 | X-H torsion
[ 10167 10162 10161 10158 ] final -177.55 input  -65.29 | X-H torsion
[ 10718 10713 10712 10709 ] final   59.06 input   66.30 | X-H torsion
[ 10763 10752 10751 10750 ] final -144.88 input  -60.55 | X-H torsion
[ 11005 11000 10999 10996 ] final  128.60 input  -57.11 | X-H torsion

> <Gold.Protein.ActiveResidues>
 VAL166  LYS551  ARG553  GLY616  TRP617  ASP618  TYR619  PRO620  LYS621  CYS622 
 ASP623  PHE694  ASN695  SER759  ASP760  ASP761  ALA762  ILE779  LEU786  VAL792 
 PHE793  MET794  SER795  GLU796  ALA797  LYS798  CYS799  TRP800  GLU811  SER814 

> <Gold.Protein.RotatedAtoms>
  151.3360  135.0852  159.9354 H   0  0  0  0  0  0  0  0  0  0  0  0  # atno 6907 bound_to 6896
  152.5223  133.9495  159.7675 H   0  0  0  0  0  0  0  0  0  0  0  0  # atno 6908 bound_to 6896
  150.9843  133.6160  159.2747 H   0  0  0  0  0  0  0  0  0  0  0  0  # atno 6909 bound_to 6896
  145.0219  139.4124  143.5193 H   0  0  0  0  0  0  0  0  0  0  0  0  # atno 7974 bound_to 7965
  155.7824  140.3481  155.5304 H   0  0  0  0  0  0  0  0  0  0  0  0  # atno 8008 bound_to 7997
  155.8715  140.0987  157.1567 H   0  0  0  0  0  0  0  0  0  0  0  0  # atno 8009 bound_to 7997
  154.4018  140.1339  156.4072 H   0  0  0  0  0  0  0  0  0  0  0  0  # atno 8010 bound_to 7997
  139.5475  144.2198  152.1015 H   0  0  0  0  0  0  0  0  0  0  0  0  # atno 10167 bound_to 10162
  157.5646  130.8861  149.9166 H   0  0  0  0  0  0  0  0  0  0  0  0  # atno 10718 bound_to 10713
  154.8408  135.3428  154.6416 H   0  0  0  0  0  0  0  0  0  0  0  0  # atno 10763 bound_to 10752
  153.7028  135.6968  153.5063 H   0  0  0  0  0  0  0  0  0  0  0  0  # atno 10764 bound_to 10752
  153.2510  135.4353  155.0752 H   0  0  0  0  0  0  0  0  0  0  0  0  # atno 10765 bound_to 10752
  139.9569  134.9611  156.9026 H   0  0  0  0  0  0  0  0  0  0  0  0  # atno 11005 bound_to 11000
  146.3486  139.9721  142.8705 LP  0  0  0  0  0  0  0  0  0  0  0  0  # atno 17320 bound_to 7965
  145.1884  140.9800  143.4225 LP  0  0  0  0  0  0  0  0  0  0  0  0  # atno 17321 bound_to 7965
  140.1687  144.4957  150.6592 LP  0  0  0  0  0  0  0  0  0  0  0  0  # atno 17342 bound_to 10162
  140.6727  143.2292  151.5584 LP  0  0  0  0  0  0  0  0  0  0  0  0  # atno 17343 bound_to 10162
  156.0695  130.3687  150.0805 LP  0  0  0  0  0  0  0  0  0  0  0  0  # atno 17370 bound_to 10713
  156.8965  130.9606  151.3582 LP  0  0  0  0  0  0  0  0  0  0  0  0  # atno 17371 bound_to 10713
  140.5588  134.0555  155.7392 LP  0  0  0  0  0  0  0  0  0  0  0  0  # atno 17394 bound_to 11000
  141.1242  133.9411  157.2669 LP  0  0  0  0  0  0  0  0  0  0  0  0  # atno 17395 bound_to 11000

$$$$
