AV-unprocessed.smi:1307|AV-procd|sdf|5436|dock7
  -GOLD-   22720 5 03D 1   1.00000     0.00000
 Structure written by MMmdl.
 41 41  0  0  0  0  0  0  0  0  1 V2000
  147.7317  139.2831  153.4425 C   0  0  0  0  0  0  0  0  0  0  0  0
  148.7126  140.4523  153.6459 C   0  0  0  0  0  0  0  0  0  0  0  0
  150.1595  139.9300  153.5431 C   0  0  0  0  0  0  0  0  0  0  0  0
  148.4479  141.2169  154.9717 C   0  0  2  0  0  0  0  0  0  0  0  0
  147.0349  141.8192  155.0565 C   0  0  0  0  0  0  0  0  0  0  0  0
  149.4107  142.3055  155.1423 N   0  0  0  0  0  0  0  0  0  0  0  0
  150.5284  142.2642  155.8841 C   0  0  0  0  0  0  0  0  0  0  0  0
  150.8837  141.2720  156.5220 O   0  0  0  0  0  0  0  0  0  0  0  0
  151.3792  143.5451  155.8758 C   0  0  0  0  0  0  0  0  0  0  0  0
  152.5299  143.5081  156.8134 N   0  0  0  0  0  0  0  0  0  0  0  0
  152.6592  144.5098  157.8262 C   0  0  0  0  0  0  0  0  0  0  0  0
  151.6298  145.6473  157.9002 C   0  0  0  0  0  0  0  0  0  0  0  0
  151.9227  146.4987  158.8843 F   0  0  0  0  0  0  0  0  0  0  0  0
  151.5933  146.3648  156.7776 F   0  0  0  0  0  0  0  0  0  0  0  0
  150.4118  145.1676  158.1541 F   0  0  0  0  0  0  0  0  0  0  0  0
  153.6982  144.4667  158.6804 C   0  0  0  0  0  0  0  0  0  0  0  0
  154.6712  143.4141  158.5837 C   0  0  0  0  0  0  0  0  0  0  0  0
  154.5670  142.4629  157.6281 C   0  0  0  0  0  0  0  0  0  0  0  0
  155.5441  141.3592  157.4888 C   0  0  0  0  0  0  0  0  0  0  0  0
  156.0989  140.9672  158.6428 N   0  0  0  0  0  0  0  0  0  0  0  0
  155.8813  140.7947  156.4480 O   0  0  0  0  0  0  0  0  0  0  0  0
  153.4387  142.4840  156.6618 C   0  0  0  0  0  0  0  0  0  0  0  0
  153.2902  141.6538  155.7596 O   0  0  0  0  0  0  0  0  0  0  0  0
  147.7812  138.5760  154.2711 H   0  0  0  0  0  0  0  0  0  0  0  0
  147.9578  138.7356  152.5270 H   0  0  0  0  0  0  0  0  0  0  0  0
  146.7016  139.6269  153.3559 H   0  0  0  0  0  0  0  0  0  0  0  0
  148.5645  141.1480  152.8188 H   0  0  0  0  0  0  0  0  0  0  0  0
  150.4033  139.2736  154.3789 H   0  0  0  0  0  0  0  0  0  0  0  0
  150.8860  140.7426  153.5349 H   0  0  0  0  0  0  0  0  0  0  0  0
  150.3094  139.3646  152.6229 H   0  0  0  0  0  0  0  0  0  0  0  0
  148.5469  140.5070  155.7947 H   0  0  0  0  0  0  0  0  0  0  0  0
  146.2652  141.0482  155.0635 H   0  0  0  0  0  0  0  0  0  0  0  0
  146.8354  142.4862  154.2172 H   0  0  0  0  0  0  0  0  0  0  0  0
  146.9115  142.3957  155.9742 H   0  0  0  0  0  0  0  0  0  0  0  0
  149.2091  143.1641  154.6509 H   0  0  0  0  0  0  0  0  0  0  0  0
  151.6759  143.7522  154.8519 H   0  0  0  0  0  0  0  0  0  0  0  0
  150.7267  144.3889  156.1082 H   0  0  0  0  0  0  0  0  0  0  0  0
  153.8216  145.2188  159.4454 H   0  0  0  0  0  0  0  0  0  0  0  0
  155.4771  143.4210  159.3026 H   0  0  0  0  0  0  0  0  0  0  0  0
  156.7736  140.2163  158.6509 H   0  0  0  0  0  0  0  0  0  0  0  0
  155.8339  141.4233  159.5038 H   0  0  0  0  0  0  0  0  0  0  0  0
  1  2  1  0  0  0  0
  1 24  1  0  0  0  0
  1 25  1  0  0  0  0
  1 26  1  0  0  0  0
  2  3  1  0  0  0  0
  2  4  1  0  0  0  0
  2 27  1  0  0  0  0
  3 28  1  0  0  0  0
  3 29  1  0  0  0  0
  3 30  1  0  0  0  0
  4  5  1  0  0  0  0
  4  6  1  0  0  0  0
  4 31  1  0  0  0  0
  5 32  1  0  0  0  0
  5 33  1  0  0  0  0
  5 34  1  0  0  0  0
  6  7  1  0  0  0  0
  6 35  1  0  0  0  0
  7  8  2  0  0  0  0
  7  9  1  0  0  0  0
  9 10  1  0  0  0  0
  9 36  1  0  0  0  0
  9 37  1  0  0  0  0
 10 22  1  0  0  0  0
 10 11  1  0  0  0  0
 11 12  1  0  0  0  0
 11 16  2  0  0  0  0
 12 13  1  0  0  0  0
 12 14  1  0  0  0  0
 12 15  1  0  0  0  0
 16 17  1  0  0  0  0
 16 38  1  0  0  0  0
 17 18  2  0  0  0  0
 17 39  1  0  0  0  0
 18 19  1  0  0  0  0
 18 22  1  0  0  0  0
 19 20  1  0  0  0  0
 19 21  2  0  0  0  0
 20 40  1  0  0  0  0
 20 41  1  0  0  0  0
 22 23  2  0  0  0  0
M  END
> <s_m_source_file>
AV-unprocessed.smi

> <i_m_source_file_index>
1307

> <i_lp_mmshare_version>
43012

> <i_f3d_flags>
0

> <s_epik_input>
W0NIM11bQ0hdKFtDSDNdKVtDQEhdKFtDSDNdKVtOSF1DKD1PKVtDSDJdbjFjKEMoRikoRilGKVtjSF1bY0hdYyhjMT1PKUMoPU8pW05IMl0=

> <s_epik_cmdline>
J2VwaWtfcHl0aG9uJywgJy1waCcsICc3LjAnLCAnLXRuJywgJzgnLCAnLW1hJywgJzIwMCcsICctbWV0YWxfYmluZGluZycsICctaW1hZScsICc8aW5maWxlLm1hZT4nLCAnLW9tYWUnLCAnPG91dGZpbGUubWFlPic=

> <r_lp_tautomer_probability>
1

> <r_epik_Ionization_Penalty>
2.05992e-06

> <r_epik_Ionization_Penalty_Charging>
8.21357e-10

> <r_epik_Ionization_Penalty_Neutral>
2.0591e-06

> <r_epik_State_Penalty>
-0

> <r_epik_Charging_Adjusted_Penalty>
8.21357e-10

> <i_epik_Tot_Q>
0

> <i_epik_Tot_abs_Q>
0

> <r_epik_Metal_State_Penalty>
-0

> <b_epik_Metal_Only>
0

> <s_lp_Force_Field>
OPLS_2005

> <r_lp_Energy>
26.4012

> <b_lp_Chiralities_Consistent>
1

> <s_lp_Variant>
AV-unprocessed.smi:1307-1

> <Gold.Version>
5.8.1

> <Gold.Id.Protein>
6NUR|6NUR_protein|mol2

> <Gold.PLP.Fitness>
52.6748

> <Gold.PLP.PLP>
-48.9386

> <Gold.PLP.part.hbond>
-3.0000

> <Gold.PLP.part.metal>
0.0000

> <Gold.PLP.part.buried>
-3.9420

> <Gold.PLP.part.nonpolar>
-41.9830

> <Gold.PLP.part.repulsive>
0.1262

> <Gold.PLP.ligand.clash>
3.9753

> <Gold.PLP.ligand.torsion>
0.7429

> <Gold.PLP.Chemscore.Hbond>
1.7196

> <Gold.PLP.Chemscore.CHOScore>
0.0000

> <Gold.PLP.Chemscore.Metal>
0.0000

> <Gold.Chemscore.Hbonds>
donor molecule, donor type, donor heavy atom, donor atom, acceptor molecule, acceptor atom, score
      L1  H     6    35       P1  8028  0.40

> <Gold.PLP.Chemscore.Internal.Correction>
4.0386

> <Gold.Rescore>
     Score         DG    S(hbond)    S(metal)    S(lipo)     H(rot)  DE(clash)    DE(int)     intcor
      7.64     -13.64       0.82        0.00      89.62       1.97       0.35       5.66       ----

> <Gold.Chemscore.Fitness>
7.6354

> <Gold.Chemscore.DG>
-13.6422

> <Gold.Chemscore.ZeroCoef>
-5.4800

> <Gold.Chemscore.Hbond>
0.8161

> <Gold.Chemscore.Metal>
0.0000

> <Gold.Chemscore.Lipo>
89.6189

> <Gold.Chemscore.Internal_Hbond>
0.0000

> <Gold.Chemscore.DEClash>
0.3511

> <Gold.Chemscore.DEInternal>
5.6556

> <Gold.Chemscore.Rot>
1.9723

> <Gold.Chemscore.Internal.Correction>
   9.000000E+99

> <Gold.Chemscore.Hbonds>
donor molecule, donor type, donor heavy atom, donor atom, acceptor molecule, acceptor atom, score
      L1  H     6    35       P1  8028  0.40

> <Gold.Chemscore.Hbond.Weighted>
-2.7257

> <Gold.Chemscore.Metal.Weighted>
-0.0000

> <Gold.Chemscore.Lipo.Weighted>
-10.4854

> <Gold.Chemscore.Internal_Hbond.Weighted>
0.0000

> <Gold.Chemscore.DEClash.Weighted>
0.3511

> <Gold.Chemscore.DEInternal.Weighted>
5.6556

> <Gold.Chemscore.Rot.Weighted>
5.0490

> <Gold.Chemscore.Internal.Correction.Weighted>
   9.000000E+99

> <Gold.Protein.RotatedTorsions>
[ 6907 6896 6895 6894 ] final -172.71 input  -60.11 | X-H torsion
[ 7974 7965 7964 7962 ] final  -61.15 input  175.53 | X-H torsion
[ 8008 7997 7996 7995 ] final   47.13 input   59.86 | X-H torsion
[ 10167 10162 10161 10158 ] final  -29.23 input  -65.29 | X-H torsion
[ 10718 10713 10712 10709 ] final  -36.09 input   66.30 | X-H torsion
[ 10763 10752 10751 10750 ] final  -75.08 input  -60.55 | X-H torsion
[ 11005 11000 10999 10996 ] final  -20.14 input  -57.11 | X-H torsion

> <Gold.Protein.ActiveResidues>
 VAL166  LYS551  ARG553  GLY616  TRP617  ASP618  TYR619  PRO620  LYS621  CYS622 
 ASP623  PHE694  ASN695  SER759  ASP760  ASP761  ALA762  ILE779  LEU786  VAL792 
 PHE793  MET794  SER795  GLU796  ALA797  LYS798  CYS799  TRP800  GLU811  SER814 

> <Gold.Protein.RotatedAtoms>
  151.5444  133.3427  159.2941 H   0  0  0  0  0  0  0  0  0  0  0  0  # atno 6907 bound_to 6896
  150.8516  134.7845  159.7024 H   0  0  0  0  0  0  0  0  0  0  0  0  # atno 6908 bound_to 6896
  152.4560  134.5298  159.9859 H   0  0  0  0  0  0  0  0  0  0  0  0  # atno 6909 bound_to 6896
  145.8070  140.8621  143.0202 H   0  0  0  0  0  0  0  0  0  0  0  0  # atno 7974 bound_to 7965
  155.3639  140.3420  155.4241 H   0  0  0  0  0  0  0  0  0  0  0  0  # atno 8008 bound_to 7997
  156.1699  140.1628  156.8500 H   0  0  0  0  0  0  0  0  0  0  0  0  # atno 8009 bound_to 7997
  154.5222  140.0764  156.8176 H   0  0  0  0  0  0  0  0  0  0  0  0  # atno 8010 bound_to 7997
  140.7262  143.3945  151.1371 H   0  0  0  0  0  0  0  0  0  0  0  0  # atno 10167 bound_to 10162
  156.3309  130.4279  149.7873 H   0  0  0  0  0  0  0  0  0  0  0  0  # atno 10718 bound_to 10713
  154.4817  135.5843  153.6394 H   0  0  0  0  0  0  0  0  0  0  0  0  # atno 10763 bound_to 10752
  152.9848  135.6091  154.3237 H   0  0  0  0  0  0  0  0  0  0  0  0  # atno 10764 bound_to 10752
  154.3129  135.2845  155.2536 H   0  0  0  0  0  0  0  0  0  0  0  0  # atno 10765 bound_to 10752
  140.8435  133.7909  155.9887 H   0  0  0  0  0  0  0  0  0  0  0  0  # atno 11005 bound_to 11000
  144.6762  140.0340  143.7482 LP  0  0  0  0  0  0  0  0  0  0  0  0  # atno 17320 bound_to 7965
  145.9818  139.2947  143.1037 LP  0  0  0  0  0  0  0  0  0  0  0  0  # atno 17321 bound_to 7965
  139.7556  143.8713  152.3088 LP  0  0  0  0  0  0  0  0  0  0  0  0  # atno 17342 bound_to 10162
  139.8581  144.7131  150.9132 LP  0  0  0  0  0  0  0  0  0  0  0  0  # atno 17343 bound_to 10162
  156.5146  130.8187  151.3181 LP  0  0  0  0  0  0  0  0  0  0  0  0  # atno 17370 bound_to 10713
  157.7430  130.9903  150.2559 LP  0  0  0  0  0  0  0  0  0  0  0  0  # atno 17371 bound_to 10713
  140.8869  134.2543  157.5115 LP  0  0  0  0  0  0  0  0  0  0  0  0  # atno 17394 bound_to 11000
  139.8703  134.9642  156.4488 LP  0  0  0  0  0  0  0  0  0  0  0  0  # atno 17395 bound_to 11000

$$$$
