AV-unprocessed.smi:1492|AV-procd|sdf|6040|dock5
  -GOLD-   22720 6153D 1   1.00000     0.00000
 Structure written by MMmdl.
 52 53  0  0  0  0  0  0  0  0  1 V2000
  146.6490  139.0959  153.7895 C   0  0  0  0  0  0  0  0  0  0  0  0
  148.0597  138.6935  154.2576 C   0  0  0  0  0  0  0  0  0  0  0  0
  148.7026  139.5699  155.3791 C   0  0  1  0  0  0  0  0  0  0  0  0
  148.6177  141.0618  154.9573 C   0  0  0  0  0  0  0  0  0  0  0  0
  147.8502  139.4358  156.6792 C   0  0  0  0  0  0  0  0  0  0  0  0
  148.0859  138.1561  157.3426 N   0  0  0  0  0  0  0  0  0  0  0  0
  147.4436  137.6967  158.4257 C   0  0  0  0  0  0  0  0  0  0  0  0
  146.6750  138.3733  159.1081 O   0  0  0  0  0  0  0  0  0  0  0  0
  147.6760  136.2234  158.7557 C   0  0  0  0  0  0  0  0  0  0  0  0
  146.7861  135.6843  159.8747 C   0  0  0  0  0  0  0  0  0  0  0  0
  145.9121  134.6617  159.6946 C   0  0  0  0  0  0  0  0  0  0  0  0
  145.6986  133.9384  158.3768 C   0  0  0  0  0  0  0  0  0  0  0  0
  145.1443  134.1832  160.7414 N   0  0  0  0  0  0  0  0  0  0  0  0
  145.3088  134.7674  161.9860 C   0  0  0  0  0  0  0  0  0  0  0  0
  144.4477  134.1497  163.0657 C   0  0  0  0  0  0  0  0  0  0  0  0
  146.1163  135.7466  162.2583 N   0  0  0  0  0  0  0  0  0  0  0  0
  146.9084  136.2775  161.2280 C   0  0  0  0  0  0  0  0  0  0  0  0
  147.6873  137.2019  161.4573 O   0  0  0  0  0  0  0  0  0  0  0  0
  150.1238  139.1944  155.6419 N   0  0  0  0  0  0  0  0  0  0  0  0
  150.9559  139.0180  154.4456 C   0  0  0  0  0  0  0  0  0  0  0  0
  152.3494  138.4689  154.7919 C   0  0  0  0  0  0  0  0  0  0  0  0
  152.9897  139.3371  155.7190 O   0  0  0  0  0  0  0  0  0  0  0  0
  152.2408  139.5031  156.9170 C   0  0  0  0  0  0  0  0  0  0  0  0
  150.8433  140.0558  156.5872 C   0  0  0  0  0  0  0  0  0  0  0  0
  144.5119  133.4158  160.5653 H   0  0  0  0  0  0  0  0  0  0  0  0
  146.3090  138.4248  153.0006 H   0  0  0  0  0  0  0  0  0  0  0  0
  146.6254  140.1054  153.3805 H   0  0  0  0  0  0  0  0  0  0  0  0
  145.9173  139.0357  154.5944 H   0  0  0  0  0  0  0  0  0  0  0  0
  148.0048  137.6556  154.5848 H   0  0  0  0  0  0  0  0  0  0  0  0
  148.7009  138.6915  153.3767 H   0  0  0  0  0  0  0  0  0  0  0  0
  147.5975  141.4433  155.0018 H   0  0  0  0  0  0  0  0  0  0  0  0
  148.9614  141.2182  153.9345 H   0  0  0  0  0  0  0  0  0  0  0  0
  149.2203  141.6977  155.6073 H   0  0  0  0  0  0  0  0  0  0  0  0
  148.1121  140.2115  157.3985 H   0  0  0  0  0  0  0  0  0  0  0  0
  146.7909  139.5895  156.4695 H   0  0  0  0  0  0  0  0  0  0  0  0
  148.7025  137.5155  156.8639 H   0  0  0  0  0  0  0  0  0  0  0  0
  147.5532  135.6291  157.8493 H   0  0  0  0  0  0  0  0  0  0  0  0
  148.7224  136.0931  159.0320 H   0  0  0  0  0  0  0  0  0  0  0  0
  146.6325  133.4949  158.0313 H   0  0  0  0  0  0  0  0  0  0  0  0
  145.3397  134.6301  157.6146 H   0  0  0  0  0  0  0  0  0  0  0  0
  144.9649  133.1371  158.4725 H   0  0  0  0  0  0  0  0  0  0  0  0
  144.5813  134.6690  164.0154 H   0  0  0  0  0  0  0  0  0  0  0  0
  144.7147  133.1023  163.2095 H   0  0  0  0  0  0  0  0  0  0  0  0
  143.3938  134.2059  162.7916 H   0  0  0  0  0  0  0  0  0  0  0  0
  150.4915  138.3320  153.7405 H   0  0  0  0  0  0  0  0  0  0  0  0
  151.0769  139.9688  153.9263 H   0  0  0  0  0  0  0  0  0  0  0  0
  152.2744  137.4667  155.2131 H   0  0  0  0  0  0  0  0  0  0  0  0
  152.9615  138.3927  153.8933 H   0  0  0  0  0  0  0  0  0  0  0  0
  152.1632  138.5499  157.4408 H   0  0  0  0  0  0  0  0  0  0  0  0
  152.7732  140.1876  157.5773 H   0  0  0  0  0  0  0  0  0  0  0  0
  150.9502  141.0606  156.1791 H   0  0  0  0  0  0  0  0  0  0  0  0
  150.2973  140.1502  157.5241 H   0  0  0  0  0  0  0  0  0  0  0  0
  1  2  1  0  0  0  0
  1 26  1  0  0  0  0
  1 27  1  0  0  0  0
  1 28  1  0  0  0  0
  2  3  1  0  0  0  0
  2 29  1  0  0  0  0
  2 30  1  0  0  0  0
  3  4  1  0  0  0  0
  3  5  1  0  0  0  0
  3 19  1  0  0  0  0
  4 31  1  0  0  0  0
  4 32  1  0  0  0  0
  4 33  1  0  0  0  0
  5  6  1  0  0  0  0
  5 34  1  0  0  0  0
  5 35  1  0  0  0  0
  6  7  1  0  0  0  0
  6 36  1  0  0  0  0
  7  8  2  0  0  0  0
  7  9  1  0  0  0  0
  9 37  1  0  0  0  0
  9 38  1  0  0  0  0
  9 10  1  0  0  0  0
 10 17  1  0  0  0  0
 10 11  2  0  0  0  0
 11 12  1  0  0  0  0
 11 13  1  0  0  0  0
 12 39  1  0  0  0  0
 12 40  1  0  0  0  0
 12 41  1  0  0  0  0
 13 25  1  0  0  0  0
 13 14  1  0  0  0  0
 14 15  1  0  0  0  0
 14 16  2  0  0  0  0
 15 42  1  0  0  0  0
 15 43  1  0  0  0  0
 15 44  1  0  0  0  0
 16 17  1  0  0  0  0
 17 18  2  0  0  0  0
 19 24  1  0  0  0  0
 19 20  1  0  0  0  0
 20 21  1  0  0  0  0
 20 45  1  0  0  0  0
 20 46  1  0  0  0  0
 21 22  1  0  0  0  0
 21 47  1  0  0  0  0
 21 48  1  0  0  0  0
 22 23  1  0  0  0  0
 23 24  1  0  0  0  0
 23 49  1  0  0  0  0
 23 50  1  0  0  0  0
 24 51  1  0  0  0  0
 24 52  1  0  0  0  0
M  END
> <s_m_source_file>
AV-unprocessed.smi

> <i_m_source_file_index>
1492

> <i_lp_mmshare_version>
43012

> <i_f3d_flags>
0

> <s_epik_input>
W0NIMl0xW0NIMl1PW0NIMl1bQ0gyXU4xW0NAQF0oW0NIM10pKFtDSDJdW0NIM10pW0NIMl1bTkhdQyg9TylbQ0gyXWMyYyhbQ0gzXSluYyhbQ0gzXSlbbkhdYzI9Tw==

> <s_epik_cmdline>
J2VwaWtfcHl0aG9uJywgJy1waCcsICc3LjAnLCAnLXRuJywgJzgnLCAnLW1hJywgJzIwMCcsICctbWV0YWxfYmluZGluZycsICctaW1hZScsICc8aW5maWxlLm1hZT4nLCAnLW9tYWUnLCAnPG91dGZpbGUubWFlPic=

> <r_lp_tautomer_probability>
0.156392

> <r_epik_Ionization_Penalty>
0.342516

> <r_epik_Ionization_Penalty_Charging>
0.0141408

> <r_epik_Ionization_Penalty_Neutral>
0.328375

> <r_epik_State_Penalty>
1.47662

> <r_epik_Charging_Adjusted_Penalty>
1.49076

> <i_epik_Tot_Q>
0

> <i_epik_Tot_abs_Q>
0

> <r_epik_Metal_State_Penalty>
1.65506

> <b_epik_Metal_Only>
0

> <s_lp_Force_Field>
OPLS_2005

> <r_lp_Energy>
46.8903

> <b_lp_Chiralities_Consistent>
1

> <s_lp_Variant>
AV-unprocessed.smi:1492-5

> <Gold.Version>
5.8.1

> <Gold.Id.Protein>
6NUR|6NUR_protein|mol2

> <Gold.PLP.Fitness>
35.5425

> <Gold.PLP.PLP>
-27.8154

> <Gold.PLP.part.hbond>
-4.0000

> <Gold.PLP.part.metal>
0.0000

> <Gold.PLP.part.buried>
-3.8001

> <Gold.PLP.part.nonpolar>
-19.7471

> <Gold.PLP.part.repulsive>
0.0663

> <Gold.PLP.ligand.clash>
0.0000

> <Gold.PLP.ligand.torsion>
0.3933

> <Gold.PLP.Chemscore.Hbond>
2.7920

> <Gold.PLP.Chemscore.CHOScore>
0.0000

> <Gold.PLP.Chemscore.Metal>
0.0000

> <Gold.Chemscore.Hbonds>
donor molecule, donor type, donor heavy atom, donor atom, acceptor molecule, acceptor atom, score
      P1  H  6931  6943       L1    18  0.99
      P1  H  6934  6947       L1    18  0.78
      P1  H  7997  8010       L1    22  1.00

> <Gold.PLP.Chemscore.Internal.Correction>
0.1376

> <Gold.Rescore>
     Score         DG    S(hbond)    S(metal)    S(lipo)     H(rot)  DE(clash)    DE(int)     intcor
     13.40     -16.15       2.73        0.00      59.56       2.12       0.19       2.57       ----

> <Gold.Chemscore.Fitness>
13.3994

> <Gold.Chemscore.DG>
-16.1544

> <Gold.Chemscore.ZeroCoef>
-5.4800

> <Gold.Chemscore.Hbond>
2.7311

> <Gold.Chemscore.Metal>
0.0000

> <Gold.Chemscore.Lipo>
59.5576

> <Gold.Chemscore.Internal_Hbond>
0.0000

> <Gold.Chemscore.DEClash>
0.1889

> <Gold.Chemscore.DEInternal>
2.5661

> <Gold.Chemscore.Rot>
2.1155

> <Gold.Chemscore.Internal.Correction>
   9.000000E+99

> <Gold.Chemscore.Hbonds>
donor molecule, donor type, donor heavy atom, donor atom, acceptor molecule, acceptor atom, score
      P1  H  6931  6943       L1    18  0.94
      P1  H  6934  6947       L1    18  0.75
      P1  H  7997  8010       L1    22  0.50

> <Gold.Chemscore.Hbond.Weighted>
-9.1219

> <Gold.Chemscore.Metal.Weighted>
-0.0000

> <Gold.Chemscore.Lipo.Weighted>
-6.9682

> <Gold.Chemscore.Internal_Hbond.Weighted>
0.0000

> <Gold.Chemscore.DEClash.Weighted>
0.1889

> <Gold.Chemscore.DEInternal.Weighted>
2.5661

> <Gold.Chemscore.Rot.Weighted>
5.4157

> <Gold.Chemscore.Internal.Correction.Weighted>
   9.000000E+99

> <Gold.Protein.RotatedTorsions>
[ 6907 6896 6895 6894 ] final  116.63 input  -60.11 | X-H torsion
[ 7974 7965 7964 7962 ] final -120.26 input  175.53 | X-H torsion
[ 8008 7997 7996 7995 ] final   99.04 input   59.86 | X-H torsion
[ 10167 10162 10161 10158 ] final -100.69 input  -65.29 | X-H torsion
[ 10718 10713 10712 10709 ] final   24.89 input   66.30 | X-H torsion
[ 10763 10752 10751 10750 ] final   30.52 input  -60.55 | X-H torsion
[ 11005 11000 10999 10996 ] final  -98.45 input  -57.11 | X-H torsion

> <Gold.Protein.ActiveResidues>
 VAL166  LYS551  ARG553  GLY616  TRP617  ASP618  TYR619  PRO620  LYS621  CYS622 
 ASP623  PHE694  ASN695  SER759  ASP760  ASP761  ALA762  ILE779  LEU786  VAL792 
 PHE793  MET794  SER795  GLU796  ALA797  LYS798  CYS799  TRP800  GLU811  SER814 

> <Gold.Protein.RotatedAtoms>
  152.4665  133.7935  159.6914 H   0  0  0  0  0  0  0  0  0  0  0  0  # atno 6907 bound_to 6896
  150.8632  133.7603  159.2992 H   0  0  0  0  0  0  0  0  0  0  0  0  # atno 6908 bound_to 6896
  151.5161  135.1069  159.9918 H   0  0  0  0  0  0  0  0  0  0  0  0  # atno 6909 bound_to 6896
  145.0533  140.8235  143.4196 H   0  0  0  0  0  0  0  0  0  0  0  0  # atno 7974 bound_to 7965
  156.1065  140.3234  155.8014 H   0  0  0  0  0  0  0  0  0  0  0  0  # atno 8008 bound_to 7997
  155.4746  140.0549  157.2992 H   0  0  0  0  0  0  0  0  0  0  0  0  # atno 8009 bound_to 7997
  154.4731  140.2020  155.9959 H   0  0  0  0  0  0  0  0  0  0  0  0  # atno 8010 bound_to 7997
  140.2492  143.3484  152.0730 H   0  0  0  0  0  0  0  0  0  0  0  0  # atno 10167 bound_to 10162
  157.1859  130.6824  149.6131 H   0  0  0  0  0  0  0  0  0  0  0  0  # atno 10718 bound_to 10713
  153.0367  135.6462  154.1057 H   0  0  0  0  0  0  0  0  0  0  0  0  # atno 10763 bound_to 10752
  154.0770  135.2876  155.3299 H   0  0  0  0  0  0  0  0  0  0  0  0  # atno 10764 bound_to 10752
  154.6556  135.5410  153.8018 H   0  0  0  0  0  0  0  0  0  0  0  0  # atno 10765 bound_to 10752
  141.1344  133.8246  157.0841 H   0  0  0  0  0  0  0  0  0  0  0  0  # atno 11005 bound_to 11000
  145.1499  139.2520  143.5446 LP  0  0  0  0  0  0  0  0  0  0  0  0  # atno 17320 bound_to 7965
  146.3519  140.1199  142.8600 LP  0  0  0  0  0  0  0  0  0  0  0  0  # atno 17321 bound_to 7965
  139.5052  144.6789  151.6058 LP  0  0  0  0  0  0  0  0  0  0  0  0  # atno 17342 bound_to 10162
  140.6053  143.9535  150.6414 LP  0  0  0  0  0  0  0  0  0  0  0  0  # atno 17343 bound_to 10162
  155.9718  130.4631  150.6169 LP  0  0  0  0  0  0  0  0  0  0  0  0  # atno 17370 bound_to 10713
  157.3907  131.0795  151.1396 LP  0  0  0  0  0  0  0  0  0  0  0  0  # atno 17371 bound_to 10713
  140.0433  134.9843  157.1002 LP  0  0  0  0  0  0  0  0  0  0  0  0  # atno 17394 bound_to 11000
  140.4101  134.1990  155.7163 LP  0  0  0  0  0  0  0  0  0  0  0  0  # atno 17395 bound_to 11000

$$$$
