AV-unprocessed.smi:2602|AV-procd|sdf|10184|dock2
  -GOLD-   2272014193D 1   1.00000     0.00000
 Structure written by MMmdl.
 46 47  0  0  0  0  0  0  0  0  1 V2000
  151.2069  141.5512  157.5627 C   0  0  0  0  0  0  0  0  0  0  0  0
  151.7001  140.2175  157.6539 O   0  0  0  0  0  0  0  0  0  0  0  0
  151.6833  139.4431  156.5438 C   0  0  0  0  0  0  0  0  0  0  0  0
  152.8905  139.1100  156.0844 N   0  0  0  0  0  0  0  0  0  0  0  0
  152.9269  138.3415  154.9762 C   0  0  0  0  0  0  0  0  0  0  0  0
  151.7504  137.9084  154.3320 C   0  0  0  0  0  0  0  0  0  0  0  0
  150.5193  138.3115  154.8954 C   0  0  0  0  0  0  0  0  0  0  0  0
  149.3519  137.8618  154.2240 N   0  0  0  0  0  0  0  0  0  0  0  0
  148.0704  138.1414  154.5184 C   0  0  0  0  0  0  0  0  0  0  0  0
  147.6934  138.8304  155.4666 O   0  0  0  0  0  0  0  0  0  0  0  0
  147.2354  137.5752  153.6345 N   0  0  0  0  0  0  0  0  0  0  0  0
  145.7779  137.7086  153.6247 C   0  0  0  0  0  0  0  0  0  0  0  0
  145.0438  136.3473  153.8312 C   0  0  0  0  0  0  0  0  0  0  0  0
  145.7323  135.1748  153.0534 C   0  0  0  0  0  0  0  0  0  0  0  0
  146.2673  134.2792  153.7121 O   0  0  0  0  0  0  0  0  0  0  0  0
  145.7782  135.1308  151.6939 N   0  0  0  0  0  0  0  0  0  0  0  0
  146.5207  134.0524  151.0330 C   0  0  0  0  0  0  0  0  0  0  0  0
  145.1756  136.0658  150.7382 C   0  0  0  0  0  0  0  0  0  0  0  0
  144.9958  136.0574  155.3583 C   0  0  0  0  0  0  0  0  0  0  0  0
  143.8110  135.1187  155.6070 C   0  0  0  0  0  0  0  0  0  0  0  0
  142.8488  135.3608  154.4426 C   0  0  0  0  0  0  0  0  0  0  0  0
  143.5232  136.4010  153.5372 C   0  0  0  0  0  0  0  0  0  0  0  0
  150.5077  139.0843  156.0090 N   0  0  0  0  0  0  0  0  0  0  0  0
  151.2943  142.0354  158.5352 H   0  0  0  0  0  0  0  0  0  0  0  0
  150.1537  141.5693  157.2775 H   0  0  0  0  0  0  0  0  0  0  0  0
  151.7810  142.1419  156.8471 H   0  0  0  0  0  0  0  0  0  0  0  0
  153.9016  138.0695  154.5989 H   0  0  0  0  0  0  0  0  0  0  0  0
  151.7971  137.2944  153.4446 H   0  0  0  0  0  0  0  0  0  0  0  0
  149.5115  137.2733  153.4199 H   0  0  0  0  0  0  0  0  0  0  0  0
  147.6397  137.0254  152.8906 H   0  0  0  0  0  0  0  0  0  0  0  0
  145.5227  138.3852  154.4407 H   0  0  0  0  0  0  0  0  0  0  0  0
  145.4510  138.2369  152.7326 H   0  0  0  0  0  0  0  0  0  0  0  0
  147.5561  134.0286  151.3770 H   0  0  0  0  0  0  0  0  0  0  0  0
  146.5484  134.1684  149.9486 H   0  0  0  0  0  0  0  0  0  0  0  0
  146.0654  133.0846  151.2481 H   0  0  0  0  0  0  0  0  0  0  0  0
  144.4645  136.7713  151.1535 H   0  0  0  0  0  0  0  0  0  0  0  0
  144.6375  135.5146  149.9662 H   0  0  0  0  0  0  0  0  0  0  0  0
  145.9569  136.6440  150.2444 H   0  0  0  0  0  0  0  0  0  0  0  0
  145.9265  135.6581  155.7638 H   0  0  0  0  0  0  0  0  0  0  0  0
  144.8093  136.9841  155.9033 H   0  0  0  0  0  0  0  0  0  0  0  0
  144.1416  134.0794  155.6061 H   0  0  0  0  0  0  0  0  0  0  0  0
  143.3437  135.3114  156.5732 H   0  0  0  0  0  0  0  0  0  0  0  0
  142.6904  134.4299  153.8967 H   0  0  0  0  0  0  0  0  0  0  0  0
  141.8734  135.7075  154.7851 H   0  0  0  0  0  0  0  0  0  0  0  0
  143.1383  137.3914  153.7839 H   0  0  0  0  0  0  0  0  0  0  0  0
  143.2483  136.2107  152.5021 H   0  0  0  0  0  0  0  0  0  0  0  0
  1  2  1  0  0  0  0
  1 24  1  0  0  0  0
  1 25  1  0  0  0  0
  1 26  1  0  0  0  0
  2  3  1  0  0  0  0
  3 23  1  0  0  0  0
  3  4  2  0  0  0  0
  4  5  1  0  0  0  0
  5  6  2  0  0  0  0
  5 27  1  0  0  0  0
  6  7  1  0  0  0  0
  6 28  1  0  0  0  0
  7  8  1  0  0  0  0
  7 23  2  0  0  0  0
  8  9  1  0  0  0  0
  8 29  1  0  0  0  0
  9 10  2  0  0  0  0
  9 11  1  0  0  0  0
 11 12  1  0  0  0  0
 11 30  1  0  0  0  0
 12 13  1  0  0  0  0
 12 31  1  0  0  0  0
 12 32  1  0  0  0  0
 13 22  1  0  0  0  0
 13 14  1  0  0  0  0
 13 19  1  0  0  0  0
 14 15  2  0  0  0  0
 14 16  1  0  0  0  0
 16 17  1  0  0  0  0
 16 18  1  0  0  0  0
 17 33  1  0  0  0  0
 17 34  1  0  0  0  0
 17 35  1  0  0  0  0
 18 36  1  0  0  0  0
 18 37  1  0  0  0  0
 18 38  1  0  0  0  0
 19 20  1  0  0  0  0
 19 39  1  0  0  0  0
 19 40  1  0  0  0  0
 20 21  1  0  0  0  0
 20 41  1  0  0  0  0
 20 42  1  0  0  0  0
 21 22  1  0  0  0  0
 21 43  1  0  0  0  0
 21 44  1  0  0  0  0
 22 45  1  0  0  0  0
 22 46  1  0  0  0  0
M  END
> <s_m_source_file>
AV-unprocessed.smi

> <i_m_source_file_index>
2602

> <i_lp_mmshare_version>
43012

> <i_f3d_flags>
0

> <s_epik_input>
W0NIM11PYzFuW2NIXVtjSF1jKG4xKVtOSF1DKD1PKVtOSF1bQ0gyXUMyKEMoPU8pTihbQ0gzXSlbQ0gzXSlbQ0gyXVtDSDJdW0NIMl1bQ0gyXTI=

> <s_epik_cmdline>
J2VwaWtfcHl0aG9uJywgJy1waCcsICc3LjAnLCAnLXRuJywgJzgnLCAnLW1hJywgJzIwMCcsICctbWV0YWxfYmluZGluZycsICctaW1hZScsICc8aW5maWxlLm1hZT4nLCAnLW9tYWUnLCAnPG91dGZpbGUubWFlPic=

> <r_lp_tautomer_probability>
1

> <r_epik_Ionization_Penalty>
0.00154328

> <r_epik_Ionization_Penalty_Charging>
0

> <r_epik_Ionization_Penalty_Neutral>
0.00154328

> <r_epik_State_Penalty>
-0

> <r_epik_Charging_Adjusted_Penalty>
0

> <i_epik_Tot_Q>
0

> <i_epik_Tot_abs_Q>
0

> <r_epik_Metal_State_Penalty>
-0

> <b_epik_Metal_Only>
0

> <s_lp_Force_Field>
OPLS_2005

> <r_lp_Energy>
36.1441

> <b_lp_Chiralities_Consistent>
1

> <s_lp_Variant>
AV-unprocessed.smi:2602-1

> <Gold.Version>
5.8.1

> <Gold.Id.Protein>
6NUR|6NUR_protein|mol2

> <Gold.PLP.Fitness>
42.2026

> <Gold.PLP.PLP>
-33.7642

> <Gold.PLP.part.hbond>
-3.0000

> <Gold.PLP.part.metal>
0.0000

> <Gold.PLP.part.buried>
-5.6882

> <Gold.PLP.part.nonpolar>
-25.0383

> <Gold.PLP.part.repulsive>
0.2731

> <Gold.PLP.ligand.clash>
0.0000

> <Gold.PLP.ligand.torsion>
0.3845

> <Gold.PLP.Chemscore.Hbond>
3.0000

> <Gold.PLP.Chemscore.CHOScore>
0.0000

> <Gold.PLP.Chemscore.Metal>
0.0000

> <Gold.Chemscore.Hbonds>
donor molecule, donor type, donor heavy atom, donor atom, acceptor molecule, acceptor atom, score
      L1  H     8    29       P1  7948  1.00
      L1  H    11    30       P1  7948  1.00
      P1  H  7997  8010       L1     4  1.00

> <Gold.PLP.Chemscore.Internal.Correction>
0.2075

> <Gold.Rescore>
     Score         DG    S(hbond)    S(metal)    S(lipo)     H(rot)  DE(clash)    DE(int)     intcor
     14.26     -16.11       2.74        0.00      54.32       1.91       0.09       1.76       ----

> <Gold.Chemscore.Fitness>
14.2557

> <Gold.Chemscore.DG>
-16.1115

> <Gold.Chemscore.ZeroCoef>
-5.4800

> <Gold.Chemscore.Hbond>
2.7420

> <Gold.Chemscore.Metal>
0.0000

> <Gold.Chemscore.Lipo>
54.3228

> <Gold.Chemscore.Internal_Hbond>
0.0000

> <Gold.Chemscore.DEClash>
0.0910

> <Gold.Chemscore.DEInternal>
1.7648

> <Gold.Chemscore.Rot>
1.9072

> <Gold.Chemscore.Internal.Correction>
   9.000000E+99

> <Gold.Chemscore.Hbonds>
donor molecule, donor type, donor heavy atom, donor atom, acceptor molecule, acceptor atom, score
      L1  H     8    29       P1  7948  0.86
      L1  H    11    30       P1  7948  0.99
      P1  H  7997  8010       L1     4  0.94

> <Gold.Chemscore.Hbond.Weighted>
-9.1581

> <Gold.Chemscore.Metal.Weighted>
-0.0000

> <Gold.Chemscore.Lipo.Weighted>
-6.3558

> <Gold.Chemscore.Internal_Hbond.Weighted>
0.0000

> <Gold.Chemscore.DEClash.Weighted>
0.0910

> <Gold.Chemscore.DEInternal.Weighted>
1.7648

> <Gold.Chemscore.Rot.Weighted>
4.8824

> <Gold.Chemscore.Internal.Correction.Weighted>
   9.000000E+99

> <Gold.Protein.RotatedTorsions>
[ 6907 6896 6895 6894 ] final -101.03 input  -60.11 | X-H torsion
[ 7974 7965 7964 7962 ] final  139.77 input  175.53 | X-H torsion
[ 8008 7997 7996 7995 ] final   68.28 input   59.86 | X-H torsion
[ 10167 10162 10161 10158 ] final  -37.91 input  -65.29 | X-H torsion
[ 10718 10713 10712 10709 ] final  -45.07 input   66.30 | X-H torsion
[ 10763 10752 10751 10750 ] final  -54.56 input  -60.55 | X-H torsion
[ 11005 11000 10999 10996 ] final  176.29 input  -57.11 | X-H torsion

> <Gold.Protein.ActiveResidues>
 VAL166  LYS551  ARG553  GLY616  TRP617  ASP618  TYR619  PRO620  LYS621  CYS622 
 ASP623  PHE694  ASN695  SER759  ASP760  ASP761  ALA762  ILE779  LEU786  VAL792 
 PHE793  MET794  SER795  GLU796  ALA797  LYS798  CYS799  TRP800  GLU811  SER814 

> <Gold.Protein.RotatedAtoms>
  150.7139  134.0796  159.3892 H   0  0  0  0  0  0  0  0  0  0  0  0  # atno 6907 bound_to 6896
  151.8779  135.0462  160.0495 H   0  0  0  0  0  0  0  0  0  0  0  0  # atno 6908 bound_to 6896
  152.2591  133.5246  159.5407 H   0  0  0  0  0  0  0  0  0  0  0  0  # atno 6909 bound_to 6896
  144.9248  139.5121  143.5646 H   0  0  0  0  0  0  0  0  0  0  0  0  # atno 7974 bound_to 7965
  155.7059  140.3495  155.4953 H   0  0  0  0  0  0  0  0  0  0  0  0  # atno 8008 bound_to 7997
  155.9399  140.1099  157.1086 H   0  0  0  0  0  0  0  0  0  0  0  0  # atno 8009 bound_to 7997
  154.4100  140.1215  156.4899 H   0  0  0  0  0  0  0  0  0  0  0  0  # atno 8010 bound_to 7997
  140.7106  143.3311  151.2567 H   0  0  0  0  0  0  0  0  0  0  0  0  # atno 10167 bound_to 10162
  156.2321  130.4173  149.8862 H   0  0  0  0  0  0  0  0  0  0  0  0  # atno 10718 bound_to 10713
  154.1769  135.6450  153.5024 H   0  0  0  0  0  0  0  0  0  0  0  0  # atno 10763 bound_to 10752
  153.0069  135.5396  154.6555 H   0  0  0  0  0  0  0  0  0  0  0  0  # atno 10764 bound_to 10752
  154.5909  135.2934  155.0609 H   0  0  0  0  0  0  0  0  0  0  0  0  # atno 10765 bound_to 10752
  140.3716  134.7025  157.4395 H   0  0  0  0  0  0  0  0  0  0  0  0  # atno 11005 bound_to 11000
  146.3221  139.8155  142.8937 LP  0  0  0  0  0  0  0  0  0  0  0  0  # atno 17320 bound_to 7965
  145.3237  141.0250  143.3486 LP  0  0  0  0  0  0  0  0  0  0  0  0  # atno 17321 bound_to 7965
  139.6793  143.9882  152.2799 LP  0  0  0  0  0  0  0  0  0  0  0  0  # atno 17342 bound_to 10162
  139.9507  144.6622  150.8175 LP  0  0  0  0  0  0  0  0  0  0  0  0  # atno 17343 bound_to 10162
  156.6473  130.8729  151.3525 LP  0  0  0  0  0  0  0  0  0  0  0  0  # atno 17370 bound_to 10713
  157.7138  130.9472  150.1181 LP  0  0  0  0  0  0  0  0  0  0  0  0  # atno 17371 bound_to 10713
  140.0548  134.6080  155.8819 LP  0  0  0  0  0  0  0  0  0  0  0  0  # atno 17394 bound_to 11000
  141.1953  133.6586  156.5635 LP  0  0  0  0  0  0  0  0  0  0  0  0  # atno 17395 bound_to 11000

$$$$
