#       Name:                AV-unprocessed.smi:1204
#       Creating user name   scv26
#       Creation time:       Fri Mar 27 04:06:15 2020


#       File generated by GOLD software.
#

@<TRIPOS>MOLECULE
AV-unprocessed.smi:1204
    34    35     1
SMALL
NO_CHARGES


@<TRIPOS>ATOM
      1 ****        -0.7168   1.8796   0.6212 O.2            1 S1                 0.0000
      2 ****        -0.0731   0.8424   0.4564 C.2            1 S1                 0.0000
      3 ****        -0.6250  -0.3798   0.3290 N.am           1 S1                 0.0000
      4 ****        -2.0003  -0.7335   0.3296 C.ar           1 S1                 0.0000
      5 ****        -2.2631  -2.1123   0.1649 C.ar           1 S1                 0.0000
      6 ****        -3.5959  -2.5672   0.1524 C.ar           1 S1                 0.0000
      7 ****        -4.6332  -1.6303   0.3054 C.ar           1 S1                 0.0000
      8 ****        -4.2853  -0.2761   0.4640 C.ar           1 S1                 0.0000
      9 ****        -3.0086   0.1621   0.4762 N.ar           1 S1                 0.0000
     10 ****         1.4621   0.8920   0.4152 C.3            1 S1                 0.0000
     11 ****         2.0072   2.2620  -0.0516 C.3            1 S1                 0.0000
     12 ****         3.4276   2.2134  -0.0962 O.3            1 S1                 0.0000
     13 ****         3.8844   1.2106  -0.9927 C.3            1 S1                 0.0000
     14 ****         3.3554  -0.1546  -0.5245 C.3            1 S1                 0.0000
     15 ****         1.9355  -0.1107  -0.4820 O.3            1 S1                 0.0000
     16 ****         0.0216  -1.1455   0.2069 H              1 S1                 0.0000
     17 ****        -1.4538  -2.8187   0.0487 H              1 S1                 0.0000
     18 ****        -3.8173  -3.6169   0.0279 H              1 S1                 0.0000
     19 ****        -5.6677  -1.9405   0.3012 H              1 S1                 0.0000
     20 ****        -5.0515   0.4752   0.5848 H              1 S1                 0.0000
     21 ****         1.8249   0.6745   1.4213 H              1 S1                 0.0000
     22 ****         1.6121   2.5323  -1.0327 H              1 S1                 0.0000
     23 ****         1.7149   3.0515   0.6416 H              1 S1                 0.0000
     24 ****         3.5510   1.4308  -2.0081 H              1 S1                 0.0000
     25 ****         4.9743   1.2119  -1.0038 H              1 S1                 0.0000
     26 ****         3.6665  -0.9392  -1.2142 H              1 S1                 0.0000
     27 ****         3.7551  -0.4117   0.4578 H              1 S1                 0.0000
     28 ****        -1.7152   1.8463   0.6679 LP             1 S1                 0.0000
     29 ****        -0.2411   2.7548   0.7084 LP             1 S1                 0.0000
     30 ****        -2.8086   1.1350   0.5919 LP             1 S1                 0.0000
     31 ****         3.7751   2.0135   0.8200 LP             1 S1                 0.0000
     32 ****         3.7741   3.1016  -0.3977 LP             1 S1                 0.0000
     33 ****         1.5903   0.0871  -1.3994 LP             1 S1                 0.0000
     34 ****         1.5931  -1.0011  -0.1818 LP             1 S1                 0.0000
@<TRIPOS>BOND
    1    1    2 2     
    2    2    3 am    
    3    2   10 1     
    4    3    4 1     
    5    3   16 1     
    6    4    9 ar    
    7    4    5 ar    
    8    5    6 ar    
    9    5   17 1     
   10    6    7 ar    
   11    6   18 1     
   12    7    8 ar    
   13    7   19 1     
   14    8    9 ar    
   15    8   20 1     
   16   10   15 1     
   17   10   11 1     
   18   10   21 1     
   19   11   12 1     
   20   11   22 1     
   21   11   23 1     
   22   12   13 1     
   23   13   14 1     
   24   13   24 1     
   25   13   25 1     
   26   14   15 1     
   27   14   26 1     
   28   14   27 1     
   29    1   28 1     
   30    1   29 1     
   31    9   30 1     
   32   12   31 1     
   33   12   32 1     
   34   15   33 1     
   35   15   34 1     
@<TRIPOS>SUBSTRUCTURE
      1 S1             1
@<TRIPOS>SET
LONE_PAIRS      STATIC     ATOMS    <user>   **** ""
7 28 29 30 31 32 33 34
DONOR_HYDROGENS      STATIC     ATOMS    <user>   **** ""
1 16
ATOM$BLUE        STATIC     ATOMS    COLORGROUP SYSTEM
7 28 29 30 31 32 33 34
ATOM$RED        STATIC     ATOMS    COLORGROUP SYSTEM
1 16
