#       Name:                AV-unprocessed.smi:3058
#       Creating user name   scv26
#       Creation time:       Fri Mar 27 17:07:26 2020


#       File generated by GOLD software.
#

@<TRIPOS>MOLECULE
AV-unprocessed.smi:3058
    41    43     1
SMALL
NO_CHARGES


@<TRIPOS>ATOM
      1 ****        -0.1315   1.1591  -0.6467 O.2            1 S1                 0.0000
      2 ****        -0.5600   0.3629   0.1892 C.2            1 S1                 0.0000
      3 ****         0.2421  -0.3711   0.9760 N.am           1 S1                 0.0000
      4 ****         1.6993  -0.3355   0.9541 C.3            1 S1                 0.0000
      5 ****         2.2693  -1.1524  -0.2174 C.3            1 S1                 0.0000
      6 ****         3.7852  -1.1450  -0.2339 C.ar           1 S1                 0.0000
      7 ****         4.4949  -0.0525  -0.7735 C.ar           1 S1                 0.0000
      8 ****         5.9025  -0.0869  -0.7642 C.ar           1 S1                 0.0000
      9 ****         6.5420  -1.2164  -0.2153 C.ar           1 S1                 0.0000
     10 ****         5.8727  -2.2681   0.3044 N.ar           1 S1                 0.0000
     11 ****         4.5229  -2.2267   0.2925 C.ar           1 S1                 0.0000
     12 ****        -2.0724   0.1570   0.3837 C.3            1 S1                 0.0000
     13 ****        -2.7860  -0.3706  -0.8855 C.3            1 S1                 0.0000
     14 ****        -3.9105   0.6586  -1.1123 C.3            1 S1                 0.0000
     15 ****        -4.9591   0.5295   0.0093 C.3            1 S1                 0.0000
     16 ****        -4.2290   1.1278   1.2276 C.3            1 S1                 0.0000
     17 ****        -2.8431   1.4752   0.6515 C.3            1 S1                 0.0000
     18 ****        -3.2205   1.9650  -0.7465 C.3            1 S1                 0.0000
     19 ****        -0.1892  -0.9996   1.6383 H              1 S1                 0.0000
     20 ****         2.0452   0.6986   0.9064 H              1 S1                 0.0000
     21 ****         2.0612  -0.7404   1.8996 H              1 S1                 0.0000
     22 ****         1.9154  -2.1828  -0.1620 H              1 S1                 0.0000
     23 ****         1.9105  -0.7558  -1.1681 H              1 S1                 0.0000
     24 ****         3.9709   0.7976  -1.1855 H              1 S1                 0.0000
     25 ****         6.4785   0.7324  -1.1683 H              1 S1                 0.0000
     26 ****         7.6202  -1.2764  -0.1930 H              1 S1                 0.0000
     27 ****         4.0180  -3.0818   0.7173 H              1 S1                 0.0000
     28 ****        -2.2238  -0.5360   1.2134 H              1 S1                 0.0000
     29 ****        -2.1211  -0.3998  -1.7505 H              1 S1                 0.0000
     30 ****        -3.1785  -1.3784  -0.7448 H              1 S1                 0.0000
     31 ****        -4.3366   0.6275  -2.1156 H              1 S1                 0.0000
     32 ****        -5.8539   1.1082  -0.2235 H              1 S1                 0.0000
     33 ****        -5.2624  -0.5053   0.1725 H              1 S1                 0.0000
     34 ****        -4.7391   2.0273   1.5748 H              1 S1                 0.0000
     35 ****        -4.1740   0.4326   2.0662 H              1 S1                 0.0000
     36 ****        -2.2937   2.2003   1.2535 H              1 S1                 0.0000
     37 ****        -2.3697   2.1983  -1.3872 H              1 S1                 0.0000
     38 ****        -3.8966   2.8218  -0.7360 H              1 S1                 0.0000
     39 ****         0.8543   1.2808  -0.7620 LP             1 S1                 0.0000
     40 ****        -0.7694   1.6841  -1.2103 LP             1 S1                 0.0000
     41 ****         6.3613  -3.0527   0.6860 LP             1 S1                 0.0000
@<TRIPOS>BOND
    1    1    2 2     
    2    2    3 am    
    3    2   12 1     
    4    3    4 1     
    5    3   19 1     
    6    4    5 1     
    7    4   20 1     
    8    4   21 1     
    9    5    6 1     
   10    5   22 1     
   11    5   23 1     
   12    6   11 ar    
   13    6    7 ar    
   14    7    8 ar    
   15    7   24 1     
   16    8    9 ar    
   17    8   25 1     
   18    9   10 ar    
   19    9   26 1     
   20   10   11 ar    
   21   11   27 1     
   22   12   17 1     
   23   12   13 1     
   24   12   28 1     
   25   13   14 1     
   26   13   29 1     
   27   13   30 1     
   28   14   18 1     
   29   14   15 1     
   30   14   31 1     
   31   15   16 1     
   32   15   32 1     
   33   15   33 1     
   34   16   17 1     
   35   16   34 1     
   36   16   35 1     
   37   17   18 1     
   38   17   36 1     
   39   18   37 1     
   40   18   38 1     
   41    1   39 1     
   42    1   40 1     
   43   10   41 1     
@<TRIPOS>SUBSTRUCTURE
      1 S1             1
@<TRIPOS>SET
LONE_PAIRS      STATIC     ATOMS    <user>   **** ""
3 39 40 41
DONOR_HYDROGENS      STATIC     ATOMS    <user>   **** ""
1 19
ATOM$BLUE        STATIC     ATOMS    COLORGROUP SYSTEM
3 39 40 41
ATOM$RED        STATIC     ATOMS    COLORGROUP SYSTEM
1 19
