AV-unprocessed.smi:561|AV-procd|sdf|2943|dock10
  -GOLD-   2262023443D 1   1.00000     0.00000
 Structure written by MMmdl.
 35 36  0  0  0  0  0  0  0  0  2 V2000
  151.4378  138.4733  154.8425 C   0  0  0  0  0  0  0  0  0  0  0  0
  151.5971  139.8815  155.4329 C   0  0  1  0  0  0  0  0  0  0  0  0
  150.2879  140.3631  156.1055 C   0  0  0  0  0  0  0  0  0  0  0  0
  149.1376  140.4068  155.2086 N   0  0  0  0  0  0  0  0  0  0  0  0
  148.4240  141.5331  154.8112 C   0  0  0  0  0  0  0  0  0  0  0  0
  147.4179  141.0930  153.9816 C   0  0  0  0  0  0  0  0  0  0  0  0
  147.4815  139.7069  153.8613 N   0  0  0  0  0  0  0  0  0  0  0  0
  148.5215  139.3723  154.6148 C   0  0  0  0  0  0  0  0  0  0  0  0
  152.6789  139.8620  156.4234 N   0  5  0  0  0  0  0  0  0  0  0  0
  152.5156  139.7760  157.7760 C   0  0  0  0  0  0  0  0  0  0  0  0
  152.3705  138.7357  158.4321 O   0  0  0  0  0  0  0  0  0  0  0  0
  152.5163  141.0490  158.5549 C   0  0  0  0  0  0  0  0  0  0  0  0
  151.9052  142.0821  158.0654 N   0  0  0  0  0  0  0  0  0  0  0  0
  151.8745  143.2997  158.7138 N   0  0  0  0  0  0  0  0  0  0  0  0
  151.3899  144.3963  157.8757 C   0  0  0  0  0  0  0  0  0  0  0  0
  152.2303  143.4880  160.0103 C   0  0  0  0  0  0  0  0  0  0  0  0
  152.2192  144.5800  160.5790 O   0  0  0  0  0  0  0  0  0  0  0  0
  152.6358  142.2369  160.7941 C   0  0  0  0  0  0  0  0  0  0  0  0
  153.2406  141.1486  159.8868 C   0  0  0  0  0  0  0  0  0  0  0  0
  150.6423  138.4497  154.0975 H   0  0  0  0  0  0  0  0  0  0  0  0
  151.1924  137.7417  155.6134 H   0  0  0  0  0  0  0  0  0  0  0  0
  152.3551  138.1469  154.3514 H   0  0  0  0  0  0  0  0  0  0  0  0
  151.8084  140.5597  154.6043 H   0  0  0  0  0  0  0  0  0  0  0  0
  150.0362  139.7006  156.9347 H   0  0  0  0  0  0  0  0  0  0  0  0
  150.4246  141.3547  156.5397 H   0  0  0  0  0  0  0  0  0  0  0  0
  148.6925  142.5264  155.1392 H   0  0  0  0  0  0  0  0  0  0  0  0
  146.6568  141.6628  153.4695 H   0  0  0  0  0  0  0  0  0  0  0  0
  148.8450  138.3494  154.7390 H   0  0  0  0  0  0  0  0  0  0  0  0
  151.3134  145.3510  158.3975 H   0  0  0  0  0  0  0  0  0  0  0  0
  150.3993  144.1601  157.4850 H   0  0  0  0  0  0  0  0  0  0  0  0
  152.0589  144.5406  157.0265 H   0  0  0  0  0  0  0  0  0  0  0  0
  153.3351  142.5000  161.5884 H   0  0  0  0  0  0  0  0  0  0  0  0
  151.7391  141.8504  161.2800 H   0  0  0  0  0  0  0  0  0  0  0  0
  153.1958  140.2019  160.4264 H   0  0  0  0  0  0  0  0  0  0  0  0
  154.2970  141.3524  159.7082 H   0  0  0  0  0  0  0  0  0  0  0  0
  1  2  1  0  0  0  0
  1 20  1  0  0  0  0
  1 21  1  0  0  0  0
  1 22  1  0  0  0  0
  2  3  1  0  0  0  0
  2  9  1  0  0  0  0
  2 23  1  0  0  0  0
  3  4  1  0  0  0  0
  3 24  1  0  0  0  0
  3 25  1  0  0  0  0
  4  8  1  0  0  0  0
  4  5  1  0  0  0  0
  5  6  2  0  0  0  0
  5 26  1  0  0  0  0
  6  7  1  0  0  0  0
  6 27  1  0  0  0  0
  7  8  2  0  0  0  0
  8 28  1  0  0  0  0
  9 10  1  0  0  0  0
 10 11  2  0  0  0  0
 10 12  1  0  0  0  0
 12 19  1  0  0  0  0
 12 13  2  0  0  0  0
 13 14  1  0  0  0  0
 14 15  1  0  0  0  0
 14 16  1  0  0  0  0
 15 29  1  0  0  0  0
 15 30  1  0  0  0  0
 15 31  1  0  0  0  0
 16 17  2  0  0  0  0
 16 18  1  0  0  0  0
 18 19  1  0  0  0  0
 18 32  1  0  0  0  0
 18 33  1  0  0  0  0
 19 34  1  0  0  0  0
 19 35  1  0  0  0  0
M  CHG  1   9  -1
M  END
> <s_m_source_file>
AV-unprocessed.smi

> <i_m_source_file_index>
561

> <i_lp_mmshare_version>
43012

> <i_f3d_flags>
0

> <s_epik_input>
W2NIXTFuW2NIXVtjSF1uMVtDSDJdW0NAQEhdKFtDSDNdKVtOSF1DKD1PKUMyPU5OKFtDSDNdKUMoPU8pW0NIMl1bQ0gyXTI=

> <s_epik_cmdline>
J2VwaWtfcHl0aG9uJywgJy1waCcsICc3LjAnLCAnLXRuJywgJzgnLCAnLW1hJywgJzIwMCcsICctbWV0YWxfYmluZGluZycsICctaW1hZScsICc8aW5maWxlLm1hZT4nLCAnLW9tYWUnLCAnPG91dGZpbGUubWFlPic=

> <r_lp_tautomer_probability>
1

> <r_epik_Ionization_Penalty>
6.06239

> <r_epik_Ionization_Penalty_Charging>
6.06239

> <r_epik_Ionization_Penalty_Neutral>
3.91387e-09

> <r_epik_State_Penalty>
5.76729

> <r_epik_Charging_Adjusted_Penalty>
11.8297

> <i_epik_Tot_Q>
-1

> <i_epik_Tot_abs_Q>
1

> <r_epik_Metal_State_Penalty>
2.02369

> <b_epik_Metal_Only>
1

> <s_epik_Chemistry_Notes>
This compound has an imine and may undergo hydrolysis.

> <s_lp_Force_Field>
OPLS_2005

> <r_lp_Energy>
27.3289

> <b_lp_Chiralities_Consistent>
1

> <s_lp_Variant>
AV-unprocessed.smi:561-8

> <Gold.Version>
5.8.1

> <Gold.Id.Protein>
6NUR|6NUR_protein|mol2

> <Gold.PLP.Fitness>
45.1659

> <Gold.PLP.PLP>
-39.5638

> <Gold.PLP.part.hbond>
-1.0000

> <Gold.PLP.part.metal>
0.0000

> <Gold.PLP.part.buried>
-0.8350

> <Gold.PLP.part.nonpolar>
-36.8516

> <Gold.PLP.part.repulsive>
0.8872

> <Gold.PLP.ligand.clash>
0.0000

> <Gold.PLP.ligand.torsion>
1.7206

> <Gold.PLP.Chemscore.Hbond>
2.0000

> <Gold.PLP.Chemscore.CHOScore>
1.0000

> <Gold.PLP.Chemscore.Metal>
0.0000

> <Gold.Chemscore.Hbonds>
donor molecule, donor type, donor heavy atom, donor atom, acceptor molecule, acceptor atom, score
      P1  H  7997  8009       L1     9  2.00
      L1  C     5    26       P1  8028  1.00

> <Gold.PLP.Chemscore.Internal.Correction>
0.0434

> <Gold.Rescore>
     Score         DG    S(hbond)    S(metal)    S(lipo)     H(rot)  DE(clash)    DE(int)     intcor
     11.23     -13.21       0.89        0.00      77.32       1.68       0.10       1.88       ----

> <Gold.Chemscore.Fitness>
11.2327

> <Gold.Chemscore.DG>
-13.2110

> <Gold.Chemscore.ZeroCoef>
-5.4800

> <Gold.Chemscore.Hbond>
0.8936

> <Gold.Chemscore.Metal>
0.0000

> <Gold.Chemscore.Lipo>
77.3177

> <Gold.Chemscore.Internal_Hbond>
0.0000

> <Gold.Chemscore.DEClash>
0.0990

> <Gold.Chemscore.DEInternal>
1.8793

> <Gold.Chemscore.Rot>
1.6796

> <Gold.Chemscore.Internal.Correction>
   9.000000E+99

> <Gold.Chemscore.Hbonds>
donor molecule, donor type, donor heavy atom, donor atom, acceptor molecule, acceptor atom, score
      P1  H  7997  8009       L1     9  0.26

> <Gold.Chemscore.Hbond.Weighted>
-2.9845

> <Gold.Chemscore.Metal.Weighted>
-0.0000

> <Gold.Chemscore.Lipo.Weighted>
-9.0462

> <Gold.Chemscore.Internal_Hbond.Weighted>
0.0000

> <Gold.Chemscore.DEClash.Weighted>
0.0990

> <Gold.Chemscore.DEInternal.Weighted>
1.8793

> <Gold.Chemscore.Rot.Weighted>
4.2997

> <Gold.Chemscore.Internal.Correction.Weighted>
   9.000000E+99

> <Gold.Protein.RotatedTorsions>
[ 6907 6896 6895 6894 ] final  153.22 input  -60.11 | X-H torsion
[ 7974 7965 7964 7962 ] final -123.65 input  175.53 | X-H torsion
[ 8008 7997 7996 7995 ] final -163.38 input   59.86 | X-H torsion
[ 10167 10162 10161 10158 ] final -110.39 input  -65.29 | X-H torsion
[ 10718 10713 10712 10709 ] final  168.82 input   66.30 | X-H torsion
[ 10763 10752 10751 10750 ] final  -80.17 input  -60.55 | X-H torsion
[ 11005 11000 10999 10996 ] final  -53.57 input  -57.11 | X-H torsion

> <Gold.Protein.ActiveResidues>
 VAL166  LYS551  ARG553  GLY616  TRP617  ASP618  TYR619  PRO620  LYS621  CYS622 
 ASP623  PHE694  ASN695  SER759  ASP760  ASP761  ALA762  ILE779  LEU786  VAL792 
 PHE793  MET794  SER795  GLU796  ALA797  LYS798  CYS799  TRP800  GLU811  SER814 

> <Gold.Protein.RotatedAtoms>
  152.0758  133.4128  159.4478 H   0  0  0  0  0  0  0  0  0  0  0  0  # atno 6907 bound_to 6896
  150.6863  134.3039  159.4727 H   0  0  0  0  0  0  0  0  0  0  0  0  # atno 6908 bound_to 6896
  152.0876  134.9428  160.0623 H   0  0  0  0  0  0  0  0  0  0  0  0  # atno 6909 bound_to 6896
  145.0164  140.7950  143.4407 H   0  0  0  0  0  0  0  0  0  0  0  0  # atno 7974 bound_to 7965
  155.8204  140.0919  157.1852 H   0  0  0  0  0  0  0  0  0  0  0  0  # atno 8008 bound_to 7997
  154.3979  140.1438  156.3553 H   0  0  0  0  0  0  0  0  0  0  0  0  # atno 8009 bound_to 7997
  155.8272  140.3444  155.5552 H   0  0  0  0  0  0  0  0  0  0  0  0  # atno 8010 bound_to 7997
  140.1450  143.4247  152.1535 H   0  0  0  0  0  0  0  0  0  0  0  0  # atno 10167 bound_to 10162
  157.0316  131.0261  151.2742 H   0  0  0  0  0  0  0  0  0  0  0  0  # atno 10718 bound_to 10713
  154.5479  135.5670  153.6896 H   0  0  0  0  0  0  0  0  0  0  0  0  # atno 10763 bound_to 10752
  152.9981  135.6243  154.2414 H   0  0  0  0  0  0  0  0  0  0  0  0  # atno 10764 bound_to 10752
  154.2348  135.2864  155.2856 H   0  0  0  0  0  0  0  0  0  0  0  0  # atno 10765 bound_to 10752
  141.0983  133.6621  156.4192 H   0  0  0  0  0  0  0  0  0  0  0  0  # atno 11005 bound_to 11000
  145.1954  139.2279  143.5221 LP  0  0  0  0  0  0  0  0  0  0  0  0  # atno 17320 bound_to 7965
  146.3478  140.1759  142.8589 LP  0  0  0  0  0  0  0  0  0  0  0  0  # atno 17321 bound_to 7965
  139.5453  144.7293  151.4602 LP  0  0  0  0  0  0  0  0  0  0  0  0  # atno 17342 bound_to 10162
  140.6737  143.8236  150.7032 LP  0  0  0  0  0  0  0  0  0  0  0  0  # atno 17343 bound_to 10162
  157.5173  130.7976  149.7770 LP  0  0  0  0  0  0  0  0  0  0  0  0  # atno 17370 bound_to 10713
  156.0067  130.3852  150.2405 LP  0  0  0  0  0  0  0  0  0  0  0  0  # atno 17371 bound_to 10713
  140.5086  134.6417  157.5276 LP  0  0  0  0  0  0  0  0  0  0  0  0  # atno 17394 bound_to 11000
  139.9826  134.7113  155.9832 LP  0  0  0  0  0  0  0  0  0  0  0  0  # atno 17395 bound_to 11000

$$$$
