AV-unprocessed.smi:110|AV-procd|sdf|1067|dock7
  -GOLD-   2262018143D 1   1.00000     0.00000
 Structure written by MMmdl.
 46 50  0  0  0  0  0  0  0  0  1 V2000
  145.4571  141.9540  155.6550 O   0  0  0  0  0  0  0  0  0  0  0  0
  145.5784  142.5014  154.3598 C   0  0  0  0  0  0  0  0  0  0  0  0
  146.8674  141.9953  153.6930 C   0  0  1  0  0  0  0  0  0  0  0  0
  147.9676  142.3127  154.5423 O   0  0  0  0  0  0  0  0  0  0  0  0
  148.8919  141.2795  154.4966 C   0  0  1  0  0  0  0  0  0  0  0  0
  149.7380  141.3282  155.7253 N   0  0  0  0  0  0  0  0  0  0  0  0
  149.5574  142.0586  156.8790 C   0  0  0  0  0  0  0  0  0  0  0  0
  150.4735  141.8852  157.7934 N   0  0  0  0  0  0  0  0  0  0  0  0
  151.3596  140.9757  157.2257 C   0  0  0  0  0  0  0  0  0  0  0  0
  152.5649  140.3480  157.6532 C   0  0  0  0  0  0  0  0  0  0  0  0
  153.1577  140.5535  158.8529 N   0  0  0  0  0  0  0  0  0  0  0  0
  153.9662  139.4842  159.4558 C   0  0  0  0  0  0  0  0  0  0  0  0
  154.1256  139.8114  160.9524 C   0  0  0  0  0  0  0  0  0  0  0  0
  153.4914  141.1634  161.0170 C   0  0  0  0  0  0  0  0  0  0  0  0
  153.4200  142.0178  162.1310 C   0  0  0  0  0  0  0  0  0  0  0  0
  152.7953  143.2726  161.9672 C   0  0  0  0  0  0  0  0  0  0  0  0
  152.2692  143.6503  160.7099 C   0  0  0  0  0  0  0  0  0  0  0  0
  152.3540  142.7759  159.6042 C   0  0  0  0  0  0  0  0  0  0  0  0
  152.9602  141.5148  159.7798 C   0  0  0  0  0  0  0  0  0  0  0  0
  153.1307  139.4405  156.8162 N   0  0  0  0  0  0  0  0  0  0  0  0
  152.5826  139.1906  155.6238 C   0  0  0  0  0  0  0  0  0  0  0  0
  151.4815  139.7171  155.0848 N   0  0  0  0  0  0  0  0  0  0  0  0
  150.8923  140.6088  155.9322 C   0  0  0  0  0  0  0  0  0  0  0  0
  148.0689  139.9954  154.3918 C   0  0  1  0  0  0  0  0  0  0  0  0
  147.6169  139.5248  155.6490 O   0  0  0  0  0  0  0  0  0  0  0  0
  146.9000  140.4584  153.5295 C   0  0  2  0  0  0  0  0  0  0  0  0
  147.1484  140.1366  152.1741 O   0  0  0  0  0  0  0  0  0  0  0  0
  147.0108  142.4833  152.7267 H   0  0  0  0  0  0  0  0  0  0  0  0
  149.5768  141.4246  153.6596 H   0  0  0  0  0  0  0  0  0  0  0  0
  148.6638  139.2091  153.9249 H   0  0  0  0  0  0  0  0  0  0  0  0
  145.9641  139.9801  153.8232 H   0  0  0  0  0  0  0  0  0  0  0  0
  146.2406  141.4624  155.8486 H   0  0  0  0  0  0  0  0  0  0  0  0
  144.6995  142.2624  153.7600 H   0  0  0  0  0  0  0  0  0  0  0  0
  145.6120  143.5856  154.4702 H   0  0  0  0  0  0  0  0  0  0  0  0
  148.7194  142.7243  157.0257 H   0  0  0  0  0  0  0  0  0  0  0  0
  153.4959  138.5101  159.3141 H   0  0  0  0  0  0  0  0  0  0  0  0
  154.9410  139.4587  158.9671 H   0  0  0  0  0  0  0  0  0  0  0  0
  153.5812  139.1082  161.5835 H   0  0  0  0  0  0  0  0  0  0  0  0
  155.1703  139.8448  161.2623 H   0  0  0  0  0  0  0  0  0  0  0  0
  153.8365  141.7251  163.0834 H   0  0  0  0  0  0  0  0  0  0  0  0
  152.7267  143.9514  162.8045 H   0  0  0  0  0  0  0  0  0  0  0  0
  151.8040  144.6178  160.5924 H   0  0  0  0  0  0  0  0  0  0  0  0
  151.9658  143.0795  158.6435 H   0  0  0  0  0  0  0  0  0  0  0  0
  153.1004  138.4649  155.0144 H   0  0  0  0  0  0  0  0  0  0  0  0
  148.0959  139.9765  156.3268 H   0  0  0  0  0  0  0  0  0  0  0  0
  148.0690  139.9488  152.0719 H   0  0  0  0  0  0  0  0  0  0  0  0
  1  2  1  0  0  0  0
  1 32  1  0  0  0  0
  2  3  1  0  0  0  0
  2 33  1  0  0  0  0
  2 34  1  0  0  0  0
  3 28  1  0  0  0  0
  3 26  1  0  0  0  0
  3  4  1  0  0  0  0
  4  5  1  0  0  0  0
  5 29  1  0  0  0  0
  5  6  1  0  0  0  0
  5 24  1  0  0  0  0
  6 23  1  0  0  0  0
  6  7  1  0  0  0  0
  7  8  2  0  0  0  0
  7 35  1  0  0  0  0
  8  9  1  0  0  0  0
  9 23  2  0  0  0  0
  9 10  1  0  0  0  0
 10 11  1  0  0  0  0
 10 20  2  0  0  0  0
 11 19  1  0  0  0  0
 11 12  1  0  0  0  0
 12 13  1  0  0  0  0
 12 36  1  0  0  0  0
 12 37  1  0  0  0  0
 13 14  1  0  0  0  0
 13 38  1  0  0  0  0
 13 39  1  0  0  0  0
 14 19  2  0  0  0  0
 14 15  1  0  0  0  0
 15 16  2  0  0  0  0
 15 40  1  0  0  0  0
 16 17  1  0  0  0  0
 16 41  1  0  0  0  0
 17 18  2  0  0  0  0
 17 42  1  0  0  0  0
 18 19  1  0  0  0  0
 18 43  1  0  0  0  0
 20 21  1  0  0  0  0
 21 22  2  0  0  0  0
 21 44  1  0  0  0  0
 22 23  1  0  0  0  0
 24 30  1  0  0  0  0
 24 25  1  0  0  0  0
 24 26  1  0  0  0  0
 25 45  1  0  0  0  0
 26 31  1  0  0  0  0
 26 27  1  0  0  0  0
 27 46  1  0  0  0  0
M  END
> <s_m_source_file>
AV-unprocessed.smi

> <i_m_source_file_index>
110

> <i_lp_mmshare_version>
43012

> <i_f3d_flags>
0

> <s_epik_input>
W09IXVtDSDJdW0NASF0xT1tDQEhdKFtDQEhdKFtPSF0pW0NAQEhdMVtPSF0pbihbY0hdbjIpYyhjMjMpbltjSF1uYzNOKFtDSDJdW0NIMl00KWMoYzQ1KVtjSF1bY0hdW2NIXVtjSF01

> <s_epik_cmdline>
J2VwaWtfcHl0aG9uJywgJy1waCcsICc3LjAnLCAnLXRuJywgJzgnLCAnLW1hJywgJzIwMCcsICctbWV0YWxfYmluZGluZycsICctaW1hZScsICc8aW5maWxlLm1hZT4nLCAnLW9tYWUnLCAnPG91dGZpbGUubWFlPic=

> <r_lp_tautomer_probability>
1

> <r_epik_Ionization_Penalty>
0.00068475

> <r_epik_Ionization_Penalty_Charging>
0

> <r_epik_Ionization_Penalty_Neutral>
0.00068475

> <r_epik_State_Penalty>
0.000417442

> <r_epik_Charging_Adjusted_Penalty>
0.000417442

> <i_epik_Tot_Q>
0

> <i_epik_Tot_abs_Q>
0

> <r_epik_Metal_State_Penalty>
-0

> <b_epik_Metal_Only>
0

> <s_epik_Chemistry_Notes>
This compound contains an acetal/aminal-like group ( X-CH(R)-Y where X, Y are N, S, or O) that may be acid/base labile, releasing an aldehyde.

> <s_lp_Force_Field>
OPLS_2005

> <r_lp_Energy>
58.5768

> <b_lp_Chiralities_Consistent>
1

> <s_lp_Variant>
AV-unprocessed.smi:110-5

> <Gold.Version>
5.8.1

> <Gold.Id.Protein>
6NUR|6NUR_protein|mol2

> <Gold.PLP.Fitness>
61.0700

> <Gold.PLP.PLP>
-51.0706

> <Gold.PLP.part.hbond>
-2.9212

> <Gold.PLP.part.metal>
0.0000

> <Gold.PLP.part.buried>
-4.6361

> <Gold.PLP.part.nonpolar>
-45.5333

> <Gold.PLP.part.repulsive>
2.7536

> <Gold.PLP.ligand.clash>
0.0000

> <Gold.PLP.ligand.torsion>
0.5059

> <Gold.PLP.Chemscore.Hbond>
3.0000

> <Gold.PLP.Chemscore.CHOScore>
0.6499

> <Gold.PLP.Chemscore.Metal>
0.0000

> <Gold.Chemscore.Hbonds>
donor molecule, donor type, donor heavy atom, donor atom, acceptor molecule, acceptor atom, score
      L1  H    27    46       P1  7957  1.00
      P1  H  7989  7998       L1    22  0.95
      P1  H  7997  8008       L1    20  0.76
      L1  C     7    35       P1  8028  0.66

> <Gold.PLP.Chemscore.Internal.Correction>
0.0613

> <Gold.Rescore>
     Score         DG    S(hbond)    S(metal)    S(lipo)     H(rot)  DE(clash)    DE(int)     intcor
     11.20     -14.29       1.50        0.00     106.50       3.38       1.35       1.74       ----

> <Gold.Chemscore.Fitness>
11.2007

> <Gold.Chemscore.DG>
-14.2865

> <Gold.Chemscore.ZeroCoef>
-5.4800

> <Gold.Chemscore.Hbond>
1.4994

> <Gold.Chemscore.Metal>
0.0000

> <Gold.Chemscore.Lipo>
106.5003

> <Gold.Chemscore.Internal_Hbond>
0.0000

> <Gold.Chemscore.DEClash>
1.3508

> <Gold.Chemscore.DEInternal>
1.7351

> <Gold.Chemscore.Rot>
3.3837

> <Gold.Chemscore.Internal.Correction>
   9.000000E+99

> <Gold.Chemscore.Hbonds>
donor molecule, donor type, donor heavy atom, donor atom, acceptor molecule, acceptor atom, score
      L1  H    27    46       P1  7957  0.95
      P1  H  7989  7998       L1    22  0.20
      P1  H  7997  8008       L1    20  0.07

> <Gold.Chemscore.Hbond.Weighted>
-5.0082

> <Gold.Chemscore.Metal.Weighted>
-0.0000

> <Gold.Chemscore.Lipo.Weighted>
-12.4605

> <Gold.Chemscore.Internal_Hbond.Weighted>
0.0000

> <Gold.Chemscore.DEClash.Weighted>
1.3508

> <Gold.Chemscore.DEInternal.Weighted>
1.7351

> <Gold.Chemscore.Rot.Weighted>
8.6622

> <Gold.Chemscore.Internal.Correction.Weighted>
   9.000000E+99

> <Gold.Protein.RotatedTorsions>
[ 6907 6896 6895 6894 ] final  -11.89 input  -60.11 | X-H torsion
[ 7974 7965 7964 7962 ] final -126.89 input  175.53 | X-H torsion
[ 8008 7997 7996 7995 ] final  -43.83 input   59.86 | X-H torsion
[ 10167 10162 10161 10158 ] final  159.14 input  -65.29 | X-H torsion
[ 10718 10713 10712 10709 ] final -110.93 input   66.30 | X-H torsion
[ 10763 10752 10751 10750 ] final  -27.03 input  -60.55 | X-H torsion
[ 11005 11000 10999 10996 ] final  -51.90 input  -57.11 | X-H torsion

> <Gold.Protein.ActiveResidues>
 VAL166  LYS551  ARG553  GLY616  TRP617  ASP618  TYR619  PRO620  LYS621  CYS622 
 ASP623  PHE694  ASN695  SER759  ASP760  ASP761  ALA762  ILE779  LEU786  VAL792 
 PHE793  MET794  SER795  GLU796  ALA797  LYS798  CYS799  TRP800  GLU811  SER814 

> <Gold.Protein.RotatedAtoms>
  151.3790  135.0936  159.9489 H   0  0  0  0  0  0  0  0  0  0  0  0  # atno 6907 bound_to 6896
  152.5113  133.9090  159.7489 H   0  0  0  0  0  0  0  0  0  0  0  0  # atno 6908 bound_to 6896
  150.9520  133.6484  159.2799 H   0  0  0  0  0  0  0  0  0  0  0  0  # atno 6909 bound_to 6896
  144.9826  140.7655  143.4603 H   0  0  0  0  0  0  0  0  0  0  0  0  # atno 7974 bound_to 7965
  154.3997  140.1438  156.3583 H   0  0  0  0  0  0  0  0  0  0  0  0  # atno 8008 bound_to 7997
  155.8204  140.3469  155.5490 H   0  0  0  0  0  0  0  0  0  0  0  0  # atno 8009 bound_to 7997
  155.8293  140.0910  157.1792 H   0  0  0  0  0  0  0  0  0  0  0  0  # atno 8010 bound_to 7997
  139.4830  144.4759  151.8512 H   0  0  0  0  0  0  0  0  0  0  0  0  # atno 10167 bound_to 10162
  156.0618  130.5841  150.8305 H   0  0  0  0  0  0  0  0  0  0  0  0  # atno 10718 bound_to 10713
  153.7254  135.6942  153.5002 H   0  0  0  0  0  0  0  0  0  0  0  0  # atno 10763 bound_to 10752
  153.2173  135.4382  155.0448 H   0  0  0  0  0  0  0  0  0  0  0  0  # atno 10764 bound_to 10752
  154.8270  135.3452  154.6786 H   0  0  0  0  0  0  0  0  0  0  0  0  # atno 10765 bound_to 10752
  141.0896  133.6635  156.3946 H   0  0  0  0  0  0  0  0  0  0  0  0  # atno 11005 bound_to 11000
  145.2398  139.2077  143.4998 LP  0  0  0  0  0  0  0  0  0  0  0  0  # atno 17320 bound_to 7965
  146.3412  140.2292  142.8593 LP  0  0  0  0  0  0  0  0  0  0  0  0  # atno 17321 bound_to 7965
  140.4231  144.2217  150.5887 LP  0  0  0  0  0  0  0  0  0  0  0  0  # atno 17342 bound_to 10162
  140.4854  143.2365  151.8895 LP  0  0  0  0  0  0  0  0  0  0  0  0  # atno 17343 bound_to 10162
  157.5633  131.0946  150.9527 LP  0  0  0  0  0  0  0  0  0  0  0  0  # atno 17370 bound_to 10713
  156.9760  130.5509  149.5293 LP  0  0  0  0  0  0  0  0  0  0  0  0  # atno 17371 bound_to 10713
  140.5283  134.6237  157.5341 LP  0  0  0  0  0  0  0  0  0  0  0  0  # atno 17394 bound_to 11000
  139.9719  134.7278  156.0024 LP  0  0  0  0  0  0  0  0  0  0  0  0  # atno 17395 bound_to 11000

$$$$
