AV-unprocessed.smi:2758|AV-procd|sdf|10623|dock5
  -GOLD-   2272015 73D 1   1.00000     0.00000
 Structure written by MMmdl.
 32 33  0  0  0  0  0  0  0  0  1 V2000
  147.0687  140.6738  152.9457 C   0  0  0  0  0  0  0  0  0  0  0  0
  148.1066  140.9021  153.8829 O   0  0  0  0  0  0  0  0  0  0  0  0
  147.6780  141.6740  154.9929 C   0  0  0  0  0  0  0  0  0  0  0  0
  148.7044  141.5425  156.1299 C   0  0  2  0  0  0  0  0  0  0  0  0
  148.4537  142.5590  157.0812 O   0  0  0  0  0  0  0  0  0  0  0  0
  150.1515  141.6771  155.6127 C   0  0  0  0  0  0  0  0  0  0  0  0
  151.1499  141.3620  156.6266 N   0  0  0  0  0  0  0  0  0  0  0  0
  151.9033  140.2401  156.7337 C   0  0  0  0  0  0  0  0  0  0  0  0
  151.7936  139.1184  155.7504 C   0  0  0  0  0  0  0  0  0  0  0  0
  152.7496  140.2030  157.7631 N   0  0  0  0  0  0  0  0  0  0  0  0
  152.5270  141.4182  158.3818 C   0  0  0  0  0  0  0  0  0  0  0  0
  153.1182  141.9838  159.5343 C   0  0  0  0  0  0  0  0  0  0  0  0
  152.7261  143.2618  159.9837 C   0  0  0  0  0  0  0  0  0  0  0  0
  151.7392  143.9909  159.2891 C   0  0  0  0  0  0  0  0  0  0  0  0
  151.1371  143.4458  158.1388 C   0  0  0  0  0  0  0  0  0  0  0  0
  151.5321  142.1699  157.6938 C   0  0  0  0  0  0  0  0  0  0  0  0
  148.5864  140.5734  156.6150 H   0  0  0  0  0  0  0  0  0  0  0  0
  147.4481  140.0754  152.1174 H   0  0  0  0  0  0  0  0  0  0  0  0
  146.6912  141.6123  152.5376 H   0  0  0  0  0  0  0  0  0  0  0  0
  146.2397  140.1303  153.4007 H   0  0  0  0  0  0  0  0  0  0  0  0
  147.6146  142.7162  154.6757 H   0  0  0  0  0  0  0  0  0  0  0  0
  146.6809  141.3777  155.3245 H   0  0  0  0  0  0  0  0  0  0  0  0
  148.4136  143.3888  156.6315 H   0  0  0  0  0  0  0  0  0  0  0  0
  150.3085  141.0235  154.7542 H   0  0  0  0  0  0  0  0  0  0  0  0
  150.3306  142.6910  155.2529 H   0  0  0  0  0  0  0  0  0  0  0  0
  152.4532  138.2972  156.0327 H   0  0  0  0  0  0  0  0  0  0  0  0
  152.0789  139.4602  154.7554 H   0  0  0  0  0  0  0  0  0  0  0  0
  150.7727  138.7392  155.7160 H   0  0  0  0  0  0  0  0  0  0  0  0
  153.8744  141.4330  160.0738 H   0  0  0  0  0  0  0  0  0  0  0  0
  153.1843  143.6843  160.8658 H   0  0  0  0  0  0  0  0  0  0  0  0
  151.4440  144.9686  159.6406 H   0  0  0  0  0  0  0  0  0  0  0  0
  150.3797  144.0013  157.6066 H   0  0  0  0  0  0  0  0  0  0  0  0
  1  2  1  0  0  0  0
  1 18  1  0  0  0  0
  1 19  1  0  0  0  0
  1 20  1  0  0  0  0
  2  3  1  0  0  0  0
  3  4  1  0  0  0  0
  3 21  1  0  0  0  0
  3 22  1  0  0  0  0
  4 17  1  0  0  0  0
  4  5  1  0  0  0  0
  4  6  1  0  0  0  0
  5 23  1  0  0  0  0
  6  7  1  0  0  0  0
  6 24  1  0  0  0  0
  6 25  1  0  0  0  0
  7 16  1  0  0  0  0
  7  8  1  0  0  0  0
  8  9  1  0  0  0  0
  8 10  2  0  0  0  0
  9 26  1  0  0  0  0
  9 27  1  0  0  0  0
  9 28  1  0  0  0  0
 10 11  1  0  0  0  0
 11 16  2  0  0  0  0
 11 12  1  0  0  0  0
 12 13  2  0  0  0  0
 12 29  1  0  0  0  0
 13 14  1  0  0  0  0
 13 30  1  0  0  0  0
 14 15  2  0  0  0  0
 14 31  1  0  0  0  0
 15 16  1  0  0  0  0
 15 32  1  0  0  0  0
M  END
> <s_m_source_file>
AV-unprocessed.smi

> <i_m_source_file_index>
2758

> <i_lp_mmshare_version>
43012

> <i_f3d_flags>
0

> <s_epik_input>
W0NIM11PW0NIMl1bQ0BASF0oW09IXSlbQ0gyXW4oYyhuMSlbQ0gzXSljKGMxMilbY0hdW2NIXVtjSF1bY0hdMg==

> <s_epik_cmdline>
J2VwaWtfcHl0aG9uJywgJy1waCcsICc3LjAnLCAnLXRuJywgJzgnLCAnLW1hJywgJzIwMCcsICctbWV0YWxfYmluZGluZycsICctaW1hZScsICc8aW5maWxlLm1hZT4nLCAnLW9tYWUnLCAnPG91dGZpbGUubWFlPic=

> <r_epik_Ionization_Penalty>
0.126985

> <r_epik_Ionization_Penalty_Charging>
0

> <r_epik_Ionization_Penalty_Neutral>
0.126985

> <r_epik_State_Penalty>
0.116428

> <r_epik_Charging_Adjusted_Penalty>
0.116428

> <i_epik_Tot_Q>
0

> <i_epik_Tot_abs_Q>
0

> <r_epik_Metal_State_Penalty>
0.000128642

> <b_epik_Metal_Only>
0

> <s_lp_Force_Field>
OPLS_2005

> <r_lp_Energy>
9.16729

> <b_lp_Chiralities_Consistent>
1

> <s_lp_Variant>
AV-unprocessed.smi:2758-2

> <Gold.Version>
5.8.1

> <Gold.Id.Protein>
6NUR|6NUR_protein|mol2

> <Gold.PLP.Fitness>
39.2733

> <Gold.PLP.PLP>
-34.0600

> <Gold.PLP.part.hbond>
-2.0000

> <Gold.PLP.part.metal>
0.0000

> <Gold.PLP.part.buried>
-1.6947

> <Gold.PLP.part.nonpolar>
-28.2103

> <Gold.PLP.part.repulsive>
0.1469

> <Gold.PLP.ligand.clash>
0.0000

> <Gold.PLP.ligand.torsion>
0.4066

> <Gold.PLP.Chemscore.Hbond>
2.0000

> <Gold.PLP.Chemscore.CHOScore>
0.0000

> <Gold.PLP.Chemscore.Metal>
0.0000

> <Gold.Chemscore.Hbonds>
donor molecule, donor type, donor heavy atom, donor atom, acceptor molecule, acceptor atom, score
      L1  H     5    23       P1  8028  1.00
      P1  H  7997  8010       L1    10  0.99

> <Gold.PLP.Chemscore.Internal.Correction>
0.0264

> <Gold.Rescore>
     Score         DG    S(hbond)    S(metal)    S(lipo)     H(rot)  DE(clash)    DE(int)     intcor
     14.72     -15.35       1.12        0.00      97.28       2.05       0.15       0.48       ----

> <Gold.Chemscore.Fitness>
14.7159

> <Gold.Chemscore.DG>
-15.3457

> <Gold.Chemscore.ZeroCoef>
-5.4800

> <Gold.Chemscore.Hbond>
1.1183

> <Gold.Chemscore.Metal>
0.0000

> <Gold.Chemscore.Lipo>
97.2820

> <Gold.Chemscore.Internal_Hbond>
0.0000

> <Gold.Chemscore.DEClash>
0.1533

> <Gold.Chemscore.DEInternal>
0.4765

> <Gold.Chemscore.Rot>
2.0513

> <Gold.Chemscore.Internal.Correction>
   9.000000E+99

> <Gold.Chemscore.Hbonds>
donor molecule, donor type, donor heavy atom, donor atom, acceptor molecule, acceptor atom, score
      L1  H     5    23       P1  8028  0.35
      P1  H  7997  8010       L1    10  0.29

> <Gold.Chemscore.Hbond.Weighted>
-3.7351

> <Gold.Chemscore.Metal.Weighted>
-0.0000

> <Gold.Chemscore.Lipo.Weighted>
-11.3820

> <Gold.Chemscore.Internal_Hbond.Weighted>
0.0000

> <Gold.Chemscore.DEClash.Weighted>
0.1533

> <Gold.Chemscore.DEInternal.Weighted>
0.4765

> <Gold.Chemscore.Rot.Weighted>
5.2514

> <Gold.Chemscore.Internal.Correction.Weighted>
   9.000000E+99

> <Gold.Protein.RotatedTorsions>
[ 6907 6896 6895 6894 ] final  -30.08 input  -60.11 | X-H torsion
[ 7974 7965 7964 7962 ] final   36.65 input  175.53 | X-H torsion
[ 8008 7997 7996 7995 ] final   46.68 input   59.86 | X-H torsion
[ 10167 10162 10161 10158 ] final   93.05 input  -65.29 | X-H torsion
[ 10718 10713 10712 10709 ] final  -98.48 input   66.30 | X-H torsion
[ 10763 10752 10751 10750 ] final   48.43 input  -60.55 | X-H torsion
[ 11005 11000 10999 10996 ] final  -10.44 input  -57.11 | X-H torsion

> <Gold.Protein.ActiveResidues>
 VAL166  LYS551  ARG553  GLY616  TRP617  ASP618  TYR619  PRO620  LYS621  CYS622 
 ASP623  PHE694  ASN695  SER759  ASP760  ASP761  ALA762  ILE779  LEU786  VAL792 
 PHE793  MET794  SER795  GLU796  ALA797  LYS798  CYS799  TRP800  GLU811  SER814 

> <Gold.Protein.RotatedAtoms>
  151.1104  135.0023  159.8490 H   0  0  0  0  0  0  0  0  0  0  0  0  # atno 6907 bound_to 6896
  152.5443  134.1843  159.8658 H   0  0  0  0  0  0  0  0  0  0  0  0  # atno 6908 bound_to 6896
  151.1893  133.4632  159.2628 H   0  0  0  0  0  0  0  0  0  0  0  0  # atno 6909 bound_to 6896
  146.1195  139.5991  142.9299 H   0  0  0  0  0  0  0  0  0  0  0  0  # atno 7974 bound_to 7965
  155.3565  140.3416  155.4240 H   0  0  0  0  0  0  0  0  0  0  0  0  # atno 8008 bound_to 7997
  156.1736  140.1640  156.8438 H   0  0  0  0  0  0  0  0  0  0  0  0  # atno 8009 bound_to 7997
  154.5259  140.0756  156.8239 H   0  0  0  0  0  0  0  0  0  0  0  0  # atno 8010 bound_to 7997
  139.8217  144.6728  150.9511 H   0  0  0  0  0  0  0  0  0  0  0  0  # atno 10167 bound_to 10162
  156.0109  130.5240  150.6529 H   0  0  0  0  0  0  0  0  0  0  0  0  # atno 10718 bound_to 10713
  152.9792  135.5944  154.3924 H   0  0  0  0  0  0  0  0  0  0  0  0  # atno 10763 bound_to 10752
  154.3578  135.2767  155.2338 H   0  0  0  0  0  0  0  0  0  0  0  0  # atno 10764 bound_to 10752
  154.4349  135.6027  153.6147 H   0  0  0  0  0  0  0  0  0  0  0  0  # atno 10765 bound_to 10752
  140.7447  133.8641  155.8996 H   0  0  0  0  0  0  0  0  0  0  0  0  # atno 11005 bound_to 11000
  145.5495  141.0414  143.2286 LP  0  0  0  0  0  0  0  0  0  0  0  0  # atno 17320 bound_to 7965
  144.7584  139.7017  143.7244 LP  0  0  0  0  0  0  0  0  0  0  0  0  # atno 17321 bound_to 7965
  140.7813  143.4085  151.1031 LP  0  0  0  0  0  0  0  0  0  0  0  0  # atno 17342 bound_to 10162
  139.7745  143.8445  152.3127 LP  0  0  0  0  0  0  0  0  0  0  0  0  # atno 17343 bound_to 10162
  157.4287  131.0846  151.1060 LP  0  0  0  0  0  0  0  0  0  0  0  0  # atno 17370 bound_to 10713
  157.1639  130.6238  149.5619 LP  0  0  0  0  0  0  0  0  0  0  0  0  # atno 17371 bound_to 10713
  140.9805  134.1412  157.4499 LP  0  0  0  0  0  0  0  0  0  0  0  0  # atno 17394 bound_to 11000
  139.8799  135.0009  156.6035 LP  0  0  0  0  0  0  0  0  0  0  0  0  # atno 17395 bound_to 11000

$$$$
