AV-unprocessed.smi:1062|AV-procd|sdf|4661|dock8
  -GOLD-   22720 3173D 1   1.00000     0.00000
 Structure written by MMmdl.
 38 40  0  0  0  0  0  0  0  0  1 V2000
  154.4241  141.4812  160.2174 C   0  0  0  0  0  0  0  0  0  0  0  0
  152.9109  141.7361  160.3136 C   0  0  0  0  0  0  0  0  0  0  0  0
  152.4175  142.5714  159.2071 N   0  0  0  0  0  0  0  0  0  0  0  0
  151.7106  142.0178  158.1893 C   0  0  0  0  0  0  0  0  0  0  0  0
  151.1023  142.7089  157.3686 O   0  0  0  0  0  0  0  0  0  0  0  0
  151.6788  140.4828  158.0415 C   0  0  0  0  0  0  0  0  0  0  0  0
  150.9906  140.0587  156.7742 C   0  0  0  0  0  0  0  0  0  0  0  0
  151.4409  139.1387  155.8590 C   0  0  0  0  0  0  0  0  0  0  0  0
  150.3298  138.9396  154.5319 S   0  0  0  0  0  0  0  0  0  0  0  0
  149.2752  140.1436  155.2787 C   0  0  0  0  0  0  0  0  0  0  0  0
  148.0230  140.6030  154.7730 N   0  0  0  0  0  0  0  0  0  0  0  0
  147.5333  141.9502  155.0482 C   0  0  0  0  0  0  0  0  0  0  0  0
  146.1876  142.0041  154.3317 C   0  0  0  0  0  0  0  0  0  0  0  0
  146.1011  140.6858  153.7492 N   0  0  0  0  0  0  0  0  0  0  0  0
  147.1524  139.9074  154.0149 C   0  0  0  0  0  0  0  0  0  0  0  0
  147.2697  138.7509  153.6144 O   0  0  0  0  0  0  0  0  0  0  0  0
  149.7606  140.6275  156.4268 N   0  0  0  0  0  0  0  0  0  0  0  0
  152.5483  143.9873  159.4284 C   0  0  0  0  0  0  0  0  0  0  0  0
  151.3413  144.8973  159.2883 C   0  0  0  0  0  0  0  0  0  0  0  0
  152.4356  144.9428  158.2560 C   0  0  0  0  0  0  0  0  0  0  0  0
  154.7561  140.8250  161.0219 H   0  0  0  0  0  0  0  0  0  0  0  0
  154.9965  142.4060  160.2921 H   0  0  0  0  0  0  0  0  0  0  0  0
  154.6827  141.0024  159.2724 H   0  0  0  0  0  0  0  0  0  0  0  0
  152.3983  140.7742  160.3309 H   0  0  0  0  0  0  0  0  0  0  0  0
  152.6725  142.2049  161.2697 H   0  0  0  0  0  0  0  0  0  0  0  0
  152.6906  140.0771  158.0496 H   0  0  0  0  0  0  0  0  0  0  0  0
  151.1651  140.0617  158.9058 H   0  0  0  0  0  0  0  0  0  0  0  0
  152.3539  138.5628  155.8889 H   0  0  0  0  0  0  0  0  0  0  0  0
  147.4202  142.1075  156.1218 H   0  0  0  0  0  0  0  0  0  0  0  0
  148.2235  142.6991  154.6568 H   0  0  0  0  0  0  0  0  0  0  0  0
  145.3612  142.1735  155.0227 H   0  0  0  0  0  0  0  0  0  0  0  0
  146.1661  142.7701  153.5556 H   0  0  0  0  0  0  0  0  0  0  0  0
  145.3101  140.3904  153.1954 H   0  0  0  0  0  0  0  0  0  0  0  0
  153.2662  144.2691  160.1966 H   0  0  0  0  0  0  0  0  0  0  0  0
  150.3937  144.4621  158.9771 H   0  0  0  0  0  0  0  0  0  0  0  0
  151.2639  145.7357  159.9773 H   0  0  0  0  0  0  0  0  0  0  0  0
  153.0887  145.8130  158.2539 H   0  0  0  0  0  0  0  0  0  0  0  0
  152.2039  144.5331  157.2745 H   0  0  0  0  0  0  0  0  0  0  0  0
  1  2  1  0  0  0  0
  1 21  1  0  0  0  0
  1 22  1  0  0  0  0
  1 23  1  0  0  0  0
  2  3  1  0  0  0  0
  2 24  1  0  0  0  0
  2 25  1  0  0  0  0
  3  4  1  0  0  0  0
  3 18  1  0  0  0  0
  4  5  2  0  0  0  0
  4  6  1  0  0  0  0
  6  7  1  0  0  0  0
  6 26  1  0  0  0  0
  6 27  1  0  0  0  0
  7 17  1  0  0  0  0
  7  8  2  0  0  0  0
  8  9  1  0  0  0  0
  8 28  1  0  0  0  0
  9 10  1  0  0  0  0
 10 11  1  0  0  0  0
 10 17  2  0  0  0  0
 11 15  1  0  0  0  0
 11 12  1  0  0  0  0
 12 13  1  0  0  0  0
 12 29  1  0  0  0  0
 12 30  1  0  0  0  0
 13 14  1  0  0  0  0
 13 31  1  0  0  0  0
 13 32  1  0  0  0  0
 14 15  1  0  0  0  0
 14 33  1  0  0  0  0
 15 16  2  0  0  0  0
 18 20  1  0  0  0  0
 18 19  1  0  0  0  0
 18 34  1  0  0  0  0
 19 20  1  0  0  0  0
 19 35  1  0  0  0  0
 19 36  1  0  0  0  0
 20 37  1  0  0  0  0
 20 38  1  0  0  0  0
M  END
> <s_m_source_file>
AV-unprocessed.smi

> <i_m_source_file_index>
1062

> <i_lp_mmshare_version>
43012

> <i_f3d_flags>
0

> <s_epik_input>
W0NIMl0xW0NIMl1bQ0hdMU4oW0NIMl1bQ0gzXSlDKD1PKVtDSDJdYzJbY0hdc2MobjIpTjNbQ0gyXVtDSDJdW05IXUMzPU8=

> <s_epik_cmdline>
J2VwaWtfcHl0aG9uJywgJy1waCcsICc3LjAnLCAnLXRuJywgJzgnLCAnLW1hJywgJzIwMCcsICctbWV0YWxfYmluZGluZycsICctaW1hZScsICc8aW5maWxlLm1hZT4nLCAnLW9tYWUnLCAnPG91dGZpbGUubWFlPic=

> <r_lp_tautomer_probability>
1

> <r_epik_Ionization_Penalty>
0.000125669

> <r_epik_Ionization_Penalty_Charging>
0

> <r_epik_Ionization_Penalty_Neutral>
0.000125669

> <r_epik_State_Penalty>
-0

> <r_epik_Charging_Adjusted_Penalty>
0

> <i_epik_Tot_Q>
0

> <i_epik_Tot_abs_Q>
0

> <r_epik_Metal_State_Penalty>
-0

> <b_epik_Metal_Only>
0

> <s_lp_Force_Field>
OPLS_2005

> <r_lp_Energy>
60.5217

> <b_lp_Chiralities_Consistent>
1

> <s_lp_Variant>
AV-unprocessed.smi:1062-1

> <Gold.Version>
5.8.1

> <Gold.Id.Protein>
6NUR|6NUR_protein|mol2

> <Gold.PLP.Fitness>
47.8703

> <Gold.PLP.PLP>
-47.2724

> <Gold.PLP.part.hbond>
-1.0000

> <Gold.PLP.part.metal>
0.0000

> <Gold.PLP.part.buried>
-4.3443

> <Gold.PLP.part.nonpolar>
-43.0005

> <Gold.PLP.part.repulsive>
0.8927

> <Gold.PLP.ligand.clash>
0.0466

> <Gold.PLP.ligand.torsion>
1.2710

> <Gold.PLP.Chemscore.Hbond>
0.9440

> <Gold.PLP.Chemscore.CHOScore>
0.0000

> <Gold.PLP.Chemscore.Metal>
0.0000

> <Gold.Chemscore.Hbonds>
donor molecule, donor type, donor heavy atom, donor atom, acceptor molecule, acceptor atom, score
      L1  H    14    33       P1 10175  1.00

> <Gold.PLP.Chemscore.Internal.Correction>
0.3545

> <Gold.Rescore>
     Score         DG    S(hbond)    S(metal)    S(lipo)     H(rot)  DE(clash)    DE(int)     intcor
     12.04     -15.62       0.99        0.00      94.46       1.65       0.03       3.55       ----

> <Gold.Chemscore.Fitness>
12.0449

> <Gold.Chemscore.DG>
-15.6173

> <Gold.Chemscore.ZeroCoef>
-5.4800

> <Gold.Chemscore.Hbond>
0.9890

> <Gold.Chemscore.Metal>
0.0000

> <Gold.Chemscore.Lipo>
94.4631

> <Gold.Chemscore.Internal_Hbond>
0.0000

> <Gold.Chemscore.DEClash>
0.0251

> <Gold.Chemscore.DEInternal>
3.5473

> <Gold.Chemscore.Rot>
1.6477

> <Gold.Chemscore.Internal.Correction>
   9.000000E+99

> <Gold.Chemscore.Hbonds>
donor molecule, donor type, donor heavy atom, donor atom, acceptor molecule, acceptor atom, score
      L1  H    14    33       P1 10175  0.97

> <Gold.Chemscore.Hbond.Weighted>
-3.3032

> <Gold.Chemscore.Metal.Weighted>
-0.0000

> <Gold.Chemscore.Lipo.Weighted>
-11.0522

> <Gold.Chemscore.Internal_Hbond.Weighted>
0.0000

> <Gold.Chemscore.DEClash.Weighted>
0.0251

> <Gold.Chemscore.DEInternal.Weighted>
3.5473

> <Gold.Chemscore.Rot.Weighted>
4.2181

> <Gold.Chemscore.Internal.Correction.Weighted>
   9.000000E+99

> <Gold.Protein.RotatedTorsions>
[ 6907 6896 6895 6894 ] final   98.53 input  -60.11 | X-H torsion
[ 7974 7965 7964 7962 ] final -121.88 input  175.53 | X-H torsion
[ 8008 7997 7996 7995 ] final  178.27 input   59.86 | X-H torsion
[ 10167 10162 10161 10158 ] final   87.13 input  -65.29 | X-H torsion
[ 10718 10713 10712 10709 ] final   50.13 input   66.30 | X-H torsion
[ 10763 10752 10751 10750 ] final   76.90 input  -60.55 | X-H torsion
[ 11005 11000 10999 10996 ] final  -78.55 input  -57.11 | X-H torsion

> <Gold.Protein.ActiveResidues>
 VAL166  LYS551  ARG553  GLY616  TRP617  ASP618  TYR619  PRO620  LYS621  CYS622 
 ASP623  PHE694  ASN695  SER759  ASP760  ASP761  ALA762  ILE779  LEU786  VAL792 
 PHE793  MET794  SER795  GLU796  ALA797  LYS798  CYS799  TRP800  GLU811  SER814 

> <Gold.Protein.RotatedAtoms>
  152.5407  134.0567  159.8133 H   0  0  0  0  0  0  0  0  0  0  0  0  # atno 6907 bound_to 6896
  151.0701  133.5466  159.2635 H   0  0  0  0  0  0  0  0  0  0  0  0  # atno 6908 bound_to 6896
  151.2332  135.0570  159.9050 H   0  0  0  0  0  0  0  0  0  0  0  0  # atno 6909 bound_to 6896
  145.0355  140.8102  143.4298 H   0  0  0  0  0  0  0  0  0  0  0  0  # atno 7974 bound_to 7965
  156.0565  140.1337  156.9990 H   0  0  0  0  0  0  0  0  0  0  0  0  # atno 8008 bound_to 7997
  154.4460  140.1000  156.6524 H   0  0  0  0  0  0  0  0  0  0  0  0  # atno 8009 bound_to 7997
  155.5443  140.3461  155.4456 H   0  0  0  0  0  0  0  0  0  0  0  0  # atno 8010 bound_to 7997
  139.8804  144.6443  150.8849 H   0  0  0  0  0  0  0  0  0  0  0  0  # atno 10167 bound_to 10162
  157.4854  130.8342  149.8141 H   0  0  0  0  0  0  0  0  0  0  0  0  # atno 10718 bound_to 10713
  153.0759  135.4934  154.8403 H   0  0  0  0  0  0  0  0  0  0  0  0  # atno 10763 bound_to 10752
  154.7086  135.3015  154.9234 H   0  0  0  0  0  0  0  0  0  0  0  0  # atno 10764 bound_to 10752
  153.9934  135.6775  153.4808 H   0  0  0  0  0  0  0  0  0  0  0  0  # atno 10765 bound_to 10752
  141.1665  133.7068  156.7989 H   0  0  0  0  0  0  0  0  0  0  0  0  # atno 11005 bound_to 11000
  145.1715  139.2401  143.5339 LP  0  0  0  0  0  0  0  0  0  0  0  0  # atno 17320 bound_to 7965
  146.3503  140.1467  142.8593 LP  0  0  0  0  0  0  0  0  0  0  0  0  # atno 17321 bound_to 7965
  140.7745  143.3590  151.1865 LP  0  0  0  0  0  0  0  0  0  0  0  0  # atno 17342 bound_to 10162
  139.7201  143.9237  152.2982 LP  0  0  0  0  0  0  0  0  0  0  0  0  # atno 17343 bound_to 10162
  156.0144  130.3820  150.2159 LP  0  0  0  0  0  0  0  0  0  0  0  0  # atno 17370 bound_to 10713
  157.0346  131.0017  151.3302 LP  0  0  0  0  0  0  0  0  0  0  0  0  # atno 17371 bound_to 10713
  140.2271  134.8714  157.3437 LP  0  0  0  0  0  0  0  0  0  0  0  0  # atno 17394 bound_to 11000
  140.1929  134.4349  155.7705 LP  0  0  0  0  0  0  0  0  0  0  0  0  # atno 17395 bound_to 11000

$$$$
