#       Name:                AV-unprocessed.smi:1504
#       Creating user name   scv26
#       Creation time:       Fri Mar 27 06:19:18 2020


#       File generated by GOLD software.
#

@<TRIPOS>MOLECULE
AV-unprocessed.smi:1504
    42    43     1
SMALL
NO_CHARGES


@<TRIPOS>ATOM
      1 ****         1.5585   2.0714   0.1059 O.2            1 S1                 0.0000
      2 ****         1.1669   0.9644  -0.2640 C.2            1 S1                 0.0000
      3 ****         1.9724  -0.0852  -0.4769 N.am           1 S1                 0.0000
      4 ****         3.4222  -0.0727  -0.3051 C.3            1 S1                 0.0000
      5 ****         3.8501  -0.1249   1.1748 C.3            1 S1                 0.0000
      6 ****         3.2761  -1.3112   1.9306 C.ar           1 S1                 0.0000
      7 ****         2.1607  -1.1549   2.7814 C.ar           1 S1                 0.0000
      8 ****         1.6681  -2.2878   3.4575 C.ar           1 S1                 0.0000
      9 ****         2.3063  -3.5273   3.2582 C.ar           1 S1                 0.0000
     10 ****         3.4123  -3.5786   2.3863 C.ar           1 S1                 0.0000
     11 ****         3.8915  -2.4987   1.7320 N.ar           1 S1                 0.0000
     12 ****        -0.1163   0.6639  -0.4994 N.am           1 S1                 0.0000
     13 ****        -1.2210   1.6039  -0.3587 C.3            1 S1                 0.0000
     14 ****        -2.5010   1.0540  -1.0100 C.3            1 S1                 0.0000
     15 ****        -3.7045   2.0002  -0.8329 C.3            1 S1                 0.0000
     16 ****        -4.8430   1.5165  -1.7363 C.3            1 S1                 0.0000
     17 ****        -4.0299   0.8415  -3.2315 S.o2           1 S1                 0.0000
     18 ****        -4.5242  -0.5226  -3.4722 O.2            1 S1                 0.0000
     19 ****        -4.0489   1.8534  -4.2986 O.2            1 S1                 0.0000
     20 ****        -2.3442   0.7667  -2.5142 C.3            1 S1                 0.0000
     21 ****         1.5562  -0.9551  -0.7755 H              1 S1                 0.0000
     22 ****         3.8246  -0.9381  -0.8321 H              1 S1                 0.0000
     23 ****         3.8476   0.8072  -0.7898 H              1 S1                 0.0000
     24 ****         4.9384  -0.1602   1.2376 H              1 S1                 0.0000
     25 ****         3.5537   0.7955   1.6794 H              1 S1                 0.0000
     26 ****         1.6920  -0.1904   2.9122 H              1 S1                 0.0000
     27 ****         0.8167  -2.2073   4.1168 H              1 S1                 0.0000
     28 ****         1.9575  -4.4171   3.7609 H              1 S1                 0.0000
     29 ****         3.9262  -4.5119   2.2099 H              1 S1                 0.0000
     30 ****        -0.3449  -0.2730  -0.7977 H              1 S1                 0.0000
     31 ****        -1.3903   1.7909   0.7025 H              1 S1                 0.0000
     32 ****        -0.9535   2.5600  -0.8124 H              1 S1                 0.0000
     33 ****        -2.7603   0.1132  -0.5220 H              1 S1                 0.0000
     34 ****        -4.0218   2.0602   0.2085 H              1 S1                 0.0000
     35 ****        -3.4179   3.0081  -1.1369 H              1 S1                 0.0000
     36 ****        -5.3973   0.7079  -1.2593 H              1 S1                 0.0000
     37 ****        -5.5415   2.3079  -2.0086 H              1 S1                 0.0000
     38 ****        -1.7423   1.5348  -3.0008 H              1 S1                 0.0000
     39 ****        -1.8942  -0.2051  -2.7178 H              1 S1                 0.0000
     40 ****         2.5328   2.2292   0.2662 LP             1 S1                 0.0000
     41 ****         0.9022   2.8128   0.2460 LP             1 S1                 0.0000
     42 ****         4.6779  -2.5750   1.1190 LP             1 S1                 0.0000
@<TRIPOS>BOND
    1    1    2 2     
    2    2    3 am    
    3    2   12 am    
    4    3    4 1     
    5    3   21 1     
    6    4    5 1     
    7    4   22 1     
    8    4   23 1     
    9    5    6 1     
   10    5   24 1     
   11    5   25 1     
   12    6   11 ar    
   13    6    7 ar    
   14    7    8 ar    
   15    7   26 1     
   16    8    9 ar    
   17    8   27 1     
   18    9   10 ar    
   19    9   28 1     
   20   10   11 ar    
   21   10   29 1     
   22   12   13 1     
   23   12   30 1     
   24   13   14 1     
   25   13   31 1     
   26   13   32 1     
   27   14   20 1     
   28   14   15 1     
   29   14   33 1     
   30   15   16 1     
   31   15   34 1     
   32   15   35 1     
   33   16   17 1     
   34   16   36 1     
   35   16   37 1     
   36   17   18 2     
   37   17   19 2     
   38   17   20 1     
   39   20   38 1     
   40   20   39 1     
   41    1   40 1     
   42    1   41 1     
   43   11   42 1     
@<TRIPOS>SUBSTRUCTURE
      1 S1             1
@<TRIPOS>SET
LONE_PAIRS      STATIC     ATOMS    <user>   **** ""
5 40 41 42 18 19
DONOR_HYDROGENS      STATIC     ATOMS    <user>   **** ""
2 21 30
ATOM$BLUE        STATIC     ATOMS    COLORGROUP SYSTEM
5 40 41 42 18 19
ATOM$RED        STATIC     ATOMS    COLORGROUP SYSTEM
2 21 30
