AV-unprocessed.smi:1464|AV-procd|sdf|5940|dock4
  -GOLD-   22720 6 23D 1   1.00000     0.00000
 Structure written by MMmdl.
 40 41  0  0  0  0  0  0  0  0  2 V2000
  148.3056  140.9394  154.1237 C   0  0  0  0  0  0  0  0  0  0  0  0
  149.2644  140.0176  154.8998 C   0  0  1  0  0  0  0  0  0  0  0  0
  150.0415  139.1304  153.9066 C   0  0  0  0  0  0  0  0  0  0  0  0
  150.9898  138.1648  154.6255 C   0  0  0  0  0  0  0  0  0  0  0  0
  151.9705  138.9345  155.5146 C   0  0  0  0  0  0  0  0  0  0  0  0
  151.2277  139.8214  156.5323 C   0  0  1  0  0  0  0  0  0  0  0  0
  152.2050  140.5645  157.3259 N   0  0  0  0  0  0  0  0  0  0  0  0
  152.5396  140.3028  158.5990 C   0  0  0  0  0  0  0  0  0  0  0  0
  152.0603  139.3669  159.2417 O   0  0  0  0  0  0  0  0  0  0  0  0
  153.5891  141.2415  159.2151 C   0  0  0  0  0  0  0  0  0  0  0  0
  153.0159  142.3768  159.9526 N   0  0  0  0  0  0  0  0  0  0  0  0
  152.3809  143.3733  159.0942 N   0  5  0  0  0  0  0  0  0  0  0  0
  151.7912  144.4582  159.6627 C   0  0  0  0  0  0  0  0  0  0  0  0
  151.2231  145.3282  159.0066 O   0  0  0  0  0  0  0  0  0  0  0  0
  151.8445  144.5864  161.1095 C   0  0  0  0  0  0  0  0  0  0  0  0
  152.4571  143.6623  161.8755 C   0  0  0  0  0  0  0  0  0  0  0  0
  153.0964  142.4804  161.3100 C   0  0  0  0  0  0  0  0  0  0  0  0
  153.6632  141.6361  162.0040 O   0  0  0  0  0  0  0  0  0  0  0  0
  150.2341  140.7925  155.8377 C   0  0  2  0  0  0  0  0  0  0  0  0
  149.4746  141.6445  156.8786 C   0  0  0  0  0  0  0  0  0  0  0  0
  148.8524  141.6876  153.5492 H   0  0  0  0  0  0  0  0  0  0  0  0
  147.6151  141.4603  154.7863 H   0  0  0  0  0  0  0  0  0  0  0  0
  147.6949  140.3678  153.4241 H   0  0  0  0  0  0  0  0  0  0  0  0
  148.6533  139.3587  155.5186 H   0  0  0  0  0  0  0  0  0  0  0  0
  149.3448  138.5584  153.2927 H   0  0  0  0  0  0  0  0  0  0  0  0
  150.6128  139.7574  153.2203 H   0  0  0  0  0  0  0  0  0  0  0  0
  150.4149  137.4632  155.2313 H   0  0  0  0  0  0  0  0  0  0  0  0
  151.5389  137.5689  153.8959 H   0  0  0  0  0  0  0  0  0  0  0  0
  152.6201  138.2286  156.0339 H   0  0  0  0  0  0  0  0  0  0  0  0
  152.6202  139.5497  154.8903 H   0  0  0  0  0  0  0  0  0  0  0  0
  150.6496  139.1737  157.1949 H   0  0  0  0  0  0  0  0  0  0  0  0
  152.6508  141.3509  156.8765 H   0  0  0  0  0  0  0  0  0  0  0  0
  154.2365  140.6551  159.8688 H   0  0  0  0  0  0  0  0  0  0  0  0
  154.2400  141.6095  158.4194 H   0  0  0  0  0  0  0  0  0  0  0  0
  151.3845  145.4426  161.5805 H   0  0  0  0  0  0  0  0  0  0  0  0
  152.4736  143.7990  162.9465 H   0  0  0  0  0  0  0  0  0  0  0  0
  150.8173  141.4765  155.2188 H   0  0  0  0  0  0  0  0  0  0  0  0
  148.8322  141.0230  157.5032 H   0  0  0  0  0  0  0  0  0  0  0  0
  148.8509  142.4027  156.4070 H   0  0  0  0  0  0  0  0  0  0  0  0
  150.1546  142.1816  157.5398 H   0  0  0  0  0  0  0  0  0  0  0  0
  1  2  1  0  0  0  0
  1 21  1  0  0  0  0
  1 22  1  0  0  0  0
  1 23  1  0  0  0  0
  2 19  1  0  0  0  0
  2  3  1  0  0  0  0
  2 24  1  0  0  0  0
  3  4  1  0  0  0  0
  3 25  1  0  0  0  0
  3 26  1  0  0  0  0
  4  5  1  0  0  0  0
  4 27  1  0  0  0  0
  4 28  1  0  0  0  0
  5  6  1  0  0  0  0
  5 29  1  0  0  0  0
  5 30  1  0  0  0  0
  6  7  1  0  0  0  0
  6 19  1  0  0  0  0
  6 31  1  0  0  0  0
  7  8  1  0  0  0  0
  7 32  1  0  0  0  0
  8  9  2  0  0  0  0
  8 10  1  0  0  0  0
 10 33  1  0  0  0  0
 10 34  1  0  0  0  0
 10 11  1  0  0  0  0
 11 12  1  0  0  0  0
 11 17  1  0  0  0  0
 12 13  1  0  0  0  0
 13 14  2  0  0  0  0
 13 15  1  0  0  0  0
 15 35  1  0  0  0  0
 15 16  2  0  0  0  0
 16 36  1  0  0  0  0
 16 17  1  0  0  0  0
 17 18  2  0  0  0  0
 19 20  1  0  0  0  0
 19 37  1  0  0  0  0
 20 38  1  0  0  0  0
 20 39  1  0  0  0  0
 20 40  1  0  0  0  0
M  CHG  1  12  -1
M  END
> <s_m_source_file>
AV-unprocessed.smi

> <i_m_source_file_index>
1464

> <i_lp_mmshare_version>
43012

> <i_f3d_flags>
0

> <s_epik_input>
W0NIM11bQ0BASF0xW0NIMl1bQ0gyXVtDSDJdW0NASF0oW0NASF0xW0NIM10pW05IXUMoPU8pW0NIMl1uMltuSF1jKD1PKVtjSF1bY0hdYzI9Tw==

> <s_epik_cmdline>
J2VwaWtfcHl0aG9uJywgJy1waCcsICc3LjAnLCAnLXRuJywgJzgnLCAnLW1hJywgJzIwMCcsICctbWV0YWxfYmluZGluZycsICctaW1hZScsICc8aW5maWxlLm1hZT4nLCAnLW9tYWUnLCAnPG91dGZpbGUubWFlPic=

> <r_lp_tautomer_probability>
1

> <r_epik_Ionization_Penalty>
0.101366

> <r_epik_Ionization_Penalty_Charging>
0.101366

> <r_epik_Ionization_Penalty_Neutral>
1.90469e-08

> <r_epik_State_Penalty>
0.035861

> <r_epik_Charging_Adjusted_Penalty>
0.137227

> <i_epik_Tot_Q>
-1

> <i_epik_Tot_abs_Q>
1

> <r_epik_Metal_State_Penalty>
0.035861

> <b_epik_Metal_Only>
0

> <s_lp_Force_Field>
OPLS_2005

> <r_lp_Energy>
28.8284

> <b_lp_Chiralities_Consistent>
1

> <s_lp_Variant>
AV-unprocessed.smi:1464-6

> <Gold.Version>
5.8.1

> <Gold.Id.Protein>
6NUR|6NUR_protein|mol2

> <Gold.PLP.Fitness>
41.5287

> <Gold.PLP.PLP>
-42.7344

> <Gold.PLP.part.hbond>
-0.5897

> <Gold.PLP.part.metal>
0.0000

> <Gold.PLP.part.buried>
-3.7121

> <Gold.PLP.part.nonpolar>
-37.8783

> <Gold.PLP.part.repulsive>
0.2734

> <Gold.PLP.ligand.clash>
0.0000

> <Gold.PLP.ligand.torsion>
0.6090

> <Gold.PLP.Chemscore.Hbond>
0.0000

> <Gold.PLP.Chemscore.CHOScore>
0.0000

> <Gold.PLP.Chemscore.Metal>
0.0000

> <Gold.PLP.Chemscore.Internal.Correction>
0.0124

> <Gold.Rescore>
     Score         DG    S(hbond)    S(metal)    S(lipo)     H(rot)  DE(clash)    DE(int)     intcor
     10.83     -11.31       0.00        0.00      85.82       1.64       0.06       0.43       ----

> <Gold.Chemscore.Fitness>
10.8284

> <Gold.Chemscore.DG>
-11.3135

> <Gold.Chemscore.ZeroCoef>
-5.4800

> <Gold.Chemscore.Hbond>
0.0000

> <Gold.Chemscore.Metal>
0.0000

> <Gold.Chemscore.Lipo>
85.8248

> <Gold.Chemscore.Internal_Hbond>
0.0000

> <Gold.Chemscore.DEClash>
0.0551

> <Gold.Chemscore.DEInternal>
0.4300

> <Gold.Chemscore.Rot>
1.6438

> <Gold.Chemscore.Internal.Correction>
   9.000000E+99

> <Gold.Chemscore.Hbond.Weighted>
-0.0000

> <Gold.Chemscore.Metal.Weighted>
-0.0000

> <Gold.Chemscore.Lipo.Weighted>
-10.0415

> <Gold.Chemscore.Internal_Hbond.Weighted>
0.0000

> <Gold.Chemscore.DEClash.Weighted>
0.0551

> <Gold.Chemscore.DEInternal.Weighted>
0.4300

> <Gold.Chemscore.Rot.Weighted>
4.2080

> <Gold.Chemscore.Internal.Correction.Weighted>
   9.000000E+99

> <Gold.Protein.RotatedTorsions>
[ 6907 6896 6895 6894 ] final  162.23 input  -60.11 | X-H torsion
[ 7974 7965 7964 7962 ] final   74.79 input  175.53 | X-H torsion
[ 8008 7997 7996 7995 ] final  -36.00 input   59.86 | X-H torsion
[ 10167 10162 10161 10158 ] final -125.57 input  -65.29 | X-H torsion
[ 10718 10713 10712 10709 ] final -134.01 input   66.30 | X-H torsion
[ 10763 10752 10751 10750 ] final   80.76 input  -60.55 | X-H torsion
[ 11005 11000 10999 10996 ] final -154.12 input  -57.11 | X-H torsion

> <Gold.Protein.ActiveResidues>
 VAL166  LYS551  ARG553  GLY616  TRP617  ASP618  TYR619  PRO620  LYS621  CYS622 
 ASP623  PHE694  ASN695  SER759  ASP760  ASP761  ALA762  ILE779  LEU786  VAL792 
 PHE793  MET794  SER795  GLU796  ALA797  LYS798  CYS799  TRP800  GLU811  SER814 

> <Gold.Protein.RotatedAtoms>
  151.9436  133.3645  159.3974 H   0  0  0  0  0  0  0  0  0  0  0  0  # atno 6907 bound_to 6896
  150.6993  134.4413  159.5303 H   0  0  0  0  0  0  0  0  0  0  0  0  # atno 6908 bound_to 6896
  152.2074  134.8532  160.0552 H   0  0  0  0  0  0  0  0  0  0  0  0  # atno 6909 bound_to 6896
  145.7238  139.2658  143.1581 H   0  0  0  0  0  0  0  0  0  0  0  0  # atno 7974 bound_to 7965
  154.4082  140.1642  156.2303 H   0  0  0  0  0  0  0  0  0  0  0  0  # atno 8008 bound_to 7997
  155.9288  140.3416  155.6209 H   0  0  0  0  0  0  0  0  0  0  0  0  # atno 8009 bound_to 7997
  155.7132  140.0759  157.2353 H   0  0  0  0  0  0  0  0  0  0  0  0  # atno 8010 bound_to 7997
  139.9807  143.5745  152.2379 H   0  0  0  0  0  0  0  0  0  0  0  0  # atno 10167 bound_to 10162
  156.2509  130.7152  151.1051 H   0  0  0  0  0  0  0  0  0  0  0  0  # atno 10718 bound_to 10713
  153.1060  135.4791  154.8951 H   0  0  0  0  0  0  0  0  0  0  0  0  # atno 10763 bound_to 10752
  154.7430  135.3087  154.8697 H   0  0  0  0  0  0  0  0  0  0  0  0  # atno 10764 bound_to 10752
  153.9299  135.6846  153.4799 H   0  0  0  0  0  0  0  0  0  0  0  0  # atno 10765 bound_to 10752
  140.7008  134.3939  157.5210 H   0  0  0  0  0  0  0  0  0  0  0  0  # atno 11005 bound_to 11000
  146.0601  140.7979  142.9739 LP  0  0  0  0  0  0  0  0  0  0  0  0  # atno 17320 bound_to 7965
  144.6910  140.3184  143.7236 LP  0  0  0  0  0  0  0  0  0  0  0  0  # atno 17321 bound_to 7965
  139.6412  144.7655  151.2336 LP  0  0  0  0  0  0  0  0  0  0  0  0  # atno 17342 bound_to 10162
  140.7490  143.6315  150.8419 LP  0  0  0  0  0  0  0  0  0  0  0  0  # atno 17343 bound_to 10162
  157.7214  131.0679  150.6120 LP  0  0  0  0  0  0  0  0  0  0  0  0  # atno 17370 bound_to 10713
  156.6200  130.4403  149.5826 LP  0  0  0  0  0  0  0  0  0  0  0  0  # atno 17371 bound_to 10713
  139.8897  134.8823  156.2406 LP  0  0  0  0  0  0  0  0  0  0  0  0  # atno 17394 bound_to 11000
  141.0165  133.7065  156.1197 LP  0  0  0  0  0  0  0  0  0  0  0  0  # atno 17395 bound_to 11000

$$$$
