#       Name:                AV-unprocessed.smi:2516
#       Creating user name   scv26
#       Creation time:       Fri Mar 27 13:53:32 2020


#       File generated by GOLD software.
#

@<TRIPOS>MOLECULE
AV-unprocessed.smi:2516
    52    53     1
SMALL
NO_CHARGES


@<TRIPOS>ATOM
      1 ****        -6.0033   1.7219   0.3397 C.3            1 S1                 0.0000
      2 ****        -5.4823   1.7533  -1.1017 C.3            1 S1                 0.0000
      3 ****        -4.2364   1.0166  -1.2367 N.pl3          1 S1                 0.0000
      4 ****        -4.2815  -0.2432  -1.7342 N.2            1 S1                 0.0000
      5 ****        -3.0278  -0.6638  -1.7420 C.2            1 S1                 0.0000
      6 ****        -2.7079  -2.0384  -2.2546 C.3            1 S1                 0.0000
      7 ****        -2.1609   0.3274  -1.2104 C.2            1 S1                 0.0000
      8 ****        -0.7555   0.1850  -1.0962 N.am           1 S1                 0.0000
      9 ****         0.0066   0.5756  -0.0631 C.2            1 S1                 0.0000
     10 ****        -0.4064   1.1769   0.9286 O.2            1 S1                 0.0000
     11 ****         1.2848   0.2101  -0.2360 N.am           1 S1                 0.0000
     12 ****         2.3740   0.4451   0.7112 C.3            1 S1                 0.0000
     13 ****         3.0483   1.7852   0.3639 C.3            1 S1                 0.0000
     14 ****         3.3528  -0.7583   0.7044 C.3            1 S1                 0.0000
     15 ****         2.6419  -2.0966   1.0014 C.3            1 S1                 0.0000
     16 ****         3.6431  -3.2614   1.0601 C.3            1 S1                 0.0000
     17 ****         4.6395  -2.9966   2.0395 O.3            1 S1                 0.0000
     18 ****         5.4087  -1.8388   1.7394 C.3            1 S1                 0.0000
     19 ****         4.5053  -0.5951   1.7162 C.3            1 S1                 0.0000
     20 ****        -2.9444   1.4143  -0.9237 C.2            1 S1                 0.0000
     21 ****        -2.6211   2.7809  -0.4028 C.3            1 S1                 0.0000
     22 ****        -6.9463   2.2620   0.4229 H              1 S1                 0.0000
     23 ****        -5.2941   2.1834   1.0272 H              1 S1                 0.0000
     24 ****        -6.1754   0.6978   0.6726 H              1 S1                 0.0000
     25 ****        -6.2262   1.3233  -1.7743 H              1 S1                 0.0000
     26 ****        -5.3291   2.7802  -1.4323 H              1 S1                 0.0000
     27 ****        -1.6518  -2.2765  -2.1278 H              1 S1                 0.0000
     28 ****        -2.9410  -2.1235  -3.3162 H              1 S1                 0.0000
     29 ****        -3.2828  -2.7982  -1.7245 H              1 S1                 0.0000
     30 ****        -0.3106  -0.3923  -1.7947 H              1 S1                 0.0000
     31 ****         1.5238  -0.2819  -1.0844 H              1 S1                 0.0000
     32 ****         1.9574   0.5278   1.7169 H              1 S1                 0.0000
     33 ****         3.7846   2.0740   1.1130 H              1 S1                 0.0000
     34 ****         2.3159   2.5921   0.3173 H              1 S1                 0.0000
     35 ****         3.5514   1.7386  -0.6025 H              1 S1                 0.0000
     36 ****         3.7927  -0.8302  -0.2920 H              1 S1                 0.0000
     37 ****         2.1119  -2.0291   1.9525 H              1 S1                 0.0000
     38 ****         1.8901  -2.3151   0.2428 H              1 S1                 0.0000
     39 ****         3.1273  -4.1843   1.3255 H              1 S1                 0.0000
     40 ****         4.1072  -3.4255   0.0863 H              1 S1                 0.0000
     41 ****         6.1814  -1.7248   2.4999 H              1 S1                 0.0000
     42 ****         5.9202  -1.9660   0.7839 H              1 S1                 0.0000
     43 ****         5.1148   0.2744   1.4722 H              1 S1                 0.0000
     44 ****         4.1000  -0.4240   2.7142 H              1 S1                 0.0000
     45 ****        -1.5965   3.0598  -0.6475 H              1 S1                 0.0000
     46 ****        -2.7327   2.8169   0.6809 H              1 S1                 0.0000
     47 ****        -3.2696   3.5416  -0.8355 H              1 S1                 0.0000
     48 ****        -5.0916  -0.7480  -2.0324 LP             1 S1                 0.0000
     49 ****        -1.3762   1.4087   1.0049 LP             1 S1                 0.0000
     50 ****         0.2279   1.4335   1.6579 LP             1 S1                 0.0000
     51 ****         5.2536  -3.7841   2.0924 LP             1 S1                 0.0000
     52 ****         4.1918  -2.8631   2.9237 LP             1 S1                 0.0000
@<TRIPOS>BOND
    1    1    2 1     
    2    1   22 1     
    3    1   23 1     
    4    1   24 1     
    5    2    3 1     
    6    2   25 1     
    7    2   26 1     
    8    3   20 1     
    9    3    4 1     
   10    4    5 2     
   11    5    6 1     
   12    5    7 1     
   13    6   27 1     
   14    6   28 1     
   15    6   29 1     
   16    7    8 1     
   17    7   20 2     
   18    8    9 am    
   19    8   30 1     
   20    9   10 2     
   21    9   11 am    
   22   11   12 1     
   23   11   31 1     
   24   12   13 1     
   25   12   14 1     
   26   12   32 1     
   27   13   33 1     
   28   13   34 1     
   29   13   35 1     
   30   14   19 1     
   31   14   15 1     
   32   14   36 1     
   33   15   16 1     
   34   15   37 1     
   35   15   38 1     
   36   16   17 1     
   37   16   39 1     
   38   16   40 1     
   39   17   18 1     
   40   18   19 1     
   41   18   41 1     
   42   18   42 1     
   43   19   43 1     
   44   19   44 1     
   45   20   21 1     
   46   21   45 1     
   47   21   46 1     
   48   21   47 1     
   49    4   48 1     
   50   10   49 1     
   51   10   50 1     
   52   17   51 1     
   53   17   52 1     
@<TRIPOS>SUBSTRUCTURE
      1 S1             1
@<TRIPOS>SET
LONE_PAIRS      STATIC     ATOMS    <user>   **** ""
5 48 49 50 51 52
DONOR_HYDROGENS      STATIC     ATOMS    <user>   **** ""
2 30 31
ATOM$BLUE        STATIC     ATOMS    COLORGROUP SYSTEM
5 48 49 50 51 52
ATOM$RED        STATIC     ATOMS    COLORGROUP SYSTEM
2 30 31
