#       Name:                AV-unprocessed.smi:1124
#       Creating user name   scv26
#       Creation time:       Fri Mar 27 03:39:39 2020


#       File generated by GOLD software.
#

@<TRIPOS>MOLECULE
AV-unprocessed.smi:1124
    58    59     1
SMALL
NO_CHARGES


@<TRIPOS>ATOM
      1 ****        -2.4614   3.8826  -0.3510 C.3            1 S1                 0.0000
      2 ****        -1.5351   3.5582  -1.4588 N.4            1 S1                 1.0000
      3 ****        -2.2174   3.5680  -2.7716 C.3            1 S1                 0.0000
      4 ****        -0.7512   2.3165  -1.2203 C.3            1 S1                 0.0000
      5 ****         0.7633   2.5851  -1.0008 C.3            1 S1                 0.0000
      6 ****         1.3507   3.3162  -2.2269 C.3            1 S1                 0.0000
      7 ****         0.9860   3.4497   0.2599 C.3            1 S1                 0.0000
      8 ****         1.5285   1.2413  -0.8528 C.3            1 S1                 0.0000
      9 ****         1.1473   0.4710   0.3297 N.am           1 S1                 0.0000
     10 ****         0.2890  -0.5617   0.3486 C.2            1 S1                 0.0000
     11 ****        -0.2857  -0.9854  -0.6546 O.2            1 S1                 0.0000
     12 ****         0.0848  -1.1974   1.6990 C.ar           1 S1                 0.0000
     13 ****        -0.0888  -0.3708   2.8337 C.ar           1 S1                 0.0000
     14 ****        -0.3292  -0.9545   4.0897 C.ar           1 S1                 0.0000
     15 ****        -0.3966  -2.3556   4.1688 C.ar           1 S1                 0.0000
     16 ****        -0.2377  -3.1615   3.1002 N.ar           1 S1                 0.0000
     17 ****        -0.0014  -2.6099   1.8837 C.ar           1 S1                 0.0000
     18 ****         0.1976  -3.5071   0.8149 N.3            1 S1                 0.0000
     19 ****        -0.5613  -4.7536   0.8324 C.3            1 S1                 0.0000
     20 ****        -0.4024  -5.4795  -0.5144 C.3            1 S1                 0.0000
     21 ****         0.9814  -5.6873  -0.7844 O.3            1 S1                 0.0000
     22 ****         1.7009  -4.4603  -0.8728 C.3            1 S1                 0.0000
     23 ****         1.5985  -3.7022   0.4617 C.3            1 S1                 0.0000
     24 ****        -3.2428   3.1270  -0.2599 H              1 S1                 0.0000
     25 ****        -2.9384   4.8487  -0.5193 H              1 S1                 0.0000
     26 ****        -1.9270   3.9378   0.5978 H              1 S1                 0.0000
     27 ****        -2.9706   2.7810  -2.8273 H              1 S1                 0.0000
     28 ****        -1.5003   3.4151  -3.5789 H              1 S1                 0.0000
     29 ****        -2.7097   4.5259  -2.9431 H              1 S1                 0.0000
     30 ****        -1.1702   1.7884  -0.3629 H              1 S1                 0.0000
     31 ****        -0.8730   1.6323  -2.0620 H              1 S1                 0.0000
     32 ****         2.4255   3.4677  -2.1205 H              1 S1                 0.0000
     33 ****         0.9036   4.3004  -2.3695 H              1 S1                 0.0000
     34 ****         1.1904   2.7466  -3.1432 H              1 S1                 0.0000
     35 ****         2.0489   3.5787   0.4670 H              1 S1                 0.0000
     36 ****         0.5311   3.0013   1.1440 H              1 S1                 0.0000
     37 ****         0.5588   4.4461   0.1457 H              1 S1                 0.0000
     38 ****         1.4130   0.6369  -1.7545 H              1 S1                 0.0000
     39 ****         2.5984   1.4355  -0.7688 H              1 S1                 0.0000
     40 ****         1.5832   0.7350   1.2017 H              1 S1                 0.0000
     41 ****        -0.0503   0.7058   2.7493 H              1 S1                 0.0000
     42 ****        -0.4658  -0.3434   4.9697 H              1 S1                 0.0000
     43 ****        -0.5829  -2.8430   5.1144 H              1 S1                 0.0000
     44 ****        -0.2025  -5.3940   1.6395 H              1 S1                 0.0000
     45 ****        -1.6145  -4.5449   1.0241 H              1 S1                 0.0000
     46 ****        -0.9084  -6.4446  -0.4839 H              1 S1                 0.0000
     47 ****        -0.8588  -4.9050  -1.3224 H              1 S1                 0.0000
     48 ****         2.7441  -4.6754  -1.1041 H              1 S1                 0.0000
     49 ****         1.3103  -3.8555  -1.6931 H              1 S1                 0.0000
     50 ****         2.1163  -2.7459   0.3856 H              1 S1                 0.0000
     51 ****         2.0908  -4.2690   1.2530 H              1 S1                 0.0000
     52 ****        -0.8600   4.3087  -1.4908 H              1 S1                 0.0000
     53 ****        -0.1227  -0.5561  -1.5430 LP             1 S1                 0.0000
     54 ****        -0.9153  -1.7588  -0.5810 LP             1 S1                 0.0000
     55 ****        -0.2934  -4.1546   3.2030 LP             1 S1                 0.0000
     56 ****        -0.2297  -3.0062   0.0622 LP             1 S1                 0.0000
     57 ****         1.0707  -6.1766  -1.6520 LP             1 S1                 0.0000
     58 ****         1.3741  -6.2390  -0.0486 LP             1 S1                 0.0000
@<TRIPOS>BOND
    1    1    2 1     
    2    1   24 1     
    3    1   25 1     
    4    1   26 1     
    5    2    3 1     
    6    2    4 1     
    7    2   52 1     
    8    3   27 1     
    9    3   28 1     
   10    3   29 1     
   11    4    5 1     
   12    4   30 1     
   13    4   31 1     
   14    5    6 1     
   15    5    7 1     
   16    5    8 1     
   17    6   32 1     
   18    6   33 1     
   19    6   34 1     
   20    7   35 1     
   21    7   36 1     
   22    7   37 1     
   23    8    9 1     
   24    8   38 1     
   25    8   39 1     
   26    9   10 am    
   27    9   40 1     
   28   10   11 2     
   29   10   12 1     
   30   12   17 ar    
   31   12   13 ar    
   32   13   14 ar    
   33   13   41 1     
   34   14   15 ar    
   35   14   42 1     
   36   15   16 ar    
   37   15   43 1     
   38   16   17 ar    
   39   17   18 1     
   40   18   23 1     
   41   18   19 1     
   42   19   20 1     
   43   19   44 1     
   44   19   45 1     
   45   20   21 1     
   46   20   46 1     
   47   20   47 1     
   48   21   22 1     
   49   22   23 1     
   50   22   48 1     
   51   22   49 1     
   52   23   50 1     
   53   23   51 1     
   54   11   53 1     
   55   11   54 1     
   56   16   55 1     
   57   18   56 1     
   58   21   57 1     
   59   21   58 1     
@<TRIPOS>SUBSTRUCTURE
      1 S1             1
@<TRIPOS>SET
LONE_PAIRS      STATIC     ATOMS    <user>   **** ""
6 53 54 55 56 57 58
DONOR_HYDROGENS      STATIC     ATOMS    <user>   **** ""
2 52 40
ATOM$BLUE        STATIC     ATOMS    COLORGROUP SYSTEM
6 53 54 55 56 57 58
ATOM$RED        STATIC     ATOMS    COLORGROUP SYSTEM
2 52 40
