AV-unprocessed.smi:2340|AV-procd|sdf|9344|dock3
  -GOLD-   2272012563D 1   1.00000     0.00000
 Structure written by MMmdl.
 40 41  0  0  0  0  0  0  0  0  1 V2000
  144.6340  132.2250  150.1011 C   0  0  0  0  0  0  0  0  0  0  0  0
  145.5015  131.6668  151.1849 C   0  0  0  0  0  0  0  0  0  0  0  0
  145.4835  130.3872  151.6805 C   0  0  0  0  0  0  0  0  0  0  0  0
  146.6565  130.1655  152.9488 S   0  0  0  0  0  0  0  0  0  0  0  0
  147.1463  131.8462  152.7492 C   0  0  0  0  0  0  0  0  0  0  0  0
  148.2047  132.5058  153.5821 C   0  0  2  0  0  0  0  0  0  0  0  0
  148.9461  131.4960  154.4698 C   0  0  0  0  0  0  0  0  0  0  0  0
  147.6629  133.7041  154.3851 C   0  0  0  0  0  0  0  0  0  0  0  0
  148.4167  134.9194  154.0995 N   0  0  0  0  0  0  0  0  0  0  0  0
  148.6637  135.8903  154.9864 C   0  0  0  0  0  0  0  0  0  0  0  0
  148.3009  135.8598  156.1624 O   0  0  0  0  0  0  0  0  0  0  0  0
  149.3519  136.8982  154.4348 N   0  0  0  0  0  0  0  0  0  0  0  0
  149.7836  138.1028  155.1358 C   0  0  2  0  0  0  0  0  0  0  0  0
  148.6959  139.1570  155.1518 C   0  0  0  0  0  0  0  0  0  0  0  0
  149.5004  140.4363  155.3502 C   0  0  0  0  0  0  0  0  0  0  0  0
  150.7489  140.2155  154.7027 O   0  0  0  0  0  0  0  0  0  0  0  0
  150.9110  138.8334  154.3935 C   0  0  1  0  0  0  0  0  0  0  0  0
  152.3229  138.3704  154.7731 C   0  0  0  0  0  0  0  0  0  0  0  0
  146.4521  132.4844  151.8024 N   0  0  0  0  0  0  0  0  0  0  0  0
  143.8950  131.4965  149.7668 H   0  0  0  0  0  0  0  0  0  0  0  0
  145.2267  132.5155  149.2335 H   0  0  0  0  0  0  0  0  0  0  0  0
  144.0936  133.1074  150.4443 H   0  0  0  0  0  0  0  0  0  0  0  0
  144.8512  129.5646  151.3803 H   0  0  0  0  0  0  0  0  0  0  0  0
  148.9454  132.9051  152.8869 H   0  0  0  0  0  0  0  0  0  0  0  0
  149.3872  130.6983  153.8710 H   0  0  0  0  0  0  0  0  0  0  0  0
  148.2756  131.0358  155.1961 H   0  0  0  0  0  0  0  0  0  0  0  0
  149.7524  131.9788  155.0226 H   0  0  0  0  0  0  0  0  0  0  0  0
  146.6117  133.8639  154.1381 H   0  0  0  0  0  0  0  0  0  0  0  0
  147.7098  133.4971  155.4550 H   0  0  0  0  0  0  0  0  0  0  0  0
  148.7561  135.0348  153.1555 H   0  0  0  0  0  0  0  0  0  0  0  0
  149.6000  136.8267  153.4590 H   0  0  0  0  0  0  0  0  0  0  0  0
  150.0793  137.8844  156.1642 H   0  0  0  0  0  0  0  0  0  0  0  0
  148.1797  139.1929  154.1908 H   0  0  0  0  0  0  0  0  0  0  0  0
  147.9524  138.9964  155.9330 H   0  0  0  0  0  0  0  0  0  0  0  0
  148.9932  141.3157  154.9524 H   0  0  0  0  0  0  0  0  0  0  0  0
  149.6875  140.6039  156.4116 H   0  0  0  0  0  0  0  0  0  0  0  0
  150.7696  138.7317  153.3162 H   0  0  0  0  0  0  0  0  0  0  0  0
  152.4747  137.3212  154.5199 H   0  0  0  0  0  0  0  0  0  0  0  0
  152.5027  138.4870  155.8421 H   0  0  0  0  0  0  0  0  0  0  0  0
  153.0777  138.9506  154.2423 H   0  0  0  0  0  0  0  0  0  0  0  0
  1  2  1  0  0  0  0
  1 20  1  0  0  0  0
  1 21  1  0  0  0  0
  1 22  1  0  0  0  0
  2 19  1  0  0  0  0
  2  3  2  0  0  0  0
  3  4  1  0  0  0  0
  3 23  1  0  0  0  0
  4  5  1  0  0  0  0
  5  6  1  0  0  0  0
  5 19  2  0  0  0  0
  6  7  1  0  0  0  0
  6  8  1  0  0  0  0
  6 24  1  0  0  0  0
  7 25  1  0  0  0  0
  7 26  1  0  0  0  0
  7 27  1  0  0  0  0
  8  9  1  0  0  0  0
  8 28  1  0  0  0  0
  8 29  1  0  0  0  0
  9 10  1  0  0  0  0
  9 30  1  0  0  0  0
 10 11  2  0  0  0  0
 10 12  1  0  0  0  0
 12 13  1  0  0  0  0
 12 31  1  0  0  0  0
 13 17  1  0  0  0  0
 13 14  1  0  0  0  0
 13 32  1  0  0  0  0
 14 15  1  0  0  0  0
 14 33  1  0  0  0  0
 14 34  1  0  0  0  0
 15 16  1  0  0  0  0
 15 35  1  0  0  0  0
 15 36  1  0  0  0  0
 16 17  1  0  0  0  0
 17 18  1  0  0  0  0
 17 37  1  0  0  0  0
 18 38  1  0  0  0  0
 18 39  1  0  0  0  0
 18 40  1  0  0  0  0
M  END
> <s_m_source_file>
AV-unprocessed.smi

> <i_m_source_file_index>
2340

> <i_lp_mmshare_version>
43012

> <i_f3d_flags>
0

> <s_epik_input>
W0NIM11jMVtjSF1zYyhuMSlbQ0BIXShbQ0gzXSlbQ0gyXVtOSF1DKD1PKVtOSF1bQ0BASF0yW0NIMl1bQ0gyXU9bQ0BIXTJbQ0gzXQ==

> <s_epik_cmdline>
J2VwaWtfcHl0aG9uJywgJy1waCcsICc3LjAnLCAnLXRuJywgJzgnLCAnLW1hJywgJzIwMCcsICctbWV0YWxfYmluZGluZycsICctaW1hZScsICc8aW5maWxlLm1hZT4nLCAnLW9tYWUnLCAnPG91dGZpbGUubWFlPic=

> <r_epik_Ionization_Penalty>
0.00156622

> <r_epik_Ionization_Penalty_Charging>
0

> <r_epik_Ionization_Penalty_Neutral>
0.00156622

> <r_epik_State_Penalty>
0.00101902

> <r_epik_Charging_Adjusted_Penalty>
0.00101902

> <i_epik_Tot_Q>
0

> <i_epik_Tot_abs_Q>
0

> <r_epik_Metal_State_Penalty>
-0

> <b_epik_Metal_Only>
0

> <s_lp_Force_Field>
OPLS_2005

> <r_lp_Energy>
4.8577

> <b_lp_Chiralities_Consistent>
1

> <s_lp_Variant>
AV-unprocessed.smi:2340-1

> <Gold.Version>
5.8.1

> <Gold.Id.Protein>
6NUR|6NUR_protein|mol2

> <Gold.PLP.Fitness>
38.3141

> <Gold.PLP.PLP>
-32.1976

> <Gold.PLP.part.hbond>
-3.0000

> <Gold.PLP.part.metal>
0.0000

> <Gold.PLP.part.buried>
-4.4563

> <Gold.PLP.part.nonpolar>
-25.3550

> <Gold.PLP.part.repulsive>
0.2442

> <Gold.PLP.ligand.clash>
0.0000

> <Gold.PLP.ligand.torsion>
1.2578

> <Gold.PLP.Chemscore.Hbond>
2.8400

> <Gold.PLP.Chemscore.CHOScore>
0.0000

> <Gold.PLP.Chemscore.Metal>
0.0000

> <Gold.Chemscore.Hbonds>
donor molecule, donor type, donor heavy atom, donor atom, acceptor molecule, acceptor atom, score
      L1  H     9    30       P1  7948  0.90
      L1  H    12    31       P1  7948  0.86
      P1  H  7989  7998       L1    16  1.00

> <Gold.PLP.Chemscore.Internal.Correction>
0.1121

> <Gold.Rescore>
     Score         DG    S(hbond)    S(metal)    S(lipo)     H(rot)  DE(clash)    DE(int)     intcor
     18.89     -20.00       2.62        0.00      82.85       1.53       0.00       1.11       ----

> <Gold.Chemscore.Fitness>
18.8943

> <Gold.Chemscore.DG>
-20.0049

> <Gold.Chemscore.ZeroCoef>
-5.4800

> <Gold.Chemscore.Hbond>
2.6211

> <Gold.Chemscore.Metal>
0.0000

> <Gold.Chemscore.Lipo>
82.8519

> <Gold.Chemscore.Internal_Hbond>
0.0000

> <Gold.Chemscore.DEClash>
0.0048

> <Gold.Chemscore.DEInternal>
1.1058

> <Gold.Chemscore.Rot>
1.5325

> <Gold.Chemscore.Internal.Correction>
   9.000000E+99

> <Gold.Chemscore.Hbonds>
donor molecule, donor type, donor heavy atom, donor atom, acceptor molecule, acceptor atom, score
      L1  H     9    30       P1  7948  0.44
      L1  H    12    31       P1  7948  0.59
      P1  H  7989  7998       L1    16  0.25

> <Gold.Chemscore.Hbond.Weighted>
-8.7545

> <Gold.Chemscore.Metal.Weighted>
-0.0000

> <Gold.Chemscore.Lipo.Weighted>
-9.6937

> <Gold.Chemscore.Internal_Hbond.Weighted>
0.0000

> <Gold.Chemscore.DEClash.Weighted>
0.0048

> <Gold.Chemscore.DEInternal.Weighted>
1.1058

> <Gold.Chemscore.Rot.Weighted>
3.9233

> <Gold.Chemscore.Internal.Correction.Weighted>
   9.000000E+99

> <Gold.Protein.RotatedTorsions>
[ 6907 6896 6895 6894 ] final  131.30 input  -60.11 | X-H torsion
[ 7974 7965 7964 7962 ] final   73.41 input  175.53 | X-H torsion
[ 8008 7997 7996 7995 ] final  -64.45 input   59.86 | X-H torsion
[ 10167 10162 10161 10158 ] final -131.40 input  -65.29 | X-H torsion
[ 10718 10713 10712 10709 ] final -127.30 input   66.30 | X-H torsion
[ 10763 10752 10751 10750 ] final  -83.80 input  -60.55 | X-H torsion
[ 11005 11000 10999 10996 ] final   55.89 input  -57.11 | X-H torsion

> <Gold.Protein.ActiveResidues>
 VAL166  LYS551  ARG553  GLY616  TRP617  ASP618  TYR619  PRO620  LYS621  CYS622 
 ASP623  PHE694  ASN695  SER759  ASP760  ASP761  ALA762  ILE779  LEU786  VAL792 
 PHE793  MET794  SER795  GLU796  ALA797  LYS798  CYS799  TRP800  GLU811  SER814 

> <Gold.Protein.RotatedAtoms>
  152.3440  133.6100  159.5896 H   0  0  0  0  0  0  0  0  0  0  0  0  # atno 6907 bound_to 6896
  150.7496  133.9678  159.3545 H   0  0  0  0  0  0  0  0  0  0  0  0  # atno 6908 bound_to 6896
  151.7538  135.0827  160.0386 H   0  0  0  0  0  0  0  0  0  0  0  0  # atno 6909 bound_to 6896
  145.7412  139.2722  143.1485 H   0  0  0  0  0  0  0  0  0  0  0  0  # atno 7974 bound_to 7965
  154.4612  140.0953  156.6899 H   0  0  0  0  0  0  0  0  0  0  0  0  # atno 8008 bound_to 7997
  155.4988  140.3473  155.4349 H   0  0  0  0  0  0  0  0  0  0  0  0  # atno 8009 bound_to 7997
  156.0874  140.1388  156.9624 H   0  0  0  0  0  0  0  0  0  0  0  0  # atno 8010 bound_to 7997
  139.9193  143.6402  152.2557 H   0  0  0  0  0  0  0  0  0  0  0  0  # atno 10167 bound_to 10162
  156.1844  130.6753  151.0345 H   0  0  0  0  0  0  0  0  0  0  0  0  # atno 10718 bound_to 10713
  154.5920  135.5543  153.7288 H   0  0  0  0  0  0  0  0  0  0  0  0  # atno 10763 bound_to 10752
  153.0120  135.6345  154.1835 H   0  0  0  0  0  0  0  0  0  0  0  0  # atno 10764 bound_to 10752
  154.1776  135.2889  155.3042 H   0  0  0  0  0  0  0  0  0  0  0  0  # atno 10765 bound_to 10752
  140.0571  134.5654  155.9194 H   0  0  0  0  0  0  0  0  0  0  0  0  # atno 11005 bound_to 11000
  146.0446  140.8131  142.9812 LP  0  0  0  0  0  0  0  0  0  0  0  0  # atno 17320 bound_to 7965
  144.6870  140.2961  143.7270 LP  0  0  0  0  0  0  0  0  0  0  0  0  # atno 17321 bound_to 7965
  139.6876  144.7650  151.1497 LP  0  0  0  0  0  0  0  0  0  0  0  0  # atno 17342 bound_to 10162
  140.7666  143.5635  150.9073 LP  0  0  0  0  0  0  0  0  0  0  0  0  # atno 17343 bound_to 10162
  157.6889  131.0816  150.7164 LP  0  0  0  0  0  0  0  0  0  0  0  0  # atno 17370 bound_to 10713
  156.7221  130.4683  149.5520 LP  0  0  0  0  0  0  0  0  0  0  0  0  # atno 17371 bound_to 10713
  141.1957  133.6588  156.5655 LP  0  0  0  0  0  0  0  0  0  0  0  0  # atno 17394 bound_to 11000
  140.3827  134.7509  157.4671 LP  0  0  0  0  0  0  0  0  0  0  0  0  # atno 17395 bound_to 11000

$$$$
