AV-unprocessed.smi:901|AV-procd|sdf|4093|dock7
  -GOLD-   22720 1583D 1   1.00000     0.00000
 Structure written by MMmdl.
 43 44  0  0  0  0  0  0  0  0  1 V2000
  152.0350  144.6255  159.1428 C   0  0  0  0  0  0  0  0  0  0  0  0
  151.9204  143.1216  158.9910 C   0  0  0  0  0  0  0  0  0  0  0  0
  152.3981  142.3241  160.1916 C   0  0  0  0  0  0  0  0  0  0  0  0
  151.4314  142.5592  157.8691 C   0  0  0  0  0  0  0  0  0  0  0  0
  151.2719  141.1055  157.6007 C   0  0  1  0  0  0  0  0  0  0  0  0
  149.8907  140.4794  157.5309 C   0  0  2  0  0  0  0  0  0  0  0  0
  149.6792  139.1259  158.1370 C   0  0  0  0  0  0  0  0  0  0  0  0
  150.6073  138.4001  158.4971 O   0  0  0  0  0  0  0  0  0  0  0  0
  148.3791  138.7988  158.2517 N   0  0  0  0  0  0  0  0  0  0  0  0
  147.8255  137.6050  158.7809 C   0  0  0  0  0  0  0  0  0  0  0  0
  148.3593  136.3373  158.4200 C   0  0  0  0  0  0  0  0  0  0  0  0
  147.5770  135.4580  159.1133 C   0  0  0  0  0  0  0  0  0  0  0  0
  146.6505  136.1960  159.8242 N   0  0  0  0  0  0  0  0  0  0  0  0
  145.6013  135.7166  160.7090 C   0  0  0  0  0  0  0  0  0  0  0  0
  146.1551  134.8571  161.8515 C   0  0  0  0  0  0  0  0  0  0  0  0
  146.7728  133.7243  161.5072 N   0  0  0  0  0  0  0  0  0  0  0  0
  146.0352  135.2037  163.0256 O   0  0  0  0  0  0  0  0  0  0  0  0
  146.8059  137.5233  159.6248 N   0  0  0  0  0  0  0  0  0  0  0  0
  150.7388  140.6017  156.2694 C   0  0  0  0  0  0  0  0  0  0  0  0
  150.2577  141.5637  155.1932 C   0  0  0  0  0  0  0  0  0  0  0  0
  151.4277  139.4125  155.6101 C   0  0  0  0  0  0  0  0  0  0  0  0
  151.4381  144.9662  159.9894 H   0  0  0  0  0  0  0  0  0  0  0  0
  151.6870  145.1475  158.2508 H   0  0  0  0  0  0  0  0  0  0  0  0
  153.0729  144.9096  159.3186 H   0  0  0  0  0  0  0  0  0  0  0  0
  153.4556  142.5175  160.3717 H   0  0  0  0  0  0  0  0  0  0  0  0
  152.2717  141.2502  160.0577 H   0  0  0  0  0  0  0  0  0  0  0  0
  151.8417  142.6171  161.0822 H   0  0  0  0  0  0  0  0  0  0  0  0
  151.1104  143.2084  157.0675 H   0  0  0  0  0  0  0  0  0  0  0  0
  152.0609  140.5248  158.0755 H   0  0  0  0  0  0  0  0  0  0  0  0
  149.0394  141.1559  157.5961 H   0  0  0  0  0  0  0  0  0  0  0  0
  147.7128  139.4817  157.9220 H   0  0  0  0  0  0  0  0  0  0  0  0
  149.1816  136.1079  157.7586 H   0  0  0  0  0  0  0  0  0  0  0  0
  147.5989  134.3790  159.1575 H   0  0  0  0  0  0  0  0  0  0  0  0
  145.0700  136.5813  161.1089 H   0  0  0  0  0  0  0  0  0  0  0  0
  144.8796  135.1315  160.1364 H   0  0  0  0  0  0  0  0  0  0  0  0
  147.1528  133.1180  162.2197 H   0  0  0  0  0  0  0  0  0  0  0  0
  146.8535  133.4761  160.5317 H   0  0  0  0  0  0  0  0  0  0  0  0
  149.5829  141.0542  154.5046 H   0  0  0  0  0  0  0  0  0  0  0  0
  151.1031  141.9550  154.6270 H   0  0  0  0  0  0  0  0  0  0  0  0
  149.7217  142.4069  155.6298 H   0  0  0  0  0  0  0  0  0  0  0  0
  150.6939  138.7794  155.1105 H   0  0  0  0  0  0  0  0  0  0  0  0
  151.9709  138.8088  156.3364 H   0  0  0  0  0  0  0  0  0  0  0  0
  152.1503  139.7553  154.8689 H   0  0  0  0  0  0  0  0  0  0  0  0
  1  2  1  0  0  0  0
  1 22  1  0  0  0  0
  1 23  1  0  0  0  0
  1 24  1  0  0  0  0
  2  3  1  0  0  0  0
  2  4  2  0  0  0  0
  3 25  1  0  0  0  0
  3 26  1  0  0  0  0
  3 27  1  0  0  0  0
  4  5  1  0  0  0  0
  4 28  1  0  0  0  0
  5 19  1  0  0  0  0
  5  6  1  0  0  0  0
  5 29  1  0  0  0  0
  6  7  1  0  0  0  0
  6 19  1  0  0  0  0
  6 30  1  0  0  0  0
  7  8  2  0  0  0  0
  7  9  1  0  0  0  0
  9 10  1  0  0  0  0
  9 31  1  0  0  0  0
 10 18  2  0  0  0  0
 10 11  1  0  0  0  0
 11 12  2  0  0  0  0
 11 32  1  0  0  0  0
 12 13  1  0  0  0  0
 12 33  1  0  0  0  0
 13 14  1  0  0  0  0
 13 18  1  0  0  0  0
 14 15  1  0  0  0  0
 14 34  1  0  0  0  0
 14 35  1  0  0  0  0
 15 16  1  0  0  0  0
 15 17  2  0  0  0  0
 16 36  1  0  0  0  0
 16 37  1  0  0  0  0
 19 20  1  0  0  0  0
 19 21  1  0  0  0  0
 20 38  1  0  0  0  0
 20 39  1  0  0  0  0
 20 40  1  0  0  0  0
 21 41  1  0  0  0  0
 21 42  1  0  0  0  0
 21 43  1  0  0  0  0
M  END
> <s_m_source_file>
AV-unprocessed.smi

> <i_m_source_file_index>
901

> <i_lp_mmshare_version>
43012

> <i_f3d_flags>
0

> <s_epik_input>
W0NIM11DKFtDSDNdKT1bQ0hdW0NAQEhdKEMxKFtDSDNdKVtDSDNdKVtDQEhdMUMoPU8pW05IXWMyW2NIXVtjSF1uKG4yKVtDSDJdQyg9TylbTkgyXQ==

> <s_epik_cmdline>
J2VwaWtfcHl0aG9uJywgJy1waCcsICc3LjAnLCAnLXRuJywgJzgnLCAnLW1hJywgJzIwMCcsICctbWV0YWxfYmluZGluZycsICctaW1hZScsICc8aW5maWxlLm1hZT4nLCAnLW9tYWUnLCAnPG91dGZpbGUubWFlPic=

> <r_lp_tautomer_probability>
1

> <r_epik_Ionization_Penalty>
1.01454e-05

> <r_epik_Ionization_Penalty_Charging>
0

> <r_epik_Ionization_Penalty_Neutral>
1.01454e-05

> <r_epik_State_Penalty>
-0

> <r_epik_Charging_Adjusted_Penalty>
0

> <i_epik_Tot_Q>
0

> <i_epik_Tot_abs_Q>
0

> <r_epik_Metal_State_Penalty>
-0

> <b_epik_Metal_Only>
0

> <s_lp_Force_Field>
OPLS_2005

> <r_lp_Energy>
18.0241

> <b_lp_Chiralities_Consistent>
1

> <s_lp_Variant>
AV-unprocessed.smi:901-4

> <Gold.Version>
5.8.1

> <Gold.Id.Protein>
6NUR|6NUR_protein|mol2

> <Gold.PLP.Fitness>
41.3501

> <Gold.PLP.PLP>
-39.4166

> <Gold.PLP.part.hbond>
-2.9832

> <Gold.PLP.part.metal>
0.0000

> <Gold.PLP.part.buried>
-4.2887

> <Gold.PLP.part.nonpolar>
-32.7521

> <Gold.PLP.part.repulsive>
0.4246

> <Gold.PLP.ligand.clash>
0.0000

> <Gold.PLP.ligand.torsion>
0.5838

> <Gold.PLP.Chemscore.Hbond>
0.9760

> <Gold.PLP.Chemscore.CHOScore>
0.0000

> <Gold.PLP.Chemscore.Metal>
0.0000

> <Gold.Chemscore.Hbonds>
donor molecule, donor type, donor heavy atom, donor atom, acceptor molecule, acceptor atom, score
      P1  H  6934  6947       L1    18  0.96

> <Gold.PLP.Chemscore.Internal.Correction>
0.1731

> <Gold.Rescore>
     Score         DG    S(hbond)    S(metal)    S(lipo)     H(rot)  DE(clash)    DE(int)     intcor
     10.46     -12.36       0.67        0.00      86.21       2.13       0.19       1.71       ----

> <Gold.Chemscore.Fitness>
10.4584

> <Gold.Chemscore.DG>
-12.3632

> <Gold.Chemscore.ZeroCoef>
-5.4800

> <Gold.Chemscore.Hbond>
0.6743

> <Gold.Chemscore.Metal>
0.0000

> <Gold.Chemscore.Lipo>
86.2078

> <Gold.Chemscore.Internal_Hbond>
0.0000

> <Gold.Chemscore.DEClash>
0.1931

> <Gold.Chemscore.DEInternal>
1.7117

> <Gold.Chemscore.Rot>
2.1309

> <Gold.Chemscore.Internal.Correction>
   9.000000E+99

> <Gold.Chemscore.Hbonds>
donor molecule, donor type, donor heavy atom, donor atom, acceptor molecule, acceptor atom, score
      P1  H  6934  6947       L1    18  0.30

> <Gold.Chemscore.Hbond.Weighted>
-2.2521

> <Gold.Chemscore.Metal.Weighted>
-0.0000

> <Gold.Chemscore.Lipo.Weighted>
-10.0863

> <Gold.Chemscore.Internal_Hbond.Weighted>
0.0000

> <Gold.Chemscore.DEClash.Weighted>
0.1931

> <Gold.Chemscore.DEInternal.Weighted>
1.7117

> <Gold.Chemscore.Rot.Weighted>
5.4552

> <Gold.Chemscore.Internal.Correction.Weighted>
   9.000000E+99

> <Gold.Protein.RotatedTorsions>
[ 6907 6896 6895 6894 ] final  -38.06 input  -60.11 | X-H torsion
[ 7974 7965 7964 7962 ] final  150.88 input  175.53 | X-H torsion
[ 8008 7997 7996 7995 ] final   83.35 input   59.86 | X-H torsion
[ 10167 10162 10161 10158 ] final -104.11 input  -65.29 | X-H torsion
[ 10718 10713 10712 10709 ] final  -62.26 input   66.30 | X-H torsion
[ 10763 10752 10751 10750 ] final  -49.11 input  -60.55 | X-H torsion
[ 11005 11000 10999 10996 ] final  167.85 input  -57.11 | X-H torsion

> <Gold.Protein.ActiveResidues>
 VAL166  LYS551  ARG553  GLY616  TRP617  ASP618  TYR619  PRO620  LYS621  CYS622 
 ASP623  PHE694  ASN695  SER759  ASP760  ASP761  ALA762  ILE779  LEU786  VAL792 
 PHE793  MET794  SER795  GLU796  ALA797  LYS798  CYS799  TRP800  GLU811  SER814 

> <Gold.Protein.RotatedAtoms>
  151.0071  134.9368  159.7986 H   0  0  0  0  0  0  0  0  0  0  0  0  # atno 6907 bound_to 6896
  152.5293  134.3077  159.9112 H   0  0  0  0  0  0  0  0  0  0  0  0  # atno 6908 bound_to 6896
  151.3083  133.4050  159.2679 H   0  0  0  0  0  0  0  0  0  0  0  0  # atno 6909 bound_to 6896
  144.8332  139.6465  143.6049 H   0  0  0  0  0  0  0  0  0  0  0  0  # atno 7974 bound_to 7965
  155.9227  140.3420  155.6186 H   0  0  0  0  0  0  0  0  0  0  0  0  # atno 8008 bound_to 7997
  155.7253  140.0788  157.2331 H   0  0  0  0  0  0  0  0  0  0  0  0  # atno 8009 bound_to 7997
  154.4072  140.1598  156.2436 H   0  0  0  0  0  0  0  0  0  0  0  0  # atno 8010 bound_to 7997
  140.2128  143.3734  152.1036 H   0  0  0  0  0  0  0  0  0  0  0  0  # atno 10167 bound_to 10162
  156.0867  130.4207  150.1110 H   0  0  0  0  0  0  0  0  0  0  0  0  # atno 10718 bound_to 10713
  154.0888  135.6580  153.4849 H   0  0  0  0  0  0  0  0  0  0  0  0  # atno 10763 bound_to 10752
  153.0329  135.5197  154.7401 H   0  0  0  0  0  0  0  0  0  0  0  0  # atno 10764 bound_to 10752
  154.6518  135.3002  154.9945 H   0  0  0  0  0  0  0  0  0  0  0  0  # atno 10765 bound_to 10752
  140.2811  134.7749  157.3759 H   0  0  0  0  0  0  0  0  0  0  0  0  # atno 11005 bound_to 11000
  146.2633  139.6462  142.9346 LP  0  0  0  0  0  0  0  0  0  0  0  0  # atno 17320 bound_to 7965
  145.4850  141.0438  143.2624 LP  0  0  0  0  0  0  0  0  0  0  0  0  # atno 17321 bound_to 7965
  139.5173  144.6990  151.5547 LP  0  0  0  0  0  0  0  0  0  0  0  0  # atno 17342 bound_to 10162
  140.6311  143.9073  150.6607 LP  0  0  0  0  0  0  0  0  0  0  0  0  # atno 17343 bound_to 10162
  156.9129  130.9657  151.3560 LP  0  0  0  0  0  0  0  0  0  0  0  0  # atno 17370 bound_to 10713
  157.6004  130.8508  149.8793 LP  0  0  0  0  0  0  0  0  0  0  0  0  # atno 17371 bound_to 10713
  140.1282  134.5129  155.8127 LP  0  0  0  0  0  0  0  0  0  0  0  0  # atno 17394 bound_to 11000
  141.2162  133.6780  156.6991 LP  0  0  0  0  0  0  0  0  0  0  0  0  # atno 17395 bound_to 11000

$$$$
