AV-unprocessed.smi:3208|AV-procd|sdf|12264|dock4
  -GOLD-   2272018103D 1   1.00000     0.00000
 Structure written by MMmdl.
 29 29  0  0  0  0  0  0  0  0  2 V2000
  151.9613  139.0935  155.0313 C   0  0  0  0  0  0  0  0  0  0  0  0
  151.1927  138.0544  154.6676 C   0  0  0  0  0  0  0  0  0  0  0  0
  149.8067  137.7530  155.2032 C   0  0  0  0  0  0  0  0  0  0  0  0
  149.8555  136.9414  156.3727 O   0  0  0  0  0  0  0  0  0  0  0  0
  148.5862  136.5920  156.9198 C   0  0  2  0  0  0  0  0  0  0  0  0
  147.9211  137.8817  157.4197 C   0  0  0  0  0  0  0  0  0  0  0  0
  148.7535  135.5851  158.0700 C   0  0  0  0  0  0  0  0  0  0  0  0
  149.2305  134.4748  157.8176 O   0  0  0  0  0  0  0  0  0  0  0  0
  148.3189  136.1074  159.2854 N   0  0  0  0  0  0  0  0  0  0  0  0
  147.8810  135.3724  160.2714 C   0  0  0  0  0  0  0  0  0  0  0  0
  147.7950  133.9704  160.2111 N   0  0  0  0  0  0  0  0  0  0  0  0
  147.3314  133.1995  161.2559 C   0  0  0  0  0  0  0  0  0  0  0  0
  146.9298  133.7485  162.4034 C   0  0  0  0  0  0  0  0  0  0  0  0
  146.9853  135.1888  162.5471 C   0  0  0  0  0  0  0  0  0  0  0  0
  147.4472  136.0222  161.5216 C   0  0  0  0  0  0  0  0  0  0  0  0
  147.4781  137.2634  161.6904 O   0  5  0  0  0  0  0  0  0  0  0  0
  151.6306  139.8166  155.7622 H   0  0  0  0  0  0  0  0  0  0  0  0
  152.9403  139.2338  154.5976 H   0  0  0  0  0  0  0  0  0  0  0  0
  151.5713  137.3598  153.9322 H   0  0  0  0  0  0  0  0  0  0  0  0
  149.3136  138.6996  155.4285 H   0  0  0  0  0  0  0  0  0  0  0  0
  149.2371  137.2668  154.4108 H   0  0  0  0  0  0  0  0  0  0  0  0
  147.9626  136.1678  156.1298 H   0  0  0  0  0  0  0  0  0  0  0  0
  146.9341  137.6814  157.8385 H   0  0  0  0  0  0  0  0  0  0  0  0
  147.7936  138.5920  156.6027 H   0  0  0  0  0  0  0  0  0  0  0  0
  148.5207  138.3682  158.1900 H   0  0  0  0  0  0  0  0  0  0  0  0
  147.3227  132.1365  161.0659 H   0  0  0  0  0  0  0  0  0  0  0  0
  146.5689  133.1303  163.2122 H   0  0  0  0  0  0  0  0  0  0  0  0
  146.6575  135.6223  163.4811 H   0  0  0  0  0  0  0  0  0  0  0  0
  148.0785  133.4722  159.3805 H   0  0  0  0  0  0  0  0  0  0  0  0
  1  2  2  0  0  0  0
  1 17  1  0  0  0  0
  1 18  1  0  0  0  0
  2  3  1  0  0  0  0
  2 19  1  0  0  0  0
  3  4  1  0  0  0  0
  3 20  1  0  0  0  0
  3 21  1  0  0  0  0
  4  5  1  0  0  0  0
  5  6  1  0  0  0  0
  5  7  1  0  0  0  0
  5 22  1  0  0  0  0
  6 23  1  0  0  0  0
  6 24  1  0  0  0  0
  6 25  1  0  0  0  0
  7  8  2  0  0  0  0
  7  9  1  0  0  0  0
  9 10  2  0  0  0  0
 10 15  1  0  0  0  0
 10 11  1  0  0  0  0
 11 29  1  0  0  0  0
 11 12  1  0  0  0  0
 12 26  1  0  0  0  0
 12 13  2  0  0  0  0
 13 27  1  0  0  0  0
 13 14  1  0  0  0  0
 14 15  2  0  0  0  0
 14 28  1  0  0  0  0
 15 16  1  0  0  0  0
M  CHG  1  16  -1
M  END
> <s_m_source_file>
AV-unprocessed.smi

> <i_m_source_file_index>
3208

> <i_lp_mmshare_version>
43012

> <i_f3d_flags>
0

> <s_epik_input>
W0NIMl09W0NIXVtDSDJdT1tDQEhdKFtDSDNdKUMoPU8pW05IXWMxbltjSF1bY0hdW2NIXWMxW09IXQ==

> <s_epik_cmdline>
J2VwaWtfcHl0aG9uJywgJy1waCcsICc3LjAnLCAnLXRuJywgJzgnLCAnLW1hJywgJzIwMCcsICctbWV0YWxfYmluZGluZycsICctaW1hZScsICc8aW5maWxlLm1hZT4nLCAnLW9tYWUnLCAnPG91dGZpbGUubWFlPic=

> <r_epik_Ionization_Penalty>
0.613767

> <r_epik_Ionization_Penalty_Charging>
0.613767

> <r_epik_Ionization_Penalty_Neutral>
1.14324e-13

> <r_epik_State_Penalty>
1.22258

> <r_epik_Charging_Adjusted_Penalty>
1.83635

> <i_epik_Tot_Q>
-1

> <i_epik_Tot_abs_Q>
1

> <r_epik_Metal_State_Penalty>
1.18528

> <b_epik_Metal_Only>
0

> <s_lp_Force_Field>
OPLS_2005

> <r_lp_Energy>
36.008

> <b_lp_Chiralities_Consistent>
1

> <s_lp_Variant>
AV-unprocessed.smi:3208-5

> <Gold.Version>
5.8.1

> <Gold.Id.Protein>
6NUR|6NUR_protein|mol2

> <Gold.PLP.Fitness>
40.6564

> <Gold.PLP.PLP>
-27.7243

> <Gold.PLP.part.hbond>
-3.0000

> <Gold.PLP.part.metal>
0.0000

> <Gold.PLP.part.buried>
-3.6565

> <Gold.PLP.part.nonpolar>
-21.5132

> <Gold.PLP.part.repulsive>
0.0965

> <Gold.PLP.ligand.clash>
0.0000

> <Gold.PLP.ligand.torsion>
0.3778

> <Gold.PLP.Chemscore.Hbond>
4.5520

> <Gold.PLP.Chemscore.CHOScore>
0.0000

> <Gold.PLP.Chemscore.Metal>
0.0000

> <Gold.Chemscore.Hbonds>
donor molecule, donor type, donor heavy atom, donor atom, acceptor molecule, acceptor atom, score
      P1  H  6896  6908       L1     8  0.60
      P1  H  6931  6943       L1    16  1.82
      P1  H  6934  6947       L1    16  1.57

> <Gold.PLP.Chemscore.Internal.Correction>
0.0316

> <Gold.Rescore>
     Score         DG    S(hbond)    S(metal)    S(lipo)     H(rot)  DE(clash)    DE(int)     intcor
     16.15     -16.52       2.60        0.00      56.40       1.65       0.00       0.37       ----

> <Gold.Chemscore.Fitness>
16.1475

> <Gold.Chemscore.DG>
-16.5210

> <Gold.Chemscore.ZeroCoef>
-5.4800

> <Gold.Chemscore.Hbond>
2.5970

> <Gold.Chemscore.Metal>
0.0000

> <Gold.Chemscore.Lipo>
56.4041

> <Gold.Chemscore.Internal_Hbond>
0.0000

> <Gold.Chemscore.DEClash>
0.0000

> <Gold.Chemscore.DEInternal>
0.3736

> <Gold.Chemscore.Rot>
1.6533

> <Gold.Chemscore.Internal.Correction>
   9.000000E+99

> <Gold.Chemscore.Hbonds>
donor molecule, donor type, donor heavy atom, donor atom, acceptor molecule, acceptor atom, score
      P1  H  6896  6908       L1     8  0.47
      P1  H  6931  6943       L1    16  0.88
      P1  H  6934  6947       L1    16  0.77

> <Gold.Chemscore.Hbond.Weighted>
-8.6741

> <Gold.Chemscore.Metal.Weighted>
-0.0000

> <Gold.Chemscore.Lipo.Weighted>
-6.5993

> <Gold.Chemscore.Internal_Hbond.Weighted>
0.0000

> <Gold.Chemscore.DEClash.Weighted>
0.0000

> <Gold.Chemscore.DEInternal.Weighted>
0.3736

> <Gold.Chemscore.Rot.Weighted>
4.2324

> <Gold.Chemscore.Internal.Correction.Weighted>
   9.000000E+99

> <Gold.Protein.RotatedTorsions>
[ 6907 6896 6895 6894 ] final  124.24 input  -60.11 | X-H torsion
[ 7974 7965 7964 7962 ] final  -79.22 input  175.53 | X-H torsion
[ 8008 7997 7996 7995 ] final  145.15 input   59.86 | X-H torsion
[ 10167 10162 10161 10158 ] final  136.43 input  -65.29 | X-H torsion
[ 10718 10713 10712 10709 ] final   78.51 input   66.30 | X-H torsion
[ 10763 10752 10751 10750 ] final   67.51 input  -60.55 | X-H torsion
[ 11005 11000 10999 10996 ] final  -64.22 input  -57.11 | X-H torsion

> <Gold.Protein.ActiveResidues>
 VAL166  LYS551  ARG553  GLY616  TRP617  ASP618  TYR619  PRO620  LYS621  CYS622 
 ASP623  PHE694  ASN695  SER759  ASP760  ASP761  ALA762  ILE779  LEU786  VAL792 
 PHE793  MET794  SER795  GLU796  ALA797  LYS798  CYS799  TRP800  GLU811  SER814 

> <Gold.Protein.RotatedAtoms>
  152.4095  133.6941  159.6384 H   0  0  0  0  0  0  0  0  0  0  0  0  # atno 6907 bound_to 6896
  150.7976  133.8650  159.3251 H   0  0  0  0  0  0  0  0  0  0  0  0  # atno 6908 bound_to 6896
  151.6396  135.1016  160.0190 H   0  0  0  0  0  0  0  0  0  0  0  0  # atno 6909 bound_to 6896
  145.5762  140.9457  143.1369 H   0  0  0  0  0  0  0  0  0  0  0  0  # atno 7974 bound_to 7965
  156.2890  140.2217  156.5169 H   0  0  0  0  0  0  0  0  0  0  0  0  # atno 8008 bound_to 7997
  154.7561  140.0476  157.0956 H   0  0  0  0  0  0  0  0  0  0  0  0  # atno 8009 bound_to 7997
  155.0048  140.3106  155.4856 H   0  0  0  0  0  0  0  0  0  0  0  0  # atno 8010 bound_to 7997
  139.5180  144.6465  151.5425 H   0  0  0  0  0  0  0  0  0  0  0  0  # atno 10167 bound_to 10162
  157.6747  130.9871  150.1797 H   0  0  0  0  0  0  0  0  0  0  0  0  # atno 10718 bound_to 10713
  153.0189  135.5281  154.6990 H   0  0  0  0  0  0  0  0  0  0  0  0  # atno 10763 bound_to 10752
  154.6104  135.2877  155.0441 H   0  0  0  0  0  0  0  0  0  0  0  0  # atno 10764 bound_to 10752
  154.1465  135.6570  153.5006 H   0  0  0  0  0  0  0  0  0  0  0  0  # atno 10765 bound_to 10752
  141.1418  133.6662  156.5800 H   0  0  0  0  0  0  0  0  0  0  0  0  # atno 11005 bound_to 11000
  144.7415  139.7436  143.7309 LP  0  0  0  0  0  0  0  0  0  0  0  0  # atno 17320 bound_to 7965
  146.1749  139.4916  142.9903 LP  0  0  0  0  0  0  0  0  0  0  0  0  # atno 17321 bound_to 7965
  140.6252  143.9182  150.6559 LP  0  0  0  0  0  0  0  0  0  0  0  0  # atno 17342 bound_to 10162
  140.2469  143.3622  152.1439 LP  0  0  0  0  0  0  0  0  0  0  0  0  # atno 17343 bound_to 10162
  156.2532  130.3703  149.8210 LP  0  0  0  0  0  0  0  0  0  0  0  0  # atno 17370 bound_to 10713
  156.5976  130.8533  151.3424 LP  0  0  0  0  0  0  0  0  0  0  0  0  # atno 17371 bound_to 10713
  140.3846  134.7494  157.4683 LP  0  0  0  0  0  0  0  0  0  0  0  0  # atno 17394 bound_to 11000
  140.0612  134.5993  155.8747 LP  0  0  0  0  0  0  0  0  0  0  0  0  # atno 17395 bound_to 11000

$$$$
