AV-unprocessed.smi:1381|AV-procd|sdf|5615|dock10
  -GOLD-   22720 5223D 1   1.00000     0.00000
 Structure written by MMmdl.
 42 43  0  0  0  0  0  0  0  0  3 V2000
  145.4816  134.5990  162.7937 C   0  0  0  0  0  0  0  0  0  0  0  0
  146.3149  134.5903  161.5580 C   0  0  0  0  0  0  0  0  0  0  0  0
  147.5148  134.0136  161.2521 C   0  0  0  0  0  0  0  0  0  0  0  0
  147.7314  134.4102  159.9039 C   0  0  0  0  0  0  0  0  0  0  0  0
  148.7871  134.0793  159.1441 N   0  5  0  0  0  0  0  0  0  0  0  0
  148.7248  134.2090  157.7995 C   0  0  0  0  0  0  0  0  0  0  0  0
  148.0543  133.5198  157.0273 O   0  0  0  0  0  0  0  0  0  0  0  0
  149.4808  135.2061  157.3180 N   0  0  0  0  0  0  0  0  0  0  0  0
  149.5906  135.5889  155.9152 C   0  0  0  0  0  0  0  0  0  0  0  0
  149.0408  137.0080  155.6793 C   0  0  0  0  0  0  0  0  0  0  0  0
  149.5012  137.5836  154.3884 N   0  3  1  0  0  0  0  0  0  0  0  0
  148.9119  138.9107  154.0871 C   0  0  0  0  0  0  0  0  0  0  0  0
  149.5944  140.0241  154.9070 C   0  0  2  0  0  0  0  0  0  0  0  0
  149.0554  141.4144  154.5528 C   0  0  0  0  0  0  0  0  0  0  0  0
  150.9908  140.0071  154.6300 O   0  0  0  0  0  0  0  0  0  0  0  0
  151.6151  138.7832  155.0039 C   0  0  2  0  0  0  0  0  0  0  0  0
  153.1158  138.9126  154.7215 C   0  0  0  0  0  0  0  0  0  0  0  0
  150.9756  137.6209  154.2129 C   0  0  0  0  0  0  0  0  0  0  0  0
  146.7424  135.1485  159.4288 N   0  0  0  0  0  0  0  0  0  0  0  0
  145.8323  135.2734  160.4853 O   0  0  0  0  0  0  0  0  0  0  0  0
  144.9162  133.6714  162.8827 H   0  0  0  0  0  0  0  0  0  0  0  0
  144.7735  135.4278  162.7837 H   0  0  0  0  0  0  0  0  0  0  0  0
  146.1068  134.7012  163.6809 H   0  0  0  0  0  0  0  0  0  0  0  0
  148.1397  133.4077  161.8906 H   0  0  0  0  0  0  0  0  0  0  0  0
  150.0180  135.7419  157.9841 H   0  0  0  0  0  0  0  0  0  0  0  0
  150.6445  135.5300  155.6470 H   0  0  0  0  0  0  0  0  0  0  0  0
  149.0689  134.8642  155.2878 H   0  0  0  0  0  0  0  0  0  0  0  0
  147.9515  136.9543  155.6677 H   0  0  0  0  0  0  0  0  0  0  0  0
  149.3010  137.6617  156.5115 H   0  0  0  0  0  0  0  0  0  0  0  0
  149.0445  139.1088  153.0225 H   0  0  0  0  0  0  0  0  0  0  0  0
  147.8353  138.9000  154.2625 H   0  0  0  0  0  0  0  0  0  0  0  0
  149.4353  139.8565  155.9736 H   0  0  0  0  0  0  0  0  0  0  0  0
  147.9851  141.4824  154.7508 H   0  0  0  0  0  0  0  0  0  0  0  0
  149.2170  141.6455  153.4994 H   0  0  0  0  0  0  0  0  0  0  0  0
  149.5511  142.1860  155.1423 H   0  0  0  0  0  0  0  0  0  0  0  0
  151.4846  138.6286  156.0756 H   0  0  0  0  0  0  0  0  0  0  0  0
  153.6479  138.0036  155.0035 H   0  0  0  0  0  0  0  0  0  0  0  0
  153.5484  139.7387  155.2864 H   0  0  0  0  0  0  0  0  0  0  0  0
  153.3052  139.0975  153.6638 H   0  0  0  0  0  0  0  0  0  0  0  0
  151.4279  136.6701  154.4918 H   0  0  0  0  0  0  0  0  0  0  0  0
  151.1816  137.7518  153.1496 H   0  0  0  0  0  0  0  0  0  0  0  0
  149.1408  136.9570  153.6826 H   0  0  0  0  0  0  0  0  0  0  0  0
  1  2  1  0  0  0  0
  1 21  1  0  0  0  0
  1 22  1  0  0  0  0
  1 23  1  0  0  0  0
  2 20  1  0  0  0  0
  2  3  2  0  0  0  0
  3  4  1  0  0  0  0
  3 24  1  0  0  0  0
  4  5  1  0  0  0  0
  4 19  2  0  0  0  0
  5  6  1  0  0  0  0
  6  7  2  0  0  0  0
  6  8  1  0  0  0  0
  8  9  1  0  0  0  0
  8 25  1  0  0  0  0
  9 10  1  0  0  0  0
  9 26  1  0  0  0  0
  9 27  1  0  0  0  0
 10 11  1  0  0  0  0
 10 28  1  0  0  0  0
 10 29  1  0  0  0  0
 11 18  1  0  0  0  0
 11 12  1  0  0  0  0
 11 42  1  0  0  0  0
 12 13  1  0  0  0  0
 12 30  1  0  0  0  0
 12 31  1  0  0  0  0
 13 14  1  0  0  0  0
 13 15  1  0  0  0  0
 13 32  1  0  0  0  0
 14 33  1  0  0  0  0
 14 34  1  0  0  0  0
 14 35  1  0  0  0  0
 15 16  1  0  0  0  0
 16 17  1  0  0  0  0
 16 18  1  0  0  0  0
 16 36  1  0  0  0  0
 17 37  1  0  0  0  0
 17 38  1  0  0  0  0
 17 39  1  0  0  0  0
 18 40  1  0  0  0  0
 18 41  1  0  0  0  0
 19 20  1  0  0  0  0
M  CHG  1   5  -1
M  CHG  1  11   1
M  END
> <s_m_source_file>
AV-unprocessed.smi

> <i_m_source_file_index>
1381

> <i_lp_mmshare_version>
43012

> <i_f3d_flags>
0

> <s_epik_input>
W0NIM11jMVtjSF1jKG5vMSlbTkhdQyg9TylbTkhdW0NIMl1bQ0gyXU4yW0NIMl1bQ0BASF0oW0NIM10pT1tDQEBIXShbQ0gzXSlbQ0gyXTI=

> <s_epik_cmdline>
J2VwaWtfcHl0aG9uJywgJy1waCcsICc3LjAnLCAnLXRuJywgJzgnLCAnLW1hJywgJzIwMCcsICctbWV0YWxfYmluZGluZycsICctaW1hZScsICc8aW5maWxlLm1hZT4nLCAnLW9tYWUnLCAnPG91dGZpbGUubWFlPic=

> <r_epik_Ionization_Penalty>
6.73511

> <r_epik_Ionization_Penalty_Charging>
6.73502

> <r_epik_Ionization_Penalty_Neutral>
9.26583e-05

> <r_epik_State_Penalty>
6.93549

> <r_epik_Charging_Adjusted_Penalty>
13.6705

> <i_epik_Tot_Q>
0

> <i_epik_Tot_abs_Q>
2

> <r_epik_Metal_State_Penalty>
2.87211

> <b_epik_Metal_Only>
1

> <s_lp_Force_Field>
OPLS_2005

> <r_lp_Energy>
4.17006

> <b_lp_Chiralities_Consistent>
1

> <s_lp_Variant>
AV-unprocessed.smi:1381-14

> <Gold.Version>
5.8.1

> <Gold.Id.Protein>
6NUR|6NUR_protein|mol2

> <Gold.PLP.Fitness>
43.0760

> <Gold.PLP.PLP>
-29.6134

> <Gold.PLP.part.hbond>
-3.0000

> <Gold.PLP.part.metal>
0.0000

> <Gold.PLP.part.buried>
-1.9312

> <Gold.PLP.part.nonpolar>
-25.2415

> <Gold.PLP.part.repulsive>
0.1590

> <Gold.PLP.ligand.clash>
0.0000

> <Gold.PLP.ligand.torsion>
0.8186

> <Gold.PLP.Chemscore.Hbond>
5.0000

> <Gold.PLP.Chemscore.CHOScore>
0.0000

> <Gold.PLP.Chemscore.Metal>
0.0000

> <Gold.Chemscore.Hbonds>
donor molecule, donor type, donor heavy atom, donor atom, acceptor molecule, acceptor atom, score
      L1  H    11    42       P1  7948  2.00
      P1  H  6896  6907       L1     5  2.00
      P1  H  7989  7998       L1    15  1.00

> <Gold.PLP.Chemscore.Internal.Correction>
0.0998

> <Gold.Rescore>
     Score         DG    S(hbond)    S(metal)    S(lipo)     H(rot)  DE(clash)    DE(int)     intcor
     17.45     -18.45       2.49        0.00      74.27       1.58       0.12       0.88       ----

> <Gold.Chemscore.Fitness>
17.4536

> <Gold.Chemscore.DG>
-18.4530

> <Gold.Chemscore.ZeroCoef>
-5.4800

> <Gold.Chemscore.Hbond>
2.4928

> <Gold.Chemscore.Metal>
0.0000

> <Gold.Chemscore.Lipo>
74.2735

> <Gold.Chemscore.Internal_Hbond>
0.0000

> <Gold.Chemscore.DEClash>
0.1203

> <Gold.Chemscore.DEInternal>
0.8791

> <Gold.Chemscore.Rot>
1.5792

> <Gold.Chemscore.Internal.Correction>
   9.000000E+99

> <Gold.Chemscore.Hbonds>
donor molecule, donor type, donor heavy atom, donor atom, acceptor molecule, acceptor atom, score
      L1  H    11    42       P1  7948  0.96
      P1  H  6896  6907       L1     5  0.29
      P1  H  7989  7998       L1    15  0.92

> <Gold.Chemscore.Hbond.Weighted>
-8.3259

> <Gold.Chemscore.Metal.Weighted>
-0.0000

> <Gold.Chemscore.Lipo.Weighted>
-8.6900

> <Gold.Chemscore.Internal_Hbond.Weighted>
0.0000

> <Gold.Chemscore.DEClash.Weighted>
0.1203

> <Gold.Chemscore.DEInternal.Weighted>
0.8791

> <Gold.Chemscore.Rot.Weighted>
4.0428

> <Gold.Chemscore.Internal.Correction.Weighted>
   9.000000E+99

> <Gold.Protein.RotatedTorsions>
[ 6907 6896 6895 6894 ] final  -93.06 input  -60.11 | X-H torsion
[ 7974 7965 7964 7962 ] final  116.90 input  175.53 | X-H torsion
[ 8008 7997 7996 7995 ] final  -21.08 input   59.86 | X-H torsion
[ 10167 10162 10161 10158 ] final  124.39 input  -65.29 | X-H torsion
[ 10718 10713 10712 10709 ] final  167.57 input   66.30 | X-H torsion
[ 10763 10752 10751 10750 ] final  107.70 input  -60.55 | X-H torsion
[ 11005 11000 10999 10996 ] final   46.71 input  -57.11 | X-H torsion

> <Gold.Protein.ActiveResidues>
 VAL166  LYS551  ARG553  GLY616  TRP617  ASP618  TYR619  PRO620  LYS621  CYS622 
 ASP623  PHE694  ASN695  SER759  ASP760  ASP761  ALA762  ILE779  LEU786  VAL792 
 PHE793  MET794  SER795  GLU796  ALA797  LYS798  CYS799  TRP800  GLU811  SER814 

> <Gold.Protein.RotatedAtoms>
  150.6916  134.2026  159.4327 H   0  0  0  0  0  0  0  0  0  0  0  0  # atno 6907 bound_to 6896
  151.9992  134.9935  160.0573 H   0  0  0  0  0  0  0  0  0  0  0  0  # atno 6908 bound_to 6896
  152.1595  133.4537  159.4890 H   0  0  0  0  0  0  0  0  0  0  0  0  # atno 6909 bound_to 6896
  145.1740  139.3086  143.4453 H   0  0  0  0  0  0  0  0  0  0  0  0  # atno 7974 bound_to 7965
  154.4728  140.2044  155.9952 H   0  0  0  0  0  0  0  0  0  0  0  0  # atno 8008 bound_to 7997
  156.1040  140.3239  155.7951 H   0  0  0  0  0  0  0  0  0  0  0  0  # atno 8009 bound_to 7997
  155.4749  140.0534  157.2965 H   0  0  0  0  0  0  0  0  0  0  0  0  # atno 8010 bound_to 7997
  139.5744  144.6956  151.3691 H   0  0  0  0  0  0  0  0  0  0  0  0  # atno 10167 bound_to 10162
  157.0496  131.0309  151.2685 H   0  0  0  0  0  0  0  0  0  0  0  0  # atno 10718 bound_to 10713
  153.4104  135.3836  155.2047 H   0  0  0  0  0  0  0  0  0  0  0  0  # atno 10763 bound_to 10752
  154.8737  135.3793  154.4508 H   0  0  0  0  0  0  0  0  0  0  0  0  # atno 10764 bound_to 10752
  153.5015  135.7088  153.5891 H   0  0  0  0  0  0  0  0  0  0  0  0  # atno 10765 bound_to 10752
  140.1344  134.4663  155.8496 H   0  0  0  0  0  0  0  0  0  0  0  0  # atno 11005 bound_to 11000
  146.3464  140.1896  142.8589 LP  0  0  0  0  0  0  0  0  0  0  0  0  # atno 17320 bound_to 7965
  145.0204  140.8789  143.5170 LP  0  0  0  0  0  0  0  0  0  0  0  0  # atno 17321 bound_to 7965
  140.7028  143.7590  150.7431 LP  0  0  0  0  0  0  0  0  0  0  0  0  # atno 17342 bound_to 10162
  140.1105  143.4703  152.2372 LP  0  0  0  0  0  0  0  0  0  0  0  0  # atno 17343 bound_to 10162
  157.5041  130.7898  149.7635 LP  0  0  0  0  0  0  0  0  0  0  0  0  # atno 17370 bound_to 10713
  156.0012  130.3879  150.2599 LP  0  0  0  0  0  0  0  0  0  0  0  0  # atno 17371 bound_to 10713
  141.2176  133.6808  156.7130 LP  0  0  0  0  0  0  0  0  0  0  0  0  # atno 17394 bound_to 11000
  140.2801  134.8324  157.3925 LP  0  0  0  0  0  0  0  0  0  0  0  0  # atno 17395 bound_to 11000

$$$$
