AV-unprocessed.smi:1817|AV-procd|sdf|7369|dock3
  -GOLD-   22720 9 33D 1   1.00000     0.00000
 Structure written by MMmdl.
 43 44  0  0  0  0  0  0  0  0  2 V2000
  144.8542  132.9419  152.0464 C   0  0  0  0  0  0  0  0  0  0  0  0
  146.0226  132.4596  151.1747 C   0  0  0  0  0  0  0  0  0  0  0  0
  147.1447  131.9102  151.9756 N   0  3  0  0  0  0  0  0  0  0  0  0
  146.7545  130.7773  152.8527 C   0  0  0  0  0  0  0  0  0  0  0  0
  147.9805  130.2493  153.6277 C   0  0  0  0  0  0  0  0  0  0  0  0
  148.5904  131.2919  154.4663 N   0  0  0  0  0  0  0  0  0  0  0  0
  147.7793  131.7422  155.6211 C   0  0  1  0  0  0  0  0  0  0  0  0
  147.3320  130.5315  156.4761 C   0  0  0  0  0  0  0  0  0  0  0  0
  148.5698  132.7665  156.4813 C   0  0  0  0  0  0  0  0  0  0  0  0
  147.9053  133.0855  157.7431 N   0  0  0  0  0  0  0  0  0  0  0  0
  148.3016  134.0227  158.6171 C   0  0  0  0  0  0  0  0  0  0  0  0
  149.3018  134.7216  158.4569 O   0  0  0  0  0  0  0  0  0  0  0  0
  147.4731  134.0837  159.6720 N   0  0  0  0  0  0  0  0  0  0  0  0
  147.5621  134.9343  160.8024 C   0  0  0  0  0  0  0  0  0  0  0  0
  147.8581  136.2231  160.5964 N   0  0  0  0  0  0  0  0  0  0  0  0
  147.9129  136.9409  161.7850 N   0  0  0  0  0  0  0  0  0  0  0  0
  147.6552  136.1644  162.8419 C   0  0  0  0  0  0  0  0  0  0  0  0
  147.3195  134.4780  162.4915 S   0  0  0  0  0  0  0  0  0  0  0  0
  149.0270  132.3495  153.5427 C   0  0  0  0  0  0  0  0  0  0  0  0
  147.8417  132.9568  152.7626 C   0  0  0  0  0  0  0  0  0  0  0  0
  144.0150  133.2514  151.4232 H   0  0  0  0  0  0  0  0  0  0  0  0
  145.1287  133.7971  152.6632 H   0  0  0  0  0  0  0  0  0  0  0  0
  144.4998  132.1491  152.7059 H   0  0  0  0  0  0  0  0  0  0  0  0
  145.6452  131.6789  150.5128 H   0  0  0  0  0  0  0  0  0  0  0  0
  146.3806  133.2646  150.5313 H   0  0  0  0  0  0  0  0  0  0  0  0
  145.9585  131.0802  153.5337 H   0  0  0  0  0  0  0  0  0  0  0  0
  146.3526  129.9652  152.2480 H   0  0  0  0  0  0  0  0  0  0  0  0
  147.7193  129.3681  154.2104 H   0  0  0  0  0  0  0  0  0  0  0  0
  148.7277  129.8962  152.9153 H   0  0  0  0  0  0  0  0  0  0  0  0
  146.8789  132.2382  155.2613 H   0  0  0  0  0  0  0  0  0  0  0  0
  146.7840  130.8407  157.3650 H   0  0  0  0  0  0  0  0  0  0  0  0
  148.1869  129.9412  156.8080 H   0  0  0  0  0  0  0  0  0  0  0  0
  146.6490  129.8737  155.9408 H   0  0  0  0  0  0  0  0  0  0  0  0
  149.5893  132.4140  156.6486 H   0  0  0  0  0  0  0  0  0  0  0  0
  148.6564  133.7223  155.9679 H   0  0  0  0  0  0  0  0  0  0  0  0
  147.0725  132.5583  157.9617 H   0  0  0  0  0  0  0  0  0  0  0  0
  146.6881  133.4493  159.6693 H   0  0  0  0  0  0  0  0  0  0  0  0
  147.6639  136.5878  163.8350 H   0  0  0  0  0  0  0  0  0  0  0  0
  149.5898  133.1258  154.0569 H   0  0  0  0  0  0  0  0  0  0  0  0
  149.7368  131.9187  152.8348 H   0  0  0  0  0  0  0  0  0  0  0  0
  148.2199  133.7216  152.0835 H   0  0  0  0  0  0  0  0  0  0  0  0
  147.1414  133.4563  153.4330 H   0  0  0  0  0  0  0  0  0  0  0  0
  147.8248  131.5527  151.3200 H   0  0  0  0  0  0  0  0  0  0  0  0
  1  2  1  0  0  0  0
  1 21  1  0  0  0  0
  1 22  1  0  0  0  0
  1 23  1  0  0  0  0
  2  3  1  0  0  0  0
  2 24  1  0  0  0  0
  2 25  1  0  0  0  0
  3 20  1  0  0  0  0
  3  4  1  0  0  0  0
  3 43  1  0  0  0  0
  4  5  1  0  0  0  0
  4 26  1  0  0  0  0
  4 27  1  0  0  0  0
  5  6  1  0  0  0  0
  5 28  1  0  0  0  0
  5 29  1  0  0  0  0
  6  7  1  0  0  0  0
  6 19  1  0  0  0  0
  7  8  1  0  0  0  0
  7  9  1  0  0  0  0
  7 30  1  0  0  0  0
  8 31  1  0  0  0  0
  8 32  1  0  0  0  0
  8 33  1  0  0  0  0
  9 10  1  0  0  0  0
  9 34  1  0  0  0  0
  9 35  1  0  0  0  0
 10 11  1  0  0  0  0
 10 36  1  0  0  0  0
 11 12  2  0  0  0  0
 11 13  1  0  0  0  0
 13 14  1  0  0  0  0
 13 37  1  0  0  0  0
 14 18  1  0  0  0  0
 14 15  2  0  0  0  0
 15 16  1  0  0  0  0
 16 17  2  0  0  0  0
 17 18  1  0  0  0  0
 17 38  1  0  0  0  0
 19 20  1  0  0  0  0
 19 39  1  0  0  0  0
 19 40  1  0  0  0  0
 20 41  1  0  0  0  0
 20 42  1  0  0  0  0
M  CHG  1   3   1
M  END
> <s_m_source_file>
AV-unprocessed.smi

> <i_m_source_file_index>
1817

> <i_lp_mmshare_version>
43012

> <i_f3d_flags>
0

> <s_epik_input>
W0NIM11bQ0gyXU4xW0NIMl1bQ0gyXU4oW0NIMl1bQ0gyXTEpW0NASF0oW0NIM10pW0NIMl1bTkhdQyg9TylbTkhdYzJubltjSF1zMg==

> <s_epik_cmdline>
J2VwaWtfcHl0aG9uJywgJy1waCcsICc3LjAnLCAnLXRuJywgJzgnLCAnLW1hJywgJzIwMCcsICctbWV0YWxfYmluZGluZycsICctaW1hZScsICc8aW5maWxlLm1hZT4nLCAnLW9tYWUnLCAnPG91dGZpbGUubWFlPic=

> <r_lp_tautomer_probability>
1

> <r_epik_Ionization_Penalty>
0.0474318

> <r_epik_Ionization_Penalty_Charging>
0.0451959

> <r_epik_Ionization_Penalty_Neutral>
0.00223598

> <r_epik_State_Penalty>
0.165541

> <r_epik_Charging_Adjusted_Penalty>
0.210737

> <i_epik_Tot_Q>
1

> <i_epik_Tot_abs_Q>
1

> <r_epik_Metal_State_Penalty>
0.500395

> <b_epik_Metal_Only>
0

> <s_lp_Force_Field>
OPLS_2005

> <r_lp_Energy>
20.492

> <b_lp_Chiralities_Consistent>
1

> <s_lp_Variant>
AV-unprocessed.smi:1817-2

> <Gold.Version>
5.8.1

> <Gold.Id.Protein>
6NUR|6NUR_protein|mol2

> <Gold.PLP.Fitness>
41.4357

> <Gold.PLP.PLP>
-31.1445

> <Gold.PLP.part.hbond>
-4.0000

> <Gold.PLP.part.metal>
0.0000

> <Gold.PLP.part.buried>
-4.8503

> <Gold.PLP.part.nonpolar>
-21.9624

> <Gold.PLP.part.repulsive>
0.1180

> <Gold.PLP.ligand.clash>
0.0000

> <Gold.PLP.ligand.torsion>
0.4741

> <Gold.PLP.Chemscore.Hbond>
3.7280

> <Gold.PLP.Chemscore.CHOScore>
0.0000

> <Gold.PLP.Chemscore.Metal>
0.0000

> <Gold.Chemscore.Hbonds>
donor molecule, donor type, donor heavy atom, donor atom, acceptor molecule, acceptor atom, score
      L1  H     3    43       P1 10747  1.00
      P1  H  6896  6909       L1    12  1.00
      P1  H  6931  6943       L1    16  1.00
      P1  H  6934  6947       L1    16  0.11

> <Gold.PLP.Chemscore.Internal.Correction>
0.0553

> <Gold.Rescore>
     Score         DG    S(hbond)    S(metal)    S(lipo)     H(rot)  DE(clash)    DE(int)     intcor
     17.00     -18.74       3.30        0.00      61.15       1.92       0.09       1.65       ----

> <Gold.Chemscore.Fitness>
17.0019

> <Gold.Chemscore.DG>
-18.7390

> <Gold.Chemscore.ZeroCoef>
-5.4800

> <Gold.Chemscore.Hbond>
3.2991

> <Gold.Chemscore.Metal>
0.0000

> <Gold.Chemscore.Lipo>
61.1460

> <Gold.Chemscore.Internal_Hbond>
0.0000

> <Gold.Chemscore.DEClash>
0.0859

> <Gold.Chemscore.DEInternal>
1.6512

> <Gold.Chemscore.Rot>
1.9196

> <Gold.Chemscore.Internal.Correction>
   9.000000E+99

> <Gold.Chemscore.Hbonds>
donor molecule, donor type, donor heavy atom, donor atom, acceptor molecule, acceptor atom, score
      L1  H     3    43       P1 10747  1.00
      P1  H  6896  6909       L1    12  0.77
      P1  H  6931  6943       L1    16  0.94
      P1  H  6934  6947       L1    16  0.02

> <Gold.Chemscore.Hbond.Weighted>
-11.0190

> <Gold.Chemscore.Metal.Weighted>
-0.0000

> <Gold.Chemscore.Lipo.Weighted>
-7.1541

> <Gold.Chemscore.Internal_Hbond.Weighted>
0.0000

> <Gold.Chemscore.DEClash.Weighted>
0.0859

> <Gold.Chemscore.DEInternal.Weighted>
1.6512

> <Gold.Chemscore.Rot.Weighted>
4.9141

> <Gold.Chemscore.Internal.Correction.Weighted>
   9.000000E+99

> <Gold.Protein.RotatedTorsions>
[ 6907 6896 6895 6894 ] final   15.89 input  -60.11 | X-H torsion
[ 7974 7965 7964 7962 ] final    5.12 input  175.53 | X-H torsion
[ 8008 7997 7996 7995 ] final   28.54 input   59.86 | X-H torsion
[ 10167 10162 10161 10158 ] final  -63.23 input  -65.29 | X-H torsion
[ 10718 10713 10712 10709 ] final  174.87 input   66.30 | X-H torsion
[ 10763 10752 10751 10750 ] final  175.14 input  -60.55 | X-H torsion
[ 11005 11000 10999 10996 ] final   93.13 input  -57.11 | X-H torsion

> <Gold.Protein.ActiveResidues>
 VAL166  LYS551  ARG553  GLY616  TRP617  ASP618  TYR619  PRO620  LYS621  CYS622 
 ASP623  PHE694  ASN695  SER759  ASP760  ASP761  ALA762  ILE779  LEU786  VAL792 
 PHE793  MET794  SER795  GLU796  ALA797  LYS798  CYS799  TRP800  GLU811  SER814 

> <Gold.Protein.RotatedAtoms>
  151.8252  135.0639  160.0429 H   0  0  0  0  0  0  0  0  0  0  0  0  # atno 6907 bound_to 6896
  152.2921  133.5567  159.5573 H   0  0  0  0  0  0  0  0  0  0  0  0  # atno 6908 bound_to 6896
  150.7235  134.0329  159.3781 H   0  0  0  0  0  0  0  0  0  0  0  0  # atno 6909 bound_to 6896
  146.2442  140.0432  142.8380 H   0  0  0  0  0  0  0  0  0  0  0  0  # atno 7974 bound_to 7965
  155.0603  140.3189  155.4663 H   0  0  0  0  0  0  0  0  0  0  0  0  # atno 8008 bound_to 7997
  156.2814  140.2130  156.5674 H   0  0  0  0  0  0  0  0  0  0  0  0  # atno 8009 bound_to 7997
  154.7138  140.0495  157.0562 H   0  0  0  0  0  0  0  0  0  0  0  0  # atno 8010 bound_to 7997
  140.5885  143.2337  151.6191 H   0  0  0  0  0  0  0  0  0  0  0  0  # atno 10167 bound_to 10162
  156.9432  131.0008  151.2964 H   0  0  0  0  0  0  0  0  0  0  0  0  # atno 10718 bound_to 10713
  154.4636  135.2768  155.1695 H   0  0  0  0  0  0  0  0  0  0  0  0  # atno 10763 bound_to 10752
  154.3472  135.6157  153.5629 H   0  0  0  0  0  0  0  0  0  0  0  0  # atno 10764 bound_to 10752
  152.9857  135.5803  154.5003 H   0  0  0  0  0  0  0  0  0  0  0  0  # atno 10765 bound_to 10752
  139.8814  134.8772  156.3673 H   0  0  0  0  0  0  0  0  0  0  0  0  # atno 11005 bound_to 11000
  145.1051  140.9370  143.4690 LP  0  0  0  0  0  0  0  0  0  0  0  0  # atno 17320 bound_to 7965
  145.0633  139.3088  143.5869 LP  0  0  0  0  0  0  0  0  0  0  0  0  # atno 17321 bound_to 7965
  139.5212  144.3198  152.0920 LP  0  0  0  0  0  0  0  0  0  0  0  0  # atno 17342 bound_to 10162
  140.2359  144.4320  150.6280 LP  0  0  0  0  0  0  0  0  0  0  0  0  # atno 17343 bound_to 10162
  157.5771  130.8350  149.8470 LP  0  0  0  0  0  0  0  0  0  0  0  0  # atno 17370 bound_to 10713
  156.0395  130.3742  150.1473 LP  0  0  0  0  0  0  0  0  0  0  0  0  # atno 17371 bound_to 10713
  140.9488  133.7465  156.0244 LP  0  0  0  0  0  0  0  0  0  0  0  0  # atno 17394 bound_to 11000
  140.8130  134.3377  157.5406 LP  0  0  0  0  0  0  0  0  0  0  0  0  # atno 17395 bound_to 11000

$$$$
