AV-unprocessed.smi:3232|AV-procd|sdf|12344|dock9
  -GOLD-   2272018203D 1   1.00000     0.00000
 Structure written by MMmdl.
 40 41  0  0  0  0  0  0  0  0  2 V2000
  151.4034  145.5934  159.8149 C   0  0  0  0  0  0  0  0  0  0  0  0
  151.7862  144.2191  159.2507 C   0  0  0  0  0  0  0  0  0  0  0  0
  152.7471  143.5082  160.1297 N   0  3  1  0  0  0  0  0  0  0  0  0
  152.4505  143.5662  161.5807 C   0  0  0  0  0  0  0  0  0  0  0  0
  153.0170  142.2788  162.1958 C   0  0  0  0  0  0  0  0  0  0  0  0
  153.7688  141.5973  161.0538 C   0  0  0  0  0  0  0  0  0  0  0  0
  153.0512  142.0954  159.7930 C   0  0  1  0  0  0  0  0  0  0  0  0
  151.7874  141.2712  159.4316 C   0  0  0  0  0  0  0  0  0  0  0  0
  151.8295  140.7587  158.0653 N   0  0  0  0  0  0  0  0  0  0  0  0
  151.2702  141.3478  156.9951 C   0  0  0  0  0  0  0  0  0  0  0  0
  150.6158  142.3885  157.0705 O   0  0  0  0  0  0  0  0  0  0  0  0
  151.4734  140.6409  155.6437 C   0  0  1  0  0  0  0  0  0  0  0  0
  152.2342  139.3051  155.7691 C   0  0  0  0  0  0  0  0  0  0  0  0
  150.1999  140.4751  154.9527 N   0  0  0  0  0  0  0  0  0  0  0  0
  149.2696  141.3790  154.6380 C   0  0  0  0  0  0  0  0  0  0  0  0
  148.2035  140.8687  154.0385 N   0  0  0  0  0  0  0  0  0  0  0  0
  148.5633  139.5512  154.0159 C   0  0  0  0  0  0  0  0  0  0  0  0
  149.7451  139.2594  154.5590 N   0  0  0  0  0  0  0  0  0  0  0  0
  150.7358  146.1184  159.1314 H   0  0  0  0  0  0  0  0  0  0  0  0
  152.2843  146.2188  159.9627 H   0  0  0  0  0  0  0  0  0  0  0  0
  150.8882  145.5058  160.7720 H   0  0  0  0  0  0  0  0  0  0  0  0
  150.8900  143.6161  159.0993 H   0  0  0  0  0  0  0  0  0  0  0  0
  152.2448  144.3616  158.2714 H   0  0  0  0  0  0  0  0  0  0  0  0
  152.9075  144.4558  162.0151 H   0  0  0  0  0  0  0  0  0  0  0  0
  151.3755  143.6214  161.7595 H   0  0  0  0  0  0  0  0  0  0  0  0
  153.6617  142.4742  163.0533 H   0  0  0  0  0  0  0  0  0  0  0  0
  152.2004  141.6400  162.5349 H   0  0  0  0  0  0  0  0  0  0  0  0
  154.8009  141.9509  161.0432 H   0  0  0  0  0  0  0  0  0  0  0  0
  153.8057  140.5136  161.1571 H   0  0  0  0  0  0  0  0  0  0  0  0
  153.7343  142.0740  158.9427 H   0  0  0  0  0  0  0  0  0  0  0  0
  151.6326  140.4644  160.1500 H   0  0  0  0  0  0  0  0  0  0  0  0
  150.8984  141.8989  159.4897 H   0  0  0  0  0  0  0  0  0  0  0  0
  152.3462  139.9040  157.9157 H   0  0  0  0  0  0  0  0  0  0  0  0
  152.0862  141.3044  155.0314 H   0  0  0  0  0  0  0  0  0  0  0  0
  153.2093  139.4481  156.2361 H   0  0  0  0  0  0  0  0  0  0  0  0
  152.4061  138.8629  154.7874 H   0  0  0  0  0  0  0  0  0  0  0  0
  151.6851  138.5762  156.3668 H   0  0  0  0  0  0  0  0  0  0  0  0
  149.3719  142.4319  154.8562 H   0  0  0  0  0  0  0  0  0  0  0  0
  147.9328  138.7833  153.5923 H   0  0  0  0  0  0  0  0  0  0  0  0
  153.6303  143.9864  160.0216 H   0  0  0  0  0  0  0  0  0  0  0  0
  1  2  1  0  0  0  0
  1 19  1  0  0  0  0
  1 20  1  0  0  0  0
  1 21  1  0  0  0  0
  2  3  1  0  0  0  0
  2 22  1  0  0  0  0
  2 23  1  0  0  0  0
  3  7  1  0  0  0  0
  3  4  1  0  0  0  0
  3 40  1  0  0  0  0
  4  5  1  0  0  0  0
  4 24  1  0  0  0  0
  4 25  1  0  0  0  0
  5  6  1  0  0  0  0
  5 26  1  0  0  0  0
  5 27  1  0  0  0  0
  6  7  1  0  0  0  0
  6 28  1  0  0  0  0
  6 29  1  0  0  0  0
  7  8  1  0  0  0  0
  7 30  1  0  0  0  0
  8  9  1  0  0  0  0
  8 31  1  0  0  0  0
  8 32  1  0  0  0  0
  9 10  1  0  0  0  0
  9 33  1  0  0  0  0
 10 11  2  0  0  0  0
 10 12  1  0  0  0  0
 12 13  1  0  0  0  0
 12 14  1  0  0  0  0
 12 34  1  0  0  0  0
 13 35  1  0  0  0  0
 13 36  1  0  0  0  0
 13 37  1  0  0  0  0
 14 18  1  0  0  0  0
 14 15  1  0  0  0  0
 15 16  2  0  0  0  0
 15 38  1  0  0  0  0
 16 17  1  0  0  0  0
 17 18  2  0  0  0  0
 17 39  1  0  0  0  0
M  CHG  1   3   1
M  END
> <s_m_source_file>
AV-unprocessed.smi

> <i_m_source_file_index>
3232

> <i_lp_mmshare_version>
43012

> <i_f3d_flags>
0

> <s_epik_input>
W0NIM11bQ0gyXU4xW0NIMl1bQ0gyXVtDSDJdW0NASF0xW0NIMl1bTkhdQyg9TylbQ0BIXShbQ0gzXSluMltjSF1uW2NIXW4y

> <s_epik_cmdline>
J2VwaWtfcHl0aG9uJywgJy1waCcsICc3LjAnLCAnLXRuJywgJzgnLCAnLW1hJywgJzIwMCcsICctbWV0YWxfYmluZGluZycsICctaW1hZScsICc8aW5maWxlLm1hZT4nLCAnLW9tYWUnLCAnPG91dGZpbGUubWFlPic=

> <r_lp_tautomer_probability>
1

> <r_epik_Ionization_Penalty>
0.00177695

> <r_epik_Ionization_Penalty_Charging>
0.00176881

> <r_epik_Ionization_Penalty_Neutral>
8.13528e-06

> <r_epik_State_Penalty>
0.00119827

> <r_epik_Charging_Adjusted_Penalty>
0.00296709

> <i_epik_Tot_Q>
1

> <i_epik_Tot_abs_Q>
1

> <r_epik_Metal_State_Penalty>
-0

> <b_epik_Metal_Only>
0

> <s_lp_Force_Field>
OPLS_2005

> <r_lp_Energy>
36.9304

> <b_lp_Chiralities_Consistent>
1

> <s_lp_Variant>
AV-unprocessed.smi:3232-6

> <Gold.Version>
5.8.1

> <Gold.Id.Protein>
6NUR|6NUR_protein|mol2

> <Gold.PLP.Fitness>
44.0416

> <Gold.PLP.PLP>
-43.2500

> <Gold.PLP.part.hbond>
0.0000

> <Gold.PLP.part.metal>
0.0000

> <Gold.PLP.part.buried>
-3.5135

> <Gold.PLP.part.nonpolar>
-39.3402

> <Gold.PLP.part.repulsive>
0.4988

> <Gold.PLP.ligand.clash>
0.0882

> <Gold.PLP.ligand.torsion>
1.1334

> <Gold.PLP.Chemscore.Hbond>
0.0000

> <Gold.PLP.Chemscore.CHOScore>
1.0000

> <Gold.PLP.Chemscore.Metal>
0.0000

> <Gold.Chemscore.Hbonds>
donor molecule, donor type, donor heavy atom, donor atom, acceptor molecule, acceptor atom, score
      L1  C    15    38       P1  8028  1.00

> <Gold.PLP.Chemscore.Internal.Correction>
0.1465

> <Gold.Rescore>
     Score         DG    S(hbond)    S(metal)    S(lipo)     H(rot)  DE(clash)    DE(int)     intcor
      7.64      -9.92       0.00        0.00      92.40       2.49       0.11       2.17       ----

> <Gold.Chemscore.Fitness>
7.6443

> <Gold.Chemscore.DG>
-9.9207

> <Gold.Chemscore.ZeroCoef>
-5.4800

> <Gold.Chemscore.Hbond>
0.0000

> <Gold.Chemscore.Metal>
0.0000

> <Gold.Chemscore.Lipo>
92.3974

> <Gold.Chemscore.Internal_Hbond>
0.0000

> <Gold.Chemscore.DEClash>
0.1107

> <Gold.Chemscore.DEInternal>
2.1658

> <Gold.Chemscore.Rot>
2.4882

> <Gold.Chemscore.Internal.Correction>
   9.000000E+99

> <Gold.Chemscore.Hbond.Weighted>
-0.0000

> <Gold.Chemscore.Metal.Weighted>
-0.0000

> <Gold.Chemscore.Lipo.Weighted>
-10.8105

> <Gold.Chemscore.Internal_Hbond.Weighted>
0.0000

> <Gold.Chemscore.DEClash.Weighted>
0.1107

> <Gold.Chemscore.DEInternal.Weighted>
2.1658

> <Gold.Chemscore.Rot.Weighted>
6.3697

> <Gold.Chemscore.Internal.Correction.Weighted>
   9.000000E+99

> <Gold.Protein.RotatedTorsions>
[ 6907 6896 6895 6894 ] final  -50.26 input  -60.11 | X-H torsion
[ 7974 7965 7964 7962 ] final   43.54 input  175.53 | X-H torsion
[ 8008 7997 7996 7995 ] final   48.29 input   59.86 | X-H torsion
[ 10167 10162 10161 10158 ] final  174.38 input  -65.29 | X-H torsion
[ 10718 10713 10712 10709 ] final -178.36 input   66.30 | X-H torsion
[ 10763 10752 10751 10750 ] final   14.99 input  -60.55 | X-H torsion
[ 11005 11000 10999 10996 ] final    7.53 input  -57.11 | X-H torsion

> <Gold.Protein.ActiveResidues>
 VAL166  LYS551  ARG553  GLY616  TRP617  ASP618  TYR619  PRO620  LYS621  CYS622 
 ASP623  PHE694  ASN695  SER759  ASP760  ASP761  ALA762  ILE779  LEU786  VAL792 
 PHE793  MET794  SER795  GLU796  ALA797  LYS798  CYS799  TRP800  GLU811  SER814 

> <Gold.Protein.RotatedAtoms>
  150.8724  134.8100  159.7164 H   0  0  0  0  0  0  0  0  0  0  0  0  # atno 6907 bound_to 6896
  152.4724  134.4925  159.9709 H   0  0  0  0  0  0  0  0  0  0  0  0  # atno 6908 bound_to 6896
  151.5012  133.3465  159.2905 H   0  0  0  0  0  0  0  0  0  0  0  0  # atno 6909 bound_to 6896
  146.0646  139.5175  142.9636 H   0  0  0  0  0  0  0  0  0  0  0  0  # atno 7974 bound_to 7965
  155.3832  140.3429  155.4248 H   0  0  0  0  0  0  0  0  0  0  0  0  # atno 8008 bound_to 7997
  156.1599  140.1597  156.8663 H   0  0  0  0  0  0  0  0  0  0  0  0  # atno 8009 bound_to 7997
  154.5129  140.0785  156.8008 H   0  0  0  0  0  0  0  0  0  0  0  0  # atno 8010 bound_to 7997
  139.5140  144.3153  152.0253 H   0  0  0  0  0  0  0  0  0  0  0  0  # atno 10167 bound_to 10162
  156.8432  130.9693  151.3098 H   0  0  0  0  0  0  0  0  0  0  0  0  # atno 10718 bound_to 10713
  153.1568  135.6789  153.8800 H   0  0  0  0  0  0  0  0  0  0  0  0  # atno 10763 bound_to 10752
  153.8208  135.3130  155.3411 H   0  0  0  0  0  0  0  0  0  0  0  0  # atno 10764 bound_to 10752
  154.7904  135.4838  154.0127 H   0  0  0  0  0  0  0  0  0  0  0  0  # atno 10765 bound_to 10752
  140.5472  134.0318  155.7924 H   0  0  0  0  0  0  0  0  0  0  0  0  # atno 11005 bound_to 11000
  145.6499  141.0265  143.1766 LP  0  0  0  0  0  0  0  0  0  0  0  0  # atno 17320 bound_to 7965
  144.7195  139.8080  143.7387 LP  0  0  0  0  0  0  0  0  0  0  0  0  # atno 17321 bound_to 7965
  140.2597  144.4081  150.6190 LP  0  0  0  0  0  0  0  0  0  0  0  0  # atno 17342 bound_to 10162
  140.6166  143.2173  151.6779 LP  0  0  0  0  0  0  0  0  0  0  0  0  # atno 17343 bound_to 10162
  157.6344  130.8755  149.9332 LP  0  0  0  0  0  0  0  0  0  0  0  0  # atno 17370 bound_to 10713
  156.0869  130.3667  150.0470 LP  0  0  0  0  0  0  0  0  0  0  0  0  # atno 17371 bound_to 10713
  141.1193  133.9488  157.2762 LP  0  0  0  0  0  0  0  0  0  0  0  0  # atno 17394 bound_to 11000
  139.9473  135.0182  156.8891 LP  0  0  0  0  0  0  0  0  0  0  0  0  # atno 17395 bound_to 11000

$$$$
