AV-unprocessed.smi:1395|AV-procd|sdf|5672|dock5
  -GOLD-   22720 5293D 1   1.00000     0.00000
 Structure written by MMmdl.
 42 43  0  0  0  0  0  0  0  0  3 V2000
  151.7365  144.6907  157.5647 C   0  0  0  0  0  0  0  0  0  0  0  0
  151.9718  143.3498  158.2412 C   0  0  0  0  0  0  0  0  0  0  0  0
  153.0389  143.2153  159.1548 C   0  0  0  0  0  0  0  0  0  0  0  0
  153.2539  141.9757  159.7811 C   0  0  0  0  0  0  0  0  0  0  0  0
  152.3868  140.9159  159.4651 C   0  0  0  0  0  0  0  0  0  0  0  0
  151.3649  141.0354  158.5931 N   0  0  0  0  0  0  0  0  0  0  0  0
  151.1440  142.2251  157.9795 C   0  0  0  0  0  0  0  0  0  0  0  0
  150.0816  142.4248  157.0531 N   0  0  0  0  0  0  0  0  0  0  0  0
  149.3391  141.4990  156.4206 C   0  0  0  0  0  0  0  0  0  0  0  0
  149.4818  140.2797  156.5181 O   0  0  0  0  0  0  0  0  0  0  0  0
  148.4004  142.0718  155.6527 N   0  0  0  0  0  0  0  0  0  0  0  0
  147.4188  141.3494  154.8487 C   0  0  2  0  0  0  0  0  0  0  0  0
  146.8736  140.1514  155.6431 C   0  0  0  0  0  0  0  0  0  0  0  0
  145.9079  139.3098  154.7921 C   0  0  0  0  0  0  0  0  0  0  0  0
  146.5605  138.8523  153.5399 N   0  3  1  0  0  0  0  0  0  0  0  0
  145.7132  137.9066  152.7690 C   0  0  0  0  0  0  0  0  0  0  0  0
  145.6823  136.5282  153.4396 C   0  0  0  0  0  0  0  0  0  0  0  0
  146.1588  135.5547  152.6372 N   0  5  0  0  0  0  0  0  0  0  0  0
  145.2532  136.4193  154.5857 O   0  0  0  0  0  0  0  0  0  0  0  0
  147.0547  139.9972  152.7297 C   0  0  0  0  0  0  0  0  0  0  0  0
  148.0470  140.8529  153.5330 C   0  0  0  0  0  0  0  0  0  0  0  0
  152.4850  145.4244  157.8658 H   0  0  0  0  0  0  0  0  0  0  0  0
  150.7549  145.0842  157.8313 H   0  0  0  0  0  0  0  0  0  0  0  0
  151.7867  144.5872  156.4803 H   0  0  0  0  0  0  0  0  0  0  0  0
  153.6867  144.0508  159.3764 H   0  0  0  0  0  0  0  0  0  0  0  0
  154.0616  141.8409  160.4851 H   0  0  0  0  0  0  0  0  0  0  0  0
  152.5158  139.9467  159.9234 H   0  0  0  0  0  0  0  0  0  0  0  0
  149.8545  143.3888  156.8599 H   0  0  0  0  0  0  0  0  0  0  0  0
  148.3548  143.0801  155.6294 H   0  0  0  0  0  0  0  0  0  0  0  0
  146.5857  142.0166  154.6184 H   0  0  0  0  0  0  0  0  0  0  0  0
  147.6992  139.5214  155.9785 H   0  0  0  0  0  0  0  0  0  0  0  0
  146.3643  140.4980  156.5431 H   0  0  0  0  0  0  0  0  0  0  0  0
  145.5802  138.4469  155.3728 H   0  0  0  0  0  0  0  0  0  0  0  0
  145.0151  139.8879  154.5480 H   0  0  0  0  0  0  0  0  0  0  0  0
  144.6866  138.2729  152.7157 H   0  0  0  0  0  0  0  0  0  0  0  0
  146.0700  137.8281  151.7406 H   0  0  0  0  0  0  0  0  0  0  0  0
  147.1265  135.6250  152.2997 H   0  0  0  0  0  0  0  0  0  0  0  0
  147.5479  139.6368  151.8266 H   0  0  0  0  0  0  0  0  0  0  0  0
  146.2098  140.6065  152.4051 H   0  0  0  0  0  0  0  0  0  0  0  0
  148.3722  141.6981  152.9252 H   0  0  0  0  0  0  0  0  0  0  0  0
  148.9407  140.2644  153.7466 H   0  0  0  0  0  0  0  0  0  0  0  0
  147.3706  138.3149  153.8172 H   0  0  0  0  0  0  0  0  0  0  0  0
  1  2  1  0  0  0  0
  1 22  1  0  0  0  0
  1 23  1  0  0  0  0
  1 24  1  0  0  0  0
  2  7  1  0  0  0  0
  2  3  2  0  0  0  0
  3  4  1  0  0  0  0
  3 25  1  0  0  0  0
  4  5  2  0  0  0  0
  4 26  1  0  0  0  0
  5  6  1  0  0  0  0
  5 27  1  0  0  0  0
  6  7  2  0  0  0  0
  7  8  1  0  0  0  0
  8  9  1  0  0  0  0
  8 28  1  0  0  0  0
  9 10  2  0  0  0  0
  9 11  1  0  0  0  0
 11 12  1  0  0  0  0
 11 29  1  0  0  0  0
 12 21  1  0  0  0  0
 12 13  1  0  0  0  0
 12 30  1  0  0  0  0
 13 14  1  0  0  0  0
 13 31  1  0  0  0  0
 13 32  1  0  0  0  0
 14 15  1  0  0  0  0
 14 33  1  0  0  0  0
 14 34  1  0  0  0  0
 15 16  1  0  0  0  0
 15 20  1  0  0  0  0
 15 42  1  0  0  0  0
 16 17  1  0  0  0  0
 16 35  1  0  0  0  0
 16 36  1  0  0  0  0
 17 18  1  0  0  0  0
 17 19  2  0  0  0  0
 18 37  1  0  0  0  0
 20 21  1  0  0  0  0
 20 38  1  0  0  0  0
 20 39  1  0  0  0  0
 21 40  1  0  0  0  0
 21 41  1  0  0  0  0
M  CHG  1  15   1
M  CHG  1  18  -1
M  END
> <s_m_source_file>
AV-unprocessed.smi

> <i_m_source_file_index>
1395

> <i_lp_mmshare_version>
43012

> <i_f3d_flags>
0

> <s_epik_input>
W0NIM11jMVtjSF1bY0hdW2NIXW5jMVtOSF1DKD1PKVtOSF1bQ0hdMltDSDJdW0NIMl1OKFtDSDJdW0NIMl0yKVtDSDJdQyg9TylbTkgyXQ==

> <s_epik_cmdline>
J2VwaWtfcHl0aG9uJywgJy1waCcsICc3LjAnLCAnLXRuJywgJzgnLCAnLW1hJywgJzIwMCcsICctbWV0YWxfYmluZGluZycsICctaW1hZScsICc8aW5maWxlLm1hZT4nLCAnLW9tYWUnLCAnPG91dGZpbGUubWFlPic=

> <r_epik_Ionization_Penalty>
5.72885

> <r_epik_Ionization_Penalty_Charging>
5.7288

> <r_epik_Ionization_Penalty_Neutral>
4.54304e-05

> <r_epik_State_Penalty>
6.54882

> <r_epik_Charging_Adjusted_Penalty>
12.2776

> <i_epik_Tot_Q>
0

> <i_epik_Tot_abs_Q>
2

> <r_epik_Metal_State_Penalty>
2.51297

> <b_epik_Metal_Only>
1

> <s_lp_Force_Field>
OPLS_2005

> <r_lp_Energy>
9.01588

> <b_lp_Chiralities_Consistent>
1

> <s_lp_Variant>
AV-unprocessed.smi:1395-4

> <Gold.Version>
5.8.1

> <Gold.Id.Protein>
6NUR|6NUR_protein|mol2

> <Gold.PLP.Fitness>
40.4037

> <Gold.PLP.PLP>
-32.6601

> <Gold.PLP.part.hbond>
-3.0000

> <Gold.PLP.part.metal>
0.0000

> <Gold.PLP.part.buried>
-1.9941

> <Gold.PLP.part.nonpolar>
-28.5301

> <Gold.PLP.part.repulsive>
0.1704

> <Gold.PLP.ligand.clash>
0.0000

> <Gold.PLP.ligand.torsion>
0.4749

> <Gold.PLP.Chemscore.Hbond>
2.8897

> <Gold.PLP.Chemscore.CHOScore>
0.0000

> <Gold.PLP.Chemscore.Metal>
0.0000

> <Gold.Chemscore.Hbonds>
donor molecule, donor type, donor heavy atom, donor atom, acceptor molecule, acceptor atom, score
      L1  H     8    28       P1  8028  0.98
      L1  H    11    29       P1  8028  1.00
      L1  H    18    37       P1  7948  1.00

> <Gold.PLP.Chemscore.Internal.Correction>
0.0242

> <Gold.Rescore>
     Score         DG    S(hbond)    S(metal)    S(lipo)     H(rot)  DE(clash)    DE(int)     intcor
     15.35     -20.28       2.83        0.00      87.89       1.93       0.88       4.04       ----

> <Gold.Chemscore.Fitness>
15.3548

> <Gold.Chemscore.DG>
-20.2778

> <Gold.Chemscore.ZeroCoef>
-5.4800

> <Gold.Chemscore.Hbond>
2.8341

> <Gold.Chemscore.Metal>
0.0000

> <Gold.Chemscore.Lipo>
87.8906

> <Gold.Chemscore.Internal_Hbond>
0.0000

> <Gold.Chemscore.DEClash>
0.8844

> <Gold.Chemscore.DEInternal>
4.0387

> <Gold.Chemscore.Rot>
1.9341

> <Gold.Chemscore.Internal.Correction>
   9.000000E+99

> <Gold.Chemscore.Hbonds>
donor molecule, donor type, donor heavy atom, donor atom, acceptor molecule, acceptor atom, score
      L1  H     8    28       P1  8028  0.86
      L1  H    11    29       P1  8028  0.97
      L1  H    18    37       P1  7948  0.99

> <Gold.Chemscore.Hbond.Weighted>
-9.4659

> <Gold.Chemscore.Metal.Weighted>
-0.0000

> <Gold.Chemscore.Lipo.Weighted>
-10.2832

> <Gold.Chemscore.Internal_Hbond.Weighted>
0.0000

> <Gold.Chemscore.DEClash.Weighted>
0.8844

> <Gold.Chemscore.DEInternal.Weighted>
4.0387

> <Gold.Chemscore.Rot.Weighted>
4.9512

> <Gold.Chemscore.Internal.Correction.Weighted>
   9.000000E+99

> <Gold.Protein.RotatedTorsions>
[ 6907 6896 6895 6894 ] final  127.82 input  -60.11 | X-H torsion
[ 7974 7965 7964 7962 ] final -102.25 input  175.53 | X-H torsion
[ 8008 7997 7996 7995 ] final -172.28 input   59.86 | X-H torsion
[ 10167 10162 10161 10158 ] final  155.03 input  -65.29 | X-H torsion
[ 10718 10713 10712 10709 ] final -137.35 input   66.30 | X-H torsion
[ 10763 10752 10751 10750 ] final   97.59 input  -60.55 | X-H torsion
[ 11005 11000 10999 10996 ] final  128.98 input  -57.11 | X-H torsion

> <Gold.Protein.ActiveResidues>
 VAL166  LYS551  ARG553  GLY616  TRP617  ASP618  TYR619  PRO620  LYS621  CYS622 
 ASP623  PHE694  ASN695  SER759  ASP760  ASP761  ALA762  ILE779  LEU786  VAL792 
 PHE793  MET794  SER795  GLU796  ALA797  LYS798  CYS799  TRP800  GLU811  SER814 

> <Gold.Protein.RotatedAtoms>
  152.3777  133.6503  159.6136 H   0  0  0  0  0  0  0  0  0  0  0  0  # atno 6907 bound_to 6896
  150.7716  133.9166  159.3394 H   0  0  0  0  0  0  0  0  0  0  0  0  # atno 6908 bound_to 6896
  151.6977  135.0937  160.0296 H   0  0  0  0  0  0  0  0  0  0  0  0  # atno 6909 bound_to 6896
  145.2711  140.9299  143.2986 H   0  0  0  0  0  0  0  0  0  0  0  0  # atno 7974 bound_to 7965
  155.9426  140.1111  157.1043 H   0  0  0  0  0  0  0  0  0  0  0  0  # atno 8008 bound_to 7997
  154.4092  140.1216  156.5013 H   0  0  0  0  0  0  0  0  0  0  0  0  # atno 8009 bound_to 7997
  155.6943  140.3472  155.4909 H   0  0  0  0  0  0  0  0  0  0  0  0  # atno 8010 bound_to 7997
  139.4822  144.5134  151.7989 H   0  0  0  0  0  0  0  0  0  0  0  0  # atno 10167 bound_to 10162
  156.2871  130.7354  151.1369 H   0  0  0  0  0  0  0  0  0  0  0  0  # atno 10718 bound_to 10713
  153.2787  135.4178  155.1058 H   0  0  0  0  0  0  0  0  0  0  0  0  # atno 10763 bound_to 10752
  154.8482  135.3490  154.6142 H   0  0  0  0  0  0  0  0  0  0  0  0  # atno 10764 bound_to 10752
  153.6563  135.7050  153.5250 H   0  0  0  0  0  0  0  0  0  0  0  0  # atno 10765 bound_to 10752
  139.9590  134.9606  156.9081 H   0  0  0  0  0  0  0  0  0  0  0  0  # atno 11005 bound_to 11000
  144.9334  139.4272  143.6484 LP  0  0  0  0  0  0  0  0  0  0  0  0  # atno 17320 bound_to 7965
  146.3246  139.8257  142.8918 LP  0  0  0  0  0  0  0  0  0  0  0  0  # atno 17321 bound_to 7965
  140.4640  144.1682  150.5909 LP  0  0  0  0  0  0  0  0  0  0  0  0  # atno 17342 bound_to 10162
  140.4454  143.2509  151.9418 LP  0  0  0  0  0  0  0  0  0  0  0  0  # atno 17343 bound_to 10162
  157.7332  131.0593  150.5590 LP  0  0  0  0  0  0  0  0  0  0  0  0  # atno 17370 bound_to 10713
  156.5703  130.4278  149.6023 LP  0  0  0  0  0  0  0  0  0  0  0  0  # atno 17371 bound_to 10713
  140.5543  134.0596  155.7379 LP  0  0  0  0  0  0  0  0  0  0  0  0  # atno 17394 bound_to 11000
  141.1265  133.9374  157.2624 LP  0  0  0  0  0  0  0  0  0  0  0  0  # atno 17395 bound_to 11000

$$$$
