AV-unprocessed.smi:1810|AV-procd|sdf|7333|dock5
  -GOLD-   22720 8593D 1   1.00000     0.00000
 Structure written by MMmdl.
 40 41  0  0  0  0  0  0  0  0  1 V2000
  152.1019  137.2691  154.6406 C   0  0  0  0  0  0  0  0  0  0  0  0
  151.2361  136.2724  155.3633 C   0  0  0  0  0  0  0  0  0  0  0  0
  151.2473  135.0601  154.9148 N   0  0  0  0  0  0  0  0  0  0  0  0
  150.4903  134.0678  155.5056 N   0  0  0  0  0  0  0  0  0  0  0  0
  150.6141  132.7570  154.8590 C   0  0  0  0  0  0  0  0  0  0  0  0
  149.2440  132.2044  154.4371 C   0  0  0  0  0  0  0  0  0  0  0  0
  148.3974  133.2954  154.1023 O   0  0  0  0  0  0  0  0  0  0  0  0
  147.5212  133.1416  153.0492 C   0  0  0  0  0  0  0  0  0  0  0  0
  147.0823  134.2028  152.2161 C   0  0  0  0  0  0  0  0  0  0  0  0
  146.1821  133.9565  151.1614 C   0  0  0  0  0  0  0  0  0  0  0  0
  145.7155  132.6487  150.9309 C   0  0  0  0  0  0  0  0  0  0  0  0
  144.5717  132.3510  149.5884 S   0  0  0  0  0  0  0  0  0  0  0  0
  144.1174  133.9497  149.1439 N   0  0  0  0  0  0  0  0  0  0  0  0
  145.3204  131.7743  148.4612 O   0  0  0  0  0  0  0  0  0  0  0  0
  143.3740  131.6804  150.1178 O   0  0  0  0  0  0  0  0  0  0  0  0
  146.1422  131.5849  151.7488 C   0  0  0  0  0  0  0  0  0  0  0  0
  147.0415  131.8376  152.8026 C   0  0  0  0  0  0  0  0  0  0  0  0
  149.6767  134.2495  156.5845 C   0  0  0  0  0  0  0  0  0  0  0  0
  149.0143  133.3348  157.0764 O   0  0  0  0  0  0  0  0  0  0  0  0
  149.6680  135.6252  157.0874 C   0  0  0  0  0  0  0  0  0  0  0  0
  148.8272  135.8601  158.2167 C   0  0  0  0  0  0  0  0  0  0  0  0
  148.1600  136.0423  159.1449 N   0  0  0  0  0  0  0  0  0  0  0  0
  150.4075  136.6090  156.5165 C   0  0  0  0  0  0  0  0  0  0  0  0
  150.4337  138.0528  156.9998 C   0  0  0  0  0  0  0  0  0  0  0  0
  152.8372  137.7058  155.3166 H   0  0  0  0  0  0  0  0  0  0  0  0
  151.4986  138.0778  154.2278 H   0  0  0  0  0  0  0  0  0  0  0  0
  152.6469  136.8107  153.8140 H   0  0  0  0  0  0  0  0  0  0  0  0
  151.2573  132.8351  153.9804 H   0  0  0  0  0  0  0  0  0  0  0  0
  151.1150  132.0502  155.5229 H   0  0  0  0  0  0  0  0  0  0  0  0
  149.3574  131.5402  153.5790 H   0  0  0  0  0  0  0  0  0  0  0  0
  148.8096  131.6315  155.2580 H   0  0  0  0  0  0  0  0  0  0  0  0
  147.4208  135.2166  152.3657 H   0  0  0  0  0  0  0  0  0  0  0  0
  145.8525  134.7709  150.5330 H   0  0  0  0  0  0  0  0  0  0  0  0
  143.1115  134.0410  149.0049 H   0  0  0  0  0  0  0  0  0  0  0  0
  144.6667  134.3035  148.3611 H   0  0  0  0  0  0  0  0  0  0  0  0
  145.7868  130.5798  151.5770 H   0  0  0  0  0  0  0  0  0  0  0  0
  147.3680  131.0207  153.4294 H   0  0  0  0  0  0  0  0  0  0  0  0
  149.7801  138.2138  157.8567 H   0  0  0  0  0  0  0  0  0  0  0  0
  150.1065  138.7278  156.2081 H   0  0  0  0  0  0  0  0  0  0  0  0
  151.4427  138.3369  157.3002 H   0  0  0  0  0  0  0  0  0  0  0  0
  1  2  1  0  0  0  0
  1 25  1  0  0  0  0
  1 26  1  0  0  0  0
  1 27  1  0  0  0  0
  2 23  1  0  0  0  0
  2  3  2  0  0  0  0
  3  4  1  0  0  0  0
  4  5  1  0  0  0  0
  4 18  1  0  0  0  0
  5  6  1  0  0  0  0
  5 28  1  0  0  0  0
  5 29  1  0  0  0  0
  6  7  1  0  0  0  0
  6 30  1  0  0  0  0
  6 31  1  0  0  0  0
  7  8  1  0  0  0  0
  8 17  1  0  0  0  0
  8  9  2  0  0  0  0
  9 10  1  0  0  0  0
  9 32  1  0  0  0  0
 10 11  2  0  0  0  0
 10 33  1  0  0  0  0
 11 12  1  0  0  0  0
 11 16  1  0  0  0  0
 12 13  1  0  0  0  0
 12 14  2  0  0  0  0
 12 15  2  0  0  0  0
 13 34  1  0  0  0  0
 13 35  1  0  0  0  0
 16 17  2  0  0  0  0
 16 36  1  0  0  0  0
 17 37  1  0  0  0  0
 18 19  2  0  0  0  0
 18 20  1  0  0  0  0
 20 21  1  0  0  0  0
 20 23  2  0  0  0  0
 21 22  3  0  0  0  0
 23 24  1  0  0  0  0
 24 38  1  0  0  0  0
 24 39  1  0  0  0  0
 24 40  1  0  0  0  0
M  END
> <s_m_source_file>
AV-unprocessed.smi

> <i_m_source_file_index>
1810

> <i_lp_mmshare_version>
43012

> <i_f3d_flags>
0

> <s_epik_input>
TiNDYyhjMVtDSDNdKWMoPU8pbihuYzFbQ0gzXSlbQ0gyXVtDSDJdT2MyW2NIXVtjSF1jKFMoPU8pKD1PKVtOSDJdKVtjSF1bY0hdMg==

> <s_epik_cmdline>
J2VwaWtfcHl0aG9uJywgJy1waCcsICc3LjAnLCAnLXRuJywgJzgnLCAnLW1hJywgJzIwMCcsICctbWV0YWxfYmluZGluZycsICctaW1hZScsICc8aW5maWxlLm1hZT4nLCAnLW9tYWUnLCAnPG91dGZpbGUubWFlPic=

> <r_lp_tautomer_probability>
1

> <r_epik_Ionization_Penalty>
0.000347403

> <r_epik_Ionization_Penalty_Charging>
5.27838e-11

> <r_epik_Ionization_Penalty_Neutral>
0.000347403

> <r_epik_State_Penalty>
0.00021091

> <r_epik_Charging_Adjusted_Penalty>
0.000210911

> <i_epik_Tot_Q>
0

> <i_epik_Tot_abs_Q>
0

> <r_epik_Metal_State_Penalty>
0.18648

> <b_epik_Metal_Only>
0

> <s_lp_Force_Field>
OPLS_2005

> <r_lp_Energy>
32.1268

> <b_lp_Chiralities_Consistent>
1

> <s_lp_Variant>
AV-unprocessed.smi:1810-1

> <Gold.Version>
5.8.1

> <Gold.Id.Protein>
6NUR|6NUR_protein|mol2

> <Gold.PLP.Fitness>
38.4722

> <Gold.PLP.PLP>
-28.8116

> <Gold.PLP.part.hbond>
-5.5208

> <Gold.PLP.part.metal>
0.0000

> <Gold.PLP.part.buried>
-3.7805

> <Gold.PLP.part.nonpolar>
-21.7604

> <Gold.PLP.part.repulsive>
2.3355

> <Gold.PLP.ligand.clash>
0.0000

> <Gold.PLP.ligand.torsion>
2.0763

> <Gold.PLP.Chemscore.Hbond>
3.9417

> <Gold.PLP.Chemscore.CHOScore>
0.0000

> <Gold.PLP.Chemscore.Metal>
0.0000

> <Gold.Chemscore.Hbonds>
donor molecule, donor type, donor heavy atom, donor atom, acceptor molecule, acceptor atom, score
      L1  H    13    34       P1 10186  0.59
      L1  H    13    35       P1  7921  1.00
      P1  H 10785 10796       L1    15  0.91

> <Gold.PLP.Chemscore.Internal.Correction>
1.9881

> <Gold.Rescore>
     Score         DG    S(hbond)    S(metal)    S(lipo)     H(rot)  DE(clash)    DE(int)     intcor
     10.31     -15.09       2.19        0.00      63.31       1.99       1.85       2.93       ----

> <Gold.Chemscore.Fitness>
10.3088

> <Gold.Chemscore.DG>
-15.0887

> <Gold.Chemscore.ZeroCoef>
-5.4800

> <Gold.Chemscore.Hbond>
2.1863

> <Gold.Chemscore.Metal>
0.0000

> <Gold.Chemscore.Lipo>
63.3103

> <Gold.Chemscore.Internal_Hbond>
0.0000

> <Gold.Chemscore.DEClash>
1.8540

> <Gold.Chemscore.DEInternal>
2.9259

> <Gold.Chemscore.Rot>
1.9925

> <Gold.Chemscore.Internal.Correction>
   9.000000E+99

> <Gold.Chemscore.Hbonds>
donor molecule, donor type, donor heavy atom, donor atom, acceptor molecule, acceptor atom, score
      L1  H    13    34       P1 10186  0.58
      L1  H    13    35       P1  7921  0.98
      P1  H 10785 10796       L1    15  0.21

> <Gold.Chemscore.Hbond.Weighted>
-7.3021

> <Gold.Chemscore.Metal.Weighted>
-0.0000

> <Gold.Chemscore.Lipo.Weighted>
-7.4073

> <Gold.Chemscore.Internal_Hbond.Weighted>
0.0000

> <Gold.Chemscore.DEClash.Weighted>
1.8540

> <Gold.Chemscore.DEInternal.Weighted>
2.9259

> <Gold.Chemscore.Rot.Weighted>
5.1007

> <Gold.Chemscore.Internal.Correction.Weighted>
   9.000000E+99

> <Gold.Protein.RotatedTorsions>
[ 6907 6896 6895 6894 ] final -124.69 input  -60.11 | X-H torsion
[ 7974 7965 7964 7962 ] final   -3.12 input  175.53 | X-H torsion
[ 8008 7997 7996 7995 ] final   13.09 input   59.86 | X-H torsion
[ 10167 10162 10161 10158 ] final   11.77 input  -65.29 | X-H torsion
[ 10718 10713 10712 10709 ] final   64.00 input   66.30 | X-H torsion
[ 10763 10752 10751 10750 ] final  -57.18 input  -60.55 | X-H torsion
[ 11005 11000 10999 10996 ] final -143.80 input  -57.11 | X-H torsion

> <Gold.Protein.ActiveResidues>
 VAL166  LYS551  ARG553  GLY616  TRP617  ASP618  TYR619  PRO620  LYS621  CYS622 
 ASP623  PHE694  ASN695  SER759  ASP760  ASP761  ALA762  ILE779  LEU786  VAL792 
 PHE793  MET794  SER795  GLU796  ALA797  LYS798  CYS799  TRP800  GLU811  SER814 

> <Gold.Protein.RotatedAtoms>
  150.8793  133.7394  159.2936 H   0  0  0  0  0  0  0  0  0  0  0  0  # atno 6907 bound_to 6896
  151.4980  135.1059  159.9831 H   0  0  0  0  0  0  0  0  0  0  0  0  # atno 6908 bound_to 6896
  152.4749  133.8069  159.7038 H   0  0  0  0  0  0  0  0  0  0  0  0  # atno 6909 bound_to 6896
  146.2394  140.1673  142.8332 H   0  0  0  0  0  0  0  0  0  0  0  0  # atno 7974 bound_to 7965
  154.8296  140.2897  155.5731 H   0  0  0  0  0  0  0  0  0  0  0  0  # atno 8008 bound_to 7997
  156.3004  140.2534  156.3150 H   0  0  0  0  0  0  0  0  0  0  0  0  # atno 8009 bound_to 7997
  154.9246  140.0385  157.2005 H   0  0  0  0  0  0  0  0  0  0  0  0  # atno 8010 bound_to 7997
  140.6110  143.8407  150.7066 H   0  0  0  0  0  0  0  0  0  0  0  0  # atno 10167 bound_to 10162
  157.6009  130.9136  149.9788 H   0  0  0  0  0  0  0  0  0  0  0  0  # atno 10718 bound_to 10713
  154.2183  135.6382  153.5136 H   0  0  0  0  0  0  0  0  0  0  0  0  # atno 10763 bound_to 10752
  152.9974  135.5490  154.6141 H   0  0  0  0  0  0  0  0  0  0  0  0  # atno 10764 bound_to 10752
  154.5595  135.2908  155.0906 H   0  0  0  0  0  0  0  0  0  0  0  0  # atno 10765 bound_to 10752
  140.8089  134.2769  157.4949 H   0  0  0  0  0  0  0  0  0  0  0  0  # atno 11005 bound_to 11000
  145.0040  140.8657  143.5264 LP  0  0  0  0  0  0  0  0  0  0  0  0  # atno 17320 bound_to 7965
  145.1696  139.2411  143.5349 LP  0  0  0  0  0  0  0  0  0  0  0  0  # atno 17321 bound_to 7965
  140.1975  143.3986  152.1817 LP  0  0  0  0  0  0  0  0  0  0  0  0  # atno 17342 bound_to 10162
  139.5362  144.7211  151.4887 LP  0  0  0  0  0  0  0  0  0  0  0  0  # atno 17343 bound_to 10162
  156.1083  130.3651  150.0095 LP  0  0  0  0  0  0  0  0  0  0  0  0  # atno 17370 bound_to 10713
  156.8198  130.9354  151.3641 LP  0  0  0  0  0  0  0  0  0  0  0  0  # atno 17371 bound_to 10713
  139.8715  134.9471  156.3959 LP  0  0  0  0  0  0  0  0  0  0  0  0  # atno 17394 bound_to 11000
  140.9219  133.7639  155.9916 LP  0  0  0  0  0  0  0  0  0  0  0  0  # atno 17395 bound_to 11000

$$$$
