AV-unprocessed.smi:697|AV-procd|sdf|3396|dock1
  -GOLD-   22720 0373D 1   1.00000     0.00000
 Structure written by MMmdl.
 43 44  0  0  0  0  0  0  0  0  2 V2000
  143.4947  133.4676  151.6677 C   0  0  0  0  0  0  0  0  0  0  0  0
  144.1890  134.6578  151.3175 O   0  0  0  0  0  0  0  0  0  0  0  0
  144.2254  135.6852  152.3094 C   0  0  2  0  0  0  0  0  0  0  0  0
  142.8016  135.9969  152.7964 C   0  0  0  0  0  0  0  0  0  0  0  0
  145.1173  136.8669  151.8874 C   0  0  0  0  0  0  0  0  0  0  0  0
  145.6708  136.8444  153.3102 C   0  0  2  0  0  0  0  0  0  0  0  0
  147.0964  137.1494  153.3636 N   0  0  0  0  0  0  0  0  0  0  0  0
  147.6931  137.8081  154.3659 C   0  0  0  0  0  0  0  0  0  0  0  0
  147.0801  138.2492  155.3378 O   0  0  0  0  0  0  0  0  0  0  0  0
  149.0170  137.9091  154.1481 N   0  0  0  0  0  0  0  0  0  0  0  0
  150.0211  138.4744  154.9534 C   0  0  0  0  0  0  0  0  0  0  0  0
  149.9264  139.6702  155.5989 C   0  0  0  0  0  0  0  0  0  0  0  0
  151.0005  140.1944  156.4326 C   0  0  0  0  0  0  0  0  0  0  0  0
  150.9650  141.5635  157.0884 C   0  0  0  0  0  0  0  0  0  0  0  0
  152.0589  141.7743  157.8207 F   0  0  0  0  0  0  0  0  0  0  0  0
  150.8787  142.5292  156.1734 F   0  0  0  0  0  0  0  0  0  0  0  0
  149.9047  141.6547  157.8895 F   0  0  0  0  0  0  0  0  0  0  0  0
  152.0945  139.3519  156.4696 C   0  0  0  0  0  0  0  0  0  0  0  0
  152.2595  138.1460  155.8836 N   0  5  0  0  0  0  0  0  0  0  0  0
  151.2471  137.6637  155.1090 C   0  0  0  0  0  0  0  0  0  0  0  0
  151.3339  136.5734  154.5428 O   0  0  0  0  0  0  0  0  0  0  0  0
  145.3252  135.3339  153.3636 C   0  0  0  0  0  0  0  0  0  0  0  0
  144.8405  134.8086  154.7190 C   0  0  0  0  0  0  0  0  0  0  0  0
  146.4210  134.3524  152.9000 C   0  0  0  0  0  0  0  0  0  0  0  0
  143.4467  132.8142  150.7968 H   0  0  0  0  0  0  0  0  0  0  0  0
  142.4713  133.6691  151.9847 H   0  0  0  0  0  0  0  0  0  0  0  0
  144.0052  132.9169  152.4571 H   0  0  0  0  0  0  0  0  0  0  0  0
  142.8034  136.6717  153.6520 H   0  0  0  0  0  0  0  0  0  0  0  0
  142.2782  135.0892  153.0976 H   0  0  0  0  0  0  0  0  0  0  0  0
  142.2057  136.4832  152.0246 H   0  0  0  0  0  0  0  0  0  0  0  0
  145.8551  136.6098  151.1248 H   0  0  0  0  0  0  0  0  0  0  0  0
  144.5770  137.7777  151.6282 H   0  0  0  0  0  0  0  0  0  0  0  0
  145.0643  137.4468  153.9902 H   0  0  0  0  0  0  0  0  0  0  0  0
  147.6664  136.8230  152.5972 H   0  0  0  0  0  0  0  0  0  0  0  0
  149.3543  137.5375  153.2721 H   0  0  0  0  0  0  0  0  0  0  0  0
  149.0357  140.2715  155.5302 H   0  0  0  0  0  0  0  0  0  0  0  0
  152.9709  139.7007  157.0564 H   0  0  0  0  0  0  0  0  0  0  0  0
  145.6709  134.6488  155.4077 H   0  0  0  0  0  0  0  0  0  0  0  0
  144.3129  133.8603  154.6135 H   0  0  0  0  0  0  0  0  0  0  0  0
  144.1617  135.5065  155.2083 H   0  0  0  0  0  0  0  0  0  0  0  0
  147.2478  134.3071  153.6095 H   0  0  0  0  0  0  0  0  0  0  0  0
  146.8447  134.6303  151.9350 H   0  0  0  0  0  0  0  0  0  0  0  0
  146.0305  133.3395  152.7973 H   0  0  0  0  0  0  0  0  0  0  0  0
  1  2  1  0  0  0  0
  1 25  1  0  0  0  0
  1 26  1  0  0  0  0
  1 27  1  0  0  0  0
  2  3  1  0  0  0  0
  3 22  1  0  0  0  0
  3  4  1  0  0  0  0
  3  5  1  0  0  0  0
  4 28  1  0  0  0  0
  4 29  1  0  0  0  0
  4 30  1  0  0  0  0
  5  6  1  0  0  0  0
  5 31  1  0  0  0  0
  5 32  1  0  0  0  0
  6  7  1  0  0  0  0
  6 22  1  0  0  0  0
  6 33  1  0  0  0  0
  7  8  1  0  0  0  0
  7 34  1  0  0  0  0
  8  9  2  0  0  0  0
  8 10  1  0  0  0  0
 10 11  1  0  0  0  0
 10 35  1  0  0  0  0
 11 20  1  0  0  0  0
 11 12  2  0  0  0  0
 12 13  1  0  0  0  0
 12 36  1  0  0  0  0
 13 14  1  0  0  0  0
 13 18  2  0  0  0  0
 14 15  1  0  0  0  0
 14 16  1  0  0  0  0
 14 17  1  0  0  0  0
 18 19  1  0  0  0  0
 18 37  1  0  0  0  0
 19 20  1  0  0  0  0
 20 21  2  0  0  0  0
 22 23  1  0  0  0  0
 22 24  1  0  0  0  0
 23 38  1  0  0  0  0
 23 39  1  0  0  0  0
 23 40  1  0  0  0  0
 24 41  1  0  0  0  0
 24 42  1  0  0  0  0
 24 43  1  0  0  0  0
M  CHG  1  19  -1
M  END
> <s_m_source_file>
AV-unprocessed.smi

> <i_m_source_file_index>
697

> <i_lp_mmshare_version>
43012

> <i_f3d_flags>
0

> <s_epik_input>
W0NIM11PW0NAQF0xKFtDSDNdKVtDSDJdW0NASF0oQzEoW0NIM10pW0NIM10pW05IXUMoPU8pW05IXWMyW2NIXWMoQyhGKShGKUYpW2NIXVtuSF1jMj1P

> <s_epik_cmdline>
J2VwaWtfcHl0aG9uJywgJy1waCcsICc3LjAnLCAnLXRuJywgJzgnLCAnLW1hJywgJzIwMCcsICctbWV0YWxfYmluZGluZycsICctaW1hZScsICc8aW5maWxlLm1hZT4nLCAnLW9tYWUnLCAnPG91dGZpbGUubWFlPic=

> <r_lp_tautomer_probability>
1

> <r_epik_Ionization_Penalty>
3.20094

> <r_epik_Ionization_Penalty_Charging>
0.180017

> <r_epik_Ionization_Penalty_Neutral>
3.02092

> <r_epik_State_Penalty>
3.01726

> <r_epik_Charging_Adjusted_Penalty>
3.19727

> <i_epik_Tot_Q>
-1

> <i_epik_Tot_abs_Q>
1

> <r_epik_Metal_State_Penalty>
0.455096

> <b_epik_Metal_Only>
1

> <s_lp_Force_Field>
OPLS_2005

> <r_lp_Energy>
36.1222

> <b_lp_Chiralities_Consistent>
1

> <s_lp_Variant>
AV-unprocessed.smi:697-8

> <Gold.Version>
5.8.1

> <Gold.Id.Protein>
6NUR|6NUR_protein|mol2

> <Gold.PLP.Fitness>
36.2215

> <Gold.PLP.PLP>
-28.5410

> <Gold.PLP.part.hbond>
-3.0000

> <Gold.PLP.part.metal>
0.0000

> <Gold.PLP.part.buried>
-5.4078

> <Gold.PLP.part.nonpolar>
-21.2251

> <Gold.PLP.part.repulsive>
1.4531

> <Gold.PLP.ligand.clash>
0.0000

> <Gold.PLP.ligand.torsion>
0.7549

> <Gold.PLP.Chemscore.Hbond>
2.9120

> <Gold.PLP.Chemscore.CHOScore>
0.0000

> <Gold.PLP.Chemscore.Metal>
0.0000

> <Gold.Chemscore.Hbonds>
donor molecule, donor type, donor heavy atom, donor atom, acceptor molecule, acceptor atom, score
      L1  H     7    34       P1  7948  1.00
      L1  H    10    35       P1  7948  0.90
      P1  H 10752 10764       L1    21  1.00

> <Gold.PLP.Chemscore.Internal.Correction>
0.4542

> <Gold.Rescore>
     Score         DG    S(hbond)    S(metal)    S(lipo)     H(rot)  DE(clash)    DE(int)     intcor
     17.27     -18.50       2.94        0.00      55.86       1.30       0.55       0.68       ----

> <Gold.Chemscore.Fitness>
17.2738

> <Gold.Chemscore.DG>
-18.5038

> <Gold.Chemscore.ZeroCoef>
-5.4800

> <Gold.Chemscore.Hbond>
2.9368

> <Gold.Chemscore.Metal>
0.0000

> <Gold.Chemscore.Lipo>
55.8620

> <Gold.Chemscore.Internal_Hbond>
0.0000

> <Gold.Chemscore.DEClash>
0.5498

> <Gold.Chemscore.DEInternal>
0.6802

> <Gold.Chemscore.Rot>
1.2973

> <Gold.Chemscore.Internal.Correction>
   9.000000E+99

> <Gold.Chemscore.Hbonds>
donor molecule, donor type, donor heavy atom, donor atom, acceptor molecule, acceptor atom, score
      L1  H     7    34       P1  7948  0.98
      L1  H    10    35       P1  7948  0.85
      P1  H 10752 10764       L1    21  0.95

> <Gold.Chemscore.Hbond.Weighted>
-9.8090

> <Gold.Chemscore.Metal.Weighted>
-0.0000

> <Gold.Chemscore.Lipo.Weighted>
-6.5359

> <Gold.Chemscore.Internal_Hbond.Weighted>
0.0000

> <Gold.Chemscore.DEClash.Weighted>
0.5498

> <Gold.Chemscore.DEInternal.Weighted>
0.6802

> <Gold.Chemscore.Rot.Weighted>
3.3210

> <Gold.Chemscore.Internal.Correction.Weighted>
   9.000000E+99

> <Gold.Protein.RotatedTorsions>
[ 6907 6896 6895 6894 ] final -138.70 input  -60.11 | X-H torsion
[ 7974 7965 7964 7962 ] final  -55.41 input  175.53 | X-H torsion
[ 8008 7997 7996 7995 ] final  137.06 input   59.86 | X-H torsion
[ 10167 10162 10161 10158 ] final  -77.58 input  -65.29 | X-H torsion
[ 10718 10713 10712 10709 ] final   36.47 input   66.30 | X-H torsion
[ 10763 10752 10751 10750 ] final  -52.61 input  -60.55 | X-H torsion
[ 11005 11000 10999 10996 ] final  -66.19 input  -57.11 | X-H torsion

> <Gold.Protein.ActiveResidues>
 VAL166  LYS551  ARG553  GLY616  TRP617  ASP618  TYR619  PRO620  LYS621  CYS622 
 ASP623  PHE694  ASN695  SER759  ASP760  ASP761  ALA762  ILE779  LEU786  VAL792 
 PHE793  MET794  SER795  GLU796  ALA797  LYS798  CYS799  TRP800  GLU811  SER814 

> <Gold.Protein.RotatedAtoms>
  151.0384  133.5728  159.2653 H   0  0  0  0  0  0  0  0  0  0  0  0  # atno 6907 bound_to 6896
  151.2783  135.0705  159.9170 H   0  0  0  0  0  0  0  0  0  0  0  0  # atno 6908 bound_to 6896
  152.5359  134.0103  159.7989 H   0  0  0  0  0  0  0  0  0  0  0  0  # atno 6909 bound_to 6896
  145.8745  140.8191  142.9871 H   0  0  0  0  0  0  0  0  0  0  0  0  # atno 7974 bound_to 7965
  156.3003  140.2429  156.3847 H   0  0  0  0  0  0  0  0  0  0  0  0  # atno 8008 bound_to 7997
  154.8668  140.0417  157.1720 H   0  0  0  0  0  0  0  0  0  0  0  0  # atno 8009 bound_to 7997
  154.8837  140.2953  155.5414 H   0  0  0  0  0  0  0  0  0  0  0  0  # atno 8010 bound_to 7997
  140.4757  143.2415  151.8135 H   0  0  0  0  0  0  0  0  0  0  0  0  # atno 10167 bound_to 10162
  157.3352  130.7519  149.6874 H   0  0  0  0  0  0  0  0  0  0  0  0  # atno 10718 bound_to 10713
  154.1456  135.6498  153.4952 H   0  0  0  0  0  0  0  0  0  0  0  0  # atno 10763 bound_to 10752
  153.0153  135.5326  154.6860 H   0  0  0  0  0  0  0  0  0  0  0  0  # atno 10764 bound_to 10752
  154.6134  135.2956  155.0378 H   0  0  0  0  0  0  0  0  0  0  0  0  # atno 10765 bound_to 10752
  141.1475  133.6695  156.6102 H   0  0  0  0  0  0  0  0  0  0  0  0  # atno 11005 bound_to 11000
  144.6726  140.1289  143.7445 LP  0  0  0  0  0  0  0  0  0  0  0  0  # atno 17320 bound_to 7965
  145.9097  139.2480  143.1445 LP  0  0  0  0  0  0  0  0  0  0  0  0  # atno 17321 bound_to 7965
  139.4825  144.4835  151.9276 LP  0  0  0  0  0  0  0  0  0  0  0  0  # atno 17342 bound_to 10162
  140.3921  144.2602  150.5899 LP  0  0  0  0  0  0  0  0  0  0  0  0  # atno 17343 bound_to 10162
  155.9700  130.4183  150.4323 LP  0  0  0  0  0  0  0  0  0  0  0  0  # atno 17370 bound_to 10713
  157.2362  131.0515  151.2463 LP  0  0  0  0  0  0  0  0  0  0  0  0  # atno 17371 bound_to 10713
  140.3620  134.7679  157.4540 LP  0  0  0  0  0  0  0  0  0  0  0  0  # atno 17394 bound_to 11000
  140.0777  134.5774  155.8573 LP  0  0  0  0  0  0  0  0  0  0  0  0  # atno 17395 bound_to 11000

$$$$
