AV-unprocessed.smi:1982|AV-procd|sdf|8021|dock5
  -GOLD-   2272010213D 1   1.00000     0.00000
 Structure written by MMmdl.
 36 37  0  0  0  0  0  0  0  0  1 V2000
  152.0409  144.3697  157.5363 C   0  0  0  0  0  0  0  0  0  0  0  0
  152.5740  143.8592  158.8853 C   0  0  1  0  0  0  0  0  0  0  0  0
  151.8873  144.5607  160.0743 C   0  0  0  0  0  0  0  0  0  0  0  0
  152.5003  144.1236  161.4137 C   0  0  0  0  0  0  0  0  0  0  0  0
  152.4778  142.5962  161.5726 C   0  0  0  0  0  0  0  0  0  0  0  0
  153.1656  141.8987  160.3830 C   0  0  1  0  0  0  0  0  0  0  0  0
  153.1419  140.4522  160.5805 N   0  0  0  0  0  0  0  0  0  0  0  0
  153.7188  139.5456  159.7763 C   0  0  0  0  0  0  0  0  0  0  0  0
  154.3933  139.8406  158.7903 O   0  0  0  0  0  0  0  0  0  0  0  0
  153.4812  138.0778  160.1296 C   0  0  0  0  0  0  0  0  0  0  0  0
  153.1045  137.3214  158.9501 N   0  0  0  0  0  0  0  0  0  0  0  0
  153.7469  137.1155  157.7986 C   0  0  0  0  0  0  0  0  0  0  0  0
  153.0322  136.3735  156.9665 N   0  0  0  0  0  0  0  0  0  0  0  0
  151.8752  136.1205  157.6846 N   0  0  0  0  0  0  0  0  0  0  0  0
  151.9121  136.6807  158.8624 N   0  0  0  0  0  0  0  0  0  0  0  0
  152.5279  142.3142  159.0278 C   0  0  1  0  0  0  0  0  0  0  0  0
  151.1196  141.7121  158.8063 C   0  0  0  0  0  0  0  0  0  0  0  0
  150.9643  144.2263  157.4443 H   0  0  0  0  0  0  0  0  0  0  0  0
  152.5221  143.8571  156.7032 H   0  0  0  0  0  0  0  0  0  0  0  0
  152.2362  145.4363  157.4214 H   0  0  0  0  0  0  0  0  0  0  0  0
  153.6270  144.1437  158.9177 H   0  0  0  0  0  0  0  0  0  0  0  0
  151.9810  145.6423  159.9720 H   0  0  0  0  0  0  0  0  0  0  0  0
  150.8182  144.3473  160.0713 H   0  0  0  0  0  0  0  0  0  0  0  0
  153.5295  144.4798  161.4758 H   0  0  0  0  0  0  0  0  0  0  0  0
  151.9626  144.5913  162.2389 H   0  0  0  0  0  0  0  0  0  0  0  0
  152.9754  142.3226  162.5037 H   0  0  0  0  0  0  0  0  0  0  0  0
  151.4465  142.2541  161.6665 H   0  0  0  0  0  0  0  0  0  0  0  0
  154.2097  142.2188  160.3814 H   0  0  0  0  0  0  0  0  0  0  0  0
  152.6073  140.1122  161.3670 H   0  0  0  0  0  0  0  0  0  0  0  0
  154.3868  137.6406  160.5520 H   0  0  0  0  0  0  0  0  0  0  0  0
  152.6977  137.9943  160.8842 H   0  0  0  0  0  0  0  0  0  0  0  0
  154.7256  137.5112  157.5700 H   0  0  0  0  0  0  0  0  0  0  0  0
  153.1592  141.9055  158.2372 H   0  0  0  0  0  0  0  0  0  0  0  0
  150.3987  142.0736  159.5388 H   0  0  0  0  0  0  0  0  0  0  0  0
  151.1323  140.6239  158.8694 H   0  0  0  0  0  0  0  0  0  0  0  0
  150.7331  141.9541  157.8170 H   0  0  0  0  0  0  0  0  0  0  0  0
  1  2  1  0  0  0  0
  1 18  1  0  0  0  0
  1 19  1  0  0  0  0
  1 20  1  0  0  0  0
  2 16  1  0  0  0  0
  2  3  1  0  0  0  0
  2 21  1  0  0  0  0
  3  4  1  0  0  0  0
  3 22  1  0  0  0  0
  3 23  1  0  0  0  0
  4  5  1  0  0  0  0
  4 24  1  0  0  0  0
  4 25  1  0  0  0  0
  5  6  1  0  0  0  0
  5 26  1  0  0  0  0
  5 27  1  0  0  0  0
  6  7  1  0  0  0  0
  6 16  1  0  0  0  0
  6 28  1  0  0  0  0
  7  8  1  0  0  0  0
  7 29  1  0  0  0  0
  8  9  2  0  0  0  0
  8 10  1  0  0  0  0
 10 11  1  0  0  0  0
 10 30  1  0  0  0  0
 10 31  1  0  0  0  0
 11 15  1  0  0  0  0
 11 12  1  0  0  0  0
 12 13  2  0  0  0  0
 12 32  1  0  0  0  0
 13 14  1  0  0  0  0
 14 15  2  0  0  0  0
 16 17  1  0  0  0  0
 16 33  1  0  0  0  0
 17 34  1  0  0  0  0
 17 35  1  0  0  0  0
 17 36  1  0  0  0  0
M  END
> <s_m_source_file>
AV-unprocessed.smi

> <i_m_source_file_index>
1982

> <i_lp_mmshare_version>
43012

> <i_f3d_flags>
0

> <s_epik_input>
W0NIM11bQ0BASF0xW0NIMl1bQ0gyXVtDSDJdW0NASF0oW0NASF0xW0NIM10pW05IXUMoPU8pW0NIMl1uMltjSF1ubm4y

> <s_epik_cmdline>
J2VwaWtfcHl0aG9uJywgJy1waCcsICc3LjAnLCAnLXRuJywgJzgnLCAnLW1hJywgJzIwMCcsICctbWV0YWxfYmluZGluZycsICctaW1hZScsICc8aW5maWxlLm1hZT4nLCAnLW9tYWUnLCAnPG91dGZpbGUubWFlPic=

> <r_lp_tautomer_probability>
1

> <r_epik_Ionization_Penalty>
5.03816e-07

> <r_epik_Ionization_Penalty_Charging>
0

> <r_epik_Ionization_Penalty_Neutral>
5.03816e-07

> <r_epik_State_Penalty>
-0

> <r_epik_Charging_Adjusted_Penalty>
0

> <i_epik_Tot_Q>
0

> <i_epik_Tot_abs_Q>
0

> <r_epik_Metal_State_Penalty>
-0

> <b_epik_Metal_Only>
0

> <s_lp_Force_Field>
OPLS_2005

> <r_lp_Energy>
14.9892

> <b_lp_Chiralities_Consistent>
1

> <s_lp_Variant>
AV-unprocessed.smi:1982-2

> <Gold.Version>
5.8.1

> <Gold.Id.Protein>
6NUR|6NUR_protein|mol2

> <Gold.PLP.Fitness>
43.9781

> <Gold.PLP.PLP>
-35.8185

> <Gold.PLP.part.hbond>
-4.0000

> <Gold.PLP.part.metal>
0.0000

> <Gold.PLP.part.buried>
-3.3975

> <Gold.PLP.part.nonpolar>
-27.7060

> <Gold.PLP.part.repulsive>
0.0999

> <Gold.PLP.ligand.clash>
0.0000

> <Gold.PLP.ligand.torsion>
0.1632

> <Gold.PLP.Chemscore.Hbond>
2.8240

> <Gold.PLP.Chemscore.CHOScore>
0.0000

> <Gold.PLP.Chemscore.Metal>
0.0000

> <Gold.Chemscore.Hbonds>
donor molecule, donor type, donor heavy atom, donor atom, acceptor molecule, acceptor atom, score
      P1  H  6896  6908       L1    15  0.83
      P1  H  7997  8008       L1     9  1.00
      P1  H 10752 10763       L1    13  0.99

> <Gold.PLP.Chemscore.Internal.Correction>
0.0140

> <Gold.Rescore>
     Score         DG    S(hbond)    S(metal)    S(lipo)     H(rot)  DE(clash)    DE(int)     intcor
     19.18     -20.07       2.44        0.00      96.67       1.91       0.27       0.61       ----

> <Gold.Chemscore.Fitness>
19.1844

> <Gold.Chemscore.DG>
-20.0695

> <Gold.Chemscore.ZeroCoef>
-5.4800

> <Gold.Chemscore.Hbond>
2.4425

> <Gold.Chemscore.Metal>
0.0000

> <Gold.Chemscore.Lipo>
96.6700

> <Gold.Chemscore.Internal_Hbond>
0.0000

> <Gold.Chemscore.DEClash>
0.2737

> <Gold.Chemscore.DEInternal>
0.6115

> <Gold.Chemscore.Rot>
1.9058

> <Gold.Chemscore.Internal.Correction>
   9.000000E+99

> <Gold.Chemscore.Hbonds>
donor molecule, donor type, donor heavy atom, donor atom, acceptor molecule, acceptor atom, score
      P1  H  6896  6908       L1    15  0.20
      P1  H  7997  8008       L1     9  0.97
      P1  H 10752 10763       L1    13  0.84

> <Gold.Chemscore.Hbond.Weighted>
-8.1580

> <Gold.Chemscore.Metal.Weighted>
-0.0000

> <Gold.Chemscore.Lipo.Weighted>
-11.3104

> <Gold.Chemscore.Internal_Hbond.Weighted>
0.0000

> <Gold.Chemscore.DEClash.Weighted>
0.2737

> <Gold.Chemscore.DEInternal.Weighted>
0.6115

> <Gold.Chemscore.Rot.Weighted>
4.8788

> <Gold.Chemscore.Internal.Correction.Weighted>
   9.000000E+99

> <Gold.Protein.RotatedTorsions>
[ 6907 6896 6895 6894 ] final -123.24 input  -60.11 | X-H torsion
[ 7974 7965 7964 7962 ] final  -60.71 input  175.53 | X-H torsion
[ 8008 7997 7996 7995 ] final -121.81 input   59.86 | X-H torsion
[ 10167 10162 10161 10158 ] final  -27.89 input  -65.29 | X-H torsion
[ 10718 10713 10712 10709 ] final -107.96 input   66.30 | X-H torsion
[ 10763 10752 10751 10750 ] final   98.62 input  -60.55 | X-H torsion
[ 11005 11000 10999 10996 ] final -113.22 input  -57.11 | X-H torsion

> <Gold.Protein.ActiveResidues>
 VAL166  LYS551  ARG553  GLY616  TRP617  ASP618  TYR619  PRO620  LYS621  CYS622 
 ASP623  PHE694  ASN695  SER759  ASP760  ASP761  ALA762  ILE779  LEU786  VAL792 
 PHE793  MET794  SER795  GLU796  ALA797  LYS798  CYS799  TRP800  GLU811  SER814 

> <Gold.Protein.RotatedAtoms>
  150.8652  133.7585  159.2978 H   0  0  0  0  0  0  0  0  0  0  0  0  # atno 6907 bound_to 6896
  151.5215  135.1065  159.9889 H   0  0  0  0  0  0  0  0  0  0  0  0  # atno 6908 bound_to 6896
  152.4655  133.7870  159.6937 H   0  0  0  0  0  0  0  0  0  0  0  0  # atno 6909 bound_to 6896
  145.8123  140.8591  143.0176 H   0  0  0  0  0  0  0  0  0  0  0  0  # atno 7974 bound_to 7965
  155.1540  140.0404  157.2827 H   0  0  0  0  0  0  0  0  0  0  0  0  # atno 8008 bound_to 7997
  154.6383  140.2541  155.7325 H   0  0  0  0  0  0  0  0  0  0  0  0  # atno 8009 bound_to 7997
  156.2520  140.2861  156.0766 H   0  0  0  0  0  0  0  0  0  0  0  0  # atno 8010 bound_to 7997
  140.7274  143.4056  151.1191 H   0  0  0  0  0  0  0  0  0  0  0  0  # atno 10167 bound_to 10162
  156.0462  130.5689  150.7895 H   0  0  0  0  0  0  0  0  0  0  0  0  # atno 10718 bound_to 10713
  153.2913  135.4142  155.1170 H   0  0  0  0  0  0  0  0  0  0  0  0  # atno 10763 bound_to 10752
  154.8521  135.3519  154.5977 H   0  0  0  0  0  0  0  0  0  0  0  0  # atno 10764 bound_to 10752
  153.6399  135.7057  153.5303 H   0  0  0  0  0  0  0  0  0  0  0  0  # atno 10765 bound_to 10752
  141.0627  133.9509  157.2636 H   0  0  0  0  0  0  0  0  0  0  0  0  # atno 11005 bound_to 11000
  144.6756  140.0413  143.7481 LP  0  0  0  0  0  0  0  0  0  0  0  0  # atno 17320 bound_to 7965
  145.9764  139.2908  143.1068 LP  0  0  0  0  0  0  0  0  0  0  0  0  # atno 17321 bound_to 7965
  139.7682  143.8534  152.3115 LP  0  0  0  0  0  0  0  0  0  0  0  0  # atno 17342 bound_to 10162
  139.8443  144.7195  150.9292 LP  0  0  0  0  0  0  0  0  0  0  0  0  # atno 17343 bound_to 10162
  157.5340  131.0938  150.9917 LP  0  0  0  0  0  0  0  0  0  0  0  0  # atno 17370 bound_to 10713
  157.0217  130.5676  149.5332 LP  0  0  0  0  0  0  0  0  0  0  0  0  # atno 17371 bound_to 10713
  139.9448  135.0186  156.8818 LP  0  0  0  0  0  0  0  0  0  0  0  0  # atno 17394 bound_to 11000
  140.5835  134.0329  155.7473 LP  0  0  0  0  0  0  0  0  0  0  0  0  # atno 17395 bound_to 11000

$$$$
