AV-unprocessed.smi:72|AV-procd|sdf|729|dock7
  -GOLD-   2262017 53D 1   1.00000     0.00000
 Structure written by MMmdl.
 28 29  0  0  0  0  0  0  0  0  2 V2000
  152.7922  141.1190  159.0621 N   0  0  0  0  0  0  0  0  0  0  0  0
  152.1152  141.1085  157.9985 C   0  0  0  0  0  0  0  0  0  0  0  0
  150.9174  141.9124  157.8952 N   0  0  0  0  0  0  0  0  0  0  0  0
  150.2352  141.8446  156.7935 C   0  0  0  0  0  0  0  0  0  0  0  0
  150.6349  140.9766  155.6902 N   0  0  0  0  0  0  0  0  0  0  0  0
  149.8464  140.8832  154.3916 C   0  0  2  0  0  0  0  0  0  0  0  0
  148.8278  141.8432  154.3789 O   0  0  0  0  0  0  0  0  0  0  0  0
  147.5954  141.2462  154.7723 C   0  0  1  0  0  0  0  0  0  0  0  0
  146.3957  142.1231  154.3729 C   0  0  0  0  0  0  0  0  0  0  0  0
  145.1925  141.5283  154.8111 O   0  0  0  0  0  0  0  0  0  0  0  0
  147.6772  139.8783  154.0885 C   0  0  1  0  0  0  0  0  0  0  0  0
  147.3022  139.9809  152.7239 O   0  0  0  0  0  0  0  0  0  0  0  0
  149.1497  139.5096  154.2684 C   0  0  1  0  0  0  0  0  0  0  0  0
  149.6449  138.7201  153.2028 O   0  0  0  0  0  0  0  0  0  0  0  0
  151.8436  140.2373  155.8046 C   0  0  0  0  0  0  0  0  0  0  0  0
  152.1971  139.5517  154.8448 O   0  0  0  0  0  0  0  0  0  0  0  0
  152.5573  140.3175  156.9620 N   0  5  0  0  0  0  0  0  0  0  0  0
  150.5664  141.1030  153.6012 H   0  0  0  0  0  0  0  0  0  0  0  0
  147.5956  141.0852  155.8521 H   0  0  0  0  0  0  0  0  0  0  0  0
  147.0222  139.1483  154.5652 H   0  0  0  0  0  0  0  0  0  0  0  0
  149.2668  138.9593  155.2034 H   0  0  0  0  0  0  0  0  0  0  0  0
  153.6042  140.5213  159.0136 H   0  0  0  0  0  0  0  0  0  0  0  0
  149.3308  142.4315  156.6351 H   0  0  0  0  0  0  0  0  0  0  0  0
  146.4871  143.1316  154.7772 H   0  0  0  0  0  0  0  0  0  0  0  0
  146.3398  142.2102  153.2874 H   0  0  0  0  0  0  0  0  0  0  0  0
  144.6289  141.4055  154.0628 H   0  0  0  0  0  0  0  0  0  0  0  0
  148.0903  139.9761  152.2019 H   0  0  0  0  0  0  0  0  0  0  0  0
  149.8699  139.2984  152.4888 H   0  0  0  0  0  0  0  0  0  0  0  0
  1  2  2  0  0  0  0
  1 22  1  0  0  0  0
  2 17  1  0  0  0  0
  2  3  1  0  0  0  0
  3  4  2  0  0  0  0
  4  5  1  0  0  0  0
  4 23  1  0  0  0  0
  5  6  1  0  0  0  0
  5 15  1  0  0  0  0
  6 18  1  0  0  0  0
  6 13  1  0  0  0  0
  6  7  1  0  0  0  0
  7  8  1  0  0  0  0
  8 19  1  0  0  0  0
  8  9  1  0  0  0  0
  8 11  1  0  0  0  0
  9 10  1  0  0  0  0
  9 24  1  0  0  0  0
  9 25  1  0  0  0  0
 10 26  1  0  0  0  0
 11 20  1  0  0  0  0
 11 12  1  0  0  0  0
 11 13  1  0  0  0  0
 12 27  1  0  0  0  0
 13 21  1  0  0  0  0
 13 14  1  0  0  0  0
 14 28  1  0  0  0  0
 15 16  2  0  0  0  0
 15 17  1  0  0  0  0
M  CHG  1  17  -1
M  END
> <s_m_source_file>
AV-unprocessed.smi

> <i_m_source_file_index>
72

> <i_lp_mmshare_version>
43012

> <i_f3d_flags>
0

> <s_epik_input>
W05IMl1jMW5bY0hdbihjKD1PKW4xKVtDQEBIXTJPW0NASF0oW0NIMl1bT0hdKVtDQEBIXShbT0hdKVtDQEhdMltPSF0=

> <s_epik_cmdline>
J2VwaWtfcHl0aG9uJywgJy1waCcsICc3LjAnLCAnLXRuJywgJzgnLCAnLW1hJywgJzIwMCcsICctbWV0YWxfYmluZGluZycsICctaW1hZScsICc8aW5maWxlLm1hZT4nLCAnLW9tYWUnLCAnPG91dGZpbGUubWFlPic=

> <r_lp_tautomer_probability>
7.17554e-07

> <r_epik_Ionization_Penalty>
12.8705

> <r_epik_Ionization_Penalty_Charging>
5.64144

> <r_epik_Ionization_Penalty_Neutral>
7.22905

> <r_epik_State_Penalty>
3.30104

> <r_epik_Charging_Adjusted_Penalty>
8.94249

> <i_epik_Tot_Q>
-1

> <i_epik_Tot_abs_Q>
1

> <r_epik_Metal_State_Penalty>
0.529074

> <b_epik_Metal_Only>
1

> <s_epik_Chemistry_Notes>
This compound contains an acetal/aminal-like group ( X-CH(R)-Y where X, Y are N, S, or O) that may be acid/base labile, releasing an aldehyde.

> <s_lp_Force_Field>
OPLS_2005

> <r_lp_Energy>
36.9813

> <b_lp_Chiralities_Consistent>
1

> <s_lp_Variant>
AV-unprocessed.smi:72-67

> <Gold.Version>
5.8.1

> <Gold.Id.Protein>
6NUR|6NUR_protein|mol2

> <Gold.PLP.Fitness>
48.2945

> <Gold.PLP.PLP>
-28.9768

> <Gold.PLP.part.hbond>
-6.9328

> <Gold.PLP.part.metal>
0.0000

> <Gold.PLP.part.buried>
-1.7485

> <Gold.PLP.part.nonpolar>
-19.9908

> <Gold.PLP.part.repulsive>
0.2498

> <Gold.PLP.ligand.clash>
0.0000

> <Gold.PLP.ligand.torsion>
0.2010

> <Gold.PLP.Chemscore.Hbond>
5.5657

> <Gold.PLP.Chemscore.CHOScore>
1.0000

> <Gold.PLP.Chemscore.Metal>
0.0000

> <Gold.Chemscore.Hbonds>
donor molecule, donor type, donor heavy atom, donor atom, acceptor molecule, acceptor atom, score
      L1  H    10    26       P1 10175  0.98
      L1  H    12    27       P1  7957  1.00
      L1  H    14    28       P1  7957  1.00
      P1  H  7989  7998       L1    16  0.61
      P1  H  7997  8008       L1    17  1.98
      P1  H  8011  8017       L1     7  0.02
      L1  C     4    23       P1  8028  1.00

> <Gold.PLP.Chemscore.Internal.Correction>
0.0226

> <Gold.Rescore>
     Score         DG    S(hbond)    S(metal)    S(lipo)     H(rot)  DE(clash)    DE(int)     intcor
      9.09      -9.82       3.66        0.00      20.93       4.04       0.50       0.23       ----

> <Gold.Chemscore.Fitness>
9.0873

> <Gold.Chemscore.DG>
-9.8156

> <Gold.Chemscore.ZeroCoef>
-5.4800

> <Gold.Chemscore.Hbond>
3.6618

> <Gold.Chemscore.Metal>
0.0000

> <Gold.Chemscore.Lipo>
20.9263

> <Gold.Chemscore.Internal_Hbond>
0.0000

> <Gold.Chemscore.DEClash>
0.5014

> <Gold.Chemscore.DEInternal>
0.2268

> <Gold.Chemscore.Rot>
4.0403

> <Gold.Chemscore.Internal.Correction>
   9.000000E+99

> <Gold.Chemscore.Hbonds>
donor molecule, donor type, donor heavy atom, donor atom, acceptor molecule, acceptor atom, score
      L1  H    10    26       P1 10175  0.36
      L1  H    12    27       P1  7957  1.00
      L1  H    14    28       P1  7957  0.83
      P1  H  7989  7998       L1    16  0.08
      P1  H  7997  8008       L1    17  0.68

> <Gold.Chemscore.Hbond.Weighted>
-12.2303

> <Gold.Chemscore.Metal.Weighted>
-0.0000

> <Gold.Chemscore.Lipo.Weighted>
-2.4484

> <Gold.Chemscore.Internal_Hbond.Weighted>
0.0000

> <Gold.Chemscore.DEClash.Weighted>
0.5014

> <Gold.Chemscore.DEInternal.Weighted>
0.2268

> <Gold.Chemscore.Rot.Weighted>
10.3431

> <Gold.Chemscore.Internal.Correction.Weighted>
   9.000000E+99

> <Gold.Protein.RotatedTorsions>
[ 6907 6896 6895 6894 ] final  145.82 input  -60.11 | X-H torsion
[ 7974 7965 7964 7962 ] final  136.26 input  175.53 | X-H torsion
[ 8008 7997 7996 7995 ] final  -58.31 input   59.86 | X-H torsion
[ 10167 10162 10161 10158 ] final   34.92 input  -65.29 | X-H torsion
[ 10718 10713 10712 10709 ] final  120.50 input   66.30 | X-H torsion
[ 10763 10752 10751 10750 ] final   63.14 input  -60.55 | X-H torsion
[ 11005 11000 10999 10996 ] final   -1.39 input  -57.11 | X-H torsion

> <Gold.Protein.ActiveResidues>
 VAL166  LYS551  ARG553  GLY616  TRP617  ASP618  TYR619  PRO620  LYS621  CYS622 
 ASP623  PHE694  ASN695  SER759  ASP760  ASP761  ALA762  ILE779  LEU786  VAL792 
 PHE793  MET794  SER795  GLU796  ALA797  LYS798  CYS799  TRP800  GLU811  SER814 

> <Gold.Protein.RotatedAtoms>
  152.1759  133.4674  159.4932 H   0  0  0  0  0  0  0  0  0  0  0  0  # atno 6907 bound_to 6896
  150.6927  134.1895  159.4288 H   0  0  0  0  0  0  0  0  0  0  0  0  # atno 6908 bound_to 6896
  151.9804  135.0031  160.0608 H   0  0  0  0  0  0  0  0  0  0  0  0  # atno 6909 bound_to 6896
  144.9583  139.4740  143.5492 H   0  0  0  0  0  0  0  0  0  0  0  0  # atno 7974 bound_to 7965
  154.4303  140.1087  156.5937 H   0  0  0  0  0  0  0  0  0  0  0  0  # atno 8008 bound_to 7997
  155.5985  140.3493  155.4568 H   0  0  0  0  0  0  0  0  0  0  0  0  # atno 8009 bound_to 7997
  156.0192  140.1236  157.0365 H   0  0  0  0  0  0  0  0  0  0  0  0  # atno 8010 bound_to 7997
  140.4270  144.1379  150.6154 H   0  0  0  0  0  0  0  0  0  0  0  0  # atno 10167 bound_to 10162
  157.5886  131.1067  150.8044 H   0  0  0  0  0  0  0  0  0  0  0  0  # atno 10718 bound_to 10713
  153.0007  135.5440  154.6305 H   0  0  0  0  0  0  0  0  0  0  0  0  # atno 10763 bound_to 10752
  154.5583  135.2832  155.0945 H   0  0  0  0  0  0  0  0  0  0  0  0  # atno 10764 bound_to 10752
  154.2158  135.6459  153.5182 H   0  0  0  0  0  0  0  0  0  0  0  0  # atno 10765 bound_to 10752
  140.6468  133.9440  155.8357 H   0  0  0  0  0  0  0  0  0  0  0  0  # atno 11005 bound_to 11000
  146.3344  139.8715  142.8839 LP  0  0  0  0  0  0  0  0  0  0  0  0  # atno 17320 bound_to 7965
  145.2739  141.0117  143.3756 LP  0  0  0  0  0  0  0  0  0  0  0  0  # atno 17321 bound_to 7965
  140.4470  143.2502  151.9398 LP  0  0  0  0  0  0  0  0  0  0  0  0  # atno 17342 bound_to 10162
  139.4784  144.5599  151.8255 LP  0  0  0  0  0  0  0  0  0  0  0  0  # atno 17343 bound_to 10162
  156.8472  130.5068  149.5315 LP  0  0  0  0  0  0  0  0  0  0  0  0  # atno 17370 bound_to 10713
  156.0938  130.5916  150.9778 LP  0  0  0  0  0  0  0  0  0  0  0  0  # atno 17371 bound_to 10713
  141.0566  134.0407  157.3714 LP  0  0  0  0  0  0  0  0  0  0  0  0  # atno 17394 bound_to 11000
  139.9060  135.0179  156.7487 LP  0  0  0  0  0  0  0  0  0  0  0  0  # atno 17395 bound_to 11000

$$$$
