AV-unprocessed.smi:3287|AV-procd|sdf|12590|dock9
  -GOLD-   2272018513D 1   1.00000     0.00000
 Structure written by MMmdl.
 43 44  0  0  0  0  0  0  0  0  2 V2000
  153.4142  142.5133  160.8987 C   0  0  0  0  0  0  0  0  0  0  0  0
  152.8760  142.4545  159.4580 C   0  0  2  0  0  0  0  0  0  0  0  0
  152.0488  143.7209  159.1575 C   0  0  0  0  0  0  0  0  0  0  0  0
  151.4928  143.7193  157.7272 C   0  0  0  0  0  0  0  0  0  0  0  0
  150.6369  142.4705  157.4667 C   0  0  1  0  0  0  0  0  0  0  0  0
  150.1256  142.4959  156.0786 N   0  3  0  0  0  0  0  0  0  0  0  0
  149.2482  141.3646  155.7071 C   0  0  0  0  0  0  0  0  0  0  0  0
  148.7228  141.5089  154.2681 C   0  0  2  0  0  0  0  0  0  0  0  0
  148.0131  142.7277  154.1599 O   0  0  0  0  0  0  0  0  0  0  0  0
  147.8609  140.3184  153.8780 C   0  0  0  0  0  0  0  0  0  0  0  0
  147.0195  140.3839  152.7477 C   0  0  0  0  0  0  0  0  0  0  0  0
  146.2441  139.2539  152.4182 C   0  0  0  0  0  0  0  0  0  0  0  0
  146.2663  138.1066  153.1295 N   0  0  0  0  0  0  0  0  0  0  0  0
  147.0744  138.0479  154.2092 C   0  0  0  0  0  0  0  0  0  0  0  0
  147.8895  139.1201  154.6240 C   0  0  0  0  0  0  0  0  0  0  0  0
  151.4666  141.2009  157.7438 C   0  0  0  0  0  0  0  0  0  0  0  0
  152.0410  141.1772  159.1763 C   0  0  1  0  0  0  0  0  0  0  0  0
  152.8394  139.8796  159.3970 C   0  0  0  0  0  0  0  0  0  0  0  0
  152.6057  142.4435  161.6269 H   0  0  0  0  0  0  0  0  0  0  0  0
  153.9427  143.4496  161.0807 H   0  0  0  0  0  0  0  0  0  0  0  0
  154.1203  141.7087  161.1015 H   0  0  0  0  0  0  0  0  0  0  0  0
  153.7357  142.4534  158.7859 H   0  0  0  0  0  0  0  0  0  0  0  0
  151.2234  143.7987  159.8668 H   0  0  0  0  0  0  0  0  0  0  0  0
  152.6629  144.6103  159.3038 H   0  0  0  0  0  0  0  0  0  0  0  0
  150.8991  144.6202  157.5665 H   0  0  0  0  0  0  0  0  0  0  0  0
  152.3191  143.7620  157.0159 H   0  0  0  0  0  0  0  0  0  0  0  0
  149.7833  142.4980  158.1463 H   0  0  0  0  0  0  0  0  0  0  0  0
  149.5774  143.3375  155.9704 H   0  0  0  0  0  0  0  0  0  0  0  0
  149.8095  140.4340  155.7932 H   0  0  0  0  0  0  0  0  0  0  0  0
  148.4145  141.3014  156.4084 H   0  0  0  0  0  0  0  0  0  0  0  0
  149.5679  141.5630  153.5800 H   0  0  0  0  0  0  0  0  0  0  0  0
  148.4543  143.3789  154.6848 H   0  0  0  0  0  0  0  0  0  0  0  0
  146.9648  141.2771  152.1427 H   0  0  0  0  0  0  0  0  0  0  0  0
  145.5898  139.2718  151.5592 H   0  0  0  0  0  0  0  0  0  0  0  0
  147.0734  137.1180  154.7584 H   0  0  0  0  0  0  0  0  0  0  0  0
  148.5208  139.0189  155.4949 H   0  0  0  0  0  0  0  0  0  0  0  0
  150.8523  140.3129  157.5944 H   0  0  0  0  0  0  0  0  0  0  0  0
  152.2831  141.1332  157.0234 H   0  0  0  0  0  0  0  0  0  0  0  0
  151.1982  141.1642  159.8694 H   0  0  0  0  0  0  0  0  0  0  0  0
  153.7442  139.8616  158.7885 H   0  0  0  0  0  0  0  0  0  0  0  0
  152.2455  139.0044  159.1322 H   0  0  0  0  0  0  0  0  0  0  0  0
  153.1329  139.7567  160.4391 H   0  0  0  0  0  0  0  0  0  0  0  0
  150.9065  142.5404  155.4399 H   0  0  0  0  0  0  0  0  0  0  0  0
  1  2  1  0  0  0  0
  1 19  1  0  0  0  0
  1 20  1  0  0  0  0
  1 21  1  0  0  0  0
  2 17  1  0  0  0  0
  2  3  1  0  0  0  0
  2 22  1  0  0  0  0
  3  4  1  0  0  0  0
  3 23  1  0  0  0  0
  3 24  1  0  0  0  0
  4  5  1  0  0  0  0
  4 25  1  0  0  0  0
  4 26  1  0  0  0  0
  5  6  1  0  0  0  0
  5 16  1  0  0  0  0
  5 27  1  0  0  0  0
  6  7  1  0  0  0  0
  6 28  1  0  0  0  0
  6 43  1  0  0  0  0
  7  8  1  0  0  0  0
  7 29  1  0  0  0  0
  7 30  1  0  0  0  0
  8  9  1  0  0  0  0
  8 10  1  0  0  0  0
  8 31  1  0  0  0  0
  9 32  1  0  0  0  0
 10 15  1  0  0  0  0
 10 11  2  0  0  0  0
 11 12  1  0  0  0  0
 11 33  1  0  0  0  0
 12 13  2  0  0  0  0
 12 34  1  0  0  0  0
 13 14  1  0  0  0  0
 14 15  2  0  0  0  0
 14 35  1  0  0  0  0
 15 36  1  0  0  0  0
 16 17  1  0  0  0  0
 16 37  1  0  0  0  0
 16 38  1  0  0  0  0
 17 18  1  0  0  0  0
 17 39  1  0  0  0  0
 18 40  1  0  0  0  0
 18 41  1  0  0  0  0
 18 42  1  0  0  0  0
M  CHG  1   6   1
M  END
> <s_m_source_file>
AV-unprocessed.smi

> <i_m_source_file_index>
3287

> <i_lp_mmshare_version>
43012

> <i_f3d_flags>
0

> <s_epik_input>
W0NIM11bQ0BASF0xW0NIMl1bQ0gyXVtDQEhdKFtDSDJdW0NASF0xW0NIM10pW05IXVtDSDJdW0NASF0oW09IXSljMltjSF1bY0hdbltjSF1bY0hdMg==

> <s_epik_cmdline>
J2VwaWtfcHl0aG9uJywgJy1waCcsICc3LjAnLCAnLXRuJywgJzgnLCAnLW1hJywgJzIwMCcsICctbWV0YWxfYmluZGluZycsICctaW1hZScsICc8aW5maWxlLm1hZT4nLCAnLW9tYWUnLCAnPG91dGZpbGUubWFlPic=

> <r_lp_tautomer_probability>
1

> <r_epik_Ionization_Penalty>
0.00537262

> <r_epik_Ionization_Penalty_Charging>
0.00321624

> <r_epik_Ionization_Penalty_Neutral>
0.00215638

> <r_epik_State_Penalty>
-0

> <r_epik_Charging_Adjusted_Penalty>
0.00321624

> <i_epik_Tot_Q>
1

> <i_epik_Tot_abs_Q>
1

> <r_epik_Metal_State_Penalty>
-0

> <b_epik_Metal_Only>
0

> <s_lp_Force_Field>
OPLS_2005

> <r_lp_Energy>
16.0387

> <b_lp_Chiralities_Consistent>
1

> <s_lp_Variant>
AV-unprocessed.smi:3287-1

> <Gold.Version>
5.8.1

> <Gold.Id.Protein>
6NUR|6NUR_protein|mol2

> <Gold.PLP.Fitness>
49.4031

> <Gold.PLP.PLP>
-37.1298

> <Gold.PLP.part.hbond>
-3.7955

> <Gold.PLP.part.metal>
0.0000

> <Gold.PLP.part.buried>
0.9234

> <Gold.PLP.part.nonpolar>
-34.9284

> <Gold.PLP.part.repulsive>
0.3635

> <Gold.PLP.ligand.clash>
0.0000

> <Gold.PLP.ligand.torsion>
0.4490

> <Gold.PLP.Chemscore.Hbond>
3.0000

> <Gold.PLP.Chemscore.CHOScore>
1.3850

> <Gold.PLP.Chemscore.Metal>
0.0000

> <Gold.Chemscore.Hbonds>
donor molecule, donor type, donor heavy atom, donor atom, acceptor molecule, acceptor atom, score
      L1  H     6    28       P1  8028  2.00
      L1  H     9    32       P1  8028  1.00
      L1  C    12    34       P1 10171  1.00
      L1  C    12    34       P1 10175  0.44

> <Gold.PLP.Chemscore.Internal.Correction>
0.0165

> <Gold.Rescore>
     Score         DG    S(hbond)    S(metal)    S(lipo)     H(rot)  DE(clash)    DE(int)     intcor
     20.33     -20.85       2.00        0.00     116.09       1.90       0.20       0.32       ----

> <Gold.Chemscore.Fitness>
20.3294

> <Gold.Chemscore.DG>
-20.8541

> <Gold.Chemscore.ZeroCoef>
-5.4800

> <Gold.Chemscore.Hbond>
1.9953

> <Gold.Chemscore.Metal>
0.0000

> <Gold.Chemscore.Lipo>
116.0921

> <Gold.Chemscore.Internal_Hbond>
0.0000

> <Gold.Chemscore.DEClash>
0.2038

> <Gold.Chemscore.DEInternal>
0.3210

> <Gold.Chemscore.Rot>
1.9035

> <Gold.Chemscore.Internal.Correction>
   9.000000E+99

> <Gold.Chemscore.Hbonds>
donor molecule, donor type, donor heavy atom, donor atom, acceptor molecule, acceptor atom, score
      L1  H     6    28       P1  8028  0.97
      L1  H     9    32       P1  8028  1.00

> <Gold.Chemscore.Hbond.Weighted>
-6.6642

> <Gold.Chemscore.Metal.Weighted>
-0.0000

> <Gold.Chemscore.Lipo.Weighted>
-13.5828

> <Gold.Chemscore.Internal_Hbond.Weighted>
0.0000

> <Gold.Chemscore.DEClash.Weighted>
0.2038

> <Gold.Chemscore.DEInternal.Weighted>
0.3210

> <Gold.Chemscore.Rot.Weighted>
4.8729

> <Gold.Chemscore.Internal.Correction.Weighted>
   9.000000E+99

> <Gold.Protein.RotatedTorsions>
[ 6907 6896 6895 6894 ] final   80.71 input  -60.11 | X-H torsion
[ 7974 7965 7964 7962 ] final  -87.73 input  175.53 | X-H torsion
[ 8008 7997 7996 7995 ] final  -83.11 input   59.86 | X-H torsion
[ 10167 10162 10161 10158 ] final  -68.44 input  -65.29 | X-H torsion
[ 10718 10713 10712 10709 ] final   63.32 input   66.30 | X-H torsion
[ 10763 10752 10751 10750 ] final  -52.41 input  -60.55 | X-H torsion
[ 11005 11000 10999 10996 ] final -171.68 input  -57.11 | X-H torsion

> <Gold.Protein.ActiveResidues>
 VAL166  LYS551  ARG553  GLY616  TRP617  ASP618  TYR619  PRO620  LYS621  CYS622 
 ASP623  PHE694  ASN695  SER759  ASP760  ASP761  ALA762  ILE779  LEU786  VAL792 
 PHE793  MET794  SER795  GLU796  ALA797  LYS798  CYS799  TRP800  GLU811  SER814 

> <Gold.Protein.RotatedAtoms>
  152.5244  134.3316  159.9184 H   0  0  0  0  0  0  0  0  0  0  0  0  # atno 6907 bound_to 6896
  151.3266  133.4011  159.2666 H   0  0  0  0  0  0  0  0  0  0  0  0  # atno 6908 bound_to 6896
  150.9915  134.9266  159.7960 H   0  0  0  0  0  0  0  0  0  0  0  0  # atno 6909 bound_to 6896
  145.4626  140.9561  143.1961 H   0  0  0  0  0  0  0  0  0  0  0  0  # atno 7974 bound_to 7965
  154.6156  140.0623  156.9550 H   0  0  0  0  0  0  0  0  0  0  0  0  # atno 8008 bound_to 7997
  155.1901  140.3306  155.4341 H   0  0  0  0  0  0  0  0  0  0  0  0  # atno 8009 bound_to 7997
  156.2402  140.1882  156.6992 H   0  0  0  0  0  0  0  0  0  0  0  0  # atno 8010 bound_to 7997
  140.5507  143.2312  151.6916 H   0  0  0  0  0  0  0  0  0  0  0  0  # atno 10167 bound_to 10162
  157.5963  130.9099  149.9701 H   0  0  0  0  0  0  0  0  0  0  0  0  # atno 10718 bound_to 10713
  154.1424  135.6503  153.4945 H   0  0  0  0  0  0  0  0  0  0  0  0  # atno 10763 bound_to 10752
  153.0162  135.5318  154.6892 H   0  0  0  0  0  0  0  0  0  0  0  0  # atno 10764 bound_to 10752
  154.6157  135.2959  155.0354 H   0  0  0  0  0  0  0  0  0  0  0  0  # atno 10765 bound_to 10752
  140.5055  134.5853  157.5002 H   0  0  0  0  0  0  0  0  0  0  0  0  # atno 11005 bound_to 11000
  144.7993  139.6172  143.7078 LP  0  0  0  0  0  0  0  0  0  0  0  0  # atno 17320 bound_to 7965
  146.2442  139.6064  142.9471 LP  0  0  0  0  0  0  0  0  0  0  0  0  # atno 17321 bound_to 7965
  139.5026  144.3822  152.0365 LP  0  0  0  0  0  0  0  0  0  0  0  0  # atno 17342 bound_to 10162
  140.2938  144.3723  150.6080 LP  0  0  0  0  0  0  0  0  0  0  0  0  # atno 17343 bound_to 10162
  156.1026  130.3655  150.0191 LP  0  0  0  0  0  0  0  0  0  0  0  0  # atno 17370 bound_to 10713
  156.8303  130.9390  151.3637 LP  0  0  0  0  0  0  0  0  0  0  0  0  # atno 17371 bound_to 10713
  139.9689  134.7326  156.0082 LP  0  0  0  0  0  0  0  0  0  0  0  0  # atno 17394 bound_to 11000
  141.1413  133.6564  156.3739 LP  0  0  0  0  0  0  0  0  0  0  0  0  # atno 17395 bound_to 11000

$$$$
