AV-unprocessed.smi:3116|AV-procd|sdf|11874|dock10
  -GOLD-   2272017263D 1   1.00000     0.00000
 Structure written by MMmdl.
 33 33  0  0  0  0  0  0  0  0  1 V2000
  148.2332  141.7865  154.3337 C   0  0  0  0  0  0  0  0  0  0  0  0
  149.2049  141.1228  155.3299 C   0  0  2  0  0  0  0  0  0  0  0  0
  150.0943  142.1325  155.9264 N   0  0  0  0  0  0  0  0  0  0  0  0
  150.6321  141.7954  157.2444 C   0  0  2  0  0  0  0  0  0  0  0  0
  149.5179  141.8289  158.3087 C   0  0  0  0  0  0  0  0  0  0  0  0
  151.8089  142.7467  157.5904 C   0  0  1  0  0  0  0  0  0  0  0  0
  151.4395  144.2372  157.4740 C   0  0  0  0  0  0  0  0  0  0  0  0
  152.4310  142.4472  158.8779 N   0  0  0  0  0  0  0  0  0  0  0  0
  153.0409  141.2813  159.3000 C   0  0  0  0  0  0  0  0  0  0  0  0
  153.4953  141.4917  160.5700 C   0  0  0  0  0  0  0  0  0  0  0  0
  153.1170  142.8347  160.8452 C   0  0  0  0  0  0  0  0  0  0  0  0
  152.4853  143.4037  159.8318 N   0  0  0  0  0  0  0  0  0  0  0  0
  150.0391  140.0137  154.6692 C   0  0  0  0  0  0  0  0  0  0  0  0
  149.3642  139.0645  154.0145 N   0  0  0  0  0  0  0  0  0  0  0  0
  151.2671  140.0043  154.7373 O   0  0  0  0  0  0  0  0  0  0  0  0
  147.5603  141.0531  153.8878 H   0  0  0  0  0  0  0  0  0  0  0  0
  148.7682  142.2839  153.5232 H   0  0  0  0  0  0  0  0  0  0  0  0
  147.6104  142.5370  154.8189 H   0  0  0  0  0  0  0  0  0  0  0  0
  148.6164  140.6353  156.1091 H   0  0  0  0  0  0  0  0  0  0  0  0
  149.6786  143.0530  155.9307 H   0  0  0  0  0  0  0  0  0  0  0  0
  151.0393  140.7838  157.2033 H   0  0  0  0  0  0  0  0  0  0  0  0
  149.9311  141.6824  159.3068 H   0  0  0  0  0  0  0  0  0  0  0  0
  148.7870  141.0364  158.1500 H   0  0  0  0  0  0  0  0  0  0  0  0
  148.9852  142.7805  158.3087 H   0  0  0  0  0  0  0  0  0  0  0  0
  152.5727  142.5775  156.8288 H   0  0  0  0  0  0  0  0  0  0  0  0
  151.0520  144.4663  156.4813 H   0  0  0  0  0  0  0  0  0  0  0  0
  152.3126  144.8691  157.6392 H   0  0  0  0  0  0  0  0  0  0  0  0
  150.6794  144.5283  158.1995 H   0  0  0  0  0  0  0  0  0  0  0  0
  153.1033  140.4078  158.6679 H   0  0  0  0  0  0  0  0  0  0  0  0
  154.0202  140.7935  161.2049 H   0  0  0  0  0  0  0  0  0  0  0  0
  153.2837  143.4103  161.7436 H   0  0  0  0  0  0  0  0  0  0  0  0
  149.8663  138.3198  153.5537 H   0  0  0  0  0  0  0  0  0  0  0  0
  148.3561  139.1027  153.9744 H   0  0  0  0  0  0  0  0  0  0  0  0
  1  2  1  0  0  0  0
  1 16  1  0  0  0  0
  1 17  1  0  0  0  0
  1 18  1  0  0  0  0
  2  3  1  0  0  0  0
  2 13  1  0  0  0  0
  2 19  1  0  0  0  0
  3  4  1  0  0  0  0
  3 20  1  0  0  0  0
  4  5  1  0  0  0  0
  4  6  1  0  0  0  0
  4 21  1  0  0  0  0
  5 22  1  0  0  0  0
  5 23  1  0  0  0  0
  5 24  1  0  0  0  0
  6  7  1  0  0  0  0
  6  8  1  0  0  0  0
  6 25  1  0  0  0  0
  7 26  1  0  0  0  0
  7 27  1  0  0  0  0
  7 28  1  0  0  0  0
  8 12  1  0  0  0  0
  8  9  1  0  0  0  0
  9 10  2  0  0  0  0
  9 29  1  0  0  0  0
 10 11  1  0  0  0  0
 10 30  1  0  0  0  0
 11 12  2  0  0  0  0
 11 31  1  0  0  0  0
 13 14  1  0  0  0  0
 13 15  2  0  0  0  0
 14 32  1  0  0  0  0
 14 33  1  0  0  0  0
M  END
> <s_m_source_file>
AV-unprocessed.smi

> <i_m_source_file_index>
3116

> <i_lp_mmshare_version>
43012

> <i_f3d_flags>
0

> <s_epik_input>
W05IMl1DKD1PKVtDQEhdKFtDSDNdKVtOSF1bQ0BIXShbQ0gzXSlbQ0BIXShbQ0gzXSluMVtjSF1bY0hdW2NIXW4x

> <s_epik_cmdline>
J2VwaWtfcHl0aG9uJywgJy1waCcsICc3LjAnLCAnLXRuJywgJzgnLCAnLW1hJywgJzIwMCcsICctbWV0YWxfYmluZGluZycsICctaW1hZScsICc8aW5maWxlLm1hZT4nLCAnLW9tYWUnLCAnPG91dGZpbGUubWFlPic=

> <r_lp_tautomer_probability>
1

> <r_epik_Ionization_Penalty>
0.865977

> <r_epik_Ionization_Penalty_Charging>
0

> <r_epik_Ionization_Penalty_Neutral>
0.865977

> <r_epik_State_Penalty>
0.901888

> <r_epik_Charging_Adjusted_Penalty>
0.901888

> <i_epik_Tot_Q>
0

> <i_epik_Tot_abs_Q>
0

> <r_epik_Metal_State_Penalty>
0.901181

> <b_epik_Metal_Only>
0

> <s_lp_Force_Field>
OPLS_2005

> <r_lp_Energy>
11.5103

> <b_lp_Chiralities_Consistent>
1

> <s_lp_Variant>
AV-unprocessed.smi:3116-13

> <Gold.Version>
5.8.1

> <Gold.Id.Protein>
6NUR|6NUR_protein|mol2

> <Gold.PLP.Fitness>
38.4383

> <Gold.PLP.PLP>
-33.1895

> <Gold.PLP.part.hbond>
-2.9849

> <Gold.PLP.part.metal>
0.0000

> <Gold.PLP.part.buried>
-3.2824

> <Gold.PLP.part.nonpolar>
-27.1299

> <Gold.PLP.part.repulsive>
0.1456

> <Gold.PLP.ligand.clash>
0.0000

> <Gold.PLP.ligand.torsion>
0.4801

> <Gold.PLP.Chemscore.Hbond>
2.0000

> <Gold.PLP.Chemscore.CHOScore>
0.0000

> <Gold.PLP.Chemscore.Metal>
0.0000

> <Gold.Chemscore.Hbonds>
donor molecule, donor type, donor heavy atom, donor atom, acceptor molecule, acceptor atom, score
      L1  H     3    20       P1  8028  1.00
      P1  H  7989  7998       L1    15  1.00

> <Gold.PLP.Chemscore.Internal.Correction>
0.2089

> <Gold.Rescore>
     Score         DG    S(hbond)    S(metal)    S(lipo)     H(rot)  DE(clash)    DE(int)     intcor
     13.97     -15.74       2.45        0.00      69.98       2.38       1.33       0.45       ----

> <Gold.Chemscore.Fitness>
13.9686

> <Gold.Chemscore.DG>
-15.7432

> <Gold.Chemscore.ZeroCoef>
-5.4800

> <Gold.Chemscore.Hbond>
2.4484

> <Gold.Chemscore.Metal>
0.0000

> <Gold.Chemscore.Lipo>
69.9775

> <Gold.Chemscore.Internal_Hbond>
0.0000

> <Gold.Chemscore.DEClash>
1.3250

> <Gold.Chemscore.DEInternal>
0.4496

> <Gold.Chemscore.Rot>
2.3836

> <Gold.Chemscore.Internal.Correction>
   9.000000E+99

> <Gold.Chemscore.Hbonds>
donor molecule, donor type, donor heavy atom, donor atom, acceptor molecule, acceptor atom, score
      L1  H     3    20       P1  8028  1.00
      P1  H  7989  7998       L1    15  0.29

> <Gold.Chemscore.Hbond.Weighted>
-8.1778

> <Gold.Chemscore.Metal.Weighted>
-0.0000

> <Gold.Chemscore.Lipo.Weighted>
-8.1874

> <Gold.Chemscore.Internal_Hbond.Weighted>
0.0000

> <Gold.Chemscore.DEClash.Weighted>
1.3250

> <Gold.Chemscore.DEInternal.Weighted>
0.4496

> <Gold.Chemscore.Rot.Weighted>
6.1020

> <Gold.Chemscore.Internal.Correction.Weighted>
   9.000000E+99

> <Gold.Protein.RotatedTorsions>
[ 6907 6896 6895 6894 ] final  -80.75 input  -60.11 | X-H torsion
[ 7974 7965 7964 7962 ] final  -11.14 input  175.53 | X-H torsion
[ 8008 7997 7996 7995 ] final  -76.65 input   59.86 | X-H torsion
[ 10167 10162 10161 10158 ] final -152.07 input  -65.29 | X-H torsion
[ 10718 10713 10712 10709 ] final   71.05 input   66.30 | X-H torsion
[ 10763 10752 10751 10750 ] final  -15.51 input  -60.55 | X-H torsion
[ 11005 11000 10999 10996 ] final  134.92 input  -57.11 | X-H torsion

> <Gold.Protein.ActiveResidues>
 VAL166  LYS551  ARG553  GLY616  TRP617  ASP618  TYR619  PRO620  LYS621  CYS622 
 ASP623  PHE694  ASN695  SER759  ASP760  ASP761  ALA762  ILE779  LEU786  VAL792 
 PHE793  MET794  SER795  GLU796  ALA797  LYS798  CYS799  TRP800  GLU811  SER814 

> <Gold.Protein.RotatedAtoms>
  150.6924  134.3921  159.5080 H   0  0  0  0  0  0  0  0  0  0  0  0  # atno 6907 bound_to 6896
  152.1708  134.8833  160.0543 H   0  0  0  0  0  0  0  0  0  0  0  0  # atno 6908 bound_to 6896
  151.9860  133.3739  159.4163 H   0  0  0  0  0  0  0  0  0  0  0  0  # atno 6909 bound_to 6896
  146.2197  140.2867  142.8366 H   0  0  0  0  0  0  0  0  0  0  0  0  # atno 7974 bound_to 7965
  154.5524  140.0723  156.8689 H   0  0  0  0  0  0  0  0  0  0  0  0  # atno 8008 bound_to 7997
  155.2967  140.3381  155.4231 H   0  0  0  0  0  0  0  0  0  0  0  0  # atno 8009 bound_to 7997
  156.1973  140.1708  156.7958 H   0  0  0  0  0  0  0  0  0  0  0  0  # atno 8010 bound_to 7997
  139.7213  143.8953  152.2504 H   0  0  0  0  0  0  0  0  0  0  0  0  # atno 10167 bound_to 10162
  157.6431  130.9508  150.0735 H   0  0  0  0  0  0  0  0  0  0  0  0  # atno 10718 bound_to 10713
  153.5444  135.7012  153.5621 H   0  0  0  0  0  0  0  0  0  0  0  0  # atno 10763 bound_to 10752
  153.3572  135.3979  155.1691 H   0  0  0  0  0  0  0  0  0  0  0  0  # atno 10764 bound_to 10752
  154.8669  135.3780  154.4951 H   0  0  0  0  0  0  0  0  0  0  0  0  # atno 10765 bound_to 10752
  139.9946  134.9502  156.9934 H   0  0  0  0  0  0  0  0  0  0  0  0  # atno 11005 bound_to 11000
  144.9157  140.7809  143.5780 LP  0  0  0  0  0  0  0  0  0  0  0  0  # atno 17320 bound_to 7965
  145.2801  139.1921  143.4795 LP  0  0  0  0  0  0  0  0  0  0  0  0  # atno 17321 bound_to 7965
  139.8850  144.6997  150.8835 LP  0  0  0  0  0  0  0  0  0  0  0  0  # atno 17342 bound_to 10162
  140.7754  143.3631  151.1790 LP  0  0  0  0  0  0  0  0  0  0  0  0  # atno 17343 bound_to 10162
  156.1732  130.3647  149.9136 LP  0  0  0  0  0  0  0  0  0  0  0  0  # atno 17370 bound_to 10713
  156.7107  130.8969  151.3609 LP  0  0  0  0  0  0  0  0  0  0  0  0  # atno 17371 bound_to 10713
  140.4843  134.1257  155.7222 LP  0  0  0  0  0  0  0  0  0  0  0  0  # atno 17394 bound_to 11000
  141.1594  133.8822  157.1890 LP  0  0  0  0  0  0  0  0  0  0  0  0  # atno 17395 bound_to 11000

$$$$
