AV-unprocessed.smi:3025|AV-procd|sdf|11508|dock6
  -GOLD-   2272016443D 1   1.00000     0.00000
 Structure written by MMmdl.
 42 43  0  0  0  0  0  0  0  0  2 V2000
  145.8755  133.2354  150.7565 C   0  0  0  0  0  0  0  0  0  0  0  0
  146.2272  134.5213  151.5126 C   0  0  0  0  0  0  0  0  0  0  0  0
  145.1758  135.6260  151.3126 C   0  0  0  0  0  0  0  0  0  0  0  0
  145.4887  136.9410  152.0565 C   0  0  2  0  0  0  0  0  0  0  0  0
  146.3452  137.9109  151.2142 C   0  0  0  0  0  0  0  0  0  0  0  0
  146.6710  139.2028  151.9837 C   0  0  0  0  0  0  0  0  0  0  0  0
  147.3621  138.9228  153.3350 C   0  0  2  0  0  0  0  0  0  0  0  0
  148.7392  138.4022  153.1680 N   0  3  0  0  0  0  0  0  0  0  0  0
  149.4708  138.1229  154.4210 C   0  0  0  0  0  0  0  0  0  0  0  0
  150.8147  138.8628  154.4460 C   0  0  0  0  0  0  0  0  0  0  0  0
  150.7054  140.2017  155.0967 C   0  0  0  0  0  0  0  0  0  0  0  0
  149.8573  141.1240  154.6388 N   0  0  0  0  0  0  0  0  0  0  0  0
  150.0428  142.1367  155.5131 N   0  0  0  0  0  0  0  0  0  0  0  0
  150.9477  141.7629  156.4166 C   0  0  0  0  0  0  0  0  0  0  0  0
  151.4093  140.5344  156.2216 N   0  0  0  0  0  0  0  0  0  0  0  0
  146.5174  137.9428  154.1701 C   0  0  0  0  0  0  0  0  0  0  0  0
  146.1887  136.6518  153.3996 C   0  0  0  0  0  0  0  0  0  0  0  0
  146.6375  132.4715  150.9132 H   0  0  0  0  0  0  0  0  0  0  0  0
  145.8027  133.4160  149.6837 H   0  0  0  0  0  0  0  0  0  0  0  0
  144.9221  132.8282  151.0940 H   0  0  0  0  0  0  0  0  0  0  0  0
  146.3304  134.2859  152.5714 H   0  0  0  0  0  0  0  0  0  0  0  0
  147.2019  134.8774  151.1772 H   0  0  0  0  0  0  0  0  0  0  0  0
  145.1042  135.8365  150.2447 H   0  0  0  0  0  0  0  0  0  0  0  0
  144.1937  135.2573  151.6119 H   0  0  0  0  0  0  0  0  0  0  0  0
  144.5402  137.4323  152.2799 H   0  0  0  0  0  0  0  0  0  0  0  0
  147.2706  137.4203  150.9095 H   0  0  0  0  0  0  0  0  0  0  0  0
  145.8239  138.1768  150.2950 H   0  0  0  0  0  0  0  0  0  0  0  0
  147.2711  139.8671  151.3624 H   0  0  0  0  0  0  0  0  0  0  0  0
  145.7405  139.7406  152.1703 H   0  0  0  0  0  0  0  0  0  0  0  0
  147.4326  139.8570  153.8941 H   0  0  0  0  0  0  0  0  0  0  0  0
  148.6747  137.5318  152.6599 H   0  0  0  0  0  0  0  0  0  0  0  0
  148.8705  138.4280  155.2778 H   0  0  0  0  0  0  0  0  0  0  0  0
  149.6389  137.0485  154.5089 H   0  0  0  0  0  0  0  0  0  0  0  0
  151.5581  138.2704  154.9814 H   0  0  0  0  0  0  0  0  0  0  0  0
  151.1931  138.9897  153.4304 H   0  0  0  0  0  0  0  0  0  0  0  0
  151.2699  142.3956  157.2306 H   0  0  0  0  0  0  0  0  0  0  0  0
  147.0293  137.7017  155.1025 H   0  0  0  0  0  0  0  0  0  0  0  0
  145.5843  138.4300  154.4565 H   0  0  0  0  0  0  0  0  0  0  0  0
  145.5541  136.0173  154.0195 H   0  0  0  0  0  0  0  0  0  0  0  0
  147.1041  136.0854  153.2238 H   0  0  0  0  0  0  0  0  0  0  0  0
  149.2688  139.0579  152.6114 H   0  0  0  0  0  0  0  0  0  0  0  0
  149.5496  143.0168  155.4576 H   0  0  0  0  0  0  0  0  0  0  0  0
  1  2  1  0  0  0  0
  1 18  1  0  0  0  0
  1 19  1  0  0  0  0
  1 20  1  0  0  0  0
  2  3  1  0  0  0  0
  2 21  1  0  0  0  0
  2 22  1  0  0  0  0
  3  4  1  0  0  0  0
  3 23  1  0  0  0  0
  3 24  1  0  0  0  0
  4 17  1  0  0  0  0
  4  5  1  0  0  0  0
  4 25  1  0  0  0  0
  5  6  1  0  0  0  0
  5 26  1  0  0  0  0
  5 27  1  0  0  0  0
  6  7  1  0  0  0  0
  6 28  1  0  0  0  0
  6 29  1  0  0  0  0
  7  8  1  0  0  0  0
  7 16  1  0  0  0  0
  7 30  1  0  0  0  0
  8  9  1  0  0  0  0
  8 31  1  0  0  0  0
  8 41  1  0  0  0  0
  9 10  1  0  0  0  0
  9 32  1  0  0  0  0
  9 33  1  0  0  0  0
 10 34  1  0  0  0  0
 10 35  1  0  0  0  0
 10 11  1  0  0  0  0
 11 15  1  0  0  0  0
 11 12  2  0  0  0  0
 12 13  1  0  0  0  0
 13 14  1  0  0  0  0
 13 42  1  0  0  0  0
 14 15  2  0  0  0  0
 14 36  1  0  0  0  0
 16 17  1  0  0  0  0
 16 37  1  0  0  0  0
 16 38  1  0  0  0  0
 17 39  1  0  0  0  0
 17 40  1  0  0  0  0
M  CHG  1   8   1
M  END
> <s_m_source_file>
AV-unprocessed.smi

> <i_m_source_file_index>
3025

> <i_lp_mmshare_version>
43012

> <i_f3d_flags>
0

> <s_epik_input>
W0NIM11bQ0gyXVtDSDJdW0NAQEhdMVtDSDJdW0NIMl1bQ0BIXShbQ0gyXVtDSDJdMSlbTkhdW0NIMl1bQ0gyXWMybm5bY0hdW25IXTI=

> <s_epik_cmdline>
J2VwaWtfcHl0aG9uJywgJy1waCcsICc3LjAnLCAnLXRuJywgJzgnLCAnLW1hJywgJzIwMCcsICctbWV0YWxfYmluZGluZycsICctaW1hZScsICc8aW5maWxlLm1hZT4nLCAnLW9tYWUnLCAnPG91dGZpbGUubWFlPic=

> <r_epik_Ionization_Penalty>
0.00995411

> <r_epik_Ionization_Penalty_Charging>
0.000442289

> <r_epik_Ionization_Penalty_Neutral>
0.00951182

> <r_epik_State_Penalty>
0.448541

> <r_epik_Charging_Adjusted_Penalty>
0.448983

> <i_epik_Tot_Q>
1

> <i_epik_Tot_abs_Q>
1

> <r_epik_Metal_State_Penalty>
0.682245

> <b_epik_Metal_Only>
0

> <s_lp_Force_Field>
OPLS_2005

> <r_lp_Energy>
14.0161

> <b_lp_Chiralities_Consistent>
1

> <s_lp_Variant>
AV-unprocessed.smi:3025-4

> <Gold.Version>
5.8.1

> <Gold.Id.Protein>
6NUR|6NUR_protein|mol2

> <Gold.PLP.Fitness>
41.0611

> <Gold.PLP.PLP>
-30.7929

> <Gold.PLP.part.hbond>
-4.0000

> <Gold.PLP.part.metal>
0.0000

> <Gold.PLP.part.buried>
3.9046

> <Gold.PLP.part.nonpolar>
-30.2275

> <Gold.PLP.part.repulsive>
0.3692

> <Gold.PLP.ligand.clash>
0.0000

> <Gold.PLP.ligand.torsion>
0.9001

> <Gold.PLP.Chemscore.Hbond>
4.0000

> <Gold.PLP.Chemscore.CHOScore>
0.0000

> <Gold.PLP.Chemscore.Metal>
0.0000

> <Gold.Chemscore.Hbonds>
donor molecule, donor type, donor heavy atom, donor atom, acceptor molecule, acceptor atom, score
      L1  H     8    31       P1  7948  1.98
      L1  H     8    41       P1  7957  1.00
      L1  H    13    42       P1  8028  1.00

> <Gold.PLP.Chemscore.Internal.Correction>
0.0685

> <Gold.Rescore>
     Score         DG    S(hbond)    S(metal)    S(lipo)     H(rot)  DE(clash)    DE(int)     intcor
     15.24     -16.77       2.95        0.00      68.22       2.56       0.64       0.88       ----

> <Gold.Chemscore.Fitness>
15.2424

> <Gold.Chemscore.DG>
-16.7681

> <Gold.Chemscore.ZeroCoef>
-5.4800

> <Gold.Chemscore.Hbond>
2.9522

> <Gold.Chemscore.Metal>
0.0000

> <Gold.Chemscore.Lipo>
68.2212

> <Gold.Chemscore.Internal_Hbond>
0.0000

> <Gold.Chemscore.DEClash>
0.6438

> <Gold.Chemscore.DEInternal>
0.8818

> <Gold.Chemscore.Rot>
2.5602

> <Gold.Chemscore.Internal.Correction>
   9.000000E+99

> <Gold.Chemscore.Hbonds>
donor molecule, donor type, donor heavy atom, donor atom, acceptor molecule, acceptor atom, score
      L1  H     8    31       P1  7948  0.93
      L1  H     8    41       P1  7957  0.96
      L1  H    13    42       P1  8028  1.00

> <Gold.Chemscore.Hbond.Weighted>
-9.8604

> <Gold.Chemscore.Metal.Weighted>
-0.0000

> <Gold.Chemscore.Lipo.Weighted>
-7.9819

> <Gold.Chemscore.Internal_Hbond.Weighted>
0.0000

> <Gold.Chemscore.DEClash.Weighted>
0.6438

> <Gold.Chemscore.DEInternal.Weighted>
0.8818

> <Gold.Chemscore.Rot.Weighted>
6.5542

> <Gold.Chemscore.Internal.Correction.Weighted>
   9.000000E+99

> <Gold.Protein.RotatedTorsions>
[ 6907 6896 6895 6894 ] final  154.88 input  -60.11 | X-H torsion
[ 7974 7965 7964 7962 ] final  -44.58 input  175.53 | X-H torsion
[ 8008 7997 7996 7995 ] final -151.04 input   59.86 | X-H torsion
[ 10167 10162 10161 10158 ] final -113.51 input  -65.29 | X-H torsion
[ 10718 10713 10712 10709 ] final  -10.35 input   66.30 | X-H torsion
[ 10763 10752 10751 10750 ] final  -40.34 input  -60.55 | X-H torsion
[ 11005 11000 10999 10996 ] final  -20.74 input  -57.11 | X-H torsion

> <Gold.Protein.ActiveResidues>
 VAL166  LYS551  ARG553  GLY616  TRP617  ASP618  TYR619  PRO620  LYS621  CYS622 
 ASP623  PHE694  ASN695  SER759  ASP760  ASP761  ALA762  ILE779  LEU786  VAL792 
 PHE793  MET794  SER795  GLU796  ALA797  LYS798  CYS799  TRP800  GLU811  SER814 

> <Gold.Protein.RotatedAtoms>
  152.0521  133.4023  159.4381 H   0  0  0  0  0  0  0  0  0  0  0  0  # atno 6907 bound_to 6896
  150.6870  134.3296  159.4830 H   0  0  0  0  0  0  0  0  0  0  0  0  # atno 6908 bound_to 6896
  152.1107  134.9276  160.0617 H   0  0  0  0  0  0  0  0  0  0  0  0  # atno 6909 bound_to 6896
  145.9906  140.7185  142.9319 H   0  0  0  0  0  0  0  0  0  0  0  0  # atno 7974 bound_to 7965
  155.6331  140.0693  157.2642 H   0  0  0  0  0  0  0  0  0  0  0  0  # atno 8008 bound_to 7997
  154.4201  140.1764  156.1542 H   0  0  0  0  0  0  0  0  0  0  0  0  # atno 8009 bound_to 7997
  155.9917  140.3344  155.6762 H   0  0  0  0  0  0  0  0  0  0  0  0  # atno 8010 bound_to 7997
  140.1110  143.4527  152.1752 H   0  0  0  0  0  0  0  0  0  0  0  0  # atno 10167 bound_to 10162
  156.6748  130.5020  149.5989 H   0  0  0  0  0  0  0  0  0  0  0  0  # atno 10718 bound_to 10713
  153.9444  135.6757  153.4744 H   0  0  0  0  0  0  0  0  0  0  0  0  # atno 10763 bound_to 10752
  153.0915  135.4872  154.8696 H   0  0  0  0  0  0  0  0  0  0  0  0  # atno 10764 bound_to 10752
  154.7359  135.3149  154.8770 H   0  0  0  0  0  0  0  0  0  0  0  0  # atno 10765 bound_to 10752
  140.8494  133.7868  155.9949 H   0  0  0  0  0  0  0  0  0  0  0  0  # atno 11005 bound_to 11000
  144.6888  140.3063  143.7255 LP  0  0  0  0  0  0  0  0  0  0  0  0  # atno 17320 bound_to 7965
  145.7635  139.1833  143.2253 LP  0  0  0  0  0  0  0  0  0  0  0  0  # atno 17321 bound_to 7965
  139.5619  144.7411  151.4131 LP  0  0  0  0  0  0  0  0  0  0  0  0  # atno 17342 bound_to 10162
  140.6925  143.7827  150.7277 LP  0  0  0  0  0  0  0  0  0  0  0  0  # atno 17343 bound_to 10162
  156.1912  130.6561  151.1063 LP  0  0  0  0  0  0  0  0  0  0  0  0  # atno 17370 bound_to 10713
  157.7064  131.0754  150.6650 LP  0  0  0  0  0  0  0  0  0  0  0  0  # atno 17371 bound_to 10713
  140.8807  134.2615  157.5145 LP  0  0  0  0  0  0  0  0  0  0  0  0  # atno 17394 bound_to 11000
  139.8704  134.9613  156.4394 LP  0  0  0  0  0  0  0  0  0  0  0  0  # atno 17395 bound_to 11000

$$$$
