AV-unprocessed.smi:283|AV-procd|sdf|2144|dock9
  -GOLD-   2262021473D 1   1.00000     0.00000
 Structure written by MMmdl.
 48 51  0  0  0  0  0  0  0  0  1 V2000
  151.1853  140.7725  155.6812 C   0  0  0  0  0  0  0  0  0  0  0  0
  150.7180  142.0382  156.4125 C   0  0  1  0  0  0  0  0  0  0  0  0
  149.2599  142.0381  156.5157 N   0  0  0  0  0  0  0  0  0  0  0  0
  148.5676  140.8777  156.5284 C   0  0  0  0  0  0  0  0  0  0  0  0
  148.2327  140.4078  157.7535 N   0  0  0  0  0  0  0  0  0  0  0  0
  147.5225  139.2826  157.8686 C   0  0  0  0  0  0  0  0  0  0  0  0
  147.0573  138.4884  156.9030 N   0  0  0  0  0  0  0  0  0  0  0  0
  147.4051  138.9441  155.6650 C   0  0  0  0  0  0  0  0  0  0  0  0
  148.1606  140.1201  155.3906 C   0  0  0  0  0  0  0  0  0  0  0  0
  148.3292  140.2459  154.0166 N   0  0  0  0  0  0  0  0  0  0  0  0
  147.6984  139.2198  153.5157 C   0  0  0  0  0  0  0  0  0  0  0  0
  147.1066  138.3875  154.4376 N   0  0  0  0  0  0  0  0  0  0  0  0
  146.3124  137.1517  154.1675 C   0  0  1  0  0  0  0  0  0  0  0  0
  145.1548  137.1990  154.9411 O   0  0  0  0  0  0  0  0  0  0  0  0
  144.0495  136.6773  154.2114 C   0  0  2  0  0  0  0  0  0  0  0  0
  143.9651  135.1565  154.4460 C   0  0  0  0  0  0  0  0  0  0  0  0
  142.7964  134.6418  153.8453 O   0  0  0  0  0  0  0  0  0  0  0  0
  144.3730  137.0382  152.7548 C   0  0  1  0  0  0  0  0  0  0  0  0
  143.8213  138.3051  152.4561 O   0  0  0  0  0  0  0  0  0  0  0  0
  145.8979  137.0793  152.6889 C   0  0  2  0  0  0  0  0  0  0  0  0
  146.3761  135.8929  152.0867 O   0  0  0  0  0  0  0  0  0  0  0  0
  151.4550  142.1829  157.7475 C   0  0  0  0  0  0  0  0  0  0  0  0
  151.5568  141.0738  158.6199 C   0  0  0  0  0  0  0  0  0  0  0  0
  152.2246  141.1880  159.8535 C   0  0  0  0  0  0  0  0  0  0  0  0
  152.8077  142.4123  160.2257 C   0  0  0  0  0  0  0  0  0  0  0  0
  152.7273  143.5180  159.3593 C   0  0  0  0  0  0  0  0  0  0  0  0
  152.0600  143.4093  158.1227 C   0  0  0  0  0  0  0  0  0  0  0  0
  152.0076  144.7972  157.0927 Cl  0  0  0  0  0  0  0  0  0  0  0  0
  146.9534  136.3285  154.4871 H   0  0  0  0  0  0  0  0  0  0  0  0
  143.1188  137.1477  154.5340 H   0  0  0  0  0  0  0  0  0  0  0  0
  143.9407  136.3286  152.0476 H   0  0  0  0  0  0  0  0  0  0  0  0
  146.2684  137.9391  152.1274 H   0  0  0  0  0  0  0  0  0  0  0  0
  152.2624  140.7929  155.5123 H   0  0  0  0  0  0  0  0  0  0  0  0
  150.7026  140.6790  154.7079 H   0  0  0  0  0  0  0  0  0  0  0  0
  150.9558  139.8743  156.2555 H   0  0  0  0  0  0  0  0  0  0  0  0
  150.9726  142.8805  155.7721 H   0  0  0  0  0  0  0  0  0  0  0  0
  148.8220  142.9117  156.2624 H   0  0  0  0  0  0  0  0  0  0  0  0
  147.2899  138.9770  158.8780 H   0  0  0  0  0  0  0  0  0  0  0  0
  147.6439  139.0444  152.4510 H   0  0  0  0  0  0  0  0  0  0  0  0
  144.8137  134.6555  153.9796 H   0  0  0  0  0  0  0  0  0  0  0  0
  143.9866  134.9041  155.5063 H   0  0  0  0  0  0  0  0  0  0  0  0
  142.7874  133.7040  153.9637 H   0  0  0  0  0  0  0  0  0  0  0  0
  144.0793  138.5433  151.5776 H   0  0  0  0  0  0  0  0  0  0  0  0
  147.2655  136.0385  151.8023 H   0  0  0  0  0  0  0  0  0  0  0  0
  151.1176  140.1250  158.3489 H   0  0  0  0  0  0  0  0  0  0  0  0
  152.2894  140.3353  160.5132 H   0  0  0  0  0  0  0  0  0  0  0  0
  153.3206  142.5024  161.1720 H   0  0  0  0  0  0  0  0  0  0  0  0
  153.1829  144.4548  159.6451 H   0  0  0  0  0  0  0  0  0  0  0  0
  1  2  1  0  0  0  0
  1 33  1  0  0  0  0
  1 34  1  0  0  0  0
  1 35  1  0  0  0  0
  2  3  1  0  0  0  0
  2 22  1  0  0  0  0
  2 36  1  0  0  0  0
  3  4  1  0  0  0  0
  3 37  1  0  0  0  0
  4  9  1  0  0  0  0
  4  5  2  0  0  0  0
  5  6  1  0  0  0  0
  6  7  2  0  0  0  0
  6 38  1  0  0  0  0
  7  8  1  0  0  0  0
  8 12  1  0  0  0  0
  8  9  2  0  0  0  0
  9 10  1  0  0  0  0
 10 11  2  0  0  0  0
 11 12  1  0  0  0  0
 11 39  1  0  0  0  0
 12 13  1  0  0  0  0
 13 29  1  0  0  0  0
 13 20  1  0  0  0  0
 13 14  1  0  0  0  0
 14 15  1  0  0  0  0
 15 30  1  0  0  0  0
 15 16  1  0  0  0  0
 15 18  1  0  0  0  0
 16 17  1  0  0  0  0
 16 40  1  0  0  0  0
 16 41  1  0  0  0  0
 17 42  1  0  0  0  0
 18 31  1  0  0  0  0
 18 19  1  0  0  0  0
 18 20  1  0  0  0  0
 19 43  1  0  0  0  0
 20 32  1  0  0  0  0
 20 21  1  0  0  0  0
 21 44  1  0  0  0  0
 22 27  1  0  0  0  0
 22 23  2  0  0  0  0
 23 24  1  0  0  0  0
 23 45  1  0  0  0  0
 24 25  2  0  0  0  0
 24 46  1  0  0  0  0
 25 26  1  0  0  0  0
 25 47  1  0  0  0  0
 26 27  2  0  0  0  0
 26 48  1  0  0  0  0
 27 28  1  0  0  0  0
M  END
> <s_m_source_file>
AV-unprocessed.smi

> <i_m_source_file_index>
283

> <i_lp_mmshare_version>
43012

> <i_f3d_flags>
0

> <s_epik_input>
Q2xjMVtjSF1bY0hdW2NIXVtjSF1jMVtDQEhdKFtDSDNdKVtOSF1jKG5bY0hdbjIpYyhjMjMpbltjSF1uM1tDQEBIXTRPW0NASF0oW0NIMl1bT0hdKVtDQEBIXShbT0hdKVtDQEhdNFtPSF0=

> <s_epik_cmdline>
J2VwaWtfcHl0aG9uJywgJy1waCcsICc3LjAnLCAnLXRuJywgJzgnLCAnLW1hJywgJzIwMCcsICctbWV0YWxfYmluZGluZycsICctaW1hZScsICc8aW5maWxlLm1hZT4nLCAnLW9tYWUnLCAnPG91dGZpbGUubWFlPic=

> <r_lp_tautomer_probability>
1

> <r_epik_Ionization_Penalty>
0.000266407

> <r_epik_Ionization_Penalty_Charging>
0

> <r_epik_Ionization_Penalty_Neutral>
0.000266407

> <r_epik_State_Penalty>
-0

> <r_epik_Charging_Adjusted_Penalty>
0

> <i_epik_Tot_Q>
0

> <i_epik_Tot_abs_Q>
0

> <r_epik_Metal_State_Penalty>
-0

> <b_epik_Metal_Only>
0

> <s_epik_Chemistry_Notes>
This compound contains an acetal/aminal-like group ( X-CH(R)-Y where X, Y are N, S, or O) that may be acid/base labile, releasing an aldehyde.

> <s_lp_Force_Field>
OPLS_2005

> <r_lp_Energy>
38.3642

> <b_lp_Chiralities_Consistent>
1

> <s_lp_Variant>
AV-unprocessed.smi:283-20

> <Gold.Version>
5.8.1

> <Gold.Id.Protein>
6NUR|6NUR_protein|mol2

> <Gold.PLP.Fitness>
47.9884

> <Gold.PLP.PLP>
-37.4301

> <Gold.PLP.part.hbond>
-3.9888

> <Gold.PLP.part.metal>
0.0000

> <Gold.PLP.part.buried>
-4.0443

> <Gold.PLP.part.nonpolar>
-29.2059

> <Gold.PLP.part.repulsive>
0.1826

> <Gold.PLP.ligand.clash>
0.0000

> <Gold.PLP.ligand.torsion>
1.8075

> <Gold.PLP.Chemscore.Hbond>
3.9920

> <Gold.PLP.Chemscore.CHOScore>
0.6942

> <Gold.PLP.Chemscore.Metal>
0.0000

> <Gold.Chemscore.Hbonds>
donor molecule, donor type, donor heavy atom, donor atom, acceptor molecule, acceptor atom, score
      L1  H     3    37       P1  8028  1.00
      L1  H    17    42       P1 10957  0.81
      L1  H    19    43       P1 10171  1.00
      L1  H    21    44       P1  7948  1.00
      L1  C    11    39       P1  7957  0.69

> <Gold.PLP.Chemscore.Internal.Correction>
0.1148

> <Gold.Rescore>
     Score         DG    S(hbond)    S(metal)    S(lipo)     H(rot)  DE(clash)    DE(int)     intcor
     16.50     -20.71       3.87        0.00     109.45       4.10       2.09       2.12       ----

> <Gold.Chemscore.Fitness>
16.5004

> <Gold.Chemscore.DG>
-20.7090

> <Gold.Chemscore.ZeroCoef>
-5.4800

> <Gold.Chemscore.Hbond>
3.8655

> <Gold.Chemscore.Metal>
0.0000

> <Gold.Chemscore.Lipo>
109.4533

> <Gold.Chemscore.Internal_Hbond>
0.0000

> <Gold.Chemscore.DEClash>
2.0866

> <Gold.Chemscore.DEInternal>
2.1220

> <Gold.Chemscore.Rot>
4.0968

> <Gold.Chemscore.Internal.Correction>
   9.000000E+99

> <Gold.Chemscore.Hbonds>
donor molecule, donor type, donor heavy atom, donor atom, acceptor molecule, acceptor atom, score
      L1  H     3    37       P1  8028  0.96
      L1  H    17    42       P1 10957  0.80
      L1  H    19    43       P1 10171  0.96
      L1  H    21    44       P1  7948  1.00

> <Gold.Chemscore.Hbond.Weighted>
-12.9109

> <Gold.Chemscore.Metal.Weighted>
-0.0000

> <Gold.Chemscore.Lipo.Weighted>
-12.8060

> <Gold.Chemscore.Internal_Hbond.Weighted>
0.0000

> <Gold.Chemscore.DEClash.Weighted>
2.0866

> <Gold.Chemscore.DEInternal.Weighted>
2.1220

> <Gold.Chemscore.Rot.Weighted>
10.4879

> <Gold.Chemscore.Internal.Correction.Weighted>
   9.000000E+99

> <Gold.Protein.RotatedTorsions>
[ 6907 6896 6895 6894 ] final -167.70 input  -60.11 | X-H torsion
[ 7974 7965 7964 7962 ] final   36.86 input  175.53 | X-H torsion
[ 8008 7997 7996 7995 ] final -143.60 input   59.86 | X-H torsion
[ 10167 10162 10161 10158 ] final  172.40 input  -65.29 | X-H torsion
[ 10718 10713 10712 10709 ] final -151.37 input   66.30 | X-H torsion
[ 10763 10752 10751 10750 ] final -146.26 input  -60.55 | X-H torsion
[ 11005 11000 10999 10996 ] final   19.82 input  -57.11 | X-H torsion

> <Gold.Protein.ActiveResidues>
 VAL166  LYS551  ARG553  GLY616  TRP617  ASP618  TYR619  PRO620  LYS621  CYS622 
 ASP623  PHE694  ASN695  SER759  ASP760  ASP761  ALA762  ILE779  LEU786  VAL792 
 PHE793  MET794  SER795  GLU796  ALA797  LYS798  CYS799  TRP800  GLU811  SER814 

> <Gold.Protein.RotatedAtoms>
  151.4637  133.3586  159.2812 H   0  0  0  0  0  0  0  0  0  0  0  0  # atno 6907 bound_to 6896
  150.9008  134.8422  159.7369 H   0  0  0  0  0  0  0  0  0  0  0  0  # atno 6908 bound_to 6896
  152.4878  134.4557  159.9641 H   0  0  0  0  0  0  0  0  0  0  0  0  # atno 6909 bound_to 6896
  146.1180  139.5965  142.9308 H   0  0  0  0  0  0  0  0  0  0  0  0  # atno 7974 bound_to 7965
  155.5133  140.0585  157.2919 H   0  0  0  0  0  0  0  0  0  0  0  0  # atno 8008 bound_to 7997
  154.4544  140.1965  156.0371 H   0  0  0  0  0  0  0  0  0  0  0  0  # atno 8009 bound_to 7997
  156.0769  140.3252  155.7649 H   0  0  0  0  0  0  0  0  0  0  0  0  # atno 8010 bound_to 7997
  139.5075  144.3378  152.0048 H   0  0  0  0  0  0  0  0  0  0  0  0  # atno 10167 bound_to 10162
  156.4584  130.8201  151.2432 H   0  0  0  0  0  0  0  0  0  0  0  0  # atno 10718 bound_to 10713
  154.8345  135.3391  154.6633 H   0  0  0  0  0  0  0  0  0  0  0  0  # atno 10763 bound_to 10752
  153.7249  135.6956  153.5008 H   0  0  0  0  0  0  0  0  0  0  0  0  # atno 10764 bound_to 10752
  153.2354  135.4402  155.0593 H   0  0  0  0  0  0  0  0  0  0  0  0  # atno 10765 bound_to 10752
  140.4095  134.1633  155.7666 H   0  0  0  0  0  0  0  0  0  0  0  0  # atno 11005 bound_to 11000
  145.5526  141.0412  143.2270 LP  0  0  0  0  0  0  0  0  0  0  0  0  # atno 17320 bound_to 7965
  144.7571  139.7048  143.7250 LP  0  0  0  0  0  0  0  0  0  0  0  0  # atno 17321 bound_to 7965
  140.2816  144.3853  150.6117 LP  0  0  0  0  0  0  0  0  0  0  0  0  # atno 17342 bound_to 10162
  140.6014  143.2167  151.7065 LP  0  0  0  0  0  0  0  0  0  0  0  0  # atno 17343 bound_to 10162
  157.7499  131.0115  150.3348 LP  0  0  0  0  0  0  0  0  0  0  0  0  # atno 17370 bound_to 10713
  156.3742  130.3869  149.7151 LP  0  0  0  0  0  0  0  0  0  0  0  0  # atno 17371 bound_to 10713
  141.1826  133.8381  157.1202 LP  0  0  0  0  0  0  0  0  0  0  0  0  # atno 17394 bound_to 11000
  140.0278  134.9916  157.0720 LP  0  0  0  0  0  0  0  0  0  0  0  0  # atno 17395 bound_to 11000

$$$$
