AV-unprocessed.smi:1748|AV-procd|sdf|7038|dock7
  -GOLD-   22720 8253D 1   1.00000     0.00000
 Structure written by MMmdl.
 40 41  0  0  0  0  0  0  0  0  2 V2000
  147.1054  135.4113  154.7163 C   0  0  0  0  0  0  0  0  0  0  0  0
  148.2314  135.0501  155.6037 N   0  3  1  0  0  0  0  0  0  0  0  0
  148.0952  133.6820  156.1634 C   0  0  0  0  0  0  0  0  0  0  0  0
  149.2106  133.3852  157.1804 C   0  0  0  0  0  0  0  0  0  0  0  0
  150.6027  133.6163  156.5676 C   0  0  0  0  0  0  0  0  0  0  0  0
  150.7093  135.0236  155.9522 C   0  0  2  0  0  0  0  0  0  0  0  0
  150.7160  136.0320  157.0124 N   0  0  0  0  0  0  0  0  0  0  0  0
  151.7817  136.7515  157.3920 C   0  0  0  0  0  0  0  0  0  0  0  0
  152.8889  136.6439  156.8656 O   0  0  0  0  0  0  0  0  0  0  0  0
  151.4591  137.6022  158.3830 N   0  0  0  0  0  0  0  0  0  0  0  0
  152.2756  138.5231  159.0602 C   0  0  0  0  0  0  0  0  0  0  0  0
  152.0357  139.8579  159.1432 C   0  0  0  0  0  0  0  0  0  0  0  0
  152.9296  140.7592  159.8519 C   0  0  0  0  0  0  0  0  0  0  0  0
  152.6137  142.2379  160.0142 C   0  0  0  0  0  0  0  0  0  0  0  0
  152.4614  142.5577  161.2999 F   0  0  0  0  0  0  0  0  0  0  0  0
  153.6111  142.9704  159.5205 F   0  0  0  0  0  0  0  0  0  0  0  0
  151.4961  142.5661  159.3658 F   0  0  0  0  0  0  0  0  0  0  0  0
  154.0096  140.2015  160.4294 C   0  0  0  0  0  0  0  0  0  0  0  0
  154.2760  138.8342  160.3278 N   0  0  0  0  0  0  0  0  0  0  0  0
  153.4827  137.9519  159.6800 C   0  0  0  0  0  0  0  0  0  0  0  0
  153.7839  136.7596  159.6366 O   0  0  0  0  0  0  0  0  0  0  0  0
  149.5513  135.2499  154.9541 C   0  0  0  0  0  0  0  0  0  0  0  0
  155.1169  138.4961  160.7735 H   0  0  0  0  0  0  0  0  0  0  0  0
  147.0747  134.7638  153.8389 H   0  0  0  0  0  0  0  0  0  0  0  0
  147.1989  136.4436  154.3772 H   0  0  0  0  0  0  0  0  0  0  0  0
  146.1553  135.3201  155.2435 H   0  0  0  0  0  0  0  0  0  0  0  0
  147.1239  133.5797  156.6491 H   0  0  0  0  0  0  0  0  0  0  0  0
  148.1230  132.9522  155.3525 H   0  0  0  0  0  0  0  0  0  0  0  0
  149.0828  134.0200  158.0582 H   0  0  0  0  0  0  0  0  0  0  0  0
  149.1266  132.3568  157.5334 H   0  0  0  0  0  0  0  0  0  0  0  0
  151.3781  133.4671  157.3202 H   0  0  0  0  0  0  0  0  0  0  0  0
  150.7816  132.8698  155.7924 H   0  0  0  0  0  0  0  0  0  0  0  0
  151.6578  135.0903  155.4163 H   0  0  0  0  0  0  0  0  0  0  0  0
  149.8462  136.1817  157.5030 H   0  0  0  0  0  0  0  0  0  0  0  0
  150.4880  137.6242  158.6594 H   0  0  0  0  0  0  0  0  0  0  0  0
  151.1771  140.2964  158.6612 H   0  0  0  0  0  0  0  0  0  0  0  0
  154.7387  140.7486  161.0088 H   0  0  0  0  0  0  0  0  0  0  0  0
  149.6468  134.5620  154.1124 H   0  0  0  0  0  0  0  0  0  0  0  0
  149.6054  136.2557  154.5356 H   0  0  0  0  0  0  0  0  0  0  0  0
  148.1959  135.6890  156.3852 H   0  0  0  0  0  0  0  0  0  0  0  0
  1  2  1  0  0  0  0
  1 24  1  0  0  0  0
  1 25  1  0  0  0  0
  1 26  1  0  0  0  0
  2 22  1  0  0  0  0
  2  3  1  0  0  0  0
  2 40  1  0  0  0  0
  3  4  1  0  0  0  0
  3 27  1  0  0  0  0
  3 28  1  0  0  0  0
  4  5  1  0  0  0  0
  4 29  1  0  0  0  0
  4 30  1  0  0  0  0
  5  6  1  0  0  0  0
  5 31  1  0  0  0  0
  5 32  1  0  0  0  0
  6  7  1  0  0  0  0
  6 22  1  0  0  0  0
  6 33  1  0  0  0  0
  7  8  1  0  0  0  0
  7 34  1  0  0  0  0
  8  9  2  0  0  0  0
  8 10  1  0  0  0  0
 10 11  1  0  0  0  0
 10 35  1  0  0  0  0
 11 20  1  0  0  0  0
 11 12  2  0  0  0  0
 12 13  1  0  0  0  0
 12 36  1  0  0  0  0
 13 14  1  0  0  0  0
 13 18  2  0  0  0  0
 14 15  1  0  0  0  0
 14 16  1  0  0  0  0
 14 17  1  0  0  0  0
 18 19  1  0  0  0  0
 18 37  1  0  0  0  0
 19 23  1  0  0  0  0
 19 20  1  0  0  0  0
 20 21  2  0  0  0  0
 22 38  1  0  0  0  0
 22 39  1  0  0  0  0
M  CHG  1   2   1
M  END
> <s_m_source_file>
AV-unprocessed.smi

> <i_m_source_file_index>
1748

> <i_lp_mmshare_version>
43012

> <i_f3d_flags>
0

> <s_epik_input>
W0NIM11OMVtDSDJdW0NIMl1bQ0gyXVtDQEhdKFtDSDJdMSlbTkhdQyg9TylbTkhdYzJbY0hdYyhDKEYpKEYpRilbY0hdW25IXWMyPU8=

> <s_epik_cmdline>
J2VwaWtfcHl0aG9uJywgJy1waCcsICc3LjAnLCAnLXRuJywgJzgnLCAnLW1hJywgJzIwMCcsICctbWV0YWxfYmluZGluZycsICctaW1hZScsICc8aW5maWxlLm1hZT4nLCAnLW9tYWUnLCAnPG91dGZpbGUubWFlPic=

> <r_lp_tautomer_probability>
1

> <r_epik_Ionization_Penalty>
0.00746315

> <r_epik_Ionization_Penalty_Charging>
0.00744398

> <r_epik_Ionization_Penalty_Neutral>
1.91704e-05

> <r_epik_State_Penalty>
-0

> <r_epik_Charging_Adjusted_Penalty>
0.00744398

> <i_epik_Tot_Q>
1

> <i_epik_Tot_abs_Q>
1

> <r_epik_Metal_State_Penalty>
0.379332

> <b_epik_Metal_Only>
0

> <s_lp_Force_Field>
OPLS_2005

> <r_lp_Energy>
33.9877

> <b_lp_Chiralities_Consistent>
1

> <s_lp_Variant>
AV-unprocessed.smi:1748-3

> <Gold.Version>
5.8.1

> <Gold.Id.Protein>
6NUR|6NUR_protein|mol2

> <Gold.PLP.Fitness>
31.9343

> <Gold.PLP.PLP>
-30.1938

> <Gold.PLP.part.hbond>
-1.0515

> <Gold.PLP.part.metal>
0.0000

> <Gold.PLP.part.buried>
-4.5829

> <Gold.PLP.part.nonpolar>
-24.2616

> <Gold.PLP.part.repulsive>
0.2423

> <Gold.PLP.ligand.clash>
0.0000

> <Gold.PLP.ligand.torsion>
0.6465

> <Gold.PLP.Chemscore.Hbond>
1.0000

> <Gold.PLP.Chemscore.CHOScore>
0.0000

> <Gold.PLP.Chemscore.Metal>
0.0000

> <Gold.Chemscore.Hbonds>
donor molecule, donor type, donor heavy atom, donor atom, acceptor molecule, acceptor atom, score
      P1  H 10752 10763       L1     9  0.88

> <Gold.PLP.Chemscore.Internal.Correction>
0.0335

> <Gold.Rescore>
     Score         DG    S(hbond)    S(metal)    S(lipo)     H(rot)  DE(clash)    DE(int)     intcor
     12.05     -12.98       0.95        0.00      58.89       1.00       0.21       0.72       ----

> <Gold.Chemscore.Fitness>
12.0487

> <Gold.Chemscore.DG>
-12.9808

> <Gold.Chemscore.ZeroCoef>
-5.4800

> <Gold.Chemscore.Hbond>
0.9494

> <Gold.Chemscore.Metal>
0.0000

> <Gold.Chemscore.Lipo>
58.8862

> <Gold.Chemscore.Internal_Hbond>
0.0000

> <Gold.Chemscore.DEClash>
0.2113

> <Gold.Chemscore.DEInternal>
0.7207

> <Gold.Chemscore.Rot>
1.0000

> <Gold.Chemscore.Internal.Correction>
   9.000000E+99

> <Gold.Chemscore.Hbonds>
donor molecule, donor type, donor heavy atom, donor atom, acceptor molecule, acceptor atom, score
      P1  H 10752 10763       L1     9  0.84

> <Gold.Chemscore.Hbond.Weighted>
-3.1711

> <Gold.Chemscore.Metal.Weighted>
-0.0000

> <Gold.Chemscore.Lipo.Weighted>
-6.8897

> <Gold.Chemscore.Internal_Hbond.Weighted>
0.0000

> <Gold.Chemscore.DEClash.Weighted>
0.2113

> <Gold.Chemscore.DEInternal.Weighted>
0.7207

> <Gold.Chemscore.Rot.Weighted>
2.5600

> <Gold.Chemscore.Internal.Correction.Weighted>
   9.000000E+99

> <Gold.Protein.RotatedTorsions>
[ 6907 6896 6895 6894 ] final -143.54 input  -60.11 | X-H torsion
[ 7974 7965 7964 7962 ] final -112.87 input  175.53 | X-H torsion
[ 8008 7997 7996 7995 ] final -154.93 input   59.86 | X-H torsion
[ 10167 10162 10161 10158 ] final  -22.80 input  -65.29 | X-H torsion
[ 10718 10713 10712 10709 ] final -126.45 input   66.30 | X-H torsion
[ 10763 10752 10751 10750 ] final  108.76 input  -60.55 | X-H torsion
[ 11005 11000 10999 10996 ] final   90.56 input  -57.11 | X-H torsion

> <Gold.Protein.ActiveResidues>
 VAL166  LYS551  ARG553  GLY616  TRP617  ASP618  TYR619  PRO620  LYS621  CYS622 
 ASP623  PHE694  ASN695  SER759  ASP760  ASP761  ALA762  ILE779  LEU786  VAL792 
 PHE793  MET794  SER795  GLU796  ALA797  LYS798  CYS799  TRP800  GLU811  SER814 

> <Gold.Protein.RotatedAtoms>
  151.1018  133.5237  159.2609 H   0  0  0  0  0  0  0  0  0  0  0  0  # atno 6907 bound_to 6896
  151.2065  135.0463  159.8904 H   0  0  0  0  0  0  0  0  0  0  0  0  # atno 6908 bound_to 6896
  152.5443  134.0840  159.8301 H   0  0  0  0  0  0  0  0  0  0  0  0  # atno 6909 bound_to 6896
  145.1388  140.8766  143.3714 H   0  0  0  0  0  0  0  0  0  0  0  0  # atno 7974 bound_to 7965
  155.6940  140.0759  157.2437 H   0  0  0  0  0  0  0  0  0  0  0  0  # atno 8008 bound_to 7997
  154.4084  140.1659  156.2170 H   0  0  0  0  0  0  0  0  0  0  0  0  # atno 8009 bound_to 7997
  155.9427  140.3383  155.6344 H   0  0  0  0  0  0  0  0  0  0  0  0  # atno 8010 bound_to 7997
  140.7287  143.4501  151.0529 H   0  0  0  0  0  0  0  0  0  0  0  0  # atno 10167 bound_to 10162
  156.1767  130.6704  151.0251 H   0  0  0  0  0  0  0  0  0  0  0  0  # atno 10718 bound_to 10713
  153.4251  135.3802  155.2136 H   0  0  0  0  0  0  0  0  0  0  0  0  # atno 10763 bound_to 10752
  154.8747  135.3826  154.4336 H   0  0  0  0  0  0  0  0  0  0  0  0  # atno 10764 bound_to 10752
  153.4861  135.7088  153.5973 H   0  0  0  0  0  0  0  0  0  0  0  0  # atno 10765 bound_to 10752
  139.8854  134.8621  156.3302 H   0  0  0  0  0  0  0  0  0  0  0  0  # atno 11005 bound_to 11000
  145.0554  139.3148  143.5907 LP  0  0  0  0  0  0  0  0  0  0  0  0  # atno 17320 bound_to 7965
  146.3507  139.9977  142.8679 LP  0  0  0  0  0  0  0  0  0  0  0  0  # atno 17321 bound_to 7965
  139.8176  143.7864  152.3175 LP  0  0  0  0  0  0  0  0  0  0  0  0  # atno 17342 bound_to 10162
  139.7935  144.7401  150.9922 LP  0  0  0  0  0  0  0  0  0  0  0  0  # atno 17343 bound_to 10162
  157.6840  131.0830  150.7293 LP  0  0  0  0  0  0  0  0  0  0  0  0  # atno 17370 bound_to 10713
  156.7351  130.4721  149.5490 LP  0  0  0  0  0  0  0  0  0  0  0  0  # atno 17371 bound_to 10713
  140.9728  133.7317  156.0558 LP  0  0  0  0  0  0  0  0  0  0  0  0  # atno 17394 bound_to 11000
  140.7849  134.3683  157.5478 LP  0  0  0  0  0  0  0  0  0  0  0  0  # atno 17395 bound_to 11000

$$$$
