AV-unprocessed.smi:787|AV-procd|sdf|3725|dock4
  -GOLD-   22720 1153D 1   1.00000     0.00000
 Structure written by MMmdl.
 47 49  0  0  0  0  0  0  0  0  2 V2000
  147.4575  136.9010  155.3788 C   0  0  0  0  0  0  0  0  0  0  0  0
  148.6796  137.0301  154.6007 N   0  0  0  0  0  0  0  0  0  0  0  0
  149.5293  138.1283  154.7953 C   0  0  0  0  0  0  0  0  0  0  0  0
  150.7897  137.9317  155.2466 N   0  0  0  0  0  0  0  0  0  0  0  0
  151.5637  139.0080  155.4357 C   0  0  0  0  0  0  0  0  0  0  0  0
  151.2709  140.3033  155.2433 N   0  0  0  0  0  0  0  0  0  0  0  0
  150.0259  140.5088  154.7937 C   0  0  0  0  0  0  0  0  0  0  0  0
  149.4578  141.7401  154.5172 N   0  0  0  0  0  0  0  0  0  0  0  0
  148.2405  141.3906  154.1123 C   0  0  0  0  0  0  0  0  0  0  0  0
  147.9495  140.0747  154.0691 N   0  0  0  0  0  0  0  0  0  0  0  0
  146.6970  139.4823  153.6191 C   0  0  0  0  0  0  0  0  0  0  0  0
  146.8831  138.3587  152.5719 C   0  0  2  0  0  0  0  0  0  0  0  0
  147.2810  138.9257  151.3385 O   0  0  0  0  0  0  0  0  0  0  0  0
  145.6039  137.5317  152.3267 C   0  0  0  0  0  0  0  0  0  0  0  0
  145.8995  136.0871  152.1382 N   0  3  1  0  0  0  0  0  0  0  0  0
  145.5366  135.2707  153.3189 C   0  0  0  0  0  0  0  0  0  0  0  0
  145.3449  135.5281  150.8796 C   0  0  0  0  0  0  0  0  0  0  0  0
  145.3479  134.0081  150.8893 C   0  0  0  0  0  0  0  0  0  0  0  0
  146.5220  133.2957  151.2169 C   0  0  0  0  0  0  0  0  0  0  0  0
  146.5111  131.8877  151.2467 C   0  0  0  0  0  0  0  0  0  0  0  0
  145.3288  131.1859  150.9421 C   0  0  0  0  0  0  0  0  0  0  0  0
  144.1575  131.8925  150.6069 C   0  0  0  0  0  0  0  0  0  0  0  0
  144.1670  133.3006  150.5800 C   0  0  0  0  0  0  0  0  0  0  0  0
  149.1037  139.4483  154.5403 C   0  0  0  0  0  0  0  0  0  0  0  0
  146.9078  136.0138  155.0645 H   0  0  0  0  0  0  0  0  0  0  0  0
  146.8142  137.7696  155.2351 H   0  0  0  0  0  0  0  0  0  0  0  0
  147.6833  136.8042  156.4414 H   0  0  0  0  0  0  0  0  0  0  0  0
  148.8086  136.4362  153.7950 H   0  0  0  0  0  0  0  0  0  0  0  0
  152.5608  138.8055  155.7975 H   0  0  0  0  0  0  0  0  0  0  0  0
  147.5218  142.1374  153.8079 H   0  0  0  0  0  0  0  0  0  0  0  0
  146.1485  139.1127  154.4853 H   0  0  0  0  0  0  0  0  0  0  0  0
  146.0813  140.2764  153.1948 H   0  0  0  0  0  0  0  0  0  0  0  0
  147.6870  137.7061  152.9121 H   0  0  0  0  0  0  0  0  0  0  0  0
  147.9328  139.5904  151.5036 H   0  0  0  0  0  0  0  0  0  0  0  0
  144.8997  137.6584  153.1504 H   0  0  0  0  0  0  0  0  0  0  0  0
  145.0999  137.9267  151.4467 H   0  0  0  0  0  0  0  0  0  0  0  0
  144.4564  135.2640  153.4717 H   0  0  0  0  0  0  0  0  0  0  0  0
  146.0070  135.6561  154.2235 H   0  0  0  0  0  0  0  0  0  0  0  0
  145.8691  134.2398  153.1917 H   0  0  0  0  0  0  0  0  0  0  0  0
  144.3119  135.8550  150.7521 H   0  0  0  0  0  0  0  0  0  0  0  0
  145.9011  135.9102  150.0220 H   0  0  0  0  0  0  0  0  0  0  0  0
  147.4327  133.8253  151.4562 H   0  0  0  0  0  0  0  0  0  0  0  0
  147.4093  131.3455  151.5040 H   0  0  0  0  0  0  0  0  0  0  0  0
  145.3207  130.1059  150.9646 H   0  0  0  0  0  0  0  0  0  0  0  0
  143.2510  131.3541  150.3728 H   0  0  0  0  0  0  0  0  0  0  0  0
  143.2631  133.8355  150.3271 H   0  0  0  0  0  0  0  0  0  0  0  0
  146.9029  136.0204  152.0404 H   0  0  0  0  0  0  0  0  0  0  0  0
  1  2  1  0  0  0  0
  1 25  1  0  0  0  0
  1 26  1  0  0  0  0
  1 27  1  0  0  0  0
  2  3  1  0  0  0  0
  2 28  1  0  0  0  0
  3 24  1  0  0  0  0
  3  4  2  0  0  0  0
  4  5  1  0  0  0  0
  5  6  2  0  0  0  0
  5 29  1  0  0  0  0
  6  7  1  0  0  0  0
  7 24  2  0  0  0  0
  7  8  1  0  0  0  0
  8  9  2  0  0  0  0
  9 10  1  0  0  0  0
  9 30  1  0  0  0  0
 10 11  1  0  0  0  0
 10 24  1  0  0  0  0
 11 12  1  0  0  0  0
 11 31  1  0  0  0  0
 11 32  1  0  0  0  0
 12 13  1  0  0  0  0
 12 14  1  0  0  0  0
 12 33  1  0  0  0  0
 13 34  1  0  0  0  0
 14 15  1  0  0  0  0
 14 35  1  0  0  0  0
 14 36  1  0  0  0  0
 15 16  1  0  0  0  0
 15 17  1  0  0  0  0
 15 47  1  0  0  0  0
 16 37  1  0  0  0  0
 16 38  1  0  0  0  0
 16 39  1  0  0  0  0
 17 18  1  0  0  0  0
 17 40  1  0  0  0  0
 17 41  1  0  0  0  0
 18 23  1  0  0  0  0
 18 19  2  0  0  0  0
 19 20  1  0  0  0  0
 19 42  1  0  0  0  0
 20 21  2  0  0  0  0
 20 43  1  0  0  0  0
 21 22  1  0  0  0  0
 21 44  1  0  0  0  0
 22 23  2  0  0  0  0
 22 45  1  0  0  0  0
 23 46  1  0  0  0  0
M  CHG  1  15   1
M  END
> <s_m_source_file>
AV-unprocessed.smi

> <i_m_source_file_index>
787

> <i_lp_mmshare_version>
43012

> <i_f3d_flags>
0

> <s_epik_input>
bjFbY0hdbmMoW05IXVtDSDNdKWMoYzEyKW4oW2NIXW4yKVtDSDJdW0NASF0oW09IXSlbQ0gyXU4oW0NIM10pW0NIMl1jM1tjSF1bY0hdW2NIXVtjSF1bY0hdMw==

> <s_epik_cmdline>
J2VwaWtfcHl0aG9uJywgJy1waCcsICc3LjAnLCAnLXRuJywgJzgnLCAnLW1hJywgJzIwMCcsICctbWV0YWxfYmluZGluZycsICctaW1hZScsICc8aW5maWxlLm1hZT4nLCAnLW9tYWUnLCAnPG91dGZpbGUubWFlPic=

> <r_lp_tautomer_probability>
0.999987

> <r_epik_Ionization_Penalty>
0.0526284

> <r_epik_Ionization_Penalty_Charging>
0.0475377

> <r_epik_Ionization_Penalty_Neutral>
0.00509065

> <r_epik_State_Penalty>
0.0404888

> <r_epik_Charging_Adjusted_Penalty>
0.0880265

> <i_epik_Tot_Q>
1

> <i_epik_Tot_abs_Q>
1

> <r_epik_Metal_State_Penalty>
0.040507

> <b_epik_Metal_Only>
0

> <s_lp_Force_Field>
OPLS_2005

> <r_lp_Energy>
14.0859

> <b_lp_Chiralities_Consistent>
1

> <s_lp_Variant>
AV-unprocessed.smi:787-1

> <Gold.Version>
5.8.1

> <Gold.Id.Protein>
6NUR|6NUR_protein|mol2

> <Gold.PLP.Fitness>
53.9513

> <Gold.PLP.PLP>
-43.7023

> <Gold.PLP.part.hbond>
-7.1943

> <Gold.PLP.part.metal>
0.0000

> <Gold.PLP.part.buried>
1.9232

> <Gold.PLP.part.nonpolar>
-38.8538

> <Gold.PLP.part.repulsive>
0.3906

> <Gold.PLP.ligand.clash>
0.1973

> <Gold.PLP.ligand.torsion>
2.2163

> <Gold.PLP.Chemscore.Hbond>
4.8488

> <Gold.PLP.Chemscore.CHOScore>
0.0000

> <Gold.PLP.Chemscore.Metal>
0.0000

> <Gold.Chemscore.Hbonds>
donor molecule, donor type, donor heavy atom, donor atom, acceptor molecule, acceptor atom, score
      L1  H     2    28       P1  7948  1.00
      L1  H    13    34       P1  7957  0.83
      L1  H    15    47       P1  7948  1.92
      P1  H  7954  7966       L1    13  0.88
      P1  H  8011  8017       L1     8  0.04

> <Gold.PLP.Chemscore.Internal.Correction>
0.3326

> <Gold.Rescore>
     Score         DG    S(hbond)    S(metal)    S(lipo)     H(rot)  DE(clash)    DE(int)     intcor
     12.68     -17.81       3.02        0.00      88.96       3.19       2.21       2.92       ----

> <Gold.Chemscore.Fitness>
12.6816

> <Gold.Chemscore.DG>
-17.8137

> <Gold.Chemscore.ZeroCoef>
-5.4800

> <Gold.Chemscore.Hbond>
3.0236

> <Gold.Chemscore.Metal>
0.0000

> <Gold.Chemscore.Lipo>
88.9627

> <Gold.Chemscore.Internal_Hbond>
0.0000

> <Gold.Chemscore.DEClash>
2.2071

> <Gold.Chemscore.DEInternal>
2.9250

> <Gold.Chemscore.Rot>
3.1928

> <Gold.Chemscore.Internal.Correction>
   9.000000E+99

> <Gold.Chemscore.Hbonds>
donor molecule, donor type, donor heavy atom, donor atom, acceptor molecule, acceptor atom, score
      L1  H     2    28       P1  7948  0.94
      L1  H    13    34       P1  7957  0.83
      L1  H    15    47       P1  7948  0.91
      P1  H  7954  7966       L1    13  0.21

> <Gold.Chemscore.Hbond.Weighted>
-10.0987

> <Gold.Chemscore.Metal.Weighted>
-0.0000

> <Gold.Chemscore.Lipo.Weighted>
-10.4086

> <Gold.Chemscore.Internal_Hbond.Weighted>
0.0000

> <Gold.Chemscore.DEClash.Weighted>
2.2071

> <Gold.Chemscore.DEInternal.Weighted>
2.9250

> <Gold.Chemscore.Rot.Weighted>
8.1736

> <Gold.Chemscore.Internal.Correction.Weighted>
   9.000000E+99

> <Gold.Protein.RotatedTorsions>
[ 6907 6896 6895 6894 ] final  156.68 input  -60.11 | X-H torsion
[ 7974 7965 7964 7962 ] final   89.06 input  175.53 | X-H torsion
[ 8008 7997 7996 7995 ] final   19.98 input   59.86 | X-H torsion
[ 10167 10162 10161 10158 ] final  153.07 input  -65.29 | X-H torsion
[ 10718 10713 10712 10709 ] final   36.60 input   66.30 | X-H torsion
[ 10763 10752 10751 10750 ] final -139.60 input  -60.55 | X-H torsion
[ 11005 11000 10999 10996 ] final  -47.14 input  -57.11 | X-H torsion

> <Gold.Protein.ActiveResidues>
 VAL166  LYS551  ARG553  GLY616  TRP617  ASP618  TYR619  PRO620  LYS621  CYS622 
 ASP623  PHE694  ASN695  SER759  ASP760  ASP761  ALA762  ILE779  LEU786  VAL792 
 PHE793  MET794  SER795  GLU796  ALA797  LYS798  CYS799  TRP800  GLU811  SER814 

> <Gold.Protein.RotatedAtoms>
  152.0262  133.3918  159.4278 H   0  0  0  0  0  0  0  0  0  0  0  0  # atno 6907 bound_to 6896
  150.6886  134.3571  159.4943 H   0  0  0  0  0  0  0  0  0  0  0  0  # atno 6908 bound_to 6896
  152.1352  134.9104  160.0607 H   0  0  0  0  0  0  0  0  0  0  0  0  # atno 6909 bound_to 6896
  145.5374  139.2286  143.2584 H   0  0  0  0  0  0  0  0  0  0  0  0  # atno 7974 bound_to 7965
  154.9288  140.3037  155.5178 H   0  0  0  0  0  0  0  0  0  0  0  0  # atno 8008 bound_to 7997
  156.3005  140.2358  156.4282 H   0  0  0  0  0  0  0  0  0  0  0  0  # atno 8009 bound_to 7997
  154.8258  140.0421  157.1431 H   0  0  0  0  0  0  0  0  0  0  0  0  # atno 8010 bound_to 7997
  139.4829  144.5305  151.7731 H   0  0  0  0  0  0  0  0  0  0  0  0  # atno 10167 bound_to 10162
  157.3368  130.7527  149.6884 H   0  0  0  0  0  0  0  0  0  0  0  0  # atno 10718 bound_to 10713
  154.8604  135.3578  154.5573 H   0  0  0  0  0  0  0  0  0  0  0  0  # atno 10763 bound_to 10752
  153.6189  135.7006  153.5323 H   0  0  0  0  0  0  0  0  0  0  0  0  # atno 10764 bound_to 10752
  153.3146  135.4169  155.1325 H   0  0  0  0  0  0  0  0  0  0  0  0  # atno 10765 bound_to 10752
  141.0622  133.6705  156.3255 H   0  0  0  0  0  0  0  0  0  0  0  0  # atno 11005 bound_to 11000
  146.2003  140.6193  142.9105 LP  0  0  0  0  0  0  0  0  0  0  0  0  # atno 17320 bound_to 7965
  144.7594  140.5386  143.6746 LP  0  0  0  0  0  0  0  0  0  0  0  0  # atno 17321 bound_to 7965
  140.4830  144.1422  150.5936 LP  0  0  0  0  0  0  0  0  0  0  0  0  # atno 17342 bound_to 10162
  140.4256  143.2591  151.9660 LP  0  0  0  0  0  0  0  0  0  0  0  0  # atno 17343 bound_to 10162
  155.9702  130.4179  150.4302 LP  0  0  0  0  0  0  0  0  0  0  0  0  # atno 17370 bound_to 10713
  157.2343  131.0511  151.2474 LP  0  0  0  0  0  0  0  0  0  0  0  0  # atno 17371 bound_to 10713
  140.5845  134.5712  157.5487 LP  0  0  0  0  0  0  0  0  0  0  0  0  # atno 17394 bound_to 11000
  139.9443  134.7730  156.0600 LP  0  0  0  0  0  0  0  0  0  0  0  0  # atno 17395 bound_to 11000

$$$$
