#       Name:                AV-unprocessed.smi:765
#       Creating user name   scv26
#       Creation time:       Fri Mar 27 01:05:11 2020


#       File generated by GOLD software.
#

@<TRIPOS>MOLECULE
AV-unprocessed.smi:765
    43    44     1
SMALL
NO_CHARGES


@<TRIPOS>ATOM
      1 ****        -3.4163  -0.9590  -2.8337 C.3            1 S1                 0.0000
      2 ****        -2.9823  -0.2192  -1.5602 C.3            1 S1                 0.0000
      3 ****        -3.4791  -0.9421  -0.2955 C.3            1 S1                 0.0000
      4 ****        -3.0316  -0.2179   0.9818 C.3            1 S1                 0.0000
      5 ****        -1.5051  -0.0398   1.0116 C.3            1 S1                 0.0000
      6 ****        -0.9784   0.7078  -0.2382 C.3            1 S1                 0.0000
      7 ****        -1.4898   2.0931  -0.2708 C.1            1 S1                 0.0000
      8 ****        -1.8912   3.1781  -0.2977 N.1            1 S1                 0.0000
      9 ****         0.4857   0.6865  -0.2455 N.am           1 S1                 0.0000
     10 ****         1.3092   1.3387   0.5930 C.2            1 S1                 0.0000
     11 ****         0.9095   2.0809   1.4902 O.2            1 S1                 0.0000
     12 ****         2.8131   1.1032   0.3798 C.3            1 S1                 0.0000
     13 ****         3.6866   2.2280   0.9722 C.3            1 S1                 0.0000
     14 ****         3.1936  -0.2122   0.8821 N.pl3          1 S1                 0.0000
     15 ****         3.3971  -1.3700   0.1587 C.2            1 S1                 0.0000
     16 ****         3.6961  -2.3630   1.0469 C.2            1 S1                 0.0000
     17 ****         3.6410  -1.7130   2.3109 C.2            1 S1                 0.0000
     18 ****         3.3327  -0.4307   2.2106 N.2            1 S1                 0.0000
     19 ****        -1.4509  -0.0421  -1.5050 C.3            1 S1                 0.0000
     20 ****        -2.9946  -1.9640  -2.8726 H              1 S1                 0.0000
     21 ****        -3.0907  -0.4268  -3.7279 H              1 S1                 0.0000
     22 ****        -4.5016  -1.0518  -2.8830 H              1 S1                 0.0000
     23 ****        -3.4422   0.7696  -1.5873 H              1 S1                 0.0000
     24 ****        -4.5670  -1.0175  -0.3105 H              1 S1                 0.0000
     25 ****        -3.0997  -1.9648  -0.2828 H              1 S1                 0.0000
     26 ****        -3.5201   0.7552   1.0440 H              1 S1                 0.0000
     27 ****        -3.3551  -0.7804   1.8581 H              1 S1                 0.0000
     28 ****        -1.2274   0.4929   1.9217 H              1 S1                 0.0000
     29 ****        -1.0340  -1.0218   1.0789 H              1 S1                 0.0000
     30 ****         0.9150   0.1030  -0.9486 H              1 S1                 0.0000
     31 ****         2.9875   1.0976  -0.6975 H              1 S1                 0.0000
     32 ****         3.4233   3.1960   0.5448 H              1 S1                 0.0000
     33 ****         4.7413   2.0535   0.7578 H              1 S1                 0.0000
     34 ****         3.5789   2.3054   2.0549 H              1 S1                 0.0000
     35 ****         3.3124  -1.3912  -0.9178 H              1 S1                 0.0000
     36 ****         3.9164  -3.3971   0.8276 H              1 S1                 0.0000
     37 ****         3.8102  -2.1322   3.2918 H              1 S1                 0.0000
     38 ****        -0.9780  -1.0251  -1.5469 H              1 S1                 0.0000
     39 ****        -1.1139   0.4934  -2.3941 H              1 S1                 0.0000
     40 ****        -2.2381   4.1157  -0.3210 LP             1 S1                 0.0000
     41 ****        -0.0716   2.2221   1.6223 LP             1 S1                 0.0000
     42 ****         1.5659   2.5425   2.0868 LP             1 S1                 0.0000
     43 ****         3.2259   0.2312   2.9525 LP             1 S1                 0.0000
@<TRIPOS>BOND
    1    1    2 1     
    2    1   20 1     
    3    1   21 1     
    4    1   22 1     
    5    2   19 1     
    6    2    3 1     
    7    2   23 1     
    8    3    4 1     
    9    3   24 1     
   10    3   25 1     
   11    4    5 1     
   12    4   26 1     
   13    4   27 1     
   14    5    6 1     
   15    5   28 1     
   16    5   29 1     
   17    6    7 1     
   18    6    9 1     
   19    6   19 1     
   20    7    8 3     
   21    9   10 am    
   22    9   30 1     
   23   10   11 2     
   24   10   12 1     
   25   12   13 1     
   26   12   14 1     
   27   12   31 1     
   28   13   32 1     
   29   13   33 1     
   30   13   34 1     
   31   14   18 1     
   32   14   15 1     
   33   15   16 2     
   34   15   35 1     
   35   16   17 1     
   36   16   36 1     
   37   17   18 2     
   38   17   37 1     
   39   19   38 1     
   40   19   39 1     
   41    8   40 1     
   42   11   41 1     
   43   11   42 1     
   44   18   43 1     
@<TRIPOS>SUBSTRUCTURE
      1 S1             1
@<TRIPOS>SET
LONE_PAIRS      STATIC     ATOMS    <user>   **** ""
4 40 41 42 43
DONOR_HYDROGENS      STATIC     ATOMS    <user>   **** ""
1 30
ATOM$BLUE        STATIC     ATOMS    COLORGROUP SYSTEM
4 40 41 42 43
ATOM$RED        STATIC     ATOMS    COLORGROUP SYSTEM
1 30
