AV-unprocessed.smi:285|AV-procd|sdf|2170|dock4
  -GOLD-   2262021533D 1   1.00000     0.00000
 Structure written by MMmdl.
 31 33  0  0  0  0  0  0  0  0  1 V2000
  155.1188  140.9516  160.7202 N   0  0  0  0  0  0  0  0  0  0  0  0
  153.8958  141.2944  160.2921 C   0  0  0  0  0  0  0  0  0  0  0  0
  153.2958  142.3695  160.8544 N   0  0  0  0  0  0  0  0  0  0  0  0
  152.0741  142.7301  160.4484 C   0  0  0  0  0  0  0  0  0  0  0  0
  151.3011  142.1630  159.5185 N   0  0  0  0  0  0  0  0  0  0  0  0
  151.9078  141.0804  158.9484 C   0  0  0  0  0  0  0  0  0  0  0  0
  153.2020  140.5826  159.2812 C   0  0  0  0  0  0  0  0  0  0  0  0
  153.5001  139.4664  158.5097 N   0  0  0  0  0  0  0  0  0  0  0  0
  152.4321  139.3323  157.7741 C   0  0  0  0  0  0  0  0  0  0  0  0
  152.3016  137.9071  156.5173 Br  0  0  0  0  0  0  0  0  0  0  0  0
  151.4208  140.2477  157.9597 N   0  0  0  0  0  0  0  0  0  0  0  0
  150.0967  140.3406  157.2704 C   0  0  1  0  0  0  0  0  0  0  0  0
  149.9170  141.7088  156.6200 C   0  0  0  0  0  0  0  0  0  0  0  0
  149.0640  141.3381  155.4279 C   0  0  1  0  0  0  0  0  0  0  0  0
  149.1647  142.3150  154.4124 O   0  0  0  0  0  0  0  0  0  0  0  0
  149.6776  139.9960  155.0134 C   0  0  2  0  0  0  0  0  0  0  0  0
  148.6992  139.0888  154.2515 C   0  0  0  0  0  0  0  0  0  0  0  0
  149.3752  138.3959  153.2243 O   0  0  0  0  0  0  0  0  0  0  0  0
  150.0461  139.3863  156.2522 O   0  0  0  0  0  0  0  0  0  0  0  0
  155.5867  140.1522  160.3176 H   0  0  0  0  0  0  0  0  0  0  0  0
  155.5693  141.4918  161.4446 H   0  0  0  0  0  0  0  0  0  0  0  0
  151.6553  143.5963  160.9390 H   0  0  0  0  0  0  0  0  0  0  0  0
  149.3420  140.1139  158.0232 H   0  0  0  0  0  0  0  0  0  0  0  0
  149.4464  142.4158  157.3038 H   0  0  0  0  0  0  0  0  0  0  0  0
  150.8842  142.1029  156.3024 H   0  0  0  0  0  0  0  0  0  0  0  0
  148.0240  141.2137  155.7336 H   0  0  0  0  0  0  0  0  0  0  0  0
  149.2883  143.1591  154.8195 H   0  0  0  0  0  0  0  0  0  0  0  0
  150.5826  140.1760  154.4298 H   0  0  0  0  0  0  0  0  0  0  0  0
  148.2033  138.3871  154.9229 H   0  0  0  0  0  0  0  0  0  0  0  0
  147.9214  139.6901  153.7798 H   0  0  0  0  0  0  0  0  0  0  0  0
  149.3587  138.9263  152.4422 H   0  0  0  0  0  0  0  0  0  0  0  0
  1  2  1  0  0  0  0
  1 20  1  0  0  0  0
  1 21  1  0  0  0  0
  2  7  1  0  0  0  0
  2  3  2  0  0  0  0
  3  4  1  0  0  0  0
  4  5  2  0  0  0  0
  4 22  1  0  0  0  0
  5  6  1  0  0  0  0
  6 11  1  0  0  0  0
  6  7  2  0  0  0  0
  7  8  1  0  0  0  0
  8  9  2  0  0  0  0
  9 10  1  0  0  0  0
  9 11  1  0  0  0  0
 11 12  1  0  0  0  0
 12 19  1  0  0  0  0
 12 13  1  0  0  0  0
 12 23  1  0  0  0  0
 13 14  1  0  0  0  0
 13 24  1  0  0  0  0
 13 25  1  0  0  0  0
 14 15  1  0  0  0  0
 14 16  1  0  0  0  0
 14 26  1  0  0  0  0
 15 27  1  0  0  0  0
 16 17  1  0  0  0  0
 16 19  1  0  0  0  0
 16 28  1  0  0  0  0
 17 18  1  0  0  0  0
 17 29  1  0  0  0  0
 17 30  1  0  0  0  0
 18 31  1  0  0  0  0
M  END
> <s_m_source_file>
AV-unprocessed.smi

> <i_m_source_file_index>
285

> <i_lp_mmshare_version>
43012

> <i_f3d_flags>
0

> <s_epik_input>
bjFbY0hdbmMoW05IMl0pYyhjMTIpbmMoQnIpbjJbQ0BASF0zW0NIMl1bQ0BASF0oW09IXSlbQ0BIXShPMylbQ0gyXVtPSF0=

> <s_epik_cmdline>
J2VwaWtfcHl0aG9uJywgJy1waCcsICc3LjAnLCAnLXRuJywgJzgnLCAnLW1hJywgJzIwMCcsICctbWV0YWxfYmluZGluZycsICctaW1hZScsICc8aW5maWxlLm1hZT4nLCAnLW9tYWUnLCAnPG91dGZpbGUubWFlPic=

> <r_lp_tautomer_probability>
1

> <r_epik_Ionization_Penalty>
0.000103242

> <r_epik_Ionization_Penalty_Charging>
0

> <r_epik_Ionization_Penalty_Neutral>
0.000103242

> <r_epik_State_Penalty>
-0

> <r_epik_Charging_Adjusted_Penalty>
0

> <i_epik_Tot_Q>
0

> <i_epik_Tot_abs_Q>
0

> <r_epik_Metal_State_Penalty>
-0

> <b_epik_Metal_Only>
0

> <s_epik_Chemistry_Notes>
This compound contains an acetal/aminal-like group ( X-CH(R)-Y where X, Y are N, S, or O) that may be acid/base labile, releasing an aldehyde.

> <s_lp_Force_Field>
OPLS_2005

> <r_lp_Energy>
32.6465

> <b_lp_Chiralities_Consistent>
1

> <s_lp_Variant>
AV-unprocessed.smi:285-6

> <Gold.Version>
5.8.1

> <Gold.Id.Protein>
6NUR|6NUR_protein|mol2

> <Gold.PLP.Fitness>
40.6933

> <Gold.PLP.PLP>
-32.4484

> <Gold.PLP.part.hbond>
-6.2732

> <Gold.PLP.part.metal>
0.0000

> <Gold.PLP.part.buried>
-3.7984

> <Gold.PLP.part.nonpolar>
-21.1506

> <Gold.PLP.part.repulsive>
0.0427

> <Gold.PLP.ligand.clash>
0.0000

> <Gold.PLP.ligand.torsion>
0.5999

> <Gold.PLP.Chemscore.Hbond>
3.1453

> <Gold.PLP.Chemscore.CHOScore>
0.0000

> <Gold.PLP.Chemscore.Metal>
0.0000

> <Gold.Chemscore.Hbonds>
donor molecule, donor type, donor heavy atom, donor atom, acceptor molecule, acceptor atom, score
      L1  H    15    27       P1  8028  1.00
      L1  H    18    31       P1  7957  1.00
      P1  H  7997  8008       L1     8  0.95
      P1  H  8011  8017       L1    15  0.14

> <Gold.PLP.Chemscore.Internal.Correction>
0.0086

> <Gold.Rescore>
     Score         DG    S(hbond)    S(metal)    S(lipo)     H(rot)  DE(clash)    DE(int)     intcor
      9.01     -11.26       2.71        0.00      38.95       3.06       0.18       2.07       ----

> <Gold.Chemscore.Fitness>
9.0100

> <Gold.Chemscore.DG>
-11.2618

> <Gold.Chemscore.ZeroCoef>
-5.4800

> <Gold.Chemscore.Hbond>
2.7126

> <Gold.Chemscore.Metal>
0.0000

> <Gold.Chemscore.Lipo>
38.9485

> <Gold.Chemscore.Internal_Hbond>
0.0000

> <Gold.Chemscore.DEClash>
0.1843

> <Gold.Chemscore.DEInternal>
2.0675

> <Gold.Chemscore.Rot>
3.0607

> <Gold.Chemscore.Internal.Correction>
   9.000000E+99

> <Gold.Chemscore.Hbonds>
donor molecule, donor type, donor heavy atom, donor atom, acceptor molecule, acceptor atom, score
      L1  H    15    27       P1  8028  0.99
      L1  H    18    31       P1  7957  0.91
      P1  H  7997  8008       L1     8  0.13
      P1  H  8011  8017       L1    15  0.09

> <Gold.Chemscore.Hbond.Weighted>
-9.0602

> <Gold.Chemscore.Metal.Weighted>
-0.0000

> <Gold.Chemscore.Lipo.Weighted>
-4.5570

> <Gold.Chemscore.Internal_Hbond.Weighted>
0.0000

> <Gold.Chemscore.DEClash.Weighted>
0.1843

> <Gold.Chemscore.DEInternal.Weighted>
2.0675

> <Gold.Chemscore.Rot.Weighted>
7.8354

> <Gold.Chemscore.Internal.Correction.Weighted>
   9.000000E+99

> <Gold.Protein.RotatedTorsions>
[ 6907 6896 6895 6894 ] final  162.74 input  -60.11 | X-H torsion
[ 7974 7965 7964 7962 ] final -106.86 input  175.53 | X-H torsion
[ 8008 7997 7996 7995 ] final  -96.92 input   59.86 | X-H torsion
[ 10167 10162 10161 10158 ] final  -94.70 input  -65.29 | X-H torsion
[ 10718 10713 10712 10709 ] final -159.64 input   66.30 | X-H torsion
[ 10763 10752 10751 10750 ] final -143.60 input  -60.55 | X-H torsion
[ 11005 11000 10999 10996 ] final  -76.77 input  -57.11 | X-H torsion

> <Gold.Protein.ActiveResidues>
 VAL166  LYS551  ARG553  GLY616  TRP617  ASP618  TYR619  PRO620  LYS621  CYS622 
 ASP623  PHE694  ASN695  SER759  ASP760  ASP761  ALA762  ILE779  LEU786  VAL792 
 PHE793  MET794  SER795  GLU796  ALA797  LYS798  CYS799  TRP800  GLU811  SER814 

> <Gold.Protein.RotatedAtoms>
  151.9359  133.3624  159.3947 H   0  0  0  0  0  0  0  0  0  0  0  0  # atno 6907 bound_to 6896
  150.7008  134.4490  159.5336 H   0  0  0  0  0  0  0  0  0  0  0  0  # atno 6908 bound_to 6896
  152.2138  134.8477  160.0545 H   0  0  0  0  0  0  0  0  0  0  0  0  # atno 6909 bound_to 6896
  145.2125  140.9102  143.3306 H   0  0  0  0  0  0  0  0  0  0  0  0  # atno 7974 bound_to 7965
  154.7809  140.0467  157.1126 H   0  0  0  0  0  0  0  0  0  0  0  0  # atno 8008 bound_to 7997
  154.9706  140.3089  155.4970 H   0  0  0  0  0  0  0  0  0  0  0  0  # atno 8009 bound_to 7997
  156.2936  140.2254  156.4799 H   0  0  0  0  0  0  0  0  0  0  0  0  # atno 8010 bound_to 7997
  140.3117  143.3101  152.0141 H   0  0  0  0  0  0  0  0  0  0  0  0  # atno 10167 bound_to 10162
  156.5709  130.8688  151.2837 H   0  0  0  0  0  0  0  0  0  0  0  0  # atno 10718 bound_to 10713
  154.8463  135.3463  154.6214 H   0  0  0  0  0  0  0  0  0  0  0  0  # atno 10763 bound_to 10752
  153.6823  135.6979  153.5119 H   0  0  0  0  0  0  0  0  0  0  0  0  # atno 10764 bound_to 10752
  153.2659  135.4308  155.0896 H   0  0  0  0  0  0  0  0  0  0  0  0  # atno 10765 bound_to 10752
  141.1656  133.6996  156.7719 H   0  0  0  0  0  0  0  0  0  0  0  0  # atno 11005 bound_to 11000
  144.9842  139.3753  143.6247 LP  0  0  0  0  0  0  0  0  0  0  0  0  # atno 17320 bound_to 7965
  146.3394  139.8996  142.8796 LP  0  0  0  0  0  0  0  0  0  0  0  0  # atno 17321 bound_to 7965
  139.4892  144.6379  151.6937 LP  0  0  0  0  0  0  0  0  0  0  0  0  # atno 17342 bound_to 10162
  140.5562  144.0344  150.6149 LP  0  0  0  0  0  0  0  0  0  0  0  0  # atno 17343 bound_to 10162
  157.7348  130.9752  150.2049 LP  0  0  0  0  0  0  0  0  0  0  0  0  # atno 17370 bound_to 10713
  156.2715  130.3722  149.8026 LP  0  0  0  0  0  0  0  0  0  0  0  0  # atno 17371 bound_to 10713
  140.2457  134.8579  157.3618 LP  0  0  0  0  0  0  0  0  0  0  0  0  # atno 17394 bound_to 11000
  140.1751  134.4559  155.7806 LP  0  0  0  0  0  0  0  0  0  0  0  0  # atno 17395 bound_to 11000

$$$$
