AV-unprocessed.smi:273|AV-procd|sdf|2055|dock6
  -GOLD-   2262021293D 1   1.00000     0.00000
 Structure written by MMmdl.
 59 62  0  0  0  0  0  0  0  0  1 V2000
  151.8459  143.9673  159.1059 C   0  0  0  0  0  0  0  0  0  0  0  0
  151.8437  143.9486  157.5716 C   0  0  0  0  0  0  0  0  0  0  0  0
  150.7896  143.0868  157.0505 N   0  0  0  0  0  0  0  0  0  0  0  0
  150.7283  141.7561  157.2128 C   0  0  0  0  0  0  0  0  0  0  0  0
  151.5820  141.1104  157.8217 O   0  0  0  0  0  0  0  0  0  0  0  0
  149.5133  141.0491  156.5986 C   0  0  0  0  0  0  0  0  0  0  0  0
  149.4835  139.5552  156.9840 C   0  0  0  0  0  0  0  0  0  0  0  0
  148.2860  138.8427  156.3344 C   0  0  0  0  0  0  0  0  0  0  0  0
  148.2853  139.0464  154.8892 N   0  0  0  0  0  0  0  0  0  0  0  0
  147.4051  138.2464  154.2503 C   0  0  0  0  0  0  0  0  0  0  0  0
  146.4807  138.8526  153.4656 N   0  0  0  0  0  0  0  0  0  0  0  0
  145.5889  138.1183  152.7936 C   0  0  0  0  0  0  0  0  0  0  0  0
  145.4552  136.7905  152.7603 N   0  0  0  0  0  0  0  0  0  0  0  0
  146.3931  136.1782  153.5391 C   0  0  0  0  0  0  0  0  0  0  0  0
  147.3982  136.8237  154.3135 C   0  0  0  0  0  0  0  0  0  0  0  0
  148.1748  135.8731  154.9658 N   0  0  0  0  0  0  0  0  0  0  0  0
  147.6523  134.7325  154.6071 C   0  0  0  0  0  0  0  0  0  0  0  0
  146.5767  134.8233  153.7533 N   0  0  0  0  0  0  0  0  0  0  0  0
  145.8204  133.7153  153.1946 C   0  0  0  0  0  0  0  0  0  0  0  0
  146.6622  132.8021  152.2682 C   0  0  1  0  0  0  0  0  0  0  0  0
  147.1648  131.5497  153.0310 C   0  0  0  0  0  0  0  0  0  0  0  0
  147.6831  130.5722  152.1537 O   0  0  0  0  0  0  0  0  0  0  0  0
  145.8511  132.4320  150.9955 C   0  0  2  0  0  0  0  0  0  0  0  0
  144.9736  133.5345  150.4267 C   0  0  0  0  0  0  0  0  0  0  0  0
  144.0066  132.7596  149.5398 C   0  0  0  0  0  0  0  0  0  0  0  0
  143.8220  131.5050  150.1831 O   0  0  0  0  0  0  0  0  0  0  0  0
  144.8004  131.3336  151.2033 C   0  0  0  0  0  0  0  0  0  0  0  0
  148.3003  140.4421  154.4575 C   0  0  0  0  0  0  0  0  0  0  0  0
  149.5055  141.1815  155.0612 C   0  0  0  0  0  0  0  0  0  0  0  0
  152.6123  144.6444  159.4833 H   0  0  0  0  0  0  0  0  0  0  0  0
  152.0488  142.9771  159.5153 H   0  0  0  0  0  0  0  0  0  0  0  0
  150.8849  144.3017  159.4977 H   0  0  0  0  0  0  0  0  0  0  0  0
  151.6773  144.9568  157.1917 H   0  0  0  0  0  0  0  0  0  0  0  0
  152.8165  143.6306  157.1929 H   0  0  0  0  0  0  0  0  0  0  0  0
  150.0454  143.5364  156.5371 H   0  0  0  0  0  0  0  0  0  0  0  0
  148.6068  141.5190  156.9853 H   0  0  0  0  0  0  0  0  0  0  0  0
  150.4052  139.0647  156.6667 H   0  0  0  0  0  0  0  0  0  0  0  0
  149.4310  139.4436  158.0679 H   0  0  0  0  0  0  0  0  0  0  0  0
  148.3248  137.7764  156.5621 H   0  0  0  0  0  0  0  0  0  0  0  0
  147.3530  139.2248  156.7515 H   0  0  0  0  0  0  0  0  0  0  0  0
  144.8827  138.6750  152.1955 H   0  0  0  0  0  0  0  0  0  0  0  0
  148.0395  133.7864  154.9569 H   0  0  0  0  0  0  0  0  0  0  0  0
  145.3930  133.1322  154.0112 H   0  0  0  0  0  0  0  0  0  0  0  0
  144.9788  134.1480  152.6543 H   0  0  0  0  0  0  0  0  0  0  0  0
  147.5356  133.3784  151.9584 H   0  0  0  0  0  0  0  0  0  0  0  0
  147.9736  131.7953  153.7175 H   0  0  0  0  0  0  0  0  0  0  0  0
  146.3658  131.1160  153.6331 H   0  0  0  0  0  0  0  0  0  0  0  0
  148.0977  131.0113  151.4267 H   0  0  0  0  0  0  0  0  0  0  0  0
  146.5389  132.1061  150.2132 H   0  0  0  0  0  0  0  0  0  0  0  0
  144.4270  134.0377  151.2256 H   0  0  0  0  0  0  0  0  0  0  0  0
  145.5313  134.2848  149.8660 H   0  0  0  0  0  0  0  0  0  0  0  0
  143.0594  133.2804  149.3994 H   0  0  0  0  0  0  0  0  0  0  0  0
  144.4480  132.5849  148.5577 H   0  0  0  0  0  0  0  0  0  0  0  0
  145.2290  130.3320  151.1600 H   0  0  0  0  0  0  0  0  0  0  0  0
  144.3073  131.4474  152.1697 H   0  0  0  0  0  0  0  0  0  0  0  0
  148.3388  140.4923  153.3685 H   0  0  0  0  0  0  0  0  0  0  0  0
  147.3822  140.9389  154.7711 H   0  0  0  0  0  0  0  0  0  0  0  0
  149.4718  142.2324  154.7715 H   0  0  0  0  0  0  0  0  0  0  0  0
  150.4257  140.7728  154.6403 H   0  0  0  0  0  0  0  0  0  0  0  0
  1  2  1  0  0  0  0
  1 30  1  0  0  0  0
  1 31  1  0  0  0  0
  1 32  1  0  0  0  0
  2  3  1  0  0  0  0
  2 33  1  0  0  0  0
  2 34  1  0  0  0  0
  3  4  1  0  0  0  0
  3 35  1  0  0  0  0
  4  5  2  0  0  0  0
  4  6  1  0  0  0  0
  6 29  1  0  0  0  0
  6  7  1  0  0  0  0
  6 36  1  0  0  0  0
  7  8  1  0  0  0  0
  7 37  1  0  0  0  0
  7 38  1  0  0  0  0
  8  9  1  0  0  0  0
  8 39  1  0  0  0  0
  8 40  1  0  0  0  0
  9 10  1  0  0  0  0
  9 28  1  0  0  0  0
 10 15  1  0  0  0  0
 10 11  2  0  0  0  0
 11 12  1  0  0  0  0
 12 13  2  0  0  0  0
 12 41  1  0  0  0  0
 13 14  1  0  0  0  0
 14 18  1  0  0  0  0
 14 15  2  0  0  0  0
 15 16  1  0  0  0  0
 16 17  2  0  0  0  0
 17 18  1  0  0  0  0
 17 42  1  0  0  0  0
 18 19  1  0  0  0  0
 19 20  1  0  0  0  0
 19 43  1  0  0  0  0
 19 44  1  0  0  0  0
 20 21  1  0  0  0  0
 20 23  1  0  0  0  0
 20 45  1  0  0  0  0
 21 22  1  0  0  0  0
 21 46  1  0  0  0  0
 21 47  1  0  0  0  0
 22 48  1  0  0  0  0
 23 27  1  0  0  0  0
 23 24  1  0  0  0  0
 23 49  1  0  0  0  0
 24 25  1  0  0  0  0
 24 50  1  0  0  0  0
 24 51  1  0  0  0  0
 25 26  1  0  0  0  0
 25 52  1  0  0  0  0
 25 53  1  0  0  0  0
 26 27  1  0  0  0  0
 27 54  1  0  0  0  0
 27 55  1  0  0  0  0
 28 29  1  0  0  0  0
 28 56  1  0  0  0  0
 28 57  1  0  0  0  0
 29 58  1  0  0  0  0
 29 59  1  0  0  0  0
M  END
> <s_m_source_file>
AV-unprocessed.smi

> <i_m_source_file_index>
273

> <i_lp_mmshare_version>
43012

> <i_f3d_flags>
0

> <s_epik_input>
W0NIM11bQ0gyXVtOSF1DKD1PKVtDSF0xW0NIMl1bQ0gyXU4oW0NIMl1bQ0gyXTEpYyhuW2NIXW4yKWMoYzIzKW5bY0hdbjNbQ0gyXVtDQEhdKFtDSDJdW09IXSlbQ0BASF00W0NIMl1bQ0gyXU9bQ0gyXTQ=

> <s_epik_cmdline>
J2VwaWtfcHl0aG9uJywgJy1waCcsICc3LjAnLCAnLXRuJywgJzgnLCAnLW1hJywgJzIwMCcsICctbWV0YWxfYmluZGluZycsICctaW1hZScsICc8aW5maWxlLm1hZT4nLCAnLW9tYWUnLCAnPG91dGZpbGUubWFlPic=

> <r_lp_tautomer_probability>
1

> <r_epik_Ionization_Penalty>
0.00226556

> <r_epik_Ionization_Penalty_Charging>
0

> <r_epik_Ionization_Penalty_Neutral>
0.00226556

> <r_epik_State_Penalty>
0.00139883

> <r_epik_Charging_Adjusted_Penalty>
0.00139883

> <i_epik_Tot_Q>
0

> <i_epik_Tot_abs_Q>
0

> <r_epik_Metal_State_Penalty>
-0

> <b_epik_Metal_Only>
0

> <s_lp_Force_Field>
OPLS_2005

> <r_lp_Energy>
43.4567

> <b_lp_Chiralities_Consistent>
1

> <s_lp_Variant>
AV-unprocessed.smi:273-2

> <Gold.Version>
5.8.1

> <Gold.Id.Protein>
6NUR|6NUR_protein|mol2

> <Gold.PLP.Fitness>
50.6806

> <Gold.PLP.PLP>
-38.7028

> <Gold.PLP.part.hbond>
-3.0000

> <Gold.PLP.part.metal>
0.0000

> <Gold.PLP.part.buried>
-3.7345

> <Gold.PLP.part.nonpolar>
-33.4627

> <Gold.PLP.part.repulsive>
0.8298

> <Gold.PLP.ligand.clash>
0.0000

> <Gold.PLP.ligand.torsion>
1.2140

> <Gold.PLP.Chemscore.Hbond>
2.6625

> <Gold.PLP.Chemscore.CHOScore>
1.9782

> <Gold.PLP.Chemscore.Metal>
0.0000

> <Gold.Chemscore.Hbonds>
donor molecule, donor type, donor heavy atom, donor atom, acceptor molecule, acceptor atom, score
      L1  H     3    35       P1  8028  1.00
      L1  H    22    48       P1 10747  0.71
      P1  H 10785 10796       L1    26  0.70
      L1  C    12    41       P1 10171  0.88
      L1  C    12    41       P1 10175  1.00

> <Gold.PLP.Chemscore.Internal.Correction>
0.4836

> <Gold.Rescore>
     Score         DG    S(hbond)    S(metal)    S(lipo)     H(rot)  DE(clash)    DE(int)     intcor
     13.74     -17.01       2.49        0.00      97.96       3.22       0.76       2.51       ----

> <Gold.Chemscore.Fitness>
13.7436

> <Gold.Chemscore.DG>
-17.0148

> <Gold.Chemscore.ZeroCoef>
-5.4800

> <Gold.Chemscore.Hbond>
2.4933

> <Gold.Chemscore.Metal>
0.0000

> <Gold.Chemscore.Lipo>
97.9630

> <Gold.Chemscore.Internal_Hbond>
0.0000

> <Gold.Chemscore.DEClash>
0.7583

> <Gold.Chemscore.DEInternal>
2.5128

> <Gold.Chemscore.Rot>
3.2244

> <Gold.Chemscore.Internal.Correction>
   9.000000E+99

> <Gold.Chemscore.Hbonds>
donor molecule, donor type, donor heavy atom, donor atom, acceptor molecule, acceptor atom, score
      L1  H     3    35       P1  8028  1.00
      L1  H    22    48       P1 10747  0.69
      P1  H 10785 10796       L1    26  0.44

> <Gold.Chemscore.Hbond.Weighted>
-8.3276

> <Gold.Chemscore.Metal.Weighted>
-0.0000

> <Gold.Chemscore.Lipo.Weighted>
-11.4617

> <Gold.Chemscore.Internal_Hbond.Weighted>
0.0000

> <Gold.Chemscore.DEClash.Weighted>
0.7583

> <Gold.Chemscore.DEInternal.Weighted>
2.5128

> <Gold.Chemscore.Rot.Weighted>
8.2545

> <Gold.Chemscore.Internal.Correction.Weighted>
   9.000000E+99

> <Gold.Protein.RotatedTorsions>
[ 6907 6896 6895 6894 ] final   49.55 input  -60.11 | X-H torsion
[ 7974 7965 7964 7962 ] final  154.56 input  175.53 | X-H torsion
[ 8008 7997 7996 7995 ] final   -7.18 input   59.86 | X-H torsion
[ 10167 10162 10161 10158 ] final   77.08 input  -65.29 | X-H torsion
[ 10718 10713 10712 10709 ] final -138.58 input   66.30 | X-H torsion
[ 10763 10752 10751 10750 ] final -143.12 input  -60.55 | X-H torsion
[ 11005 11000 10999 10996 ] final -163.29 input  -57.11 | X-H torsion

> <Gold.Protein.ActiveResidues>
 VAL166  LYS551  ARG553  GLY616  TRP617  ASP618  TYR619  PRO620  LYS621  CYS622 
 ASP623  PHE694  ASN695  SER759  ASP760  ASP761  ALA762  ILE779  LEU786  VAL792 
 PHE793  MET794  SER795  GLU796  ALA797  LYS798  CYS799  TRP800  GLU811  SER814 

> <Gold.Protein.RotatedAtoms>
  152.2920  134.7711  160.0375 H   0  0  0  0  0  0  0  0  0  0  0  0  # atno 6907 bound_to 6896
  151.8254  133.3395  159.3605 H   0  0  0  0  0  0  0  0  0  0  0  0  # atno 6908 bound_to 6896
  150.7234  134.5463  159.5816 H   0  0  0  0  0  0  0  0  0  0  0  0  # atno 6909 bound_to 6896
  144.8081  139.6950  143.6153 H   0  0  0  0  0  0  0  0  0  0  0  0  # atno 7974 bound_to 7965
  154.5864  140.2414  155.7982 H   0  0  0  0  0  0  0  0  0  0  0  0  # atno 8008 bound_to 7997
  156.2216  140.2996  155.9921 H   0  0  0  0  0  0  0  0  0  0  0  0  # atno 8009 bound_to 7997
  155.2451  140.0408  157.2970 H   0  0  0  0  0  0  0  0  0  0  0  0  # atno 8010 bound_to 7997
  139.9853  144.5796  150.7864 H   0  0  0  0  0  0  0  0  0  0  0  0  # atno 10167 bound_to 10162
  156.3009  130.7428  151.1480 H   0  0  0  0  0  0  0  0  0  0  0  0  # atno 10718 bound_to 10713
  154.8482  135.3476  154.6137 H   0  0  0  0  0  0  0  0  0  0  0  0  # atno 10763 bound_to 10752
  153.6746  135.6983  153.5141 H   0  0  0  0  0  0  0  0  0  0  0  0  # atno 10764 bound_to 10752
  153.2716  135.4291  155.0949 H   0  0  0  0  0  0  0  0  0  0  0  0  # atno 10765 bound_to 10752
  140.5997  134.4959  157.5203 H   0  0  0  0  0  0  0  0  0  0  0  0  # atno 11005 bound_to 11000
  146.2375  139.5935  142.9514 LP  0  0  0  0  0  0  0  0  0  0  0  0  # atno 17320 bound_to 7965
  145.5390  141.0422  143.2341 LP  0  0  0  0  0  0  0  0  0  0  0  0  # atno 17321 bound_to 7965
  140.7474  143.2906  151.3341 LP  0  0  0  0  0  0  0  0  0  0  0  0  # atno 17342 bound_to 10162
  139.6379  144.0595  152.2531 LP  0  0  0  0  0  0  0  0  0  0  0  0  # atno 17343 bound_to 10162
  157.7367  131.0559  150.5395 LP  0  0  0  0  0  0  0  0  0  0  0  0  # atno 17370 bound_to 10713
  156.5522  130.4234  149.6102 LP  0  0  0  0  0  0  0  0  0  0  0  0  # atno 17371 bound_to 10713
  139.9238  134.8097  156.1131 LP  0  0  0  0  0  0  0  0  0  0  0  0  # atno 17394 bound_to 11000
  141.0880  133.6726  156.2478 LP  0  0  0  0  0  0  0  0  0  0  0  0  # atno 17395 bound_to 11000

$$$$
