AV-unprocessed.smi:2882|AV-procd|sdf|11071|dock3
  -GOLD-   2272015543D 1   1.00000     0.00000
 Structure written by MMmdl.
 28 30  0  0  0  0  0  0  0  0  1 V2000
  153.2591  138.8588  155.9431 N   0  0  0  0  0  0  0  0  0  0  0  0
  152.2799  139.4689  155.8527 C   0  0  0  0  0  0  0  0  0  0  0  0
  151.0464  140.2363  155.7383 C   0  0  0  0  0  0  0  0  0  0  0  0
  150.3805  140.1446  154.5637 N   0  0  0  0  0  0  0  0  0  0  0  0
  149.2378  140.8532  154.4440 C   0  0  0  0  0  0  0  0  0  0  0  0
  148.7547  141.6568  155.4946 C   0  0  0  0  0  0  0  0  0  0  0  0
  149.4121  141.7542  156.6695 N   0  0  0  0  0  0  0  0  0  0  0  0
  150.5625  141.0475  156.8033 C   0  0  0  0  0  0  0  0  0  0  0  0
  151.2572  141.1362  158.0237 N   0  0  0  0  0  0  0  0  0  0  0  0
  151.1222  142.3013  158.8913 C   0  0  2  0  0  0  0  0  0  0  0  0
  150.9714  143.6149  158.1131 C   0  0  0  0  0  0  0  0  0  0  0  0
  152.1304  144.4499  158.6714 C   0  0  1  0  0  0  0  0  0  0  0  0
  151.9058  144.8535  160.1351 C   0  0  0  0  0  0  0  0  0  0  0  0
  152.1335  143.5287  160.8623 C   0  0  0  0  0  0  0  0  0  0  0  0
  152.4058  142.5696  159.6955 C   0  0  2  0  0  0  0  0  0  0  0  0
  153.1113  143.4396  158.8248 O   0  0  0  0  0  0  0  0  0  0  0  0
  148.7067  140.7787  153.5065 H   0  0  0  0  0  0  0  0  0  0  0  0
  147.8396  142.2211  155.3931 H   0  0  0  0  0  0  0  0  0  0  0  0
  152.0239  140.5022  158.1987 H   0  0  0  0  0  0  0  0  0  0  0  0
  150.2876  142.1439  159.5760 H   0  0  0  0  0  0  0  0  0  0  0  0
  151.1005  143.4649  157.0400 H   0  0  0  0  0  0  0  0  0  0  0  0
  150.0018  144.0878  158.2727 H   0  0  0  0  0  0  0  0  0  0  0  0
  152.4319  145.2743  158.0248 H   0  0  0  0  0  0  0  0  0  0  0  0
  152.6399  145.5947  160.4529 H   0  0  0  0  0  0  0  0  0  0  0  0
  150.9095  145.2643  160.3023 H   0  0  0  0  0  0  0  0  0  0  0  0
  153.0034  143.5969  161.5166 H   0  0  0  0  0  0  0  0  0  0  0  0
  151.2774  143.2225  161.4644 H   0  0  0  0  0  0  0  0  0  0  0  0
  152.9546  141.6734  159.9875 H   0  0  0  0  0  0  0  0  0  0  0  0
  1  2  3  0  0  0  0
  2  3  1  0  0  0  0
  3  8  1  0  0  0  0
  3  4  2  0  0  0  0
  4  5  1  0  0  0  0
  5  6  2  0  0  0  0
  5 17  1  0  0  0  0
  6  7  1  0  0  0  0
  6 18  1  0  0  0  0
  7  8  2  0  0  0  0
  8  9  1  0  0  0  0
  9 10  1  0  0  0  0
  9 19  1  0  0  0  0
 10 15  1  0  0  0  0
 10 11  1  0  0  0  0
 10 20  1  0  0  0  0
 11 12  1  0  0  0  0
 11 21  1  0  0  0  0
 11 22  1  0  0  0  0
 12 16  1  0  0  0  0
 12 13  1  0  0  0  0
 12 23  1  0  0  0  0
 13 14  1  0  0  0  0
 13 24  1  0  0  0  0
 13 25  1  0  0  0  0
 14 15  1  0  0  0  0
 14 26  1  0  0  0  0
 14 27  1  0  0  0  0
 15 16  1  0  0  0  0
 15 28  1  0  0  0  0
M  END
> <s_m_source_file>
AV-unprocessed.smi

> <i_m_source_file_index>
2882

> <i_lp_mmshare_version>
43012

> <i_f3d_flags>
0

> <s_epik_input>
TiNDYzFuW2NIXVtjSF1uYzFbTkhdW0NASF0oW0NIMl1bQ0BASF0yMylbQ0BASF0oTzMpW0NIMl1bQ0gyXTI=

> <s_epik_cmdline>
J2VwaWtfcHl0aG9uJywgJy1waCcsICc3LjAnLCAnLXRuJywgJzgnLCAnLW1hJywgJzIwMCcsICctbWV0YWxfYmluZGluZycsICctaW1hZScsICc8aW5maWxlLm1hZT4nLCAnLW9tYWUnLCAnPG91dGZpbGUubWFlPic=

> <r_lp_tautomer_probability>
1

> <r_epik_Ionization_Penalty>
4.95445e-05

> <r_epik_Ionization_Penalty_Charging>
0

> <r_epik_Ionization_Penalty_Neutral>
4.95445e-05

> <r_epik_State_Penalty>
-0

> <r_epik_Charging_Adjusted_Penalty>
0

> <i_epik_Tot_Q>
0

> <i_epik_Tot_abs_Q>
0

> <r_epik_Metal_State_Penalty>
-0

> <b_epik_Metal_Only>
0

> <s_lp_Force_Field>
OPLS_2005

> <r_lp_Energy>
50.0651

> <b_lp_Chiralities_Consistent>
1

> <s_lp_Variant>
AV-unprocessed.smi:2882-1

> <Gold.Version>
5.8.1

> <Gold.Id.Protein>
6NUR|6NUR_protein|mol2

> <Gold.PLP.Fitness>
44.4530

> <Gold.PLP.PLP>
-35.6220

> <Gold.PLP.part.hbond>
-2.0000

> <Gold.PLP.part.metal>
0.0000

> <Gold.PLP.part.buried>
-2.3188

> <Gold.PLP.part.nonpolar>
-32.1036

> <Gold.PLP.part.repulsive>
0.2962

> <Gold.PLP.ligand.clash>
0.0000

> <Gold.PLP.ligand.torsion>
0.4934

> <Gold.PLP.Chemscore.Hbond>
2.0000

> <Gold.PLP.Chemscore.CHOScore>
1.2659

> <Gold.PLP.Chemscore.Metal>
0.0000

> <Gold.Chemscore.Hbonds>
donor molecule, donor type, donor heavy atom, donor atom, acceptor molecule, acceptor atom, score
      P1  H  7989  7998       L1     4  0.95
      P1  H  7997  8009       L1     1  1.00
      L1  C     5    17       P1  7957  0.77
      L1  C     6    18       P1  8028  0.22

> <Gold.PLP.Chemscore.Internal.Correction>
0.0203

> <Gold.Rescore>
     Score         DG    S(hbond)    S(metal)    S(lipo)     H(rot)  DE(clash)    DE(int)     intcor
     15.80     -16.26       0.99        0.00      85.76       1.00       0.08       0.38       ----

> <Gold.Chemscore.Fitness>
15.8029

> <Gold.Chemscore.DG>
-16.2625

> <Gold.Chemscore.ZeroCoef>
-5.4800

> <Gold.Chemscore.Hbond>
0.9906

> <Gold.Chemscore.Metal>
0.0000

> <Gold.Chemscore.Lipo>
85.7592

> <Gold.Chemscore.Internal_Hbond>
0.0000

> <Gold.Chemscore.DEClash>
0.0808

> <Gold.Chemscore.DEInternal>
0.3789

> <Gold.Chemscore.Rot>
1.0000

> <Gold.Chemscore.Internal.Correction>
   9.000000E+99

> <Gold.Chemscore.Hbonds>
donor molecule, donor type, donor heavy atom, donor atom, acceptor molecule, acceptor atom, score
      P1  H  7989  7998       L1     4  0.14
      P1  H  7997  8009       L1     1  0.25

> <Gold.Chemscore.Hbond.Weighted>
-3.3087

> <Gold.Chemscore.Metal.Weighted>
-0.0000

> <Gold.Chemscore.Lipo.Weighted>
-10.0338

> <Gold.Chemscore.Internal_Hbond.Weighted>
0.0000

> <Gold.Chemscore.DEClash.Weighted>
0.0808

> <Gold.Chemscore.DEInternal.Weighted>
0.3789

> <Gold.Chemscore.Rot.Weighted>
2.5600

> <Gold.Chemscore.Internal.Correction.Weighted>
   9.000000E+99

> <Gold.Protein.RotatedTorsions>
[ 6907 6896 6895 6894 ] final -150.97 input  -60.11 | X-H torsion
[ 7974 7965 7964 7962 ] final   47.73 input  175.53 | X-H torsion
[ 8008 7997 7996 7995 ] final -153.13 input   59.86 | X-H torsion
[ 10167 10162 10161 10158 ] final -128.25 input  -65.29 | X-H torsion
[ 10718 10713 10712 10709 ] final  -14.33 input   66.30 | X-H torsion
[ 10763 10752 10751 10750 ] final  178.34 input  -60.55 | X-H torsion
[ 11005 11000 10999 10996 ] final -103.19 input  -57.11 | X-H torsion

> <Gold.Protein.ActiveResidues>
 VAL166  LYS551  ARG553  GLY616  TRP617  ASP618  TYR619  PRO620  LYS621  CYS622 
 ASP623  PHE694  ASN695  SER759  ASP760  ASP761  ALA762  ILE779  LEU786  VAL792 
 PHE793  MET794  SER795  GLU796  ALA797  LYS798  CYS799  TRP800  GLU811  SER814 

> <Gold.Protein.RotatedAtoms>
  151.2063  133.4581  159.2597 H   0  0  0  0  0  0  0  0  0  0  0  0  # atno 6907 bound_to 6896
  151.1020  134.9977  159.8463 H   0  0  0  0  0  0  0  0  0  0  0  0  # atno 6908 bound_to 6896
  152.5444  134.1989  159.8757 H   0  0  0  0  0  0  0  0  0  0  0  0  # atno 6909 bound_to 6896
  146.0271  139.4719  142.9861 H   0  0  0  0  0  0  0  0  0  0  0  0  # atno 7974 bound_to 7965
  155.6660  140.0728  157.2537 H   0  0  0  0  0  0  0  0  0  0  0  0  # atno 8008 bound_to 7997
  154.4133  140.1707  156.1879 H   0  0  0  0  0  0  0  0  0  0  0  0  # atno 8009 bound_to 7997
  155.9657  140.3366  155.6533 H   0  0  0  0  0  0  0  0  0  0  0  0  # atno 8010 bound_to 7997
  139.9522  143.6043  152.2471 H   0  0  0  0  0  0  0  0  0  0  0  0  # atno 10167 bound_to 10162
  156.6175  130.4866  149.6177 H   0  0  0  0  0  0  0  0  0  0  0  0  # atno 10718 bound_to 10713
  154.5063  135.2786  155.1379 H   0  0  0  0  0  0  0  0  0  0  0  0  # atno 10763 bound_to 10752
  154.2992  135.6251  153.5421 H   0  0  0  0  0  0  0  0  0  0  0  0  # atno 10764 bound_to 10752
  152.9911  135.5693  154.5518 H   0  0  0  0  0  0  0  0  0  0  0  0  # atno 10765 bound_to 10752
  141.1156  133.8620  157.1455 H   0  0  0  0  0  0  0  0  0  0  0  0  # atno 11005 bound_to 11000
  145.7101  141.0109  143.1458 LP  0  0  0  0  0  0  0  0  0  0  0  0  # atno 17320 bound_to 7965
  144.7014  139.8747  143.7443 LP  0  0  0  0  0  0  0  0  0  0  0  0  # atno 17321 bound_to 7965
  139.6619  144.7662  151.1946 LP  0  0  0  0  0  0  0  0  0  0  0  0  # atno 17342 bound_to 10162
  140.7579  143.5997  150.8712 LP  0  0  0  0  0  0  0  0  0  0  0  0  # atno 17343 bound_to 10162
  156.2339  130.6811  151.1490 LP  0  0  0  0  0  0  0  0  0  0  0  0  # atno 17370 bound_to 10713
  157.7237  131.0664  150.6026 LP  0  0  0  0  0  0  0  0  0  0  0  0  # atno 17371 bound_to 10713
  140.0077  135.0001  157.0327 LP  0  0  0  0  0  0  0  0  0  0  0  0  # atno 17394 bound_to 11000
  140.4654  134.1441  155.7196 LP  0  0  0  0  0  0  0  0  0  0  0  0  # atno 17395 bound_to 11000

$$$$
