AV-unprocessed.smi:616|AV-procd|sdf|3072|dock10
  -GOLD-   2262023593D 1   1.00000     0.00000
 Structure written by MMmdl.
 34 35  0  0  0  0  0  0  0  0  1 V2000
  146.1215  135.7067  151.0881 C   0  0  0  0  0  0  0  0  0  0  0  0
  145.9284  134.2102  151.2700 C   0  0  0  0  0  0  0  0  0  0  0  0
  144.8940  133.5882  150.6614 C   0  0  0  0  0  0  0  0  0  0  0  0
  144.6468  132.1514  150.7900 C   0  0  0  0  0  0  0  0  0  0  0  0
  143.6983  131.5951  150.2360 O   0  0  0  0  0  0  0  0  0  0  0  0
  145.5361  131.4703  151.5637 N   0  0  0  0  0  0  0  0  0  0  0  0
  145.3776  130.0263  151.7568 C   0  0  0  0  0  0  0  0  0  0  0  0
  146.6119  132.1054  152.2074 C   0  0  0  0  0  0  0  0  0  0  0  0
  146.8456  133.4322  152.0939 C   0  0  0  0  0  0  0  0  0  0  0  0
  147.9013  134.1140  152.7245 N   0  0  0  0  0  0  0  0  0  0  0  0
  148.6227  133.7765  153.8104 C   0  0  0  0  0  0  0  0  0  0  0  0
  148.5001  132.7457  154.4716 O   0  0  0  0  0  0  0  0  0  0  0  0
  149.5264  134.7251  154.0939 N   0  0  0  0  0  0  0  0  0  0  0  0
  150.4771  134.6701  155.1968 C   0  0  0  0  0  0  0  0  0  0  0  0
  151.2779  135.9397  155.4132 C   0  0  0  0  0  0  0  0  0  0  0  0
  150.6057  137.2929  155.4502 C   0  0  0  0  0  0  0  0  0  0  0  0
  151.4786  136.9168  154.2783 C   0  0  0  0  0  0  0  0  0  0  0  0
  145.3515  136.1392  150.4484 H   0  0  0  0  0  0  0  0  0  0  0  0
  147.0903  135.9108  150.6314 H   0  0  0  0  0  0  0  0  0  0  0  0
  146.0805  136.2144  152.0521 H   0  0  0  0  0  0  0  0  0  0  0  0
  144.2146  134.1651  150.0507 H   0  0  0  0  0  0  0  0  0  0  0  0
  146.2045  129.5794  152.3094 H   0  0  0  0  0  0  0  0  0  0  0  0
  145.3203  129.5113  150.7966 H   0  0  0  0  0  0  0  0  0  0  0  0
  144.4613  129.8160  152.3101 H   0  0  0  0  0  0  0  0  0  0  0  0
  147.2108  131.4304  152.7960 H   0  0  0  0  0  0  0  0  0  0  0  0
  148.1499  134.9890  152.2868 H   0  0  0  0  0  0  0  0  0  0  0  0
  149.5635  135.5418  153.5014 H   0  0  0  0  0  0  0  0  0  0  0  0
  149.9120  134.4677  156.1068 H   0  0  0  0  0  0  0  0  0  0  0  0
  151.1549  133.8246  155.0650 H   0  0  0  0  0  0  0  0  0  0  0  0
  152.1352  135.8093  156.0711 H   0  0  0  0  0  0  0  0  0  0  0  0
  149.5310  137.3306  155.2841 H   0  0  0  0  0  0  0  0  0  0  0  0
  150.9943  138.0262  156.1537 H   0  0  0  0  0  0  0  0  0  0  0  0
  152.4495  137.4014  154.1986 H   0  0  0  0  0  0  0  0  0  0  0  0
  150.9826  136.7068  153.3328 H   0  0  0  0  0  0  0  0  0  0  0  0
  1  2  1  0  0  0  0
  1 18  1  0  0  0  0
  1 19  1  0  0  0  0
  1 20  1  0  0  0  0
  2  9  1  0  0  0  0
  2  3  2  0  0  0  0
  3  4  1  0  0  0  0
  3 21  1  0  0  0  0
  4  5  2  0  0  0  0
  4  6  1  0  0  0  0
  6  7  1  0  0  0  0
  6  8  1  0  0  0  0
  7 22  1  0  0  0  0
  7 23  1  0  0  0  0
  7 24  1  0  0  0  0
  8  9  2  0  0  0  0
  8 25  1  0  0  0  0
  9 10  1  0  0  0  0
 10 11  1  0  0  0  0
 10 26  1  0  0  0  0
 11 12  2  0  0  0  0
 11 13  1  0  0  0  0
 13 14  1  0  0  0  0
 13 27  1  0  0  0  0
 14 15  1  0  0  0  0
 14 28  1  0  0  0  0
 14 29  1  0  0  0  0
 15 17  1  0  0  0  0
 15 16  1  0  0  0  0
 15 30  1  0  0  0  0
 16 17  1  0  0  0  0
 16 31  1  0  0  0  0
 16 32  1  0  0  0  0
 17 33  1  0  0  0  0
 17 34  1  0  0  0  0
M  END
> <s_m_source_file>
AV-unprocessed.smi

> <i_m_source_file_index>
616

> <i_lp_mmshare_version>
43012

> <i_f3d_flags>
0

> <s_epik_input>
W0NIM11jMVtjSF1jKD1PKW4oW0NIM10pW2NIXWMxW05IXUMoPU8pW05IXVtDSDJdW0NIXTJbQ0gyXVtDSDJdMg==

> <s_epik_cmdline>
J2VwaWtfcHl0aG9uJywgJy1waCcsICc3LjAnLCAnLXRuJywgJzgnLCAnLW1hJywgJzIwMCcsICctbWV0YWxfYmluZGluZycsICctaW1hZScsICc8aW5maWxlLm1hZT4nLCAnLW9tYWUnLCAnPG91dGZpbGUubWFlPic=

> <r_lp_tautomer_probability>
1

> <r_epik_Ionization_Penalty>
2.97505e-05

> <r_epik_Ionization_Penalty_Charging>
8.23988e-06

> <r_epik_Ionization_Penalty_Neutral>
2.15106e-05

> <r_epik_State_Penalty>
-0

> <r_epik_Charging_Adjusted_Penalty>
8.23988e-06

> <i_epik_Tot_Q>
0

> <i_epik_Tot_abs_Q>
0

> <r_epik_Metal_State_Penalty>
-0

> <b_epik_Metal_Only>
0

> <s_lp_Force_Field>
OPLS_2005

> <r_lp_Energy>
26.2007

> <b_lp_Chiralities_Consistent>
1

> <s_lp_Variant>
AV-unprocessed.smi:616-1

> <Gold.Version>
5.8.1

> <Gold.Id.Protein>
6NUR|6NUR_protein|mol2

> <Gold.PLP.Fitness>
37.6841

> <Gold.PLP.PLP>
-30.3305

> <Gold.PLP.part.hbond>
-2.9843

> <Gold.PLP.part.metal>
0.0000

> <Gold.PLP.part.buried>
-3.6919

> <Gold.PLP.part.nonpolar>
-23.0001

> <Gold.PLP.part.repulsive>
0.2133

> <Gold.PLP.ligand.clash>
0.0000

> <Gold.PLP.ligand.torsion>
0.4203

> <Gold.PLP.Chemscore.Hbond>
2.5520

> <Gold.PLP.Chemscore.CHOScore>
0.0000

> <Gold.PLP.Chemscore.Metal>
0.0000

> <Gold.Chemscore.Hbonds>
donor molecule, donor type, donor heavy atom, donor atom, acceptor molecule, acceptor atom, score
      L1  H    10    26       P1  7948  0.91
      L1  H    13    27       P1  7948  0.68
      P1  H 10785 10796       L1     5  0.62

> <Gold.PLP.Chemscore.Internal.Correction>
0.5382

> <Gold.Rescore>
     Score         DG    S(hbond)    S(metal)    S(lipo)     H(rot)  DE(clash)    DE(int)     intcor
     16.37     -17.66       2.51        0.00      58.41       1.18       0.05       1.24       ----

> <Gold.Chemscore.Fitness>
16.3675

> <Gold.Chemscore.DG>
-17.6627

> <Gold.Chemscore.ZeroCoef>
-5.4800

> <Gold.Chemscore.Hbond>
2.5091

> <Gold.Chemscore.Metal>
0.0000

> <Gold.Chemscore.Lipo>
58.4125

> <Gold.Chemscore.Internal_Hbond>
0.0000

> <Gold.Chemscore.DEClash>
0.0539

> <Gold.Chemscore.DEInternal>
1.2412

> <Gold.Chemscore.Rot>
1.1844

> <Gold.Chemscore.Internal.Correction>
   9.000000E+99

> <Gold.Chemscore.Hbonds>
donor molecule, donor type, donor heavy atom, donor atom, acceptor molecule, acceptor atom, score
      L1  H    10    26       P1  7948  0.52
      L1  H    13    27       P1  7948  0.10
      P1  H 10785 10796       L1     5  0.62

> <Gold.Chemscore.Hbond.Weighted>
-8.3804

> <Gold.Chemscore.Metal.Weighted>
-0.0000

> <Gold.Chemscore.Lipo.Weighted>
-6.8343

> <Gold.Chemscore.Internal_Hbond.Weighted>
0.0000

> <Gold.Chemscore.DEClash.Weighted>
0.0539

> <Gold.Chemscore.DEInternal.Weighted>
1.2412

> <Gold.Chemscore.Rot.Weighted>
3.0320

> <Gold.Chemscore.Internal.Correction.Weighted>
   9.000000E+99

> <Gold.Protein.RotatedTorsions>
[ 6907 6896 6895 6894 ] final  -83.89 input  -60.11 | X-H torsion
[ 7974 7965 7964 7962 ] final   86.59 input  175.53 | X-H torsion
[ 8008 7997 7996 7995 ] final   67.81 input   59.86 | X-H torsion
[ 10167 10162 10161 10158 ] final -147.94 input  -65.29 | X-H torsion
[ 10718 10713 10712 10709 ] final    1.11 input   66.30 | X-H torsion
[ 10763 10752 10751 10750 ] final  -95.32 input  -60.55 | X-H torsion
[ 11005 11000 10999 10996 ] final -102.26 input  -57.11 | X-H torsion

> <Gold.Protein.ActiveResidues>
 VAL166  LYS551  ARG553  GLY616  TRP617  ASP618  TYR619  PRO620  LYS621  CYS622 
 ASP623  PHE694  ASN695  SER759  ASP760  ASP761  ALA762  ILE779  LEU786  VAL792 
 PHE793  MET794  SER795  GLU796  ALA797  LYS798  CYS799  TRP800  GLU811  SER814 

> <Gold.Protein.RotatedAtoms>
  150.6881  134.3442  159.4880 H   0  0  0  0  0  0  0  0  0  0  0  0  # atno 6907 bound_to 6896
  152.1291  134.9145  160.0569 H   0  0  0  0  0  0  0  0  0  0  0  0  # atno 6908 bound_to 6896
  152.0322  133.3907  159.4339 H   0  0  0  0  0  0  0  0  0  0  0  0  # atno 6909 bound_to 6896
  145.5703  139.2313  143.2410 H   0  0  0  0  0  0  0  0  0  0  0  0  # atno 7974 bound_to 7965
  155.6987  140.3495  155.4924 H   0  0  0  0  0  0  0  0  0  0  0  0  # atno 8008 bound_to 7997
  155.9460  140.1110  157.1038 H   0  0  0  0  0  0  0  0  0  0  0  0  # atno 8009 bound_to 7997
  154.4112  140.1203  156.4976 H   0  0  0  0  0  0  0  0  0  0  0  0  # atno 8010 bound_to 7997
  139.7576  143.8425  152.2600 H   0  0  0  0  0  0  0  0  0  0  0  0  # atno 10167 bound_to 10162
  156.8433  130.5528  149.5676 H   0  0  0  0  0  0  0  0  0  0  0  0  # atno 10718 bound_to 10713
  154.7138  135.5125  153.8706 H   0  0  0  0  0  0  0  0  0  0  0  0  # atno 10763 bound_to 10752
  153.0802  135.6629  154.0069 H   0  0  0  0  0  0  0  0  0  0  0  0  # atno 10764 bound_to 10752
  153.9906  135.3020  155.3392 H   0  0  0  0  0  0  0  0  0  0  0  0  # atno 10765 bound_to 10752
  141.1197  133.8544  157.1336 H   0  0  0  0  0  0  0  0  0  0  0  0  # atno 11005 bound_to 11000
  146.1789  140.6529  142.9198 LP  0  0  0  0  0  0  0  0  0  0  0  0  # atno 17320 bound_to 7965
  144.7441  140.5021  143.6848 LP  0  0  0  0  0  0  0  0  0  0  0  0  # atno 17321 bound_to 7965
  139.8421  144.7205  150.9318 LP  0  0  0  0  0  0  0  0  0  0  0  0  # atno 17342 bound_to 10162
  140.7804  143.3974  151.1207 LP  0  0  0  0  0  0  0  0  0  0  0  0  # atno 17343 bound_to 10162
  156.0868  130.5865  150.9663 LP  0  0  0  0  0  0  0  0  0  0  0  0  # atno 17370 bound_to 10713
  157.6344  131.0917  150.8378 LP  0  0  0  0  0  0  0  0  0  0  0  0  # atno 17371 bound_to 10713
  140.0144  134.9974  157.0463 LP  0  0  0  0  0  0  0  0  0  0  0  0  # atno 17394 bound_to 11000
  140.4544  134.1549  155.7184 LP  0  0  0  0  0  0  0  0  0  0  0  0  # atno 17395 bound_to 11000

$$$$
