AV-unprocessed.smi:2146|AV-procd|sdf|8741|dock3
  -GOLD-   2272011513D 1   1.00000     0.00000
 Structure written by MMmdl.
 45 46  0  0  0  0  0  0  0  0  2 V2000
  145.4119  135.8112  155.5102 C   0  0  0  0  0  0  0  0  0  0  0  0
  146.8098  135.7960  154.8485 C   0  0  1  0  0  0  0  0  0  0  0  0
  147.8549  135.1617  155.8121 C   0  0  0  0  0  0  0  0  0  0  0  0
  147.8699  135.7818  157.1345 N   0  0  0  0  0  0  0  0  0  0  0  0
  148.6696  135.4154  158.1477 C   0  0  0  0  0  0  0  0  0  0  0  0
  149.4737  134.4860  158.0645 O   0  0  0  0  0  0  0  0  0  0  0  0
  148.5268  136.2261  159.4436 C   0  0  0  0  0  0  0  0  0  0  0  0
  147.9170  135.4601  160.5432 N   0  0  0  0  0  0  0  0  0  0  0  0
  147.9026  134.0584  160.4059 C   0  0  0  0  0  0  0  0  0  0  0  0
  147.3842  133.2350  161.3367 C   0  0  0  0  0  0  0  0  0  0  0  0
  147.3315  131.7301  161.1249 C   0  0  0  0  0  0  0  0  0  0  0  0
  146.2395  131.2013  161.6774 F   0  0  0  0  0  0  0  0  0  0  0  0
  147.3299  131.4317  159.8251 F   0  0  0  0  0  0  0  0  0  0  0  0
  148.3987  131.1568  161.6791 F   0  0  0  0  0  0  0  0  0  0  0  0
  146.8029  133.8672  162.5048 C   0  0  0  0  0  0  0  0  0  0  0  0
  146.7934  135.2075  162.6442 C   0  0  0  0  0  0  0  0  0  0  0  0
  147.3697  136.0891  161.6262 C   0  0  0  0  0  0  0  0  0  0  0  0
  147.3592  137.3150  161.7391 O   0  0  0  0  0  0  0  0  0  0  0  0
  146.7438  135.1280  153.5065 N   0  3  0  0  0  0  0  0  0  0  0  0
  147.0456  133.6712  153.5768 C   0  0  0  0  0  0  0  0  0  0  0  0
  147.0439  133.0324  152.1787 C   0  0  0  0  0  0  0  0  0  0  0  0
  145.7825  133.2440  151.5640 O   0  0  0  0  0  0  0  0  0  0  0  0
  145.5198  134.6271  151.3844 C   0  0  0  0  0  0  0  0  0  0  0  0
  145.4781  135.3363  152.7494 C   0  0  0  0  0  0  0  0  0  0  0  0
  145.4265  136.3057  156.4812 H   0  0  0  0  0  0  0  0  0  0  0  0
  145.0401  134.7982  155.6643 H   0  0  0  0  0  0  0  0  0  0  0  0
  144.6733  136.3495  154.9192 H   0  0  0  0  0  0  0  0  0  0  0  0
  147.1154  136.8294  154.6768 H   0  0  0  0  0  0  0  0  0  0  0  0
  147.6475  134.0990  155.9428 H   0  0  0  0  0  0  0  0  0  0  0  0
  148.8669  135.2393  155.4131 H   0  0  0  0  0  0  0  0  0  0  0  0
  147.2315  136.5495  157.2876 H   0  0  0  0  0  0  0  0  0  0  0  0
  149.5115  136.5832  159.7509 H   0  0  0  0  0  0  0  0  0  0  0  0
  147.9536  137.1289  159.2272 H   0  0  0  0  0  0  0  0  0  0  0  0
  148.3329  133.6940  159.4841 H   0  0  0  0  0  0  0  0  0  0  0  0
  146.3698  133.2575  163.2841 H   0  0  0  0  0  0  0  0  0  0  0  0
  146.3521  135.6444  163.5281 H   0  0  0  0  0  0  0  0  0  0  0  0
  148.0181  133.4911  154.0307 H   0  0  0  0  0  0  0  0  0  0  0  0
  146.3058  133.1756  154.2076 H   0  0  0  0  0  0  0  0  0  0  0  0
  147.8433  133.4426  151.5592 H   0  0  0  0  0  0  0  0  0  0  0  0
  147.2204  131.9596  152.2568 H   0  0  0  0  0  0  0  0  0  0  0  0
  146.2772  135.0727  150.7371 H   0  0  0  0  0  0  0  0  0  0  0  0
  144.5626  134.7397  150.8749 H   0  0  0  0  0  0  0  0  0  0  0  0
  144.6346  134.9705  153.3375 H   0  0  0  0  0  0  0  0  0  0  0  0
  145.3108  136.3951  152.5559 H   0  0  0  0  0  0  0  0  0  0  0  0
  147.4700  135.5502  152.9456 H   0  0  0  0  0  0  0  0  0  0  0  0
  1  2  1  0  0  0  0
  1 25  1  0  0  0  0
  1 26  1  0  0  0  0
  1 27  1  0  0  0  0
  2  3  1  0  0  0  0
  2 19  1  0  0  0  0
  2 28  1  0  0  0  0
  3  4  1  0  0  0  0
  3 29  1  0  0  0  0
  3 30  1  0  0  0  0
  4  5  1  0  0  0  0
  4 31  1  0  0  0  0
  5  6  2  0  0  0  0
  5  7  1  0  0  0  0
  7  8  1  0  0  0  0
  7 32  1  0  0  0  0
  7 33  1  0  0  0  0
  8 17  1  0  0  0  0
  8  9  1  0  0  0  0
  9 10  2  0  0  0  0
  9 34  1  0  0  0  0
 10 11  1  0  0  0  0
 10 15  1  0  0  0  0
 11 12  1  0  0  0  0
 11 13  1  0  0  0  0
 11 14  1  0  0  0  0
 15 16  2  0  0  0  0
 15 35  1  0  0  0  0
 16 17  1  0  0  0  0
 16 36  1  0  0  0  0
 17 18  2  0  0  0  0
 19 24  1  0  0  0  0
 19 20  1  0  0  0  0
 19 45  1  0  0  0  0
 20 21  1  0  0  0  0
 20 37  1  0  0  0  0
 20 38  1  0  0  0  0
 21 22  1  0  0  0  0
 21 39  1  0  0  0  0
 21 40  1  0  0  0  0
 22 23  1  0  0  0  0
 23 24  1  0  0  0  0
 23 41  1  0  0  0  0
 23 42  1  0  0  0  0
 24 43  1  0  0  0  0
 24 44  1  0  0  0  0
M  CHG  1  19   1
M  END
> <s_m_source_file>
AV-unprocessed.smi

> <i_m_source_file_index>
2146

> <i_lp_mmshare_version>
43012

> <i_f3d_flags>
0

> <s_epik_input>
W0NIMl0xW0NIMl1PW0NIMl1bQ0gyXU4xW0NASF0oW0NIM10pW0NIMl1bTkhdQyg9TylbQ0gyXW4yW2NIXWMoQyhGKShGKUYpW2NIXVtjSF1jMj1P

> <s_epik_cmdline>
J2VwaWtfcHl0aG9uJywgJy1waCcsICc3LjAnLCAnLXRuJywgJzgnLCAnLW1hJywgJzIwMCcsICctbWV0YWxfYmluZGluZycsICctaW1hZScsICc8aW5maWxlLm1hZT4nLCAnLW9tYWUnLCAnPG91dGZpbGUubWFlPic=

> <r_lp_tautomer_probability>
1

> <r_epik_Ionization_Penalty>
0.656654

> <r_epik_Ionization_Penalty_Charging>
0.656653

> <r_epik_Ionization_Penalty_Neutral>
9.12373e-08

> <r_epik_State_Penalty>
0.675641

> <r_epik_Charging_Adjusted_Penalty>
1.33229

> <i_epik_Tot_Q>
1

> <i_epik_Tot_abs_Q>
1

> <r_epik_Metal_State_Penalty>
0.675692

> <b_epik_Metal_Only>
0

> <s_lp_Force_Field>
OPLS_2005

> <r_lp_Energy>
32.7302

> <b_lp_Chiralities_Consistent>
1

> <s_lp_Variant>
AV-unprocessed.smi:2146-4

> <Gold.Version>
5.8.1

> <Gold.Id.Protein>
6NUR|6NUR_protein|mol2

> <Gold.PLP.Fitness>
46.8476

> <Gold.PLP.PLP>
-37.2814

> <Gold.PLP.part.hbond>
-4.0000

> <Gold.PLP.part.metal>
0.0000

> <Gold.PLP.part.buried>
-3.5151

> <Gold.PLP.part.nonpolar>
-29.6311

> <Gold.PLP.part.repulsive>
0.1629

> <Gold.PLP.ligand.clash>
0.2199

> <Gold.PLP.ligand.torsion>
2.0745

> <Gold.PLP.Chemscore.Hbond>
4.5840

> <Gold.PLP.Chemscore.CHOScore>
0.0000

> <Gold.PLP.Chemscore.Metal>
0.0000

> <Gold.Chemscore.Hbonds>
donor molecule, donor type, donor heavy atom, donor atom, acceptor molecule, acceptor atom, score
      L1  H    19    45       P1  7948  2.00
      P1  H  6896  6908       L1     6  1.00
      P1  H  6931  6943       L1    18  0.85
      P1  H  6934  6947       L1    18  0.80

> <Gold.PLP.Chemscore.Internal.Correction>
0.1830

> <Gold.Rescore>
     Score         DG    S(hbond)    S(metal)    S(lipo)     H(rot)  DE(clash)    DE(int)     intcor
     15.79     -19.16       3.61        0.00      61.51       2.18       0.03       3.34       ----

> <Gold.Chemscore.Fitness>
15.7948

> <Gold.Chemscore.DG>
-19.1572

> <Gold.Chemscore.ZeroCoef>
-5.4800

> <Gold.Chemscore.Hbond>
3.6117

> <Gold.Chemscore.Metal>
0.0000

> <Gold.Chemscore.Lipo>
61.5069

> <Gold.Chemscore.Internal_Hbond>
0.0000

> <Gold.Chemscore.DEClash>
0.0270

> <Gold.Chemscore.DEInternal>
3.3353

> <Gold.Chemscore.Rot>
2.1805

> <Gold.Chemscore.Internal.Correction>
   9.000000E+99

> <Gold.Chemscore.Hbonds>
donor molecule, donor type, donor heavy atom, donor atom, acceptor molecule, acceptor atom, score
      L1  H    19    45       P1  7948  0.99
      P1  H  6896  6908       L1     6  0.86
      P1  H  6931  6943       L1    18  0.81
      P1  H  6934  6947       L1    18  0.79

> <Gold.Chemscore.Hbond.Weighted>
-12.0631

> <Gold.Chemscore.Metal.Weighted>
-0.0000

> <Gold.Chemscore.Lipo.Weighted>
-7.1963

> <Gold.Chemscore.Internal_Hbond.Weighted>
0.0000

> <Gold.Chemscore.DEClash.Weighted>
0.0270

> <Gold.Chemscore.DEInternal.Weighted>
3.3353

> <Gold.Chemscore.Rot.Weighted>
5.5822

> <Gold.Chemscore.Internal.Correction.Weighted>
   9.000000E+99

> <Gold.Protein.RotatedTorsions>
[ 6907 6896 6895 6894 ] final  159.07 input  -60.11 | X-H torsion
[ 7974 7965 7964 7962 ] final  151.53 input  175.53 | X-H torsion
[ 8008 7997 7996 7995 ] final -133.96 input   59.86 | X-H torsion
[ 10167 10162 10161 10158 ] final   16.73 input  -65.29 | X-H torsion
[ 10718 10713 10712 10709 ] final  177.40 input   66.30 | X-H torsion
[ 10763 10752 10751 10750 ] final -118.63 input  -60.55 | X-H torsion
[ 11005 11000 10999 10996 ] final  -56.23 input  -57.11 | X-H torsion

> <Gold.Protein.ActiveResidues>
 VAL166  LYS551  ARG553  GLY616  TRP617  ASP618  TYR619  PRO620  LYS621  CYS622 
 ASP623  PHE694  ASN695  SER759  ASP760  ASP761  ALA762  ILE779  LEU786  VAL792 
 PHE793  MET794  SER795  GLU796  ALA797  LYS798  CYS799  TRP800  GLU811  SER814 

> <Gold.Protein.RotatedAtoms>
  151.9910  133.3791  159.4144 H   0  0  0  0  0  0  0  0  0  0  0  0  # atno 6907 bound_to 6896
  150.6922  134.3936  159.5097 H   0  0  0  0  0  0  0  0  0  0  0  0  # atno 6908 bound_to 6896
  152.1670  134.8865  160.0588 H   0  0  0  0  0  0  0  0  0  0  0  0  # atno 6909 bound_to 6896
  144.8286  139.6549  143.6069 H   0  0  0  0  0  0  0  0  0  0  0  0  # atno 7974 bound_to 7965
  155.3541  140.0479  157.3046 H   0  0  0  0  0  0  0  0  0  0  0  0  # atno 8008 bound_to 7997
  154.5212  140.2225  155.8937 H   0  0  0  0  0  0  0  0  0  0  0  0  # atno 8009 bound_to 7997
  156.1691  140.3100  155.8947 H   0  0  0  0  0  0  0  0  0  0  0  0  # atno 8010 bound_to 7997
  140.5776  143.9042  150.6763 H   0  0  0  0  0  0  0  0  0  0  0  0  # atno 10167 bound_to 10162
  156.9060  130.9894  151.3028 H   0  0  0  0  0  0  0  0  0  0  0  0  # atno 10718 bound_to 10713
  154.8593  135.4267  154.2170 H   0  0  0  0  0  0  0  0  0  0  0  0  # atno 10763 bound_to 10752
  153.3184  135.6980  153.7059 H   0  0  0  0  0  0  0  0  0  0  0  0  # atno 10764 bound_to 10752
  153.6123  135.3517  155.2957 H   0  0  0  0  0  0  0  0  0  0  0  0  # atno 10765 bound_to 10752
  141.1111  133.6610  156.4588 H   0  0  0  0  0  0  0  0  0  0  0  0  # atno 11005 bound_to 11000
  146.2590  139.6368  142.9375 LP  0  0  0  0  0  0  0  0  0  0  0  0  # atno 17320 bound_to 7965
  145.4945  141.0438  143.2574 LP  0  0  0  0  0  0  0  0  0  0  0  0  # atno 17321 bound_to 7965
  140.2533  143.3577  152.1386 LP  0  0  0  0  0  0  0  0  0  0  0  0  # atno 17342 bound_to 10162
  139.5151  144.6958  151.5633 LP  0  0  0  0  0  0  0  0  0  0  0  0  # atno 17343 bound_to 10162
  157.5997  130.8503  149.8783 LP  0  0  0  0  0  0  0  0  0  0  0  0  # atno 17370 bound_to 10713
  156.0559  130.3708  150.1093 LP  0  0  0  0  0  0  0  0  0  0  0  0  # atno 17371 bound_to 10713
  140.4774  134.6697  157.5156 LP  0  0  0  0  0  0  0  0  0  0  0  0  # atno 17394 bound_to 11000
  140.0005  134.6844  155.9538 LP  0  0  0  0  0  0  0  0  0  0  0  0  # atno 17395 bound_to 11000

$$$$
