AV-unprocessed.smi:104|AV-procd|sdf|995|dock2
  -GOLD-   2262017573D 1   1.00000     0.00000
 Structure written by MMmdl.
 47 49  0  0  0  0  0  0  0  0  1 V2000
  146.8238  135.0674  162.4166 C   0  0  0  0  0  0  0  0  0  0  0  0
  147.7614  135.9879  161.6466 C   0  0  0  0  0  0  0  0  0  0  0  0
  148.4221  136.8551  162.2190 O   0  0  0  0  0  0  0  0  0  0  0  0
  147.7621  135.7309  160.3287 O   0  0  0  0  0  0  0  0  0  0  0  0
  148.9289  135.9733  159.5579 C   0  0  0  0  0  0  0  0  0  0  0  0
  149.0036  137.4646  159.2044 C   0  0  2  0  0  0  0  0  0  0  0  0
  147.9220  137.7776  158.3212 O   0  0  0  0  0  0  0  0  0  0  0  0
  148.4157  138.2385  157.1037 C   0  0  2  0  0  0  0  0  0  0  0  0
  147.5615  137.7286  155.9898 N   0  0  0  0  0  0  0  0  0  0  0  0
  146.7866  136.5923  155.9514 C   0  0  0  0  0  0  0  0  0  0  0  0
  146.6584  135.4012  157.4319 Br  0  0  0  0  0  0  0  0  0  0  0  0
  146.1182  136.3632  154.8558 N   0  0  0  0  0  0  0  0  0  0  0  0
  146.4525  137.4528  154.0608 C   0  0  0  0  0  0  0  0  0  0  0  0
  146.0949  137.8639  152.7518 C   0  0  0  0  0  0  0  0  0  0  0  0
  145.2664  137.1628  151.9654 N   0  0  0  0  0  0  0  0  0  0  0  0
  146.6118  139.0193  152.2720 N   0  0  0  0  0  0  0  0  0  0  0  0
  147.4390  139.7393  153.0366 C   0  0  0  0  0  0  0  0  0  0  0  0
  147.8648  139.4831  154.2761 N   0  0  0  0  0  0  0  0  0  0  0  0
  147.3470  138.3163  154.7591 C   0  0  0  0  0  0  0  0  0  0  0  0
  149.8313  137.7021  156.9829 C   0  0  1  0  0  0  0  0  0  0  0  0
  150.5992  138.4838  156.0773 O   0  0  0  0  0  0  0  0  0  0  0  0
  151.4517  137.8856  155.2314 C   0  0  0  0  0  0  0  0  0  0  0  0
  152.4996  138.8474  154.6875 C   0  0  0  0  0  0  0  0  0  0  0  0
  151.4355  136.6987  154.9056 O   0  0  0  0  0  0  0  0  0  0  0  0
  150.2894  137.8004  158.4289 C   0  0  1  0  0  0  0  0  0  0  0  0
  150.7093  139.1281  158.7340 O   0  0  0  0  0  0  0  0  0  0  0  0
  151.8693  139.6022  158.2484 C   0  0  0  0  0  0  0  0  0  0  0  0
  152.1752  141.0077  158.7475 C   0  0  0  0  0  0  0  0  0  0  0  0
  152.6348  139.0076  157.4895 O   0  0  0  0  0  0  0  0  0  0  0  0
  146.9029  134.0450  162.0462 H   0  0  0  0  0  0  0  0  0  0  0  0
  145.7916  135.3994  162.3032 H   0  0  0  0  0  0  0  0  0  0  0  0
  147.0734  135.0691  163.4779 H   0  0  0  0  0  0  0  0  0  0  0  0
  149.7988  135.6834  160.1480 H   0  0  0  0  0  0  0  0  0  0  0  0
  148.9447  135.3737  158.6471 H   0  0  0  0  0  0  0  0  0  0  0  0
  148.9262  138.0591  160.1158 H   0  0  0  0  0  0  0  0  0  0  0  0
  148.3523  139.3264  157.0680 H   0  0  0  0  0  0  0  0  0  0  0  0
  144.8661  136.2981  152.3001 H   0  0  0  0  0  0  0  0  0  0  0  0
  145.0455  137.4992  151.0393 H   0  0  0  0  0  0  0  0  0  0  0  0
  147.8137  140.6503  152.5934 H   0  0  0  0  0  0  0  0  0  0  0  0
  149.7770  136.6568  156.6730 H   0  0  0  0  0  0  0  0  0  0  0  0
  152.0364  139.7902  154.3949 H   0  0  0  0  0  0  0  0  0  0  0  0
  152.9937  138.4204  153.8145 H   0  0  0  0  0  0  0  0  0  0  0  0
  153.2542  139.0519  155.4472 H   0  0  0  0  0  0  0  0  0  0  0  0
  151.0945  137.0907  158.6263 H   0  0  0  0  0  0  0  0  0  0  0  0
  151.3070  141.6542  158.6173 H   0  0  0  0  0  0  0  0  0  0  0  0
  153.0108  141.4370  158.1944 H   0  0  0  0  0  0  0  0  0  0  0  0
  152.4357  140.9844  159.8058 H   0  0  0  0  0  0  0  0  0  0  0  0
  1  2  1  0  0  0  0
  1 30  1  0  0  0  0
  1 31  1  0  0  0  0
  1 32  1  0  0  0  0
  2  3  2  0  0  0  0
  2  4  1  0  0  0  0
  4  5  1  0  0  0  0
  5  6  1  0  0  0  0
  5 33  1  0  0  0  0
  5 34  1  0  0  0  0
  6 25  1  0  0  0  0
  6  7  1  0  0  0  0
  6 35  1  0  0  0  0
  7  8  1  0  0  0  0
  8  9  1  0  0  0  0
  8 20  1  0  0  0  0
  8 36  1  0  0  0  0
  9 19  1  0  0  0  0
  9 10  1  0  0  0  0
 10 11  1  0  0  0  0
 10 12  2  0  0  0  0
 12 13  1  0  0  0  0
 13 19  2  0  0  0  0
 13 14  1  0  0  0  0
 14 15  1  0  0  0  0
 14 16  2  0  0  0  0
 15 37  1  0  0  0  0
 15 38  1  0  0  0  0
 16 17  1  0  0  0  0
 17 18  2  0  0  0  0
 17 39  1  0  0  0  0
 18 19  1  0  0  0  0
 20 21  1  0  0  0  0
 20 25  1  0  0  0  0
 20 40  1  0  0  0  0
 21 22  1  0  0  0  0
 22 23  1  0  0  0  0
 22 24  2  0  0  0  0
 23 41  1  0  0  0  0
 23 42  1  0  0  0  0
 23 43  1  0  0  0  0
 25 26  1  0  0  0  0
 25 44  1  0  0  0  0
 26 27  1  0  0  0  0
 27 28  1  0  0  0  0
 27 29  2  0  0  0  0
 28 45  1  0  0  0  0
 28 46  1  0  0  0  0
 28 47  1  0  0  0  0
M  END
> <s_m_source_file>
AV-unprocessed.smi

> <i_m_source_file_index>
104

> <i_lp_mmshare_version>
43012

> <i_f3d_flags>
0

> <s_epik_input>
W0NIM11DKD1PKU9bQ0gyXVtDQEBIXTFPW0NASF0oW0NAQEhdKE9DKD1PKVtDSDNdKVtDQEhdMU9DKD1PKVtDSDNdKW4oYyhCciluMiljKGMyMyluW2NIXW5jM1tOSDJd

> <s_epik_cmdline>
J2VwaWtfcHl0aG9uJywgJy1waCcsICc3LjAnLCAnLXRuJywgJzgnLCAnLW1hJywgJzIwMCcsICctbWV0YWxfYmluZGluZycsICctaW1hZScsICc8aW5maWxlLm1hZT4nLCAnLW9tYWUnLCAnPG91dGZpbGUubWFlPic=

> <r_lp_tautomer_probability>
1

> <r_epik_Ionization_Penalty>
7.36622e-05

> <r_epik_Ionization_Penalty_Charging>
0

> <r_epik_Ionization_Penalty_Neutral>
7.36622e-05

> <r_epik_State_Penalty>
-0

> <r_epik_Charging_Adjusted_Penalty>
0

> <i_epik_Tot_Q>
0

> <i_epik_Tot_abs_Q>
0

> <r_epik_Metal_State_Penalty>
-0

> <b_epik_Metal_Only>
0

> <s_epik_Chemistry_Notes>
This compound has an ester and may undergo hydrolysis at high or low pH. This compound contains an acetal/aminal-like group ( X-CH(R)-Y where X, Y are N, S, or O) that may be acid/base labile, releasing an aldehyde.

> <s_lp_Force_Field>
OPLS_2005

> <r_lp_Energy>
18.6996

> <b_lp_Chiralities_Consistent>
1

> <s_lp_Variant>
AV-unprocessed.smi:104-3

> <Gold.Version>
5.8.1

> <Gold.Id.Protein>
6NUR|6NUR_protein|mol2

> <Gold.PLP.Fitness>
39.0603

> <Gold.PLP.PLP>
-30.8169

> <Gold.PLP.part.hbond>
-3.3231

> <Gold.PLP.part.metal>
0.0000

> <Gold.PLP.part.buried>
-4.4915

> <Gold.PLP.part.nonpolar>
-23.7268

> <Gold.PLP.part.repulsive>
0.6578

> <Gold.PLP.ligand.clash>
0.0000

> <Gold.PLP.ligand.torsion>
2.1644

> <Gold.PLP.Chemscore.Hbond>
3.5520

> <Gold.PLP.Chemscore.CHOScore>
0.5462

> <Gold.PLP.Chemscore.Metal>
0.0000

> <Gold.Chemscore.Hbonds>
donor molecule, donor type, donor heavy atom, donor atom, acceptor molecule, acceptor atom, score
      L1  H    15    38       P1 10171  1.00
      P1  H  6931  6943       L1     3  1.00
      P1  H  7997  8009       L1    29  0.59
      P1  H 10752 10764       L1    24  1.00
      L1  C    17    39       P1  7957  0.55

> <Gold.PLP.Chemscore.Internal.Correction>
0.2777

> <Gold.Rescore>
     Score         DG    S(hbond)    S(metal)    S(lipo)     H(rot)  DE(clash)    DE(int)     intcor
      2.25     -12.32       3.84        0.00      43.10       4.31       0.97       9.11       ----

> <Gold.Chemscore.Fitness>
2.2477

> <Gold.Chemscore.DG>
-12.3235

> <Gold.Chemscore.ZeroCoef>
-5.4800

> <Gold.Chemscore.Hbond>
3.8402

> <Gold.Chemscore.Metal>
0.0000

> <Gold.Chemscore.Lipo>
43.1043

> <Gold.Chemscore.Internal_Hbond>
0.0000

> <Gold.Chemscore.DEClash>
0.9690

> <Gold.Chemscore.DEInternal>
9.1068

> <Gold.Chemscore.Rot>
4.3070

> <Gold.Chemscore.Internal.Correction>
   9.000000E+99

> <Gold.Chemscore.Hbonds>
donor molecule, donor type, donor heavy atom, donor atom, acceptor molecule, acceptor atom, score
      L1  H    15    38       P1 10171  0.89
      P1  H  6931  6943       L1     3  0.94
      P1  H  7997  8009       L1    29  0.57
      P1  H 10752 10764       L1    24  1.00

> <Gold.Chemscore.Hbond.Weighted>
-12.8262

> <Gold.Chemscore.Metal.Weighted>
-0.0000

> <Gold.Chemscore.Lipo.Weighted>
-5.0432

> <Gold.Chemscore.Internal_Hbond.Weighted>
0.0000

> <Gold.Chemscore.DEClash.Weighted>
0.9690

> <Gold.Chemscore.DEInternal.Weighted>
9.1068

> <Gold.Chemscore.Rot.Weighted>
11.0259

> <Gold.Chemscore.Internal.Correction.Weighted>
   9.000000E+99

> <Gold.Protein.RotatedTorsions>
[ 6907 6896 6895 6894 ] final  -27.91 input  -60.11 | X-H torsion
[ 7974 7965 7964 7962 ] final -168.54 input  175.53 | X-H torsion
[ 8008 7997 7996 7995 ] final  175.17 input   59.86 | X-H torsion
[ 10167 10162 10161 10158 ] final   27.63 input  -65.29 | X-H torsion
[ 10718 10713 10712 10709 ] final  132.26 input   66.30 | X-H torsion
[ 10763 10752 10751 10750 ] final  -63.94 input  -60.55 | X-H torsion
[ 11005 11000 10999 10996 ] final    0.01 input  -57.11 | X-H torsion

> <Gold.Protein.ActiveResidues>
 VAL166  LYS551  ARG553  GLY616  TRP617  ASP618  TYR619  PRO620  LYS621  CYS622 
 ASP623  PHE694  ASN695  SER759  ASP760  ASP761  ALA762  ILE779  LEU786  VAL792 
 PHE793  MET794  SER795  GLU796  ALA797  LYS798  CYS799  TRP800  GLU811  SER814 

> <Gold.Protein.RotatedAtoms>
  151.1402  135.0176  159.8622 H   0  0  0  0  0  0  0  0  0  0  0  0  # atno 6907 bound_to 6896
  152.5452  134.1507  159.8527 H   0  0  0  0  0  0  0  0  0  0  0  0  # atno 6908 bound_to 6896
  151.1582  133.4817  159.2627 H   0  0  0  0  0  0  0  0  0  0  0  0  # atno 6909 bound_to 6896
  144.7201  140.2355  143.6298 H   0  0  0  0  0  0  0  0  0  0  0  0  # atno 7974 bound_to 7965
  156.0898  140.1416  156.9606 H   0  0  0  0  0  0  0  0  0  0  0  0  # atno 8008 bound_to 7997
  154.4635  140.0934  156.7005 H   0  0  0  0  0  0  0  0  0  0  0  0  # atno 8009 bound_to 7997
  155.4938  140.3449  155.4361 H   0  0  0  0  0  0  0  0  0  0  0  0  # atno 8010 bound_to 7997
  140.4922  144.0449  150.6301 H   0  0  0  0  0  0  0  0  0  0  0  0  # atno 10167 bound_to 10162
  157.4888  131.1089  150.9584 H   0  0  0  0  0  0  0  0  0  0  0  0  # atno 10718 bound_to 10713
  154.3226  135.6193  153.5514 H   0  0  0  0  0  0  0  0  0  0  0  0  # atno 10763 bound_to 10752
  152.9818  135.5727  154.5053 H   0  0  0  0  0  0  0  0  0  0  0  0  # atno 10764 bound_to 10752
  154.4724  135.2860  155.1609 H   0  0  0  0  0  0  0  0  0  0  0  0  # atno 10765 bound_to 10752
  140.6314  133.9572  155.8276 H   0  0  0  0  0  0  0  0  0  0  0  0  # atno 11005 bound_to 11000
  145.8370  139.2112  143.1850 LP  0  0  0  0  0  0  0  0  0  0  0  0  # atno 17320 bound_to 7965
  146.0380  140.8193  142.9842 LP  0  0  0  0  0  0  0  0  0  0  0  0  # atno 17321 bound_to 7965
  140.3721  143.2849  152.0266 LP  0  0  0  0  0  0  0  0  0  0  0  0  # atno 17342 bound_to 10162
  139.4853  144.6221  151.7234 LP  0  0  0  0  0  0  0  0  0  0  0  0  # atno 17343 bound_to 10162
  157.0293  130.5705  149.5341 LP  0  0  0  0  0  0  0  0  0  0  0  0  # atno 17370 bound_to 10713
  156.0162  130.5256  150.8140 LP  0  0  0  0  0  0  0  0  0  0  0  0  # atno 17371 bound_to 10713
  141.0673  134.0258  157.3576 LP  0  0  0  0  0  0  0  0  0  0  0  0  # atno 17394 bound_to 11000
  139.9115  135.0190  156.7709 LP  0  0  0  0  0  0  0  0  0  0  0  0  # atno 17395 bound_to 11000

$$$$
