AV-unprocessed.smi:62|AV-procd|sdf|604|dock6
  -GOLD-   2262016493D 1   1.00000     0.00000
 Structure written by MMmdl.
 31 32  0  0  0  0  0  0  0  0  3 V2000
  148.6224  142.0366  154.2610 C   0  0  0  0  0  0  0  0  0  0  0  0
  149.6513  141.4649  155.1028 N   0  0  0  0  0  0  0  0  0  0  0  0
  149.9829  141.7884  156.3975 C   0  0  0  0  0  0  0  0  0  0  0  0
  151.0190  140.9840  156.7867 C   0  0  0  0  0  0  0  0  0  0  0  0
  151.6696  141.0107  158.1522 C   0  0  0  0  0  0  0  0  0  0  0  0
  152.3287  142.3141  158.4032 N   0  3  2  0  0  0  0  0  0  0  0  0
  153.1281  142.3761  159.6495 C   0  0  0  0  0  0  0  0  0  0  0  0
  152.9251  143.7803  160.2382 C   0  0  0  0  0  0  0  0  0  0  0  0
  152.2451  144.5707  159.1212 C   0  0  2  0  0  0  0  0  0  0  0  0
  151.4281  145.6054  159.6268 O   0  0  0  0  0  0  0  0  0  0  0  0
  151.4441  143.4969  158.3917 C   0  0  0  0  0  0  0  0  0  0  0  0
  151.2633  140.1867  155.6143 C   0  0  0  0  0  0  0  0  0  0  0  0
  152.3394  139.1358  155.5418 C   0  0  0  0  0  0  0  0  0  0  0  0
  152.4339  138.3997  154.5366 O   0  0  0  0  0  0  0  0  0  0  0  0
  153.1195  139.0324  156.5137 O   0  5  0  0  0  0  0  0  0  0  0  0
  150.4331  140.4820  154.6227 N   0  0  0  0  0  0  0  0  0  0  0  0
  147.9306  142.6254  154.8641 H   0  0  0  0  0  0  0  0  0  0  0  0
  148.0671  141.2433  153.7592 H   0  0  0  0  0  0  0  0  0  0  0  0
  149.0797  142.6829  153.5113 H   0  0  0  0  0  0  0  0  0  0  0  0
  149.4537  142.5594  156.9381 H   0  0  0  0  0  0  0  0  0  0  0  0
  150.9915  140.7657  158.9676 H   0  0  0  0  0  0  0  0  0  0  0  0
  152.4415  140.2412  158.1946 H   0  0  0  0  0  0  0  0  0  0  0  0
  152.8131  141.6178  160.3682 H   0  0  0  0  0  0  0  0  0  0  0  0
  154.1755  142.1919  159.4093 H   0  0  0  0  0  0  0  0  0  0  0  0
  152.2660  143.7113  161.1055 H   0  0  0  0  0  0  0  0  0  0  0  0
  153.8573  144.2397  160.5679 H   0  0  0  0  0  0  0  0  0  0  0  0
  152.9971  144.9912  158.4520 H   0  0  0  0  0  0  0  0  0  0  0  0
  151.0335  146.0636  158.9000 H   0  0  0  0  0  0  0  0  0  0  0  0
  151.1619  143.7902  157.3798 H   0  0  0  0  0  0  0  0  0  0  0  0
  150.5352  143.2771  158.9529 H   0  0  0  0  0  0  0  0  0  0  0  0
  152.9880  142.4561  157.6517 H   0  0  0  0  0  0  0  0  0  0  0  0
  1  2  1  0  0  0  0
  1 17  1  0  0  0  0
  1 18  1  0  0  0  0
  1 19  1  0  0  0  0
  2 16  1  0  0  0  0
  2  3  1  0  0  0  0
  3  4  2  0  0  0  0
  3 20  1  0  0  0  0
  4  5  1  0  0  0  0
  4 12  1  0  0  0  0
  5  6  1  0  0  0  0
  5 21  1  0  0  0  0
  5 22  1  0  0  0  0
  6 11  1  0  0  0  0
  6  7  1  0  0  0  0
  6 31  1  0  0  0  0
  7  8  1  0  0  0  0
  7 23  1  0  0  0  0
  7 24  1  0  0  0  0
  8  9  1  0  0  0  0
  8 25  1  0  0  0  0
  8 26  1  0  0  0  0
  9 10  1  0  0  0  0
  9 11  1  0  0  0  0
  9 27  1  0  0  0  0
 10 28  1  0  0  0  0
 11 29  1  0  0  0  0
 11 30  1  0  0  0  0
 12 13  1  0  0  0  0
 12 16  2  0  0  0  0
 13 14  2  0  0  0  0
 13 15  1  0  0  0  0
M  CHG  1   6   1
M  CHG  1  15  -1
M  END
> <s_m_source_file>
AV-unprocessed.smi

> <i_m_source_file_index>
62

> <i_lp_mmshare_version>
43012

> <i_f3d_flags>
0

> <s_epik_input>
W0NIM11uMVtjSF1jKGMobjEpQyg9TylbT0hdKVtDSDJdTjJbQ0gyXVtDSDJdW0NAQEhdKFtPSF0pW0NIMl0y

> <s_epik_cmdline>
J2VwaWtfcHl0aG9uJywgJy1waCcsICc3LjAnLCAnLXRuJywgJzgnLCAnLW1hJywgJzIwMCcsICctbWV0YWxfYmluZGluZycsICctaW1hZScsICc8aW5maWxlLm1hZT4nLCAnLW9tYWUnLCAnPG91dGZpbGUubWFlPic=

> <r_epik_Ionization_Penalty>
0.0522993

> <r_epik_Ionization_Penalty_Charging>
0.0522915

> <r_epik_Ionization_Penalty_Neutral>
7.84975e-06

> <r_epik_State_Penalty>
0.0448084

> <r_epik_Charging_Adjusted_Penalty>
0.0970998

> <i_epik_Tot_Q>
0

> <i_epik_Tot_abs_Q>
2

> <r_epik_Metal_State_Penalty>
0.0448097

> <b_epik_Metal_Only>
0

> <s_lp_Force_Field>
OPLS_2005

> <r_lp_Energy>
19.3538

> <b_lp_Chiralities_Consistent>
1

> <s_lp_Variant>
AV-unprocessed.smi:62-4

> <Gold.Version>
5.8.1

> <Gold.Id.Protein>
6NUR|6NUR_protein|mol2

> <Gold.PLP.Fitness>
48.1832

> <Gold.PLP.PLP>
-36.4533

> <Gold.PLP.part.hbond>
-3.6698

> <Gold.PLP.part.metal>
0.0000

> <Gold.PLP.part.buried>
0.0441

> <Gold.PLP.part.nonpolar>
-31.3354

> <Gold.PLP.part.repulsive>
0.1923

> <Gold.PLP.ligand.clash>
0.0000

> <Gold.PLP.ligand.torsion>
0.0400

> <Gold.PLP.Chemscore.Hbond>
3.0000

> <Gold.PLP.Chemscore.CHOScore>
0.9333

> <Gold.PLP.Chemscore.Metal>
0.0000

> <Gold.Chemscore.Hbonds>
donor molecule, donor type, donor heavy atom, donor atom, acceptor molecule, acceptor atom, score
      P1  H  7989  7998       L1    16  0.85
      P1  H  7997  8008       L1    15  2.00
      L1  C     3    20       P1  8028  0.68

> <Gold.PLP.Chemscore.Internal.Correction>
0.0102

> <Gold.Rescore>
     Score         DG    S(hbond)    S(metal)    S(lipo)     H(rot)  DE(clash)    DE(int)     intcor
     12.00     -13.63       1.02        0.00      80.06       1.81       0.01       1.63       ----

> <Gold.Chemscore.Fitness>
11.9966

> <Gold.Chemscore.DG>
-13.6344

> <Gold.Chemscore.ZeroCoef>
-5.4800

> <Gold.Chemscore.Hbond>
1.0236

> <Gold.Chemscore.Metal>
0.0000

> <Gold.Chemscore.Lipo>
80.0589

> <Gold.Chemscore.Internal_Hbond>
0.0000

> <Gold.Chemscore.DEClash>
0.0119

> <Gold.Chemscore.DEInternal>
1.6258

> <Gold.Chemscore.Rot>
1.8091

> <Gold.Chemscore.Internal.Correction>
   9.000000E+99

> <Gold.Chemscore.Hbonds>
donor molecule, donor type, donor heavy atom, donor atom, acceptor molecule, acceptor atom, score
      P1  H  7989  7998       L1    16  0.13
      P1  H  7997  8008       L1    15  0.74

> <Gold.Chemscore.Hbond.Weighted>
-3.4189

> <Gold.Chemscore.Metal.Weighted>
-0.0000

> <Gold.Chemscore.Lipo.Weighted>
-9.3669

> <Gold.Chemscore.Internal_Hbond.Weighted>
0.0000

> <Gold.Chemscore.DEClash.Weighted>
0.0119

> <Gold.Chemscore.DEInternal.Weighted>
1.6258

> <Gold.Chemscore.Rot.Weighted>
4.6314

> <Gold.Chemscore.Internal.Correction.Weighted>
   9.000000E+99

> <Gold.Protein.RotatedTorsions>
[ 6907 6896 6895 6894 ] final  -16.05 input  -60.11 | X-H torsion
[ 7974 7965 7964 7962 ] final  138.43 input  175.53 | X-H torsion
[ 8008 7997 7996 7995 ] final  -44.12 input   59.86 | X-H torsion
[ 10167 10162 10161 10158 ] final  -17.37 input  -65.29 | X-H torsion
[ 10718 10713 10712 10709 ] final  -23.31 input   66.30 | X-H torsion
[ 10763 10752 10751 10750 ] final  -28.62 input  -60.55 | X-H torsion
[ 11005 11000 10999 10996 ] final  -56.33 input  -57.11 | X-H torsion

> <Gold.Protein.ActiveResidues>
 VAL166  LYS551  ARG553  GLY616  TRP617  ASP618  TYR619  PRO620  LYS621  CYS622 
 ASP623  PHE694  ASN695  SER759  ASP760  ASP761  ALA762  ILE779  LEU786  VAL792 
 PHE793  MET794  SER795  GLU796  ALA797  LYS798  CYS799  TRP800  GLU811  SER814 

> <Gold.Protein.RotatedAtoms>
  151.3146  135.0803  159.9284 H   0  0  0  0  0  0  0  0  0  0  0  0  # atno 6907 bound_to 6896
  152.5270  133.9701  159.7768 H   0  0  0  0  0  0  0  0  0  0  0  0  # atno 6908 bound_to 6896
  151.0011  133.6004  159.2725 H   0  0  0  0  0  0  0  0  0  0  0  0  # atno 6909 bound_to 6896
  144.9373  139.4973  143.5589 H   0  0  0  0  0  0  0  0  0  0  0  0  # atno 7974 bound_to 7965
  154.3997  140.1430  156.3630 H   0  0  0  0  0  0  0  0  0  0  0  0  # atno 8008 bound_to 7997
  155.8163  140.3471  155.5466 H   0  0  0  0  0  0  0  0  0  0  0  0  # atno 8009 bound_to 7997
  155.8334  140.0915  157.1769 H   0  0  0  0  0  0  0  0  0  0  0  0  # atno 8010 bound_to 7997
  140.7246  143.5022  150.9855 H   0  0  0  0  0  0  0  0  0  0  0  0  # atno 10167 bound_to 10162
  156.4928  130.4570  149.6746 H   0  0  0  0  0  0  0  0  0  0  0  0  # atno 10718 bound_to 10713
  153.7514  135.6926  153.4945 H   0  0  0  0  0  0  0  0  0  0  0  0  # atno 10763 bound_to 10752
  153.2001  135.4440  155.0254 H   0  0  0  0  0  0  0  0  0  0  0  0  # atno 10764 bound_to 10752
  154.8186  135.3411  154.7034 H   0  0  0  0  0  0  0  0  0  0  0  0  # atno 10765 bound_to 10752
  141.1115  133.6610  156.4603 H   0  0  0  0  0  0  0  0  0  0  0  0  # atno 11005 bound_to 11000
  146.3272  139.8367  142.8898 LP  0  0  0  0  0  0  0  0  0  0  0  0  # atno 17320 bound_to 7965
  145.3046  141.0203  143.3589 LP  0  0  0  0  0  0  0  0  0  0  0  0  # atno 17321 bound_to 7965
  139.8732  143.7166  152.3164 LP  0  0  0  0  0  0  0  0  0  0  0  0  # atno 17342 bound_to 10162
  139.7422  144.7556  151.0635 LP  0  0  0  0  0  0  0  0  0  0  0  0  # atno 17343 bound_to 10162
  156.3410  130.7382  151.2327 LP  0  0  0  0  0  0  0  0  0  0  0  0  # atno 17370 bound_to 10713
  157.7472  131.0404  150.4594 LP  0  0  0  0  0  0  0  0  0  0  0  0  # atno 17371 bound_to 10713
  140.4762  134.6707  157.5151 LP  0  0  0  0  0  0  0  0  0  0  0  0  # atno 17394 bound_to 11000
  140.0012  134.6834  155.9528 LP  0  0  0  0  0  0  0  0  0  0  0  0  # atno 17395 bound_to 11000

$$$$
