#       Name:                AV-unprocessed.smi:2834
#       Creating user name   scv26
#       Creation time:       Fri Mar 27 15:36:27 2020


#       File generated by GOLD software.
#

@<TRIPOS>MOLECULE
AV-unprocessed.smi:2834
    40    41     1
SMALL
NO_CHARGES


@<TRIPOS>ATOM
      1 ****        -3.0068   1.5088  -1.3053 C.3            1 S1                 0.0000
      2 ****        -3.0114   0.5073  -0.1314 C.3            1 S1                 0.0000
      3 ****        -1.8317  -0.3665  -0.1921 N.am           1 S1                 0.0000
      4 ****        -0.5398  -0.0178  -0.0775 C.2            1 S1                 0.0000
      5 ****        -0.1506   1.1366   0.0991 O.2            1 S1                 0.0000
      6 ****         0.2605  -1.0915  -0.1793 N.am           1 S1                 0.0000
      7 ****         1.6757  -1.1213  -0.0996 C.2            1 S1                 0.0000
      8 ****         2.4677  -2.2933  -0.2120 C.2            1 S1                 0.0000
      9 ****         3.7569  -2.0128  -0.0978 N.2            1 S1                 0.0000
     10 ****         3.8102  -0.6702   0.0864 N.pl3          1 S1                 0.0000
     11 ****         5.0969  -0.0171   0.2446 C.3            1 S1                 0.0000
     12 ****         5.6901   0.4417  -1.0978 C.3            1 S1                 0.0000
     13 ****         6.8630   1.0344  -0.8773 F              1 S1                 0.0000
     14 ****         5.8846  -0.5999  -1.9072 F              1 S1                 0.0000
     15 ****         4.8767   1.3149  -1.6927 F              1 S1                 0.0000
     16 ****         2.5555  -0.0935   0.0912 C.2            1 S1                 0.0000
     17 ****        -3.1615   1.1810   1.2301 C.3            1 S1                 0.0000
     18 ****        -3.7647   0.0774   2.0919 C.3            1 S1                 0.0000
     19 ****        -4.5813  -0.6849   1.2121 O.3            1 S1                 0.0000
     20 ****        -4.2696  -0.3744  -0.1439 C.3            1 S1                 0.0000
     21 ****        -3.9157   2.1110  -1.3166 H              1 S1                 0.0000
     22 ****        -2.9458   0.9917  -2.2635 H              1 S1                 0.0000
     23 ****        -2.1670   2.2011  -1.2472 H              1 S1                 0.0000
     24 ****        -2.0269  -1.3470  -0.3326 H              1 S1                 0.0000
     25 ****        -0.1903  -1.9827  -0.3263 H              1 S1                 0.0000
     26 ****         2.1579  -3.3162  -0.3687 H              1 S1                 0.0000
     27 ****         4.9677   0.8375   0.9102 H              1 S1                 0.0000
     28 ****         5.7810  -0.7032   0.7464 H              1 S1                 0.0000
     29 ****         2.4138   0.9688   0.2247 H              1 S1                 0.0000
     30 ****        -2.2372   1.5821   1.6453 H              1 S1                 0.0000
     31 ****        -3.8704   2.0073   1.1602 H              1 S1                 0.0000
     32 ****        -2.9795  -0.5679   2.4877 H              1 S1                 0.0000
     33 ****        -4.3379   0.4684   2.9327 H              1 S1                 0.0000
     34 ****        -5.1202   0.1716  -0.5540 H              1 S1                 0.0000
     35 ****        -4.1512  -1.2804  -0.7396 H              1 S1                 0.0000
     36 ****        -0.8129   1.8829   0.1656 LP             1 S1                 0.0000
     37 ****         0.8279   1.3281   0.1761 LP             1 S1                 0.0000
     38 ****         4.5247  -2.6523  -0.1386 LP             1 S1                 0.0000
     39 ****        -5.5427  -0.4724   1.3868 LP             1 S1                 0.0000
     40 ****        -4.4205  -1.6587   1.3731 LP             1 S1                 0.0000
@<TRIPOS>BOND
    1    1    2 1     
    2    1   21 1     
    3    1   22 1     
    4    1   23 1     
    5    2   20 1     
    6    2    3 1     
    7    2   17 1     
    8    3    4 am    
    9    3   24 1     
   10    4    5 2     
   11    4    6 am    
   12    6    7 1     
   13    6   25 1     
   14    7   16 2     
   15    7    8 1     
   16    8    9 2     
   17    8   26 1     
   18    9   10 1     
   19   10   11 1     
   20   10   16 1     
   21   11   12 1     
   22   11   27 1     
   23   11   28 1     
   24   12   13 1     
   25   12   14 1     
   26   12   15 1     
   27   16   29 1     
   28   17   18 1     
   29   17   30 1     
   30   17   31 1     
   31   18   19 1     
   32   18   32 1     
   33   18   33 1     
   34   19   20 1     
   35   20   34 1     
   36   20   35 1     
   37    5   36 1     
   38    5   37 1     
   39    9   38 1     
   40   19   39 1     
   41   19   40 1     
@<TRIPOS>SUBSTRUCTURE
      1 S1             1
@<TRIPOS>SET
LONE_PAIRS      STATIC     ATOMS    <user>   **** ""
5 36 37 38 39 40
DONOR_HYDROGENS      STATIC     ATOMS    <user>   **** ""
2 24 25
ATOM$BLUE        STATIC     ATOMS    COLORGROUP SYSTEM
5 36 37 38 39 40
ATOM$RED        STATIC     ATOMS    COLORGROUP SYSTEM
2 24 25
