AV-unprocessed.smi:211|AV-procd|sdf|1616|dock5
  -GOLD-   2262019543D 1   1.00000     0.00000
 Structure written by MMmdl.
 59 62  0  0  0  0  0  0  0  0  1 V2000
  151.4240  145.4935  159.8244 C   0  0  0  0  0  0  0  0  0  0  0  0
  152.1579  144.4120  159.0393 C   0  0  0  0  0  0  0  0  0  0  0  0
  152.7796  144.7046  158.0185 O   0  0  0  0  0  0  0  0  0  0  0  0
  152.0736  143.1657  159.5293 N   0  0  0  0  0  0  0  0  0  0  0  0
  152.6715  141.9717  158.9324 C   0  0  1  0  0  0  0  0  0  0  0  0
  153.8900  141.5541  159.7773 C   0  0  0  0  0  0  0  0  0  0  0  0
  151.6040  140.8536  158.7958 C   0  0  0  0  0  0  0  0  0  0  0  0
  152.1912  139.5332  158.2479 C   0  0  0  0  0  0  0  0  0  0  0  0
  151.1131  138.4474  158.0989 C   0  0  0  0  0  0  0  0  0  0  0  0
  149.9987  138.9200  157.2777 N   0  0  0  0  0  0  0  0  0  0  0  0
  149.1169  137.9927  156.8237 C   0  0  0  0  0  0  0  0  0  0  0  0
  147.7802  138.2366  156.8909 N   0  0  0  0  0  0  0  0  0  0  0  0
  146.9051  137.3386  156.4289 C   0  0  0  0  0  0  0  0  0  0  0  0
  147.1448  136.1497  155.8736 N   0  0  0  0  0  0  0  0  0  0  0  0
  148.4828  135.8924  155.8139 C   0  0  0  0  0  0  0  0  0  0  0  0
  149.5272  136.7521  156.2580 C   0  0  0  0  0  0  0  0  0  0  0  0
  150.7604  136.1530  156.0287 N   0  0  0  0  0  0  0  0  0  0  0  0
  150.4625  135.0143  155.4650 C   0  0  0  0  0  0  0  0  0  0  0  0
  149.1163  134.7646  155.3222 N   0  0  0  0  0  0  0  0  0  0  0  0
  148.5134  133.6215  154.7025 C   0  0  0  0  0  0  0  0  0  0  0  0
  148.7377  133.3142  153.2200 C   0  0  0  0  0  0  0  0  0  0  0  0
  147.3227  132.6997  153.1427 C   0  0  0  0  0  0  0  0  0  0  0  0
  146.5296  133.0373  151.8692 C   0  0  0  0  0  0  0  0  0  0  0  0
  147.0699  132.3826  150.7392 O   0  0  0  0  0  0  0  0  0  0  0  0
  147.2549  131.1794  153.3939 C   0  0  0  0  0  0  0  0  0  0  0  0
  147.6418  130.4493  152.2475 O   0  0  0  0  0  0  0  0  0  0  0  0
  147.0193  133.5864  154.3722 C   0  0  0  0  0  0  0  0  0  0  0  0
  149.3808  140.1572  157.7483 C   0  0  0  0  0  0  0  0  0  0  0  0
  150.4248  141.2759  157.8870 C   0  0  0  0  0  0  0  0  0  0  0  0
  151.7608  145.5093  160.8614 H   0  0  0  0  0  0  0  0  0  0  0  0
  150.3496  145.3080  159.8119 H   0  0  0  0  0  0  0  0  0  0  0  0
  151.6055  146.4780  159.3918 H   0  0  0  0  0  0  0  0  0  0  0  0
  151.5429  143.0297  160.3776 H   0  0  0  0  0  0  0  0  0  0  0  0
  153.0235  142.2189  157.9290 H   0  0  0  0  0  0  0  0  0  0  0  0
  154.4599  140.7578  159.2997 H   0  0  0  0  0  0  0  0  0  0  0  0
  153.5877  141.2051  160.7655 H   0  0  0  0  0  0  0  0  0  0  0  0
  154.5775  142.3890  159.9174 H   0  0  0  0  0  0  0  0  0  0  0  0
  151.2014  140.6518  159.7898 H   0  0  0  0  0  0  0  0  0  0  0  0
  152.6625  139.7127  157.2807 H   0  0  0  0  0  0  0  0  0  0  0  0
  152.9702  139.1522  158.9073 H   0  0  0  0  0  0  0  0  0  0  0  0
  151.5567  137.5578  157.6490 H   0  0  0  0  0  0  0  0  0  0  0  0
  150.7397  138.1593  159.0828 H   0  0  0  0  0  0  0  0  0  0  0  0
  145.8639  137.6124  156.5165 H   0  0  0  0  0  0  0  0  0  0  0  0
  151.2236  134.3192  155.1407 H   0  0  0  0  0  0  0  0  0  0  0  0
  148.7916  132.7662  155.3203 H   0  0  0  0  0  0  0  0  0  0  0  0
  148.8437  134.2192  152.6183 H   0  0  0  0  0  0  0  0  0  0  0  0
  149.5520  132.6169  153.0212 H   0  0  0  0  0  0  0  0  0  0  0  0
  145.4782  132.7666  151.9667 H   0  0  0  0  0  0  0  0  0  0  0  0
  146.5510  134.1098  151.6733 H   0  0  0  0  0  0  0  0  0  0  0  0
  147.8221  131.8809  151.0139 H   0  0  0  0  0  0  0  0  0  0  0  0
  147.8897  130.8840  154.2295 H   0  0  0  0  0  0  0  0  0  0  0  0
  146.2450  130.8675  153.6600 H   0  0  0  0  0  0  0  0  0  0  0  0
  148.2068  130.9946  151.7215 H   0  0  0  0  0  0  0  0  0  0  0  0
  146.4004  133.1201  155.1393 H   0  0  0  0  0  0  0  0  0  0  0  0
  146.6281  134.5691  154.1017 H   0  0  0  0  0  0  0  0  0  0  0  0
  148.5896  140.4888  157.0766 H   0  0  0  0  0  0  0  0  0  0  0  0
  148.9097  139.9681  158.7140 H   0  0  0  0  0  0  0  0  0  0  0  0
  149.9289  142.1638  158.2789 H   0  0  0  0  0  0  0  0  0  0  0  0
  150.8006  141.5447  156.8986 H   0  0  0  0  0  0  0  0  0  0  0  0
  1  2  1  0  0  0  0
  1 30  1  0  0  0  0
  1 31  1  0  0  0  0
  1 32  1  0  0  0  0
  2  3  2  0  0  0  0
  2  4  1  0  0  0  0
  4  5  1  0  0  0  0
  4 33  1  0  0  0  0
  5  6  1  0  0  0  0
  5  7  1  0  0  0  0
  5 34  1  0  0  0  0
  6 35  1  0  0  0  0
  6 36  1  0  0  0  0
  6 37  1  0  0  0  0
  7 29  1  0  0  0  0
  7  8  1  0  0  0  0
  7 38  1  0  0  0  0
  8  9  1  0  0  0  0
  8 39  1  0  0  0  0
  8 40  1  0  0  0  0
  9 10  1  0  0  0  0
  9 41  1  0  0  0  0
  9 42  1  0  0  0  0
 10 11  1  0  0  0  0
 10 28  1  0  0  0  0
 11 16  1  0  0  0  0
 11 12  2  0  0  0  0
 12 13  1  0  0  0  0
 13 14  2  0  0  0  0
 13 43  1  0  0  0  0
 14 15  1  0  0  0  0
 15 19  1  0  0  0  0
 15 16  2  0  0  0  0
 16 17  1  0  0  0  0
 17 18  2  0  0  0  0
 18 19  1  0  0  0  0
 18 44  1  0  0  0  0
 19 20  1  0  0  0  0
 20 27  1  0  0  0  0
 20 21  1  0  0  0  0
 20 45  1  0  0  0  0
 21 22  1  0  0  0  0
 21 46  1  0  0  0  0
 21 47  1  0  0  0  0
 22 23  1  0  0  0  0
 22 25  1  0  0  0  0
 22 27  1  0  0  0  0
 23 24  1  0  0  0  0
 23 48  1  0  0  0  0
 23 49  1  0  0  0  0
 24 50  1  0  0  0  0
 25 26  1  0  0  0  0
 25 51  1  0  0  0  0
 25 52  1  0  0  0  0
 26 53  1  0  0  0  0
 27 54  1  0  0  0  0
 27 55  1  0  0  0  0
 28 29  1  0  0  0  0
 28 56  1  0  0  0  0
 28 57  1  0  0  0  0
 29 58  1  0  0  0  0
 29 59  1  0  0  0  0
M  END
> <s_m_source_file>
AV-unprocessed.smi

> <i_m_source_file_index>
211

> <i_lp_mmshare_version>
43012

> <i_f3d_flags>
0

> <s_epik_input>
W0NIM11DKD1PKVtOSF1bQ0BIXShbQ0gzXSlbQ0hdMVtDSDJdW0NIMl1OKFtDSDJdW0NIMl0xKWMobltjSF1uMiljKGMyMyluW2NIXW4zW0NIXShbQ0gyXTQpW0NIMl1DNChbQ0gyXVtPSF0pW0NIMl1bT0hd

> <s_epik_cmdline>
J2VwaWtfcHl0aG9uJywgJy1waCcsICc3LjAnLCAnLXRuJywgJzgnLCAnLW1hJywgJzIwMCcsICctbWV0YWxfYmluZGluZycsICctaW1hZScsICc8aW5maWxlLm1hZT4nLCAnLW9tYWUnLCAnPG91dGZpbGUubWFlPic=

> <r_lp_tautomer_probability>
1

> <r_epik_Ionization_Penalty>
0.00335435

> <r_epik_Ionization_Penalty_Charging>
0

> <r_epik_Ionization_Penalty_Neutral>
0.00335435

> <r_epik_State_Penalty>
0.00231338

> <r_epik_Charging_Adjusted_Penalty>
0.00231338

> <i_epik_Tot_Q>
0

> <i_epik_Tot_abs_Q>
0

> <r_epik_Metal_State_Penalty>
-0

> <b_epik_Metal_Only>
0

> <s_lp_Force_Field>
OPLS_2005

> <r_lp_Energy>
40.8238

> <b_lp_Chiralities_Consistent>
1

> <s_lp_Variant>
AV-unprocessed.smi:211-2

> <Gold.Version>
5.8.1

> <Gold.Id.Protein>
6NUR|6NUR_protein|mol2

> <Gold.PLP.Fitness>
46.0244

> <Gold.PLP.PLP>
-42.0600

> <Gold.PLP.part.hbond>
-1.3269

> <Gold.PLP.part.metal>
0.0000

> <Gold.PLP.part.buried>
-7.9621

> <Gold.PLP.part.nonpolar>
-32.2630

> <Gold.PLP.part.repulsive>
0.1476

> <Gold.PLP.ligand.clash>
0.0000

> <Gold.PLP.ligand.torsion>
0.6253

> <Gold.PLP.Chemscore.Hbond>
1.4400

> <Gold.PLP.Chemscore.CHOScore>
0.0000

> <Gold.PLP.Chemscore.Metal>
0.0000

> <Gold.Chemscore.Hbonds>
donor molecule, donor type, donor heavy atom, donor atom, acceptor molecule, acceptor atom, score
      L1  H    24    50       P1 10747  0.74
      L1  H    26    53       P1 10747  0.72

> <Gold.PLP.Chemscore.Internal.Correction>
0.8951

> <Gold.Rescore>
     Score         DG    S(hbond)    S(metal)    S(lipo)     H(rot)  DE(clash)    DE(int)     intcor
      9.24     -11.16       1.70        0.00      85.56       3.92       0.19       1.73       ----

> <Gold.Chemscore.Fitness>
9.2355

> <Gold.Chemscore.DG>
-11.1605

> <Gold.Chemscore.ZeroCoef>
-5.4800

> <Gold.Chemscore.Hbond>
1.7048

> <Gold.Chemscore.Metal>
0.0000

> <Gold.Chemscore.Lipo>
85.5554

> <Gold.Chemscore.Internal_Hbond>
0.0000

> <Gold.Chemscore.DEClash>
0.1949

> <Gold.Chemscore.DEInternal>
1.7301

> <Gold.Chemscore.Rot>
3.9155

> <Gold.Chemscore.Internal.Correction>
   9.000000E+99

> <Gold.Chemscore.Hbonds>
donor molecule, donor type, donor heavy atom, donor atom, acceptor molecule, acceptor atom, score
      L1  H    24    50       P1 10747  0.74
      L1  H    26    53       P1 10747  0.72

> <Gold.Chemscore.Hbond.Weighted>
-5.6941

> <Gold.Chemscore.Metal.Weighted>
-0.0000

> <Gold.Chemscore.Lipo.Weighted>
-10.0100

> <Gold.Chemscore.Internal_Hbond.Weighted>
0.0000

> <Gold.Chemscore.DEClash.Weighted>
0.1949

> <Gold.Chemscore.DEInternal.Weighted>
1.7301

> <Gold.Chemscore.Rot.Weighted>
10.0236

> <Gold.Chemscore.Internal.Correction.Weighted>
   9.000000E+99

> <Gold.Protein.RotatedTorsions>
[ 6907 6896 6895 6894 ] final -162.83 input  -60.11 | X-H torsion
[ 7974 7965 7964 7962 ] final   49.41 input  175.53 | X-H torsion
[ 8008 7997 7996 7995 ] final  145.97 input   59.86 | X-H torsion
[ 10167 10162 10161 10158 ] final   41.71 input  -65.29 | X-H torsion
[ 10718 10713 10712 10709 ] final   15.92 input   66.30 | X-H torsion
[ 10763 10752 10751 10750 ] final   53.48 input  -60.55 | X-H torsion
[ 11005 11000 10999 10996 ] final   93.42 input  -57.11 | X-H torsion

> <Gold.Protein.ActiveResidues>
 VAL166  LYS551  ARG553  GLY616  TRP617  ASP618  TYR619  PRO620  LYS621  CYS622 
 ASP623  PHE694  ASN695  SER759  ASP760  ASP761  ALA762  ILE779  LEU786  VAL792 
 PHE793  MET794  SER795  GLU796  ALA797  LYS798  CYS799  TRP800  GLU811  SER814 

> <Gold.Protein.RotatedAtoms>
  151.3865  133.3803  159.2715 H   0  0  0  0  0  0  0  0  0  0  0  0  # atno 6907 bound_to 6896
  150.9538  134.8936  159.7699 H   0  0  0  0  0  0  0  0  0  0  0  0  # atno 6908 bound_to 6896
  152.5122  134.3821  159.9407 H   0  0  0  0  0  0  0  0  0  0  0  0  # atno 6909 bound_to 6896
  146.0111  139.4544  142.9955 H   0  0  0  0  0  0  0  0  0  0  0  0  # atno 7974 bound_to 7965
  156.2868  140.2195  156.5301 H   0  0  0  0  0  0  0  0  0  0  0  0  # atno 8008 bound_to 7997
  154.7456  140.0484  157.0871 H   0  0  0  0  0  0  0  0  0  0  0  0  # atno 8009 bound_to 7997
  155.0175  140.3120  155.4809 H   0  0  0  0  0  0  0  0  0  0  0  0  # atno 8010 bound_to 7997
  140.3616  144.2221  150.6138 H   0  0  0  0  0  0  0  0  0  0  0  0  # atno 10167 bound_to 10162
  157.0605  130.6307  149.5785 H   0  0  0  0  0  0  0  0  0  0  0  0  # atno 10718 bound_to 10713
  152.9796  135.5777  154.4748 H   0  0  0  0  0  0  0  0  0  0  0  0  # atno 10763 bound_to 10752
  154.4306  135.2773  155.1917 H   0  0  0  0  0  0  0  0  0  0  0  0  # atno 10764 bound_to 10752
  154.3627  135.6185  153.5753 H   0  0  0  0  0  0  0  0  0  0  0  0  # atno 10765 bound_to 10752
  139.8810  134.8789  156.3716 H   0  0  0  0  0  0  0  0  0  0  0  0  # atno 11005 bound_to 11000
  145.7340  141.0032  143.1336 LP  0  0  0  0  0  0  0  0  0  0  0  0  # atno 17320 bound_to 7965
  144.6953  139.9019  143.7459 LP  0  0  0  0  0  0  0  0  0  0  0  0  # atno 17321 bound_to 7965
  140.5121  143.2288  151.8519 LP  0  0  0  0  0  0  0  0  0  0  0  0  # atno 17342 bound_to 10162
  139.4813  144.4937  151.9152 LP  0  0  0  0  0  0  0  0  0  0  0  0  # atno 17343 bound_to 10162
  155.9980  130.5053  150.7555 LP  0  0  0  0  0  0  0  0  0  0  0  0  # atno 17370 bound_to 10713
  157.4959  131.0914  151.0372 LP  0  0  0  0  0  0  0  0  0  0  0  0  # atno 17371 bound_to 10713
  140.9460  133.7482  156.0209 LP  0  0  0  0  0  0  0  0  0  0  0  0  # atno 17394 bound_to 11000
  140.8162  134.3342  157.5396 LP  0  0  0  0  0  0  0  0  0  0  0  0  # atno 17395 bound_to 11000

$$$$
