#       Name:                AV-unprocessed.smi:1012
#       Creating user name   scv26
#       Creation time:       Fri Mar 27 02:37:56 2020


#       File generated by GOLD software.
#

@<TRIPOS>MOLECULE
AV-unprocessed.smi:1012
    50    52     1
SMALL
NO_CHARGES


@<TRIPOS>ATOM
      1 ****        -3.0934   0.3423   2.5273 C.3            1 S1                 0.0000
      2 ****        -2.6173   0.4484   1.1936 O.3            1 S1                 0.0000
      3 ****        -3.5428   0.5585   0.1752 C.ar           1 S1                 0.0000
      4 ****        -4.9453   0.5750   0.3876 C.ar           1 S1                 0.0000
      5 ****        -5.8335   0.6907  -0.6986 C.ar           1 S1                 0.0000
      6 ****        -5.3354   0.7919  -2.0095 C.ar           1 S1                 0.0000
      7 ****        -3.9470   0.7769  -2.2334 C.ar           1 S1                 0.0000
      8 ****        -3.0521   0.6598  -1.1488 C.ar           1 S1                 0.0000
      9 ****        -1.5574   0.6495  -1.4116 C.3            1 S1                 0.0000
     10 ****        -0.9919  -0.6208  -1.1338 O.3            1 S1                 0.0000
     11 ****         0.4140  -0.6470  -1.3112 C.3            1 S1                 0.0000
     12 ****         0.9314  -2.0670  -1.0179 C.3            1 S1                 0.0000
     13 ****         0.6945  -2.8728  -2.1533 O.3            1 S1                 0.0000
     14 ****         2.4429  -2.1339  -0.7200 C.3            1 S1                 0.0000
     15 ****         2.8123  -1.4442   0.5245 N.pl3          1 S1                 0.0000
     16 ****         2.6848  -1.8646   1.8125 C.2            1 S1                 0.0000
     17 ****         3.1712  -0.8802   2.6175 N.pl3          1 S1                 1.0000
     18 ****         3.6169   0.1857   1.8332 C.ar           1 S1                 0.0000
     19 ****         4.1851   1.4036   2.1920 C.ar           1 S1                 0.0000
     20 ****         4.5257   2.2801   1.1410 C.ar           1 S1                 0.0000
     21 ****         5.0793   3.4803   1.4344 F              1 S1                 0.0000
     22 ****         4.2992   1.9314  -0.2073 C.ar           1 S1                 0.0000
     23 ****         4.6376   2.8034  -1.1862 F              1 S1                 0.0000
     24 ****         3.7253   0.6918  -0.5588 C.ar           1 S1                 0.0000
     25 ****         3.3909  -0.1692   0.4864 C.ar           1 S1                 0.0000
     26 ****        -2.2447   0.2573   3.2058 H              1 S1                 0.0000
     27 ****        -3.7120  -0.5461   2.6612 H              1 S1                 0.0000
     28 ****        -3.6611   1.2268   2.8196 H              1 S1                 0.0000
     29 ****        -5.3682   0.5007   1.3778 H              1 S1                 0.0000
     30 ****        -6.8993   0.7024  -0.5246 H              1 S1                 0.0000
     31 ****        -6.0173   0.8812  -2.8424 H              1 S1                 0.0000
     32 ****        -3.5719   0.8543  -3.2433 H              1 S1                 0.0000
     33 ****        -1.3607   0.9198  -2.4503 H              1 S1                 0.0000
     34 ****        -1.0897   1.4150  -0.7904 H              1 S1                 0.0000
     35 ****         0.6982  -0.3246  -2.3146 H              1 S1                 0.0000
     36 ****         0.8445   0.0667  -0.6094 H              1 S1                 0.0000
     37 ****         0.3862  -2.4902  -0.1731 H              1 S1                 0.0000
     38 ****         1.1433  -2.4934  -2.8931 H              1 S1                 0.0000
     39 ****         2.7494  -3.1742  -0.6015 H              1 S1                 0.0000
     40 ****         3.0291  -1.7380  -1.5491 H              1 S1                 0.0000
     41 ****         2.2716  -2.8092   2.1370 H              1 S1                 0.0000
     42 ****         4.3588   1.6749   3.2229 H              1 S1                 0.0000
     43 ****         3.5540   0.4423  -1.5951 H              1 S1                 0.0000
     44 ****         3.1951  -0.9353   3.6279 H              1 S1                 0.0000
     45 ****        -2.0695  -0.3676   1.0090 LP             1 S1                 0.0000
     46 ****        -2.0329   1.2587   1.1514 LP             1 S1                 0.0000
     47 ****        -1.4039  -1.2949  -1.7469 LP             1 S1                 0.0000
     48 ****        -1.1988  -0.8622  -0.1857 LP             1 S1                 0.0000
     49 ****        -0.2873  -2.9119  -2.3392 LP             1 S1                 0.0000
     50 ****         1.0395  -3.7967  -1.9881 LP             1 S1                 0.0000
@<TRIPOS>BOND
    1    1    2 1     
    2    1   26 1     
    3    1   27 1     
    4    1   28 1     
    5    2    3 1     
    6    3    8 ar    
    7    3    4 ar    
    8    4    5 ar    
    9    4   29 1     
   10    5    6 ar    
   11    5   30 1     
   12    6    7 ar    
   13    6   31 1     
   14    7    8 ar    
   15    7   32 1     
   16    8    9 1     
   17    9   10 1     
   18    9   33 1     
   19    9   34 1     
   20   10   11 1     
   21   11   12 1     
   22   11   35 1     
   23   11   36 1     
   24   12   13 1     
   25   12   14 1     
   26   12   37 1     
   27   13   38 1     
   28   14   15 1     
   29   14   39 1     
   30   14   40 1     
   31   15   25 1     
   32   15   16 1     
   33   16   17 2     
   34   16   41 1     
   35   17   18 1     
   36   17   44 1     
   37   18   25 ar    
   38   18   19 ar    
   39   19   20 ar    
   40   19   42 1     
   41   20   21 1     
   42   20   22 ar    
   43   22   23 1     
   44   22   24 ar    
   45   24   25 ar    
   46   24   43 1     
   47    2   45 1     
   48    2   46 1     
   49   10   47 1     
   50   10   48 1     
   51   13   49 1     
   52   13   50 1     
@<TRIPOS>SUBSTRUCTURE
      1 S1             1
@<TRIPOS>SET
LONE_PAIRS      STATIC     ATOMS    <user>   **** ""
6 45 46 47 48 49 50
DONOR_HYDROGENS      STATIC     ATOMS    <user>   **** ""
2 38 44
ATOM$BLUE        STATIC     ATOMS    COLORGROUP SYSTEM
6 45 46 47 48 49 50
ATOM$RED        STATIC     ATOMS    COLORGROUP SYSTEM
2 38 44
