AV-unprocessed.smi:1216|AV-procd|sdf|5100|dock3
  -GOLD-   22720 4153D 1   1.00000     0.00000
 Structure written by MMmdl.
 42 43  0  0  0  0  0  0  0  0  1 V2000
  149.7174  145.1272  159.4996 C   0  0  0  0  0  0  0  0  0  0  0  0
  150.6447  143.9299  159.2533 C   0  0  2  0  0  0  0  0  0  0  0  0
  152.1127  144.2795  159.5814 C   0  0  0  0  0  0  0  0  0  0  0  0
  152.7161  143.3520  160.5219 N   0  0  0  0  0  0  0  0  0  0  0  0
  152.5766  143.3482  161.9035 C   0  0  0  0  0  0  0  0  0  0  0  0
  153.3144  142.2838  162.3702 C   0  0  0  0  0  0  0  0  0  0  0  0
  153.9214  141.6290  161.3013 N   0  0  0  0  0  0  0  0  0  0  0  0
  153.5256  142.3216  160.2411 C   0  0  0  0  0  0  0  0  0  0  0  0
  150.5106  143.5031  157.8609 N   0  0  0  0  0  0  0  0  0  0  0  0
  150.9795  142.3548  157.3471 C   0  0  0  0  0  0  0  0  0  0  0  0
  151.5423  141.4902  158.0198 O   0  0  0  0  0  0  0  0  0  0  0  0
  150.7764  142.1495  155.8418 C   0  0  0  0  0  0  0  0  0  0  0  0
  149.7596  141.1251  155.5621 N   0  0  0  0  0  0  0  0  0  0  0  0
  148.3865  141.4127  156.0076 C   0  0  0  0  0  0  0  0  0  0  0  0
  147.3868  141.6386  154.8498 C   0  0  0  0  0  0  0  0  0  0  0  0
  147.6779  140.8806  153.5396 C   0  0  0  0  0  0  0  0  0  0  0  0
  147.8976  139.3616  153.6983 C   0  0  0  0  0  0  0  0  0  0  0  0
  148.9755  138.9221  154.7177 C   0  0  0  0  0  0  0  0  0  0  0  0
  150.0871  139.9576  154.9528 C   0  0  0  0  0  0  0  0  0  0  0  0
  151.2311  139.6918  154.5825 O   0  0  0  0  0  0  0  0  0  0  0  0
  149.7693  145.4560  160.5380 H   0  0  0  0  0  0  0  0  0  0  0  0
  148.6787  144.8704  159.2886 H   0  0  0  0  0  0  0  0  0  0  0  0
  149.9863  145.9752  158.8688 H   0  0  0  0  0  0  0  0  0  0  0  0
  150.3184  143.1293  159.9197 H   0  0  0  0  0  0  0  0  0  0  0  0
  152.7140  144.3000  158.6712 H   0  0  0  0  0  0  0  0  0  0  0  0
  152.1714  145.2779  160.0163 H   0  0  0  0  0  0  0  0  0  0  0  0
  151.9727  144.0763  162.4244 H   0  0  0  0  0  0  0  0  0  0  0  0
  153.4550  141.9424  163.3853 H   0  0  0  0  0  0  0  0  0  0  0  0
  153.8242  142.0667  159.2350 H   0  0  0  0  0  0  0  0  0  0  0  0
  150.0563  144.1486  157.2311 H   0  0  0  0  0  0  0  0  0  0  0  0
  150.4862  143.1026  155.3987 H   0  0  0  0  0  0  0  0  0  0  0  0
  151.7225  141.8861  155.3648 H   0  0  0  0  0  0  0  0  0  0  0  0
  148.0387  140.5983  156.6435 H   0  0  0  0  0  0  0  0  0  0  0  0
  148.3700  142.2824  156.6655 H   0  0  0  0  0  0  0  0  0  0  0  0
  146.3834  141.3930  155.1995 H   0  0  0  0  0  0  0  0  0  0  0  0
  147.3632  142.7036  154.6167 H   0  0  0  0  0  0  0  0  0  0  0  0
  146.8515  141.0466  152.8479 H   0  0  0  0  0  0  0  0  0  0  0  0
  148.5466  141.3245  153.0514 H   0  0  0  0  0  0  0  0  0  0  0  0
  146.9512  138.8944  153.9726 H   0  0  0  0  0  0  0  0  0  0  0  0
  148.1528  138.9510  152.7208 H   0  0  0  0  0  0  0  0  0  0  0  0
  148.5120  138.6792  155.6736 H   0  0  0  0  0  0  0  0  0  0  0  0
  149.4247  137.9860  154.3830 H   0  0  0  0  0  0  0  0  0  0  0  0
  1  2  1  0  0  0  0
  1 21  1  0  0  0  0
  1 22  1  0  0  0  0
  1 23  1  0  0  0  0
  2  3  1  0  0  0  0
  2  9  1  0  0  0  0
  2 24  1  0  0  0  0
  3  4  1  0  0  0  0
  3 25  1  0  0  0  0
  3 26  1  0  0  0  0
  4  8  1  0  0  0  0
  4  5  1  0  0  0  0
  5  6  2  0  0  0  0
  5 27  1  0  0  0  0
  6  7  1  0  0  0  0
  6 28  1  0  0  0  0
  7  8  2  0  0  0  0
  8 29  1  0  0  0  0
  9 10  1  0  0  0  0
  9 30  1  0  0  0  0
 10 11  2  0  0  0  0
 10 12  1  0  0  0  0
 12 13  1  0  0  0  0
 12 31  1  0  0  0  0
 12 32  1  0  0  0  0
 13 19  1  0  0  0  0
 13 14  1  0  0  0  0
 14 15  1  0  0  0  0
 14 33  1  0  0  0  0
 14 34  1  0  0  0  0
 15 16  1  0  0  0  0
 15 35  1  0  0  0  0
 15 36  1  0  0  0  0
 16 17  1  0  0  0  0
 16 37  1  0  0  0  0
 16 38  1  0  0  0  0
 17 18  1  0  0  0  0
 17 39  1  0  0  0  0
 17 40  1  0  0  0  0
 18 19  1  0  0  0  0
 18 41  1  0  0  0  0
 18 42  1  0  0  0  0
 19 20  2  0  0  0  0
M  END
> <s_m_source_file>
AV-unprocessed.smi

> <i_m_source_file_index>
1216

> <i_lp_mmshare_version>
43012

> <i_f3d_flags>
0

> <s_epik_input>
W2NIXTFuW2NIXVtjSF1uMVtDSDJdW0NAQEhdKFtDSDNdKVtOSF1DKD1PKVtDSDJdTjJbQ0gyXVtDSDJdW0NIMl1bQ0gyXVtDSDJdQzI9Tw==

> <s_epik_cmdline>
J2VwaWtfcHl0aG9uJywgJy1waCcsICc3LjAnLCAnLXRuJywgJzgnLCAnLW1hJywgJzIwMCcsICctbWV0YWxfYmluZGluZycsICctaW1hZScsICc8aW5maWxlLm1hZT4nLCAnLW9tYWUnLCAnPG91dGZpbGUubWFlPic=

> <r_lp_tautomer_probability>
1

> <r_epik_Ionization_Penalty>
0.623868

> <r_epik_Ionization_Penalty_Charging>
0.623868

> <r_epik_Ionization_Penalty_Neutral>
4.50838e-08

> <r_epik_State_Penalty>
0.640129

> <r_epik_Charging_Adjusted_Penalty>
1.264

> <i_epik_Tot_Q>
0

> <i_epik_Tot_abs_Q>
0

> <r_epik_Metal_State_Penalty>
0.307431

> <b_epik_Metal_Only>
0

> <s_lp_Force_Field>
OPLS_2005

> <r_lp_Energy>
19.0473

> <b_lp_Chiralities_Consistent>
1

> <s_lp_Variant>
AV-unprocessed.smi:1216-3

> <Gold.Version>
5.8.1

> <Gold.Id.Protein>
6NUR|6NUR_protein|mol2

> <Gold.PLP.Fitness>
47.1363

> <Gold.PLP.PLP>
-43.6086

> <Gold.PLP.part.hbond>
-2.0000

> <Gold.PLP.part.metal>
0.0000

> <Gold.PLP.part.buried>
-3.6548

> <Gold.PLP.part.nonpolar>
-38.6608

> <Gold.PLP.part.repulsive>
0.1070

> <Gold.PLP.ligand.clash>
0.0000

> <Gold.PLP.ligand.torsion>
1.2734

> <Gold.PLP.Chemscore.Hbond>
2.0000

> <Gold.PLP.Chemscore.CHOScore>
0.0000

> <Gold.PLP.Chemscore.Metal>
0.0000

> <Gold.Chemscore.Hbonds>
donor molecule, donor type, donor heavy atom, donor atom, acceptor molecule, acceptor atom, score
      L1  H     9    30       P1  8028  1.00
      P1  H  7989  7998       L1    20  1.00

> <Gold.PLP.Chemscore.Internal.Correction>
0.0745

> <Gold.Rescore>
     Score         DG    S(hbond)    S(metal)    S(lipo)     H(rot)  DE(clash)    DE(int)     intcor
     13.52     -15.04       1.46        0.00      86.77       2.13       0.36       1.16       ----

> <Gold.Chemscore.Fitness>
13.5211

> <Gold.Chemscore.DG>
-15.0412

> <Gold.Chemscore.ZeroCoef>
-5.4800

> <Gold.Chemscore.Hbond>
1.4585

> <Gold.Chemscore.Metal>
0.0000

> <Gold.Chemscore.Lipo>
86.7724

> <Gold.Chemscore.Internal_Hbond>
0.0000

> <Gold.Chemscore.DEClash>
0.3631

> <Gold.Chemscore.DEInternal>
1.1571

> <Gold.Chemscore.Rot>
2.1338

> <Gold.Chemscore.Internal.Correction>
   9.000000E+99

> <Gold.Chemscore.Hbonds>
donor molecule, donor type, donor heavy atom, donor atom, acceptor molecule, acceptor atom, score
      L1  H     9    30       P1  8028  0.70
      P1  H  7989  7998       L1    20  0.55

> <Gold.Chemscore.Hbond.Weighted>
-4.8713

> <Gold.Chemscore.Metal.Weighted>
-0.0000

> <Gold.Chemscore.Lipo.Weighted>
-10.1524

> <Gold.Chemscore.Internal_Hbond.Weighted>
0.0000

> <Gold.Chemscore.DEClash.Weighted>
0.3631

> <Gold.Chemscore.DEInternal.Weighted>
1.1571

> <Gold.Chemscore.Rot.Weighted>
5.4625

> <Gold.Chemscore.Internal.Correction.Weighted>
   9.000000E+99

> <Gold.Protein.RotatedTorsions>
[ 6907 6896 6895 6894 ] final  147.21 input  -60.11 | X-H torsion
[ 7974 7965 7964 7962 ] final -144.67 input  175.53 | X-H torsion
[ 8008 7997 7996 7995 ] final   38.12 input   59.86 | X-H torsion
[ 10167 10162 10161 10158 ] final  161.68 input  -65.29 | X-H torsion
[ 10718 10713 10712 10709 ] final  -40.26 input   66.30 | X-H torsion
[ 10763 10752 10751 10750 ] final   -4.89 input  -60.55 | X-H torsion
[ 11005 11000 10999 10996 ] final  -51.07 input  -57.11 | X-H torsion

> <Gold.Protein.ActiveResidues>
 VAL166  LYS551  ARG553  GLY616  TRP617  ASP618  TYR619  PRO620  LYS621  CYS622 
 ASP623  PHE694  ASN695  SER759  ASP760  ASP761  ALA762  ILE779  LEU786  VAL792 
 PHE793  MET794  SER795  GLU796  ALA797  LYS798  CYS799  TRP800  GLU811  SER814 

> <Gold.Protein.RotatedAtoms>
  152.1578  133.4562  159.4845 H   0  0  0  0  0  0  0  0  0  0  0  0  # atno 6907 bound_to 6896
  150.6903  134.2110  159.4368 H   0  0  0  0  0  0  0  0  0  0  0  0  # atno 6908 bound_to 6896
  152.0010  134.9928  160.0615 H   0  0  0  0  0  0  0  0  0  0  0  0  # atno 6909 bound_to 6896
  144.8281  140.5680  143.5533 H   0  0  0  0  0  0  0  0  0  0  0  0  # atno 7974 bound_to 7965
  155.2149  140.3326  155.4323 H   0  0  0  0  0  0  0  0  0  0  0  0  # atno 8008 bound_to 7997
  156.2356  140.1870  156.7176 H   0  0  0  0  0  0  0  0  0  0  0  0  # atno 8009 bound_to 7997
  154.6053  140.0617  156.9409 H   0  0  0  0  0  0  0  0  0  0  0  0  # atno 8010 bound_to 7997
  139.4852  144.4513  151.8826 H   0  0  0  0  0  0  0  0  0  0  0  0  # atno 10167 bound_to 10162
  156.2833  130.4219  149.8314 H   0  0  0  0  0  0  0  0  0  0  0  0  # atno 10718 bound_to 10713
  153.3911  135.7002  153.6494 H   0  0  0  0  0  0  0  0  0  0  0  0  # atno 10763 bound_to 10752
  153.5066  135.3641  155.2567 H   0  0  0  0  0  0  0  0  0  0  0  0  # atno 10764 bound_to 10752
  154.8702  135.4125  154.3228 H   0  0  0  0  0  0  0  0  0  0  0  0  # atno 10765 bound_to 10752
  141.0851  133.6644  156.3823 H   0  0  0  0  0  0  0  0  0  0  0  0  # atno 11005 bound_to 11000
  145.4956  139.1486  143.3685 LP  0  0  0  0  0  0  0  0  0  0  0  0  # atno 17320 bound_to 7965
  146.2585  140.5095  142.8863 LP  0  0  0  0  0  0  0  0  0  0  0  0  # atno 17321 bound_to 7965
  140.3970  144.2543  150.5895 LP  0  0  0  0  0  0  0  0  0  0  0  0  # atno 17342 bound_to 10162
  140.5093  143.2295  151.8560 LP  0  0  0  0  0  0  0  0  0  0  0  0  # atno 17343 bound_to 10162
  156.5753  130.8442  151.3368 LP  0  0  0  0  0  0  0  0  0  0  0  0  # atno 17370 bound_to 10713
  157.7321  130.9710  150.1912 LP  0  0  0  0  0  0  0  0  0  0  0  0  # atno 17371 bound_to 10713
  140.5382  134.6146  157.5371 LP  0  0  0  0  0  0  0  0  0  0  0  0  # atno 17394 bound_to 11000
  139.9668  134.7359  156.0122 LP  0  0  0  0  0  0  0  0  0  0  0  0  # atno 17395 bound_to 11000

$$$$
