AV-unprocessed.smi:334|AV-procd|sdf|2364|dock2
  -GOLD-   2262022273D 1   1.00000     0.00000
 Structure written by MMmdl.
 44 46  0  0  0  0  0  0  0  0  3 V2000
  153.7920  141.3745  160.5428 C   0  0  0  0  0  0  0  0  0  0  0  0
  152.5746  142.0277  159.8654 C   0  0  2  0  0  0  0  0  0  0  0  0
  152.3468  141.4104  158.5602 N   0  0  0  0  0  0  0  0  0  0  0  0
  152.3288  140.0920  158.3115 C   0  0  0  0  0  0  0  0  0  0  0  0
  152.5184  139.2387  159.1794 O   0  0  0  0  0  0  0  0  0  0  0  0
  152.0676  139.6947  156.8513 C   0  0  0  0  0  0  0  0  0  0  0  0
  150.8045  138.9625  156.6564 N   0  0  0  0  0  0  0  0  0  0  0  0
  150.2031  138.4113  157.8049 C   0  0  0  0  0  0  0  0  0  0  0  0
  149.0439  137.7268  157.7479 C   0  0  0  0  0  0  0  0  0  0  0  0
  148.4366  137.1744  158.9390 N   0  3  0  0  0  0  0  0  0  0  0  0
  148.7797  136.0565  159.3100 O   0  0  0  0  0  0  0  0  0  0  0  0
  147.5985  137.8374  159.5426 O   0  5  0  0  0  0  0  0  0  0  0  0
  148.4196  137.5655  156.4491 C   0  0  0  0  0  0  0  0  0  0  0  0
  148.9869  138.0952  155.3475 C   0  0  0  0  0  0  0  0  0  0  0  0
  150.2448  138.8465  155.4133 C   0  0  0  0  0  0  0  0  0  0  0  0
  150.7631  139.3409  154.4121 O   0  0  0  0  0  0  0  0  0  0  0  0
  152.7511  143.5535  159.6821 C   0  0  1  0  0  0  0  0  0  0  0  0
  152.2319  144.1096  158.3357 C   0  0  0  0  0  0  0  0  0  0  0  0
  151.3684  145.3100  158.7659 C   0  0  1  0  0  0  0  0  0  0  0  0
  150.0558  144.7900  159.3803 C   0  0  0  0  0  0  0  0  0  0  0  0
  150.5173  144.2342  160.7398 C   0  0  0  0  0  0  0  0  0  0  0  0
  152.0413  144.4716  160.7084 C   0  0  2  0  0  0  0  0  0  0  0  0
  152.1129  145.8183  159.9951 C   0  0  0  0  0  0  0  0  0  0  0  0
  153.9490  141.7736  161.5449 H   0  0  0  0  0  0  0  0  0  0  0  0
  154.7040  141.5444  159.9699 H   0  0  0  0  0  0  0  0  0  0  0  0
  153.6587  140.2970  160.6447 H   0  0  0  0  0  0  0  0  0  0  0  0
  151.6941  141.8464  160.4827 H   0  0  0  0  0  0  0  0  0  0  0  0
  152.1846  142.0382  157.7863 H   0  0  0  0  0  0  0  0  0  0  0  0
  152.0877  140.5929  156.2313 H   0  0  0  0  0  0  0  0  0  0  0  0
  152.9092  139.0929  156.5047 H   0  0  0  0  0  0  0  0  0  0  0  0
  150.7429  138.5929  158.7233 H   0  0  0  0  0  0  0  0  0  0  0  0
  147.4928  137.0196  156.3500 H   0  0  0  0  0  0  0  0  0  0  0  0
  148.5047  137.9636  154.3901 H   0  0  0  0  0  0  0  0  0  0  0  0
  153.8197  143.7697  159.7427 H   0  0  0  0  0  0  0  0  0  0  0  0
  153.0648  144.4301  157.7089 H   0  0  0  0  0  0  0  0  0  0  0  0
  151.6523  143.3817  157.7661 H   0  0  0  0  0  0  0  0  0  0  0  0
  151.2193  146.0474  157.9767 H   0  0  0  0  0  0  0  0  0  0  0  0
  149.3406  145.6016  159.5205 H   0  0  0  0  0  0  0  0  0  0  0  0
  149.5811  144.0290  158.7596 H   0  0  0  0  0  0  0  0  0  0  0  0
  150.0631  144.8037  161.5515 H   0  0  0  0  0  0  0  0  0  0  0  0
  150.2409  143.1912  160.8873 H   0  0  0  0  0  0  0  0  0  0  0  0
  152.5040  144.4624  161.6956 H   0  0  0  0  0  0  0  0  0  0  0  0
  153.1324  146.1437  159.7794 H   0  0  0  0  0  0  0  0  0  0  0  0
  151.5871  146.6172  160.5211 H   0  0  0  0  0  0  0  0  0  0  0  0
  1  2  1  0  0  0  0
  1 24  1  0  0  0  0
  1 25  1  0  0  0  0
  1 26  1  0  0  0  0
  2  3  1  0  0  0  0
  2 17  1  0  0  0  0
  2 27  1  0  0  0  0
  3  4  1  0  0  0  0
  3 28  1  0  0  0  0
  4  5  2  0  0  0  0
  4  6  1  0  0  0  0
  6  7  1  0  0  0  0
  6 29  1  0  0  0  0
  6 30  1  0  0  0  0
  7 15  1  0  0  0  0
  7  8  1  0  0  0  0
  8  9  2  0  0  0  0
  8 31  1  0  0  0  0
  9 10  1  0  0  0  0
  9 13  1  0  0  0  0
 10 11  2  0  0  0  0
 10 12  1  0  0  0  0
 13 14  2  0  0  0  0
 13 32  1  0  0  0  0
 14 15  1  0  0  0  0
 14 33  1  0  0  0  0
 15 16  2  0  0  0  0
 17 22  1  0  0  0  0
 17 18  1  0  0  0  0
 17 34  1  0  0  0  0
 18 19  1  0  0  0  0
 18 35  1  0  0  0  0
 18 36  1  0  0  0  0
 19 23  1  0  0  0  0
 19 20  1  0  0  0  0
 19 37  1  0  0  0  0
 20 21  1  0  0  0  0
 20 38  1  0  0  0  0
 20 39  1  0  0  0  0
 21 22  1  0  0  0  0
 21 40  1  0  0  0  0
 21 41  1  0  0  0  0
 22 23  1  0  0  0  0
 22 42  1  0  0  0  0
 23 43  1  0  0  0  0
 23 44  1  0  0  0  0
M  CHG  1  10   1
M  CHG  1  12  -1
M  END
> <s_m_source_file>
AV-unprocessed.smi

> <i_m_source_file_index>
334

> <i_lp_mmshare_version>
43012

> <i_f3d_flags>
0

> <s_epik_input>
W0NIMl0xW0NIMl1bQ0BIXShbQ0gyXTIpW0NAQEhdKFtDSDJdW0NAQEhdMTIpW0NASF0oW0NIM10pW05IXUMoPU8pW0NIMl1uM1tjSF1jKFtOK10oPU8pW08tXSlbY0hdW2NIXWMzPU8=

> <s_epik_cmdline>
J2VwaWtfcHl0aG9uJywgJy1waCcsICc3LjAnLCAnLXRuJywgJzgnLCAnLW1hJywgJzIwMCcsICctbWV0YWxfYmluZGluZycsICctaW1hZScsICc8aW5maWxlLm1hZT4nLCAnLW9tYWUnLCAnPG91dGZpbGUubWFlPic=

> <r_lp_tautomer_probability>
1

> <r_epik_Ionization_Penalty>
2.17081e-08

> <r_epik_Ionization_Penalty_Charging>
8.1195e-11

> <r_epik_Ionization_Penalty_Neutral>
2.16269e-08

> <r_epik_State_Penalty>
-0

> <r_epik_Charging_Adjusted_Penalty>
8.1195e-11

> <i_epik_Tot_Q>
0

> <i_epik_Tot_abs_Q>
2

> <r_epik_Metal_State_Penalty>
-0

> <b_epik_Metal_Only>
0

> <s_lp_Force_Field>
OPLS_2005

> <r_lp_Energy>
62.3999

> <b_lp_Chiralities_Consistent>
1

> <s_lp_Variant>
AV-unprocessed.smi:334-3

> <Gold.Version>
5.8.1

> <Gold.Id.Protein>
6NUR|6NUR_protein|mol2

> <Gold.PLP.Fitness>
42.8312

> <Gold.PLP.PLP>
-42.5049

> <Gold.PLP.part.hbond>
-3.7116

> <Gold.PLP.part.metal>
0.0000

> <Gold.PLP.part.buried>
-4.4361

> <Gold.PLP.part.nonpolar>
-35.3300

> <Gold.PLP.part.repulsive>
0.2225

> <Gold.PLP.ligand.clash>
1.4085

> <Gold.PLP.ligand.torsion>
3.0330

> <Gold.PLP.Chemscore.Hbond>
2.5760

> <Gold.PLP.Chemscore.CHOScore>
0.0000

> <Gold.PLP.Chemscore.Metal>
0.0000

> <Gold.Chemscore.Hbonds>
donor molecule, donor type, donor heavy atom, donor atom, acceptor molecule, acceptor atom, score
      P1  H  6896  6907       L1    11  0.11
      P1  H  6934  6947       L1    12  0.59
      P1  H  7989  7998       L1    16  1.00

> <Gold.PLP.Chemscore.Internal.Correction>
0.0729

> <Gold.Rescore>
     Score         DG    S(hbond)    S(metal)    S(lipo)     H(rot)  DE(clash)    DE(int)     intcor
     17.04     -22.90       2.55        0.00     114.45       1.75       0.20       5.66       ----

> <Gold.Chemscore.Fitness>
17.0420

> <Gold.Chemscore.DG>
-22.9013

> <Gold.Chemscore.ZeroCoef>
-5.4800

> <Gold.Chemscore.Hbond>
2.5460

> <Gold.Chemscore.Metal>
0.0000

> <Gold.Chemscore.Lipo>
114.4520

> <Gold.Chemscore.Internal_Hbond>
0.0000

> <Gold.Chemscore.DEClash>
0.1977

> <Gold.Chemscore.DEInternal>
5.6616

> <Gold.Chemscore.Rot>
1.7474

> <Gold.Chemscore.Internal.Correction>
   9.000000E+99

> <Gold.Chemscore.Hbonds>
donor molecule, donor type, donor heavy atom, donor atom, acceptor molecule, acceptor atom, score
      P1  H  6896  6907       L1    11  0.14
      P1  H  6934  6947       L1    12  0.60
      P1  H  7989  7998       L1    16  0.98

> <Gold.Chemscore.Hbond.Weighted>
-8.5037

> <Gold.Chemscore.Metal.Weighted>
-0.0000

> <Gold.Chemscore.Lipo.Weighted>
-13.3909

> <Gold.Chemscore.Internal_Hbond.Weighted>
0.0000

> <Gold.Chemscore.DEClash.Weighted>
0.1977

> <Gold.Chemscore.DEInternal.Weighted>
5.6616

> <Gold.Chemscore.Rot.Weighted>
4.4733

> <Gold.Chemscore.Internal.Correction.Weighted>
   9.000000E+99

> <Gold.Protein.RotatedTorsions>
[ 6907 6896 6895 6894 ] final  -58.60 input  -60.11 | X-H torsion
[ 7974 7965 7964 7962 ] final   96.54 input  175.53 | X-H torsion
[ 8008 7997 7996 7995 ] final   -6.01 input   59.86 | X-H torsion
[ 10167 10162 10161 10158 ] final  -17.15 input  -65.29 | X-H torsion
[ 10718 10713 10712 10709 ] final   11.84 input   66.30 | X-H torsion
[ 10763 10752 10751 10750 ] final -138.60 input  -60.55 | X-H torsion
[ 11005 11000 10999 10996 ] final   20.76 input  -57.11 | X-H torsion

> <Gold.Protein.ActiveResidues>
 VAL166  LYS551  ARG553  GLY616  TRP617  ASP618  TYR619  PRO620  LYS621  CYS622 
 ASP623  PHE694  ASN695  SER759  ASP760  ASP761  ALA762  ILE779  LEU786  VAL792 
 PHE793  MET794  SER795  GLU796  ALA797  LYS798  CYS799  TRP800  GLU811  SER814 

> <Gold.Protein.RotatedAtoms>
  150.7995  134.7078  159.6586 H   0  0  0  0  0  0  0  0  0  0  0  0  # atno 6907 bound_to 6896
  152.4110  134.6121  160.0038 H   0  0  0  0  0  0  0  0  0  0  0  0  # atno 6908 bound_to 6896
  151.6364  133.3291  159.3156 H   0  0  0  0  0  0  0  0  0  0  0  0  # atno 6909 bound_to 6896
  145.4375  139.2304  143.3110 H   0  0  0  0  0  0  0  0  0  0  0  0  # atno 7974 bound_to 7965
  154.5981  140.2444  155.7830 H   0  0  0  0  0  0  0  0  0  0  0  0  # atno 8008 bound_to 7997
  156.2292  140.2972  156.0098 H   0  0  0  0  0  0  0  0  0  0  0  0  # atno 8009 bound_to 7997
  155.2259  140.0402  157.2945 H   0  0  0  0  0  0  0  0  0  0  0  0  # atno 8010 bound_to 7997
  140.7243  143.5044  150.9829 H   0  0  0  0  0  0  0  0  0  0  0  0  # atno 10167 bound_to 10162
  157.0015  130.6081  149.5697 H   0  0  0  0  0  0  0  0  0  0  0  0  # atno 10718 bound_to 10713
  154.8632  135.3607  154.5410 H   0  0  0  0  0  0  0  0  0  0  0  0  # atno 10763 bound_to 10752
  153.6032  135.7012  153.5381 H   0  0  0  0  0  0  0  0  0  0  0  0  # atno 10764 bound_to 10752
  153.3273  135.4134  155.1427 H   0  0  0  0  0  0  0  0  0  0  0  0  # atno 10765 bound_to 10752
  140.3990  134.1738  155.7663 H   0  0  0  0  0  0  0  0  0  0  0  0  # atno 11005 bound_to 11000
  146.2574  140.5119  142.8868 LP  0  0  0  0  0  0  0  0  0  0  0  0  # atno 17320 bound_to 7965
  144.8143  140.6440  143.6395 LP  0  0  0  0  0  0  0  0  0  0  0  0  # atno 17321 bound_to 7965
  139.8755  143.7138  152.3162 LP  0  0  0  0  0  0  0  0  0  0  0  0  # atno 17342 bound_to 10162
  139.7402  144.7561  151.0664 LP  0  0  0  0  0  0  0  0  0  0  0  0  # atno 17343 bound_to 10162
  156.0169  130.5264  150.8162 LP  0  0  0  0  0  0  0  0  0  0  0  0  # atno 17370 bound_to 10713
  157.5387  131.0940  150.9857 LP  0  0  0  0  0  0  0  0  0  0  0  0  # atno 17371 bound_to 10713
  141.1863  133.8304  157.1072 LP  0  0  0  0  0  0  0  0  0  0  0  0  # atno 17394 bound_to 11000
  140.0350  134.9882  157.0854 LP  0  0  0  0  0  0  0  0  0  0  0  0  # atno 17395 bound_to 11000

$$$$
