AV-unprocessed.smi:51|AV-procd|sdf|503|dock1
  -GOLD-   2262016373D 1   1.00000     0.00000
 Structure written by MMmdl.
 26 27  0  0  0  0  0  0  0  0  3 V2000
  153.5689  139.2118  157.8309 O   0  0  0  0  0  0  0  0  0  0  0  0
  154.1930  139.8123  158.7321 C   0  0  0  0  0  0  0  0  0  0  0  0
  154.1237  139.5580  159.9551 O   0  5  0  0  0  0  0  0  0  0  0  0
  155.1024  140.9684  158.2878 C   0  0  2  0  0  0  0  0  0  0  0  0
  156.5378  140.8279  158.8270 C   0  0  0  0  0  0  0  0  0  0  0  0
  156.5490  141.7093  160.0785 C   0  0  1  0  0  0  0  0  0  0  0  0
  157.8435  142.1661  160.4078 O   0  0  0  0  0  0  0  0  0  0  0  0
  155.6045  142.8530  159.7059 C   0  0  0  0  0  0  0  0  0  0  0  0
  154.6255  142.2455  158.8148 N   0  0  0  0  0  0  0  0  0  0  0  0
  153.5916  142.9944  158.2171 C   0  0  0  0  0  0  0  0  0  0  0  0
  153.6844  144.3899  158.0259 C   0  0  0  0  0  0  0  0  0  0  0  0
  152.5955  145.0322  157.4096 C   0  0  0  0  0  0  0  0  0  0  0  0
  151.5084  144.3215  157.0256 N   0  3  0  0  0  0  0  0  0  0  0  0
  151.4782  142.9983  157.2374 C   0  0  0  0  0  0  0  0  0  0  0  0
  152.4822  142.3309  157.8171 N   0  0  0  0  0  0  0  0  0  0  0  0
  155.1346  140.9967  157.1978 H   0  0  0  0  0  0  0  0  0  0  0  0
  156.8314  139.7981  159.0364 H   0  0  0  0  0  0  0  0  0  0  0  0
  157.2354  141.2211  158.0860 H   0  0  0  0  0  0  0  0  0  0  0  0
  156.1385  141.1531  160.9225 H   0  0  0  0  0  0  0  0  0  0  0  0
  158.0636  141.8421  161.2678 H   0  0  0  0  0  0  0  0  0  0  0  0
  155.1398  143.2899  160.5907 H   0  0  0  0  0  0  0  0  0  0  0  0
  156.1331  143.6412  159.1672 H   0  0  0  0  0  0  0  0  0  0  0  0
  154.5506  144.9605  158.3256 H   0  0  0  0  0  0  0  0  0  0  0  0
  152.5600  146.0930  157.2097 H   0  0  0  0  0  0  0  0  0  0  0  0
  150.5914  142.4738  156.9135 H   0  0  0  0  0  0  0  0  0  0  0  0
  150.7250  144.7973  156.5782 H   0  0  0  0  0  0  0  0  0  0  0  0
  1  2  2  0  0  0  0
  2  3  1  0  0  0  0
  2  4  1  0  0  0  0
  4  9  1  0  0  0  0
  4  5  1  0  0  0  0
  4 16  1  0  0  0  0
  5  6  1  0  0  0  0
  5 17  1  0  0  0  0
  5 18  1  0  0  0  0
  6  7  1  0  0  0  0
  6  8  1  0  0  0  0
  6 19  1  0  0  0  0
  7 20  1  0  0  0  0
  8  9  1  0  0  0  0
  8 21  1  0  0  0  0
  8 22  1  0  0  0  0
  9 10  1  0  0  0  0
 10 15  1  0  0  0  0
 10 11  2  0  0  0  0
 11 12  1  0  0  0  0
 11 23  1  0  0  0  0
 12 13  2  0  0  0  0
 12 24  1  0  0  0  0
 13 14  1  0  0  0  0
 13 26  1  0  0  0  0
 14 15  2  0  0  0  0
 14 25  1  0  0  0  0
M  CHG  1   3  -1
M  CHG  1  13   1
M  END
> <s_m_source_file>
AV-unprocessed.smi

> <i_m_source_file_index>
51

> <i_lp_mmshare_version>
43012

> <i_f3d_flags>
0

> <s_epik_input>
Tz1DKFtPSF0pW0NAQEhdMVtDSDJdW0NAQEhdKFtPSF0pW0NIMl1OMWMyW2NIXVtjSF1uW2NIXW4y

> <s_epik_cmdline>
J2VwaWtfcHl0aG9uJywgJy1waCcsICc3LjAnLCAnLXRuJywgJzgnLCAnLW1hJywgJzIwMCcsICctbWV0YWxfYmluZGluZycsICctaW1hZScsICc8aW5maWxlLm1hZT4nLCAnLW9tYWUnLCAnPG91dGZpbGUubWFlPic=

> <r_lp_tautomer_probability>
0.999336

> <r_epik_Ionization_Penalty>
0.688427

> <r_epik_Ionization_Penalty_Charging>
0.688427

> <r_epik_Ionization_Penalty_Neutral>
1.98379e-07

> <r_epik_State_Penalty>
0.709817

> <r_epik_Charging_Adjusted_Penalty>
1.39824

> <i_epik_Tot_Q>
0

> <i_epik_Tot_abs_Q>
2

> <r_epik_Metal_State_Penalty>
0.873261

> <b_epik_Metal_Only>
0

> <s_lp_Force_Field>
OPLS_2005

> <r_lp_Energy>
13.2296

> <b_lp_Chiralities_Consistent>
1

> <s_lp_Variant>
AV-unprocessed.smi:51-5

> <Gold.Version>
5.8.1

> <Gold.Id.Protein>
6NUR|6NUR_protein|mol2

> <Gold.PLP.Fitness>
45.2894

> <Gold.PLP.PLP>
-34.2913

> <Gold.PLP.part.hbond>
-3.0000

> <Gold.PLP.part.metal>
0.0000

> <Gold.PLP.part.buried>
-3.7853

> <Gold.PLP.part.nonpolar>
-28.0698

> <Gold.PLP.part.repulsive>
0.0347

> <Gold.PLP.ligand.clash>
0.0000

> <Gold.PLP.ligand.torsion>
0.5577

> <Gold.PLP.Chemscore.Hbond>
4.0000

> <Gold.PLP.Chemscore.CHOScore>
0.0000

> <Gold.PLP.Chemscore.Metal>
0.0000

> <Gold.Chemscore.Hbonds>
donor molecule, donor type, donor heavy atom, donor atom, acceptor molecule, acceptor atom, score
      L1  H    13    26       P1  8028  2.00
      P1  H  7997  8009       L1     1  0.60

> <Gold.PLP.Chemscore.Internal.Correction>
0.1136

> <Gold.Rescore>
     Score         DG    S(hbond)    S(metal)    S(lipo)     H(rot)  DE(clash)    DE(int)     intcor
     12.33     -13.75       1.80        0.00      56.51       1.70       1.31       0.11       ----

> <Gold.Chemscore.Fitness>
12.3256

> <Gold.Chemscore.DG>
-13.7519

> <Gold.Chemscore.ZeroCoef>
-5.4800

> <Gold.Chemscore.Hbond>
1.8016

> <Gold.Chemscore.Metal>
0.0000

> <Gold.Chemscore.Lipo>
56.5094

> <Gold.Chemscore.Internal_Hbond>
0.0000

> <Gold.Chemscore.DEClash>
1.3148

> <Gold.Chemscore.DEInternal>
0.1115

> <Gold.Chemscore.Rot>
1.7020

> <Gold.Chemscore.Internal.Correction>
   9.000000E+99

> <Gold.Chemscore.Hbonds>
donor molecule, donor type, donor heavy atom, donor atom, acceptor molecule, acceptor atom, score
      L1  H    13    26       P1  8028  0.83

> <Gold.Chemscore.Hbond.Weighted>
-6.0174

> <Gold.Chemscore.Metal.Weighted>
-0.0000

> <Gold.Chemscore.Lipo.Weighted>
-6.6116

> <Gold.Chemscore.Internal_Hbond.Weighted>
0.0000

> <Gold.Chemscore.DEClash.Weighted>
1.3148

> <Gold.Chemscore.DEInternal.Weighted>
0.1115

> <Gold.Chemscore.Rot.Weighted>
4.3571

> <Gold.Chemscore.Internal.Correction.Weighted>
   9.000000E+99

> <Gold.Protein.RotatedTorsions>
[ 6907 6896 6895 6894 ] final  -75.13 input  -60.11 | X-H torsion
[ 7974 7965 7964 7962 ] final  -98.71 input  175.53 | X-H torsion
[ 8008 7997 7996 7995 ] final  170.76 input   59.86 | X-H torsion
[ 10167 10162 10161 10158 ] final  -17.88 input  -65.29 | X-H torsion
[ 10718 10713 10712 10709 ] final  -89.56 input   66.30 | X-H torsion
[ 10763 10752 10751 10750 ] final -165.17 input  -60.55 | X-H torsion
[ 11005 11000 10999 10996 ] final  146.72 input  -57.11 | X-H torsion

> <Gold.Protein.ActiveResidues>
 VAL166  LYS551  ARG553  GLY616  TRP617  ASP618  TYR619  PRO620  LYS621  CYS622 
 ASP623  PHE694  ASN695  SER759  ASP760  ASP761  ALA762  ILE779  LEU786  VAL792 
 PHE793  MET794  SER795  GLU796  ALA797  LYS798  CYS799  TRP800  GLU811  SER814 

> <Gold.Protein.RotatedAtoms>
  150.7069  134.4766  159.5450 H   0  0  0  0  0  0  0  0  0  0  0  0  # atno 6907 bound_to 6896
  152.2412  134.8224  160.0469 H   0  0  0  0  0  0  0  0  0  0  0  0  # atno 6908 bound_to 6896
  151.9005  133.3502  159.3866 H   0  0  0  0  0  0  0  0  0  0  0  0  # atno 6909 bound_to 6896
  145.3170  140.9413  143.2737 H   0  0  0  0  0  0  0  0  0  0  0  0  # atno 7974 bound_to 7965
  156.1335  140.1529  156.9029 H   0  0  0  0  0  0  0  0  0  0  0  0  # atno 8008 bound_to 7997
  154.4928  140.0846  156.7672 H   0  0  0  0  0  0  0  0  0  0  0  0  # atno 8009 bound_to 7997
  155.4211  140.3423  155.4274 H   0  0  0  0  0  0  0  0  0  0  0  0  # atno 8010 bound_to 7997
  140.7252  143.4972  150.9916 H   0  0  0  0  0  0  0  0  0  0  0  0  # atno 10167 bound_to 10162
  155.9985  130.4877  150.5190 H   0  0  0  0  0  0  0  0  0  0  0  0  # atno 10718 bound_to 10713
  154.6958  135.2979  154.9413 H   0  0  0  0  0  0  0  0  0  0  0  0  # atno 10763 bound_to 10752
  154.0361  135.6663  153.4789 H   0  0  0  0  0  0  0  0  0  0  0  0  # atno 10764 bound_to 10752
  153.0645  135.5096  154.8075 H   0  0  0  0  0  0  0  0  0  0  0  0  # atno 10765 bound_to 10752
  140.0816  134.9093  157.1510 H   0  0  0  0  0  0  0  0  0  0  0  0  # atno 11005 bound_to 11000
  144.8969  139.4700  143.6651 LP  0  0  0  0  0  0  0  0  0  0  0  0  # atno 17320 bound_to 7965
  146.3096  139.7701  142.9029 LP  0  0  0  0  0  0  0  0  0  0  0  0  # atno 17321 bound_to 7965
  139.8679  143.7230  152.3168 LP  0  0  0  0  0  0  0  0  0  0  0  0  # atno 17342 bound_to 10162
  139.7468  144.7545  151.0567 LP  0  0  0  0  0  0  0  0  0  0  0  0  # atno 17343 bound_to 10162
  157.3154  131.0671  151.1971 LP  0  0  0  0  0  0  0  0  0  0  0  0  # atno 17370 bound_to 10713
  157.2903  130.6793  149.6110 LP  0  0  0  0  0  0  0  0  0  0  0  0  # atno 17371 bound_to 10713
  140.3479  134.2631  155.7202 LP  0  0  0  0  0  0  0  0  0  0  0  0  # atno 17394 bound_to 11000
  141.2049  133.7875  157.0264 LP  0  0  0  0  0  0  0  0  0  0  0  0  # atno 17395 bound_to 11000

$$$$
