AV-unprocessed.smi:1579|AV-procd|sdf|6357|dock7
  -GOLD-   22720 6583D 1   1.00000     0.00000
 Structure written by MMmdl.
 47 48  0  0  0  0  0  0  0  0  2 V2000
  150.8926  144.5987  158.1727 C   0  0  0  0  0  0  0  0  0  0  0  0
  151.3550  143.1677  158.1097 C   0  0  0  0  0  0  0  0  0  0  0  0
  150.9444  142.4684  157.1028 N   0  0  0  0  0  0  0  0  0  0  0  0
  151.3128  141.1472  156.9477 N   0  0  0  0  0  0  0  0  0  0  0  0
  150.7602  140.5115  155.7457 C   0  0  0  0  0  0  0  0  0  0  0  0
  149.6067  141.3344  155.1303 C   0  0  1  0  0  0  0  0  0  0  0  0
  149.5982  141.1093  153.7340 O   0  0  0  0  0  0  0  0  0  0  0  0
  148.2374  140.8839  155.6793 C   0  0  0  0  0  0  0  0  0  0  0  0
  147.2048  141.9483  155.5893 N   0  3  2  0  0  0  0  0  0  0  0  0
  146.3172  142.0101  156.7814 C   0  0  0  0  0  0  0  0  0  0  0  0
  145.3548  143.2083  156.6965 C   0  0  0  0  0  0  0  0  0  0  0  0
  144.5198  143.1949  155.4032 C   0  0  2  0  0  0  0  0  0  0  0  0
  143.4118  142.1272  155.4204 C   0  0  0  0  0  0  0  0  0  0  0  0
  145.4587  143.0600  154.1909 C   0  0  0  0  0  0  0  0  0  0  0  0
  146.4220  141.8670  154.3293 C   0  0  0  0  0  0  0  0  0  0  0  0
  152.1142  140.4573  157.8089 C   0  0  0  0  0  0  0  0  0  0  0  0
  152.4062  139.2728  157.6350 O   0  0  0  0  0  0  0  0  0  0  0  0
  152.5764  141.2548  158.9470 C   0  0  0  0  0  0  0  0  0  0  0  0
  153.4219  140.5718  159.8722 C   0  0  0  0  0  0  0  0  0  0  0  0
  154.1081  140.0021  160.6101 N   0  0  0  0  0  0  0  0  0  0  0  0
  152.2227  142.5543  159.1102 C   0  0  0  0  0  0  0  0  0  0  0  0
  152.6740  143.4258  160.2743 C   0  0  0  0  0  0  0  0  0  0  0  0
  151.7428  145.2800  158.2098 H   0  0  0  0  0  0  0  0  0  0  0  0
  150.2826  144.7689  159.0602 H   0  0  0  0  0  0  0  0  0  0  0  0
  150.2917  144.8711  157.3038 H   0  0  0  0  0  0  0  0  0  0  0  0
  151.5403  140.3271  155.0037 H   0  0  0  0  0  0  0  0  0  0  0  0
  150.4006  139.5177  156.0195 H   0  0  0  0  0  0  0  0  0  0  0  0
  149.7607  142.3959  155.3196 H   0  0  0  0  0  0  0  0  0  0  0  0
  148.9467  140.4521  153.5394 H   0  0  0  0  0  0  0  0  0  0  0  0
  147.9148  140.0036  155.1206 H   0  0  0  0  0  0  0  0  0  0  0  0
  148.3266  140.5648  156.7191 H   0  0  0  0  0  0  0  0  0  0  0  0
  145.7578  141.0780  156.8713 H   0  0  0  0  0  0  0  0  0  0  0  0
  146.9086  142.1033  157.6913 H   0  0  0  0  0  0  0  0  0  0  0  0
  144.7007  143.2266  157.5689 H   0  0  0  0  0  0  0  0  0  0  0  0
  145.9359  144.1308  156.7365 H   0  0  0  0  0  0  0  0  0  0  0  0
  144.0164  144.1596  155.3254 H   0  0  0  0  0  0  0  0  0  0  0  0
  143.8128  141.1167  155.4960 H   0  0  0  0  0  0  0  0  0  0  0  0
  142.8105  142.1747  154.5122 H   0  0  0  0  0  0  0  0  0  0  0  0
  142.7386  142.2775  156.2647 H   0  0  0  0  0  0  0  0  0  0  0  0
  144.8792  142.9693  153.2715 H   0  0  0  0  0  0  0  0  0  0  0  0
  146.0435  143.9755  154.0891 H   0  0  0  0  0  0  0  0  0  0  0  0
  147.1015  141.8627  153.4761 H   0  0  0  0  0  0  0  0  0  0  0  0
  145.8738  140.9244  154.2981 H   0  0  0  0  0  0  0  0  0  0  0  0
  153.2734  142.8723  160.9965 H   0  0  0  0  0  0  0  0  0  0  0  0
  151.8138  143.8309  160.8077 H   0  0  0  0  0  0  0  0  0  0  0  0
  153.2792  144.2584  159.9146 H   0  0  0  0  0  0  0  0  0  0  0  0
  147.7088  142.8231  155.5489 H   0  0  0  0  0  0  0  0  0  0  0  0
  1  2  1  0  0  0  0
  1 23  1  0  0  0  0
  1 24  1  0  0  0  0
  1 25  1  0  0  0  0
  2 21  1  0  0  0  0
  2  3  2  0  0  0  0
  3  4  1  0  0  0  0
  4  5  1  0  0  0  0
  4 16  1  0  0  0  0
  5  6  1  0  0  0  0
  5 26  1  0  0  0  0
  5 27  1  0  0  0  0
  6  7  1  0  0  0  0
  6  8  1  0  0  0  0
  6 28  1  0  0  0  0
  7 29  1  0  0  0  0
  8  9  1  0  0  0  0
  8 30  1  0  0  0  0
  8 31  1  0  0  0  0
  9 15  1  0  0  0  0
  9 10  1  0  0  0  0
  9 47  1  0  0  0  0
 10 11  1  0  0  0  0
 10 32  1  0  0  0  0
 10 33  1  0  0  0  0
 11 12  1  0  0  0  0
 11 34  1  0  0  0  0
 11 35  1  0  0  0  0
 12 13  1  0  0  0  0
 12 14  1  0  0  0  0
 12 36  1  0  0  0  0
 13 37  1  0  0  0  0
 13 38  1  0  0  0  0
 13 39  1  0  0  0  0
 14 15  1  0  0  0  0
 14 40  1  0  0  0  0
 14 41  1  0  0  0  0
 15 42  1  0  0  0  0
 15 43  1  0  0  0  0
 16 17  2  0  0  0  0
 16 18  1  0  0  0  0
 18 19  1  0  0  0  0
 18 21  2  0  0  0  0
 19 20  3  0  0  0  0
 21 22  1  0  0  0  0
 22 44  1  0  0  0  0
 22 45  1  0  0  0  0
 22 46  1  0  0  0  0
M  CHG  1   9   1
M  END
> <s_m_source_file>
AV-unprocessed.smi

> <i_m_source_file_index>
1579

> <i_lp_mmshare_version>
43012

> <i_f3d_flags>
0

> <s_epik_input>
TiNDYyhjMVtDSDNdKWMoPU8pbihuYzFbQ0gzXSlbQ0gyXVtDQEhdKFtPSF0pW0NIMl1OMltDSDJdW0NIMl1bQ0hdKFtDSDNdKVtDSDJdW0NIMl0y

> <s_epik_cmdline>
J2VwaWtfcHl0aG9uJywgJy1waCcsICc3LjAnLCAnLXRuJywgJzgnLCAnLW1hJywgJzIwMCcsICctbWV0YWxfYmluZGluZycsICctaW1hZScsICc8aW5maWxlLm1hZT4nLCAnLW9tYWUnLCAnPG91dGZpbGUubWFlPic=

> <r_epik_Ionization_Penalty>
0.00136816

> <r_epik_Ionization_Penalty_Charging>
0.00136813

> <r_epik_Ionization_Penalty_Neutral>
3.19884e-08

> <r_epik_State_Penalty>
0.000910892

> <r_epik_Charging_Adjusted_Penalty>
0.00227902

> <i_epik_Tot_Q>
1

> <i_epik_Tot_abs_Q>
1

> <r_epik_Metal_State_Penalty>
-0

> <b_epik_Metal_Only>
0

> <s_lp_Force_Field>
OPLS_2005

> <r_lp_Energy>
39.3397

> <b_lp_Chiralities_Consistent>
1

> <s_lp_Variant>
AV-unprocessed.smi:1579-4

> <Gold.Version>
5.8.1

> <Gold.Id.Protein>
6NUR|6NUR_protein|mol2

> <Gold.PLP.Fitness>
50.5903

> <Gold.PLP.PLP>
-43.6177

> <Gold.PLP.part.hbond>
-4.0000

> <Gold.PLP.part.metal>
0.0000

> <Gold.PLP.part.buried>
-5.7009

> <Gold.PLP.part.nonpolar>
-33.8581

> <Gold.PLP.part.repulsive>
0.1617

> <Gold.PLP.ligand.clash>
0.0000

> <Gold.PLP.ligand.torsion>
1.3514

> <Gold.PLP.Chemscore.Hbond>
3.2176

> <Gold.PLP.Chemscore.CHOScore>
0.0000

> <Gold.PLP.Chemscore.Metal>
0.0000

> <Gold.Chemscore.Hbonds>
donor molecule, donor type, donor heavy atom, donor atom, acceptor molecule, acceptor atom, score
      L1  H     9    47       P1  8028  1.11
      P1  H  7989  7998       L1     7  0.27
      P1  H  8011  8017       L1     7  0.93

> <Gold.PLP.Chemscore.Internal.Correction>
0.0225

> <Gold.Rescore>
     Score         DG    S(hbond)    S(metal)    S(lipo)     H(rot)  DE(clash)    DE(int)     intcor
     15.73     -17.33       1.70        0.00     100.20       2.17       0.18       1.42       ----

> <Gold.Chemscore.Fitness>
15.7309

> <Gold.Chemscore.DG>
-17.3301

> <Gold.Chemscore.ZeroCoef>
-5.4800

> <Gold.Chemscore.Hbond>
1.7023

> <Gold.Chemscore.Metal>
0.0000

> <Gold.Chemscore.Lipo>
100.2024

> <Gold.Chemscore.Internal_Hbond>
0.0000

> <Gold.Chemscore.DEClash>
0.1774

> <Gold.Chemscore.DEInternal>
1.4219

> <Gold.Chemscore.Rot>
2.1715

> <Gold.Chemscore.Internal.Correction>
   9.000000E+99

> <Gold.Chemscore.Hbonds>
donor molecule, donor type, donor heavy atom, donor atom, acceptor molecule, acceptor atom, score
      L1  H     9    47       P1  8028  0.34
      P1  H  7989  7998       L1     7  0.05
      P1  H  8011  8017       L1     7  0.77

> <Gold.Chemscore.Hbond.Weighted>
-5.6855

> <Gold.Chemscore.Metal.Weighted>
-0.0000

> <Gold.Chemscore.Lipo.Weighted>
-11.7237

> <Gold.Chemscore.Internal_Hbond.Weighted>
0.0000

> <Gold.Chemscore.DEClash.Weighted>
0.1774

> <Gold.Chemscore.DEInternal.Weighted>
1.4219

> <Gold.Chemscore.Rot.Weighted>
5.5591

> <Gold.Chemscore.Internal.Correction.Weighted>
   9.000000E+99

> <Gold.Protein.RotatedTorsions>
[ 6907 6896 6895 6894 ] final -171.64 input  -60.11 | X-H torsion
[ 7974 7965 7964 7962 ] final  -10.47 input  175.53 | X-H torsion
[ 8008 7997 7996 7995 ] final   75.87 input   59.86 | X-H torsion
[ 10167 10162 10161 10158 ] final   77.69 input  -65.29 | X-H torsion
[ 10718 10713 10712 10709 ] final -164.73 input   66.30 | X-H torsion
[ 10763 10752 10751 10750 ] final -165.30 input  -60.55 | X-H torsion
[ 11005 11000 10999 10996 ] final  -19.84 input  -57.11 | X-H torsion

> <Gold.Protein.ActiveResidues>
 VAL166  LYS551  ARG553  GLY616  TRP617  ASP618  TYR619  PRO620  LYS621  CYS622 
 ASP623  PHE694  ASN695  SER759  ASP760  ASP761  ALA762  ILE779  LEU786  VAL792 
 PHE793  MET794  SER795  GLU796  ALA797  LYS798  CYS799  TRP800  GLU811  SER814 

> <Gold.Protein.RotatedAtoms>
  151.5271  133.3456  159.2911 H   0  0  0  0  0  0  0  0  0  0  0  0  # atno 6907 bound_to 6896
  150.8616  134.7972  159.7098 H   0  0  0  0  0  0  0  0  0  0  0  0  # atno 6908 bound_to 6896
  152.4634  134.5141  159.9814 H   0  0  0  0  0  0  0  0  0  0  0  0  # atno 6909 bound_to 6896
  146.2219  140.2769  142.8360 H   0  0  0  0  0  0  0  0  0  0  0  0  # atno 7974 bound_to 7965
  155.8191  140.3470  155.5503 H   0  0  0  0  0  0  0  0  0  0  0  0  # atno 8008 bound_to 7997
  155.8361  140.0934  157.1783 H   0  0  0  0  0  0  0  0  0  0  0  0  # atno 8009 bound_to 7997
  154.4004  140.1403  156.3659 H   0  0  0  0  0  0  0  0  0  0  0  0  # atno 8010 bound_to 7997
  139.9789  144.5841  150.7919 H   0  0  0  0  0  0  0  0  0  0  0  0  # atno 10167 bound_to 10162
  156.6432  130.8977  151.3000 H   0  0  0  0  0  0  0  0  0  0  0  0  # atno 10718 bound_to 10713
  154.6945  135.2977  154.9431 H   0  0  0  0  0  0  0  0  0  0  0  0  # atno 10763 bound_to 10752
  154.0383  135.6661  153.4791 H   0  0  0  0  0  0  0  0  0  0  0  0  # atno 10764 bound_to 10752
  153.0636  135.5101  154.8056 H   0  0  0  0  0  0  0  0  0  0  0  0  # atno 10765 bound_to 10752
  140.8406  133.7929  155.9857 H   0  0  0  0  0  0  0  0  0  0  0  0  # atno 11005 bound_to 11000
  144.9226  140.7885  143.5739 LP  0  0  0  0  0  0  0  0  0  0  0  0  # atno 17320 bound_to 7965
  145.2706  139.1956  143.4843 LP  0  0  0  0  0  0  0  0  0  0  0  0  # atno 17321 bound_to 7965
  140.7496  143.2941  151.3250 LP  0  0  0  0  0  0  0  0  0  0  0  0  # atno 17342 bound_to 10162
  139.6425  144.0513  152.2565 LP  0  0  0  0  0  0  0  0  0  0  0  0  # atno 17343 bound_to 10162
  157.7164  130.9503  150.1273 LP  0  0  0  0  0  0  0  0  0  0  0  0  # atno 17370 bound_to 10713
  156.2143  130.3669  149.8633 LP  0  0  0  0  0  0  0  0  0  0  0  0  # atno 17371 bound_to 10713
  140.8899  134.2508  157.5100 LP  0  0  0  0  0  0  0  0  0  0  0  0  # atno 17394 bound_to 11000
  139.8703  134.9656  156.4535 LP  0  0  0  0  0  0  0  0  0  0  0  0  # atno 17395 bound_to 11000

$$$$
