AV-unprocessed.smi:2248|AV-procd|sdf|9096|dock2
  -GOLD-   2272012293D 1   1.00000     0.00000
 Structure written by MMmdl.
 35 36  0  0  0  0  0  0  0  0  1 V2000
  153.4293  141.3547  160.7867 C   0  0  0  0  0  0  0  0  0  0  0  0
  152.5963  142.5022  160.2550 C   0  0  0  0  0  0  0  0  0  0  0  0
  152.5297  143.7282  160.9452 C   0  0  0  0  0  0  0  0  0  0  0  0
  151.7353  144.7530  160.4005 C   0  0  0  0  0  0  0  0  0  0  0  0
  151.0438  144.5107  159.1977 C   0  0  0  0  0  0  0  0  0  0  0  0
  151.1621  143.2502  158.5695 C   0  0  0  0  0  0  0  0  0  0  0  0
  150.4233  143.1052  157.3650 N   0  0  0  0  0  0  0  0  0  0  0  0
  150.3194  142.0183  156.5799 C   0  0  0  0  0  0  0  0  0  0  0  0
  150.8770  140.9384  156.7790 O   0  0  0  0  0  0  0  0  0  0  0  0
  149.5180  142.2515  155.5305 N   0  0  0  0  0  0  0  0  0  0  0  0
  149.1949  141.2743  154.4966 C   0  0  2  0  0  0  0  0  0  0  0  0
  147.9959  141.7184  153.7051 C   0  0  0  0  0  0  0  0  0  0  0  0
  146.9968  140.8401  153.7482 C   0  0  0  0  0  0  0  0  0  0  0  0
  147.3091  139.6364  154.5982 C   0  0  1  0  0  0  0  0  0  0  0  0
  147.1396  138.3219  153.8185 C   0  0  0  0  0  0  0  0  0  0  0  0
  147.7917  138.4071  152.5691 O   0  0  0  0  0  0  0  0  0  0  0  0
  148.7610  139.9025  155.0770 C   0  0  0  0  0  0  0  0  0  0  0  0
  151.9322  142.2691  159.1025 N   0  0  0  0  0  0  0  0  0  0  0  0
  150.0368  141.1575  153.8122 H   0  0  0  0  0  0  0  0  0  0  0  0
  146.6269  139.6508  155.4493 H   0  0  0  0  0  0  0  0  0  0  0  0
  154.1786  141.7099  161.4946 H   0  0  0  0  0  0  0  0  0  0  0  0
  153.9474  140.8442  159.9739 H   0  0  0  0  0  0  0  0  0  0  0  0
  152.7919  140.6315  161.2957 H   0  0  0  0  0  0  0  0  0  0  0  0
  153.0707  143.8813  161.8676 H   0  0  0  0  0  0  0  0  0  0  0  0
  151.6557  145.7088  160.8968 H   0  0  0  0  0  0  0  0  0  0  0  0
  150.4284  145.2869  158.7668 H   0  0  0  0  0  0  0  0  0  0  0  0
  149.9072  143.9214  157.0718 H   0  0  0  0  0  0  0  0  0  0  0  0
  149.0981  143.1652  155.4416 H   0  0  0  0  0  0  0  0  0  0  0  0
  147.9803  142.6500  153.1588 H   0  0  0  0  0  0  0  0  0  0  0  0
  146.0462  140.9590  153.2494 H   0  0  0  0  0  0  0  0  0  0  0  0
  147.5722  137.4902  154.3756 H   0  0  0  0  0  0  0  0  0  0  0  0
  146.0847  138.0925  153.6618 H   0  0  0  0  0  0  0  0  0  0  0  0
  148.2338  137.5882  152.4039 H   0  0  0  0  0  0  0  0  0  0  0  0
  149.4420  139.1247  154.7292 H   0  0  0  0  0  0  0  0  0  0  0  0
  148.8065  139.8871  156.1670 H   0  0  0  0  0  0  0  0  0  0  0  0
  1  2  1  0  0  0  0
  1 21  1  0  0  0  0
  1 22  1  0  0  0  0
  1 23  1  0  0  0  0
  2 18  1  0  0  0  0
  2  3  2  0  0  0  0
  3  4  1  0  0  0  0
  3 24  1  0  0  0  0
  4  5  2  0  0  0  0
  4 25  1  0  0  0  0
  5  6  1  0  0  0  0
  5 26  1  0  0  0  0
  6  7  1  0  0  0  0
  6 18  2  0  0  0  0
  7  8  1  0  0  0  0
  7 27  1  0  0  0  0
  8  9  2  0  0  0  0
  8 10  1  0  0  0  0
 10 11  1  0  0  0  0
 10 28  1  0  0  0  0
 11 19  1  0  0  0  0
 11 17  1  0  0  0  0
 11 12  1  0  0  0  0
 12 13  2  0  0  0  0
 12 29  1  0  0  0  0
 13 14  1  0  0  0  0
 13 30  1  0  0  0  0
 14 20  1  0  0  0  0
 14 15  1  0  0  0  0
 14 17  1  0  0  0  0
 15 16  1  0  0  0  0
 15 31  1  0  0  0  0
 15 32  1  0  0  0  0
 16 33  1  0  0  0  0
 17 34  1  0  0  0  0
 17 35  1  0  0  0  0
M  END
> <s_m_source_file>
AV-unprocessed.smi

> <i_m_source_file_index>
2248

> <i_lp_mmshare_version>
43012

> <i_f3d_flags>
0

> <s_epik_input>
W0NIM11jMVtjSF1bY0hdW2NIXWMobjEpW05IXUMoPU8pW05IXVtDQEBIXTJbQ0hdPVtDSF1bQ0BASF0oW0NIMl0yKVtDSDJdW09IXQ==

> <s_epik_cmdline>
J2VwaWtfcHl0aG9uJywgJy1waCcsICc3LjAnLCAnLXRuJywgJzgnLCAnLW1hJywgJzIwMCcsICctbWV0YWxfYmluZGluZycsICctaW1hZScsICc8aW5maWxlLm1hZT4nLCAnLW9tYWUnLCAnPG91dGZpbGUubWFlPic=

> <r_lp_tautomer_probability>
1

> <r_epik_Ionization_Penalty>
8.36606e-05

> <r_epik_Ionization_Penalty_Charging>
0

> <r_epik_Ionization_Penalty_Neutral>
8.36606e-05

> <r_epik_State_Penalty>
-0

> <r_epik_Charging_Adjusted_Penalty>
0

> <i_epik_Tot_Q>
0

> <i_epik_Tot_abs_Q>
0

> <r_epik_Metal_State_Penalty>
-0

> <b_epik_Metal_Only>
0

> <s_lp_Force_Field>
OPLS_2005

> <r_lp_Energy>
17.6119

> <b_lp_Chiralities_Consistent>
1

> <s_lp_Variant>
AV-unprocessed.smi:2248-3

> <Gold.Version>
5.8.1

> <Gold.Id.Protein>
6NUR|6NUR_protein|mol2

> <Gold.PLP.Fitness>
46.8976

> <Gold.PLP.PLP>
-38.5381

> <Gold.PLP.part.hbond>
-4.0000

> <Gold.PLP.part.metal>
0.0000

> <Gold.PLP.part.buried>
-5.6429

> <Gold.PLP.part.nonpolar>
-29.3144

> <Gold.PLP.part.repulsive>
0.2094

> <Gold.PLP.ligand.clash>
0.0000

> <Gold.PLP.ligand.torsion>
0.2216

> <Gold.PLP.Chemscore.Hbond>
2.9280

> <Gold.PLP.Chemscore.CHOScore>
0.0000

> <Gold.PLP.Chemscore.Metal>
0.0000

> <Gold.Chemscore.Hbonds>
donor molecule, donor type, donor heavy atom, donor atom, acceptor molecule, acceptor atom, score
      L1  H     7    27       P1  8028  0.93
      L1  H    10    28       P1  8028  1.00
      L1  H    16    33       P1  7948  1.00

> <Gold.PLP.Chemscore.Internal.Correction>
0.0186

> <Gold.Rescore>
     Score         DG    S(hbond)    S(metal)    S(lipo)     H(rot)  DE(clash)    DE(int)     intcor
     18.31     -21.10       2.88        0.00      91.22       1.82       0.02       2.77       ----

> <Gold.Chemscore.Fitness>
18.3139

> <Gold.Chemscore.DG>
-21.1026

> <Gold.Chemscore.ZeroCoef>
-5.4800

> <Gold.Chemscore.Hbond>
2.8757

> <Gold.Chemscore.Metal>
0.0000

> <Gold.Chemscore.Lipo>
91.2217

> <Gold.Chemscore.Internal_Hbond>
0.0000

> <Gold.Chemscore.DEClash>
0.0195

> <Gold.Chemscore.DEInternal>
2.7692

> <Gold.Chemscore.Rot>
1.8184

> <Gold.Chemscore.Internal.Correction>
   9.000000E+99

> <Gold.Chemscore.Hbonds>
donor molecule, donor type, donor heavy atom, donor atom, acceptor molecule, acceptor atom, score
      L1  H     7    27       P1  8028  0.82
      L1  H    10    28       P1  8028  0.97
      L1  H    16    33       P1  7948  0.99

> <Gold.Chemscore.Hbond.Weighted>
-9.6047

> <Gold.Chemscore.Metal.Weighted>
-0.0000

> <Gold.Chemscore.Lipo.Weighted>
-10.6729

> <Gold.Chemscore.Internal_Hbond.Weighted>
0.0000

> <Gold.Chemscore.DEClash.Weighted>
0.0195

> <Gold.Chemscore.DEInternal.Weighted>
2.7692

> <Gold.Chemscore.Rot.Weighted>
4.6551

> <Gold.Chemscore.Internal.Correction.Weighted>
   9.000000E+99

> <Gold.Protein.RotatedTorsions>
[ 6907 6896 6895 6894 ] final  164.89 input  -60.11 | X-H torsion
[ 7974 7965 7964 7962 ] final  123.50 input  175.53 | X-H torsion
[ 8008 7997 7996 7995 ] final   99.23 input   59.86 | X-H torsion
[ 10167 10162 10161 10158 ] final  131.58 input  -65.29 | X-H torsion
[ 10718 10713 10712 10709 ] final   43.80 input   66.30 | X-H torsion
[ 10763 10752 10751 10750 ] final   -5.71 input  -60.55 | X-H torsion
[ 11005 11000 10999 10996 ] final  115.86 input  -57.11 | X-H torsion

> <Gold.Protein.ActiveResidues>
 VAL166  LYS551  ARG553  GLY616  TRP617  ASP618  TYR619  PRO620  LYS621  CYS622 
 ASP623  PHE694  ASN695  SER759  ASP760  ASP761  ALA762  ILE779  LEU786  VAL792 
 PHE793  MET794  SER795  GLU796  ALA797  LYS798  CYS799  TRP800  GLU811  SER814 

> <Gold.Protein.RotatedAtoms>
  151.9029  133.3542  159.3836 H   0  0  0  0  0  0  0  0  0  0  0  0  # atno 6907 bound_to 6896
  150.7076  134.4810  159.5479 H   0  0  0  0  0  0  0  0  0  0  0  0  # atno 6908 bound_to 6896
  152.2401  134.8237  160.0512 H   0  0  0  0  0  0  0  0  0  0  0  0  # atno 6909 bound_to 6896
  145.0953  139.3557  143.4840 H   0  0  0  0  0  0  0  0  0  0  0  0  # atno 7974 bound_to 7965
  156.1085  140.3232  155.8039 H   0  0  0  0  0  0  0  0  0  0  0  0  # atno 8008 bound_to 7997
  155.4715  140.0547  157.2996 H   0  0  0  0  0  0  0  0  0  0  0  0  # atno 8009 bound_to 7997
  154.4743  140.2025  155.9930 H   0  0  0  0  0  0  0  0  0  0  0  0  # atno 8010 bound_to 7997
  139.5377  144.6700  151.4729 H   0  0  0  0  0  0  0  0  0  0  0  0  # atno 10167 bound_to 10162
  157.4198  130.7963  149.7505 H   0  0  0  0  0  0  0  0  0  0  0  0  # atno 10718 bound_to 10713
  153.4023  135.7005  153.6417 H   0  0  0  0  0  0  0  0  0  0  0  0  # atno 10763 bound_to 10752
  153.4946  135.3665  155.2509 H   0  0  0  0  0  0  0  0  0  0  0  0  # atno 10764 bound_to 10752
  154.8711  135.4097  154.3360 H   0  0  0  0  0  0  0  0  0  0  0  0  # atno 10765 bound_to 10752
  139.9023  134.9590  156.7110 H   0  0  0  0  0  0  0  0  0  0  0  0  # atno 11005 bound_to 11000
  146.3531  140.0805  142.8618 LP  0  0  0  0  0  0  0  0  0  0  0  0  # atno 17320 bound_to 7965
  145.1019  140.9351  143.4708 LP  0  0  0  0  0  0  0  0  0  0  0  0  # atno 17321 bound_to 7965
  140.6592  143.8534  150.6869 LP  0  0  0  0  0  0  0  0  0  0  0  0  # atno 17342 bound_to 10162
  140.1923  143.4026  152.1854 LP  0  0  0  0  0  0  0  0  0  0  0  0  # atno 17343 bound_to 10162
  155.9877  130.3965  150.3153 LP  0  0  0  0  0  0  0  0  0  0  0  0  # atno 17370 bound_to 10713
  157.1300  131.0269  151.2973 LP  0  0  0  0  0  0  0  0  0  0  0  0  # atno 17371 bound_to 10713
  140.7076  133.9252  155.8063 LP  0  0  0  0  0  0  0  0  0  0  0  0  # atno 17394 bound_to 11000
  141.0325  134.0736  157.3998 LP  0  0  0  0  0  0  0  0  0  0  0  0  # atno 17395 bound_to 11000

$$$$
