#       Name:                AV-unprocessed.smi:1005
#       Creating user name   scv26
#       Creation time:       Fri Mar 27 02:28:12 2020


#       File generated by GOLD software.
#

@<TRIPOS>MOLECULE
AV-unprocessed.smi:1005
    62    64     1
SMALL
NO_CHARGES


@<TRIPOS>ATOM
      1 ****        -1.8123   2.1678   3.6057 C.3            1 S1                 0.0000
      2 ****        -1.5818   2.1332   2.1047 C.ar           1 S1                 0.0000
      3 ****        -0.6691   3.0459   1.5312 C.ar           1 S1                 0.0000
      4 ****        -0.4450   3.0681   0.1375 C.ar           1 S1                 0.0000
      5 ****         0.3900   3.8680  -0.6214 N.2            1 S1                 0.0000
      6 ****         0.1457   3.4222  -1.8494 C.2            1 S1                 0.0000
      7 ****        -0.7346   2.4099  -1.9758 N.pl3          1 S1                 0.0000
      8 ****        -1.1419   1.7682  -3.2162 C.3            1 S1                 0.0000
      9 ****        -0.8394   0.2554  -3.2492 C.3            1 S1                 0.0000
     10 ****        -1.1264  -0.2152  -4.5502 O.3            1 S1                 0.0000
     11 ****         0.6252  -0.0986  -2.8944 C.3            1 S1                 0.0000
     12 ****         0.8124  -1.5355  -2.5553 N.4            1 S1                 1.0000
     13 ****         2.2197  -1.9873  -2.6788 C.3            1 S1                 0.0000
     14 ****         3.0602  -1.5241  -1.4747 C.3            1 S1                 0.0000
     15 ****         2.4679  -1.9986  -0.2709 O.3            1 S1                 0.0000
     16 ****         1.1547  -1.4870  -0.0650 C.3            1 S1                 0.0000
     17 ****         0.6379  -2.0252   1.2817 C.3            1 S1                 0.0000
     18 ****         1.4437  -1.5505   2.4354 N.4            1 S1                 1.0000
     19 ****         1.1575  -0.1484   2.8151 C.3            1 S1                 0.0000
     20 ****         1.3362  -2.4572   3.5997 C.3            1 S1                 0.0000
     21 ****         0.2587  -1.9468  -1.2369 C.3            1 S1                 0.0000
     22 ****        -1.1643   2.1447  -0.6772 C.ar           1 S1                 0.0000
     23 ****        -2.0710   1.2270  -0.1156 C.ar           1 S1                 0.0000
     24 ****        -2.2786   1.2146   1.2797 C.ar           1 S1                 0.0000
     25 ****        -3.2556   0.2157   1.8736 C.3            1 S1                 0.0000
     26 ****        -1.0841   2.8080   4.1047 H              1 S1                 0.0000
     27 ****        -1.7316   1.1721   4.0409 H              1 S1                 0.0000
     28 ****        -2.8070   2.5578   3.8234 H              1 S1                 0.0000
     29 ****        -0.1390   3.7477   2.1587 H              1 S1                 0.0000
     30 ****         0.6438   3.8509  -2.7069 H              1 S1                 0.0000
     31 ****        -2.2088   1.9455  -3.3583 H              1 S1                 0.0000
     32 ****        -0.6308   2.2672  -4.0414 H              1 S1                 0.0000
     33 ****        -1.5339  -0.2366  -2.5735 H              1 S1                 0.0000
     34 ****        -1.0965  -1.1595  -4.5516 H              1 S1                 0.0000
     35 ****         1.2595   0.1705  -3.7406 H              1 S1                 0.0000
     36 ****         0.9873   0.5023  -2.0628 H              1 S1                 0.0000
     37 ****         2.2281  -3.0771  -2.7247 H              1 S1                 0.0000
     38 ****         2.6566  -1.6391  -3.6155 H              1 S1                 0.0000
     39 ****         4.0711  -1.9251  -1.5492 H              1 S1                 0.0000
     40 ****         3.1538  -0.4374  -1.4477 H              1 S1                 0.0000
     41 ****         1.1858  -0.3985  -0.0324 H              1 S1                 0.0000
     42 ****        -0.4068  -1.7469   1.4315 H              1 S1                 0.0000
     43 ****         0.6614  -3.1156   1.2449 H              1 S1                 0.0000
     44 ****         0.1260  -0.0464   3.1510 H              1 S1                 0.0000
     45 ****         1.3173   0.5389   1.9854 H              1 S1                 0.0000
     46 ****         1.8100   0.1690   3.6289 H              1 S1                 0.0000
     47 ****         0.3095  -2.5035   3.9657 H              1 S1                 0.0000
     48 ****         1.9750  -2.1170   4.4155 H              1 S1                 0.0000
     49 ****         1.6517  -3.4670   3.3352 H              1 S1                 0.0000
     50 ****        -0.7587  -1.5861  -1.0976 H              1 S1                 0.0000
     51 ****         0.1900  -3.0356  -1.2312 H              1 S1                 0.0000
     52 ****        -2.6127   0.5424  -0.7503 H              1 S1                 0.0000
     53 ****        -3.7727  -0.3467   1.0956 H              1 S1                 0.0000
     54 ****        -4.0101   0.7249   2.4738 H              1 S1                 0.0000
     55 ****        -2.7293  -0.4969   2.5091 H              1 S1                 0.0000
     56 ****         2.4109  -1.5860   2.1452 H              1 S1                 0.0000
     57 ****         0.2965  -2.0430  -3.2604 H              1 S1                 0.0000
     58 ****         1.0133   4.5913  -0.3243 LP             1 S1                 0.0000
     59 ****        -0.4484   0.1421  -5.1925 LP             1 S1                 0.0000
     60 ****        -2.0383   0.0912  -4.8234 LP             1 S1                 0.0000
     61 ****         3.0431  -1.7224   0.4991 LP             1 S1                 0.0000
     62 ****         2.4198  -2.9967  -0.3099 LP             1 S1                 0.0000
@<TRIPOS>BOND
    1    1    2 1     
    2    1   26 1     
    3    1   27 1     
    4    1   28 1     
    5    2   24 ar    
    6    2    3 ar    
    7    3    4 ar    
    8    3   29 1     
    9    4   22 ar    
   10    4    5 1     
   11    5    6 2     
   12    6    7 1     
   13    6   30 1     
   14    7    8 1     
   15    7   22 1     
   16    8    9 1     
   17    8   31 1     
   18    8   32 1     
   19    9   10 1     
   20    9   11 1     
   21    9   33 1     
   22   10   34 1     
   23   11   12 1     
   24   11   35 1     
   25   11   36 1     
   26   12   21 1     
   27   12   13 1     
   28   12   57 1     
   29   13   14 1     
   30   13   37 1     
   31   13   38 1     
   32   14   15 1     
   33   14   39 1     
   34   14   40 1     
   35   15   16 1     
   36   16   17 1     
   37   16   21 1     
   38   16   41 1     
   39   17   18 1     
   40   17   42 1     
   41   17   43 1     
   42   18   19 1     
   43   18   20 1     
   44   18   56 1     
   45   19   44 1     
   46   19   45 1     
   47   19   46 1     
   48   20   47 1     
   49   20   48 1     
   50   20   49 1     
   51   21   50 1     
   52   21   51 1     
   53   22   23 ar    
   54   23   24 ar    
   55   23   52 1     
   56   24   25 1     
   57   25   53 1     
   58   25   54 1     
   59   25   55 1     
   60    5   58 1     
   61   10   59 1     
   62   10   60 1     
   63   15   61 1     
   64   15   62 1     
@<TRIPOS>SUBSTRUCTURE
      1 S1             1
@<TRIPOS>SET
LONE_PAIRS      STATIC     ATOMS    <user>   **** ""
5 58 59 60 61 62
DONOR_HYDROGENS      STATIC     ATOMS    <user>   **** ""
3 34 57 56
ATOM$BLUE        STATIC     ATOMS    COLORGROUP SYSTEM
5 58 59 60 61 62
ATOM$RED        STATIC     ATOMS    COLORGROUP SYSTEM
3 34 57 56
