#       Name:                AV-unprocessed.smi:157
#       Creating user name   scv26
#       Creation time:       Thu Mar 26 19:00:25 2020


#       File generated by GOLD software.
#

@<TRIPOS>MOLECULE
AV-unprocessed.smi:157
    45    47     1
SMALL
NO_CHARGES


@<TRIPOS>ATOM
      1 ****        -4.3042   3.3060  -1.5366 O.3            1 S1                 0.0000
      2 ****        -3.9862   1.9918  -1.1308 C.3            1 S1                 0.0000
      3 ****        -2.4845   1.8807  -0.8136 C.3            1 S1                 0.0000
      4 ****        -2.1169   0.5312  -0.5381 O.3            1 S1                 0.0000
      5 ****        -1.0900   0.4909   0.4091 C.3            1 S1                 0.0000
      6 ****         0.0719  -0.2398  -0.1814 N.pl3          1 S1                 0.0000
      7 ****         0.4807  -0.1837  -1.4665 C.2            1 S1                 0.0000
      8 ****         1.5426  -0.9248  -1.7334 N.pl3          1 S1                 1.0000
      9 ****         1.8978  -1.5388  -0.5509 C.2            1 S1                 0.0000
     10 ****         0.9807  -1.0914   0.4038 C.2            1 S1                 0.0000
     11 ****         0.8893  -1.3893   1.7722 N.2            1 S1                 0.0000
     12 ****         1.8503  -1.9412   2.4391 C.2            1 S1                 0.0000
     13 ****         3.0673  -2.4205   1.9840 N.pl3          1 S1                 0.0000
     14 ****         3.2015  -3.2527   0.8017 C.3            1 S1                 0.0000
     15 ****         3.0632  -2.4777  -0.5152 C.3            1 S1                 0.0000
     16 ****         4.2893  -1.8321  -0.7906 O.3            1 S1                 0.0000
     17 ****        -0.6995   1.9352   0.7338 C.3            1 S1                 0.0000
     18 ****        -1.9674   2.6869   0.3872 C.3            1 S1                 0.0000
     19 ****        -2.8699   2.6755   1.4771 O.3            1 S1                 0.0000
     20 ****        -1.9130   2.1771  -1.6952 H              1 S1                 0.0000
     21 ****        -1.4039  -0.0879   1.2784 H              1 S1                 0.0000
     22 ****         2.9232  -3.2073  -1.3136 H              1 S1                 0.0000
     23 ****        -1.7635   3.7242   0.1194 H              1 S1                 0.0000
     24 ****        -5.2259   3.3418  -1.7430 H              1 S1                 0.0000
     25 ****        -4.5997   1.7105  -0.2747 H              1 S1                 0.0000
     26 ****        -4.2452   1.3114  -1.9424 H              1 S1                 0.0000
     27 ****        -0.0201   0.4141  -2.2069 H              1 S1                 0.0000
     28 ****         1.7343  -2.0787   3.5151 H              1 S1                 0.0000
     29 ****         3.7916  -2.6189   2.6598 H              1 S1                 0.0000
     30 ****         4.1501  -3.7898   0.8375 H              1 S1                 0.0000
     31 ****         2.4209  -4.0137   0.8478 H              1 S1                 0.0000
     32 ****         4.2625  -1.4913  -1.6713 H              1 S1                 0.0000
     33 ****        -0.3783   2.0392   1.7710 H              1 S1                 0.0000
     34 ****         0.1127   2.2561   0.0793 H              1 S1                 0.0000
     35 ****        -3.6566   3.1317   1.2190 H              1 S1                 0.0000
     36 ****         1.9963  -1.0232  -2.6328 H              1 S1                 0.0000
     37 ****        -3.7679   3.5483  -2.3450 LP             1 S1                 0.0000
     38 ****        -4.0993   3.9464  -0.7964 LP             1 S1                 0.0000
     39 ****        -1.8042   0.0957  -1.3822 LP             1 S1                 0.0000
     40 ****        -2.9119   0.0387  -0.1837 LP             1 S1                 0.0000
     41 ****         0.0422  -1.1646   2.2538 LP             1 S1                 0.0000
     42 ****         5.0403  -2.4869  -0.7062 LP             1 S1                 0.0000
     43 ****         4.4269  -1.0819  -0.1438 LP             1 S1                 0.0000
     44 ****        -2.4559   3.1348   2.2630 LP             1 S1                 0.0000
     45 ****        -3.0920   1.7316   1.7216 LP             1 S1                 0.0000
@<TRIPOS>BOND
    1    1    2 1     
    2    1   24 1     
    3    2    3 1     
    4    2   25 1     
    5    2   26 1     
    6    3   20 1     
    7    3   18 1     
    8    3    4 1     
    9    4    5 1     
   10    5   21 1     
   11    5    6 1     
   12    5   17 1     
   13    6   10 1     
   14    6    7 1     
   15    7    8 2     
   16    7   27 1     
   17    8    9 1     
   18    8   36 1     
   19    9   15 1     
   20    9   10 2     
   21   10   11 1     
   22   11   12 2     
   23   12   13 1     
   24   12   28 1     
   25   13   14 1     
   26   13   29 1     
   27   14   15 1     
   28   14   30 1     
   29   14   31 1     
   30   15   22 1     
   31   15   16 1     
   32   16   32 1     
   33   17   18 1     
   34   17   33 1     
   35   17   34 1     
   36   18   23 1     
   37   18   19 1     
   38   19   35 1     
   39    1   37 1     
   40    1   38 1     
   41    4   39 1     
   42    4   40 1     
   43   11   41 1     
   44   16   42 1     
   45   16   43 1     
   46   19   44 1     
   47   19   45 1     
@<TRIPOS>SUBSTRUCTURE
      1 S1             1
@<TRIPOS>SET
LONE_PAIRS      STATIC     ATOMS    <user>   **** ""
9 37 38 39 40 41 42 43 44 45
DONOR_HYDROGENS      STATIC     ATOMS    <user>   **** ""
5 24 36 29 32 35
ATOM$BLUE        STATIC     ATOMS    COLORGROUP SYSTEM
9 37 38 39 40 41 42 43 44 45
ATOM$RED        STATIC     ATOMS    COLORGROUP SYSTEM
5 24 36 29 32 35
