AV-unprocessed.smi:104|AV-procd|sdf|993|dock1
  -GOLD-   2262017573D 1   1.00000     0.00000
 Structure written by MMmdl.
 47 49  0  0  0  0  0  0  0  0  1 V2000
  152.7876  138.1894  154.6718 C   0  0  0  0  0  0  0  0  0  0  0  0
  152.1000  138.5010  155.9952 C   0  0  0  0  0  0  0  0  0  0  0  0
  152.5699  139.3212  156.7837 O   0  0  0  0  0  0  0  0  0  0  0  0
  150.9732  137.7937  156.1716 O   0  0  0  0  0  0  0  0  0  0  0  0
  150.1099  138.1103  157.2511 C   0  0  0  0  0  0  0  0  0  0  0  0
  149.3381  136.8498  157.6744 C   0  0  2  0  0  0  0  0  0  0  0  0
  148.6334  136.3116  156.5617 O   0  0  0  0  0  0  0  0  0  0  0  0
  147.4218  136.9803  156.4235 C   0  0  1  0  0  0  0  0  0  0  0  0
  146.4183  136.0415  155.8263 N   0  0  0  0  0  0  0  0  0  0  0  0
  145.9677  134.8109  156.2585 C   0  0  0  0  0  0  0  0  0  0  0  0
  146.5855  133.9749  157.8547 Br  0  0  0  0  0  0  0  0  0  0  0  0
  145.0620  134.2223  155.5278 N   0  0  0  0  0  0  0  0  0  0  0  0
  144.8594  135.1304  154.4967 C   0  0  0  0  0  0  0  0  0  0  0  0
  144.0201  135.1548  153.3544 C   0  0  0  0  0  0  0  0  0  0  0  0
  143.1748  134.1616  153.0466 N   0  0  0  0  0  0  0  0  0  0  0  0
  144.0721  136.2322  152.5365 N   0  0  0  0  0  0  0  0  0  0  0  0
  144.9052  137.2380  152.8226 C   0  0  0  0  0  0  0  0  0  0  0  0
  145.7496  137.3578  153.8510 N   0  0  0  0  0  0  0  0  0  0  0  0
  145.6976  136.2690  154.6733 C   0  0  0  0  0  0  0  0  0  0  0  0
  147.0140  137.5001  157.8158 C   0  0  1  0  0  0  0  0  0  0  0  0
  145.7919  136.9304  158.2822 O   0  0  0  0  0  0  0  0  0  0  0  0
  145.2108  137.3934  159.4000 C   0  0  0  0  0  0  0  0  0  0  0  0
  143.9687  136.5983  159.7783 C   0  0  0  0  0  0  0  0  0  0  0  0
  145.6030  138.3402  160.0818 O   0  0  0  0  0  0  0  0  0  0  0  0
  148.2259  137.1557  158.6865 C   0  0  1  0  0  0  0  0  0  0  0  0
  147.9808  136.0012  159.4848 O   0  0  0  0  0  0  0  0  0  0  0  0
  147.6241  136.1217  160.7744 C   0  0  0  0  0  0  0  0  0  0  0  0
  147.4761  134.7707  161.4609 C   0  0  0  0  0  0  0  0  0  0  0  0
  147.4344  137.1767  161.3796 O   0  0  0  0  0  0  0  0  0  0  0  0
  152.1231  137.6354  154.0081 H   0  0  0  0  0  0  0  0  0  0  0  0
  153.6819  137.5907  154.8449 H   0  0  0  0  0  0  0  0  0  0  0  0
  153.0813  139.1127  154.1720 H   0  0  0  0  0  0  0  0  0  0  0  0
  150.7146  138.4688  158.0853 H   0  0  0  0  0  0  0  0  0  0  0  0
  149.4264  138.9148  156.9763 H   0  0  0  0  0  0  0  0  0  0  0  0
  150.0423  136.1149  158.0670 H   0  0  0  0  0  0  0  0  0  0  0  0
  147.5319  137.7843  155.6949 H   0  0  0  0  0  0  0  0  0  0  0  0
  143.1167  133.3482  153.6425 H   0  0  0  0  0  0  0  0  0  0  0  0
  142.5983  134.2281  152.2203 H   0  0  0  0  0  0  0  0  0  0  0  0
  144.8943  138.0651  152.1281 H   0  0  0  0  0  0  0  0  0  0  0  0
  146.9162  138.5830  157.7241 H   0  0  0  0  0  0  0  0  0  0  0  0
  143.3481  136.4192  158.8998 H   0  0  0  0  0  0  0  0  0  0  0  0
  143.3761  137.1413  160.5149 H   0  0  0  0  0  0  0  0  0  0  0  0
  144.2535  135.6360  160.2037 H   0  0  0  0  0  0  0  0  0  0  0  0
  148.4804  138.0024  159.3261 H   0  0  0  0  0  0  0  0  0  0  0  0
  146.8288  134.1166  160.8763 H   0  0  0  0  0  0  0  0  0  0  0  0
  147.0412  134.8904  162.4533 H   0  0  0  0  0  0  0  0  0  0  0  0
  148.4499  134.2922  161.5646 H   0  0  0  0  0  0  0  0  0  0  0  0
  1  2  1  0  0  0  0
  1 30  1  0  0  0  0
  1 31  1  0  0  0  0
  1 32  1  0  0  0  0
  2  3  2  0  0  0  0
  2  4  1  0  0  0  0
  4  5  1  0  0  0  0
  5  6  1  0  0  0  0
  5 33  1  0  0  0  0
  5 34  1  0  0  0  0
  6 25  1  0  0  0  0
  6  7  1  0  0  0  0
  6 35  1  0  0  0  0
  7  8  1  0  0  0  0
  8  9  1  0  0  0  0
  8 20  1  0  0  0  0
  8 36  1  0  0  0  0
  9 19  1  0  0  0  0
  9 10  1  0  0  0  0
 10 11  1  0  0  0  0
 10 12  2  0  0  0  0
 12 13  1  0  0  0  0
 13 19  2  0  0  0  0
 13 14  1  0  0  0  0
 14 15  1  0  0  0  0
 14 16  2  0  0  0  0
 15 37  1  0  0  0  0
 15 38  1  0  0  0  0
 16 17  1  0  0  0  0
 17 18  2  0  0  0  0
 17 39  1  0  0  0  0
 18 19  1  0  0  0  0
 20 21  1  0  0  0  0
 20 25  1  0  0  0  0
 20 40  1  0  0  0  0
 21 22  1  0  0  0  0
 22 23  1  0  0  0  0
 22 24  2  0  0  0  0
 23 41  1  0  0  0  0
 23 42  1  0  0  0  0
 23 43  1  0  0  0  0
 25 26  1  0  0  0  0
 25 44  1  0  0  0  0
 26 27  1  0  0  0  0
 27 28  1  0  0  0  0
 27 29  2  0  0  0  0
 28 45  1  0  0  0  0
 28 46  1  0  0  0  0
 28 47  1  0  0  0  0
M  END
> <s_m_source_file>
AV-unprocessed.smi

> <i_m_source_file_index>
104

> <i_lp_mmshare_version>
43012

> <i_f3d_flags>
0

> <s_epik_input>
W0NIM11DKD1PKU9bQ0gyXVtDQEBIXTFPW0NASF0oW0NAQEhdKE9DKD1PKVtDSDNdKVtDQEhdMU9DKD1PKVtDSDNdKW4oYyhCciluMiljKGMyMyluW2NIXW5jM1tOSDJd

> <s_epik_cmdline>
J2VwaWtfcHl0aG9uJywgJy1waCcsICc3LjAnLCAnLXRuJywgJzgnLCAnLW1hJywgJzIwMCcsICctbWV0YWxfYmluZGluZycsICctaW1hZScsICc8aW5maWxlLm1hZT4nLCAnLW9tYWUnLCAnPG91dGZpbGUubWFlPic=

> <r_lp_tautomer_probability>
1

> <r_epik_Ionization_Penalty>
7.36622e-05

> <r_epik_Ionization_Penalty_Charging>
0

> <r_epik_Ionization_Penalty_Neutral>
7.36622e-05

> <r_epik_State_Penalty>
-0

> <r_epik_Charging_Adjusted_Penalty>
0

> <i_epik_Tot_Q>
0

> <i_epik_Tot_abs_Q>
0

> <r_epik_Metal_State_Penalty>
-0

> <b_epik_Metal_Only>
0

> <s_epik_Chemistry_Notes>
This compound has an ester and may undergo hydrolysis at high or low pH. This compound contains an acetal/aminal-like group ( X-CH(R)-Y where X, Y are N, S, or O) that may be acid/base labile, releasing an aldehyde.

> <s_lp_Force_Field>
OPLS_2005

> <r_lp_Energy>
20.5627

> <b_lp_Chiralities_Consistent>
1

> <s_lp_Variant>
AV-unprocessed.smi:104-1

> <Gold.Version>
5.8.1

> <Gold.Id.Protein>
6NUR|6NUR_protein|mol2

> <Gold.PLP.Fitness>
38.1002

> <Gold.PLP.PLP>
-22.4144

> <Gold.PLP.part.hbond>
-5.0000

> <Gold.PLP.part.metal>
0.0000

> <Gold.PLP.part.buried>
-5.2875

> <Gold.PLP.part.nonpolar>
-13.0015

> <Gold.PLP.part.repulsive>
0.3472

> <Gold.PLP.ligand.clash>
0.0000

> <Gold.PLP.ligand.torsion>
0.8633

> <Gold.PLP.Chemscore.Hbond>
3.8153

> <Gold.PLP.Chemscore.CHOScore>
1.8723

> <Gold.PLP.Chemscore.Metal>
0.0000

> <Gold.Chemscore.Hbonds>
donor molecule, donor type, donor heavy atom, donor atom, acceptor molecule, acceptor atom, score
      L1  H    15    37       P1 10957  1.00
      P1  H  6931  6943       L1    29  0.91
      P1  H  6934  6947       L1    29  0.93
      P1  H  7997  8009       L1     3  1.00
      L1  C    17    39       P1 10171  0.87
      L1  C    17    39       P1 10175  0.56

> <Gold.PLP.Chemscore.Internal.Correction>
0.3498

> <Gold.Rescore>
     Score         DG    S(hbond)    S(metal)    S(lipo)     H(rot)  DE(clash)    DE(int)     intcor
      6.39     -10.03       3.69        0.00      27.75       4.31       0.01       3.63       ----

> <Gold.Chemscore.Fitness>
6.3933

> <Gold.Chemscore.DG>
-10.0310

> <Gold.Chemscore.ZeroCoef>
-5.4800

> <Gold.Chemscore.Hbond>
3.6918

> <Gold.Chemscore.Metal>
0.0000

> <Gold.Chemscore.Lipo>
27.7468

> <Gold.Chemscore.Internal_Hbond>
0.0000

> <Gold.Chemscore.DEClash>
0.0073

> <Gold.Chemscore.DEInternal>
3.6304

> <Gold.Chemscore.Rot>
4.3070

> <Gold.Chemscore.Internal.Correction>
   9.000000E+99

> <Gold.Chemscore.Hbonds>
donor molecule, donor type, donor heavy atom, donor atom, acceptor molecule, acceptor atom, score
      L1  H    15    37       P1 10957  0.96
      P1  H  6931  6943       L1    29  0.83
      P1  H  6934  6947       L1    29  0.89
      P1  H  7997  8009       L1     3  0.98

> <Gold.Chemscore.Hbond.Weighted>
-12.3305

> <Gold.Chemscore.Metal.Weighted>
-0.0000

> <Gold.Chemscore.Lipo.Weighted>
-3.2464

> <Gold.Chemscore.Internal_Hbond.Weighted>
0.0000

> <Gold.Chemscore.DEClash.Weighted>
0.0073

> <Gold.Chemscore.DEInternal.Weighted>
3.6304

> <Gold.Chemscore.Rot.Weighted>
11.0259

> <Gold.Chemscore.Internal.Correction.Weighted>
   9.000000E+99

> <Gold.Protein.RotatedTorsions>
[ 6907 6896 6895 6894 ] final  118.89 input  -60.11 | X-H torsion
[ 7974 7965 7964 7962 ] final  -52.23 input  175.53 | X-H torsion
[ 8008 7997 7996 7995 ] final -172.99 input   59.86 | X-H torsion
[ 10167 10162 10161 10158 ] final  -41.80 input  -65.29 | X-H torsion
[ 10718 10713 10712 10709 ] final   21.63 input   66.30 | X-H torsion
[ 10763 10752 10751 10750 ] final -166.26 input  -60.55 | X-H torsion
[ 11005 11000 10999 10996 ] final  -28.99 input  -57.11 | X-H torsion

> <Gold.Protein.ActiveResidues>
 VAL166  LYS551  ARG553  GLY616  TRP617  ASP618  TYR619  PRO620  LYS621  CYS622 
 ASP623  PHE694  ASN695  SER759  ASP760  ASP761  ALA762  ILE779  LEU786  VAL792 
 PHE793  MET794  SER795  GLU796  ALA797  LYS798  CYS799  TRP800  GLU811  SER814 

> <Gold.Protein.RotatedAtoms>
  152.4511  133.7630  159.6756 H   0  0  0  0  0  0  0  0  0  0  0  0  # atno 6907 bound_to 6896
  150.8423  133.7906  159.3062 H   0  0  0  0  0  0  0  0  0  0  0  0  # atno 6908 bound_to 6896
  151.5528  135.1070  160.0005 H   0  0  0  0  0  0  0  0  0  0  0  0  # atno 6909 bound_to 6896
  145.9103  140.7921  142.9698 H   0  0  0  0  0  0  0  0  0  0  0  0  # atno 7974 bound_to 7965
  155.9517  140.1127  157.0971 H   0  0  0  0  0  0  0  0  0  0  0  0  # atno 8008 bound_to 7997
  154.4111  140.1199  156.5128 H   0  0  0  0  0  0  0  0  0  0  0  0  # atno 8009 bound_to 7997
  155.6833  140.3473  155.4866 H   0  0  0  0  0  0  0  0  0  0  0  0  # atno 8010 bound_to 7997
  140.6990  143.3074  151.3118 H   0  0  0  0  0  0  0  0  0  0  0  0  # atno 10167 bound_to 10162
  157.1412  130.6633  149.5981 H   0  0  0  0  0  0  0  0  0  0  0  0  # atno 10718 bound_to 10713
  154.6850  135.2961  154.9559 H   0  0  0  0  0  0  0  0  0  0  0  0  # atno 10763 bound_to 10752
  154.0541  135.6640  153.4808 H   0  0  0  0  0  0  0  0  0  0  0  0  # atno 10764 bound_to 10752
  153.0573  135.5137  154.7913 H   0  0  0  0  0  0  0  0  0  0  0  0  # atno 10765 bound_to 10752
  140.9257  133.7370  156.0864 H   0  0  0  0  0  0  0  0  0  0  0  0  # atno 11005 bound_to 11000
  144.6743  140.1815  143.7405 LP  0  0  0  0  0  0  0  0  0  0  0  0  # atno 17320 bound_to 7965
  145.8680  139.2257  143.1678 LP  0  0  0  0  0  0  0  0  0  0  0  0  # atno 17321 bound_to 7965
  139.6484  144.0408  152.2608 LP  0  0  0  0  0  0  0  0  0  0  0  0  # atno 17342 bound_to 10162
  139.9936  144.6344  150.7792 LP  0  0  0  0  0  0  0  0  0  0  0  0  # atno 17343 bound_to 10162
  155.9788  130.4777  150.6679 LP  0  0  0  0  0  0  0  0  0  0  0  0  # atno 17370 bound_to 10713
  157.4305  131.0848  151.1043 LP  0  0  0  0  0  0  0  0  0  0  0  0  # atno 17371 bound_to 10713
  140.7929  134.3597  157.5460 LP  0  0  0  0  0  0  0  0  0  0  0  0  # atno 17394 bound_to 11000
  139.8785  134.9151  156.3123 LP  0  0  0  0  0  0  0  0  0  0  0  0  # atno 17395 bound_to 11000

$$$$
