AV-unprocessed.smi:2397|AV-procd|sdf|9494|dock5
  -GOLD-   2272013123D 1   1.00000     0.00000
 Structure written by MMmdl.
 36 37  0  0  0  0  0  0  0  0  1 V2000
  152.1749  143.2286  160.4473 C   0  0  0  0  0  0  0  0  0  0  0  0
  152.3953  143.2432  158.9265 C   0  0  0  0  0  0  0  0  0  0  0  0
  152.4230  144.6627  158.3381 C   0  0  0  0  0  0  0  0  0  0  0  0
  151.4027  142.3460  158.1988 C   0  0  0  0  0  0  0  0  0  0  0  0
  150.1268  142.7431  158.1789 N   0  0  0  0  0  0  0  0  0  0  0  0
  149.2485  141.9422  157.5394 C   0  0  0  0  0  0  0  0  0  0  0  0
  149.6504  140.7399  156.9240 C   0  0  0  0  0  0  0  0  0  0  0  0
  151.0218  140.4106  157.0070 C   0  0  0  0  0  0  0  0  0  0  0  0
  151.5000  139.2242  156.4099 N   0  0  0  0  0  0  0  0  0  0  0  0
  152.1253  138.3663  157.4156 C   0  0  0  0  0  0  0  0  0  0  0  0
  152.7836  137.1433  156.7641 C   0  0  0  0  0  0  0  0  0  0  0  0
  151.8070  136.4435  156.0079 O   0  0  0  0  0  0  0  0  0  0  0  0
  151.3095  137.2400  154.9406 C   0  0  0  0  0  0  0  0  0  0  0  0
  150.6056  138.5099  155.4775 C   0  0  2  0  0  0  0  0  0  0  0  0
  150.1044  139.3119  154.2565 C   0  0  0  0  0  0  0  0  0  0  0  0
  149.5012  138.6530  153.2612 N   0  0  0  0  0  0  0  0  0  0  0  0
  150.2743  140.5285  154.2117 O   0  0  0  0  0  0  0  0  0  0  0  0
  151.8908  141.2324  157.6433 N   0  0  0  0  0  0  0  0  0  0  0  0
  152.2323  142.2137  160.8417 H   0  0  0  0  0  0  0  0  0  0  0  0
  151.1980  143.6347  160.7117 H   0  0  0  0  0  0  0  0  0  0  0  0
  152.9308  143.8249  160.9588 H   0  0  0  0  0  0  0  0  0  0  0  0
  153.3897  142.8255  158.7591 H   0  0  0  0  0  0  0  0  0  0  0  0
  152.6539  144.6404  157.2728 H   0  0  0  0  0  0  0  0  0  0  0  0
  153.1802  145.2754  158.8279 H   0  0  0  0  0  0  0  0  0  0  0  0
  151.4621  145.1640  158.4597 H   0  0  0  0  0  0  0  0  0  0  0  0
  148.2169  142.2607  157.5202 H   0  0  0  0  0  0  0  0  0  0  0  0
  148.9392  140.1025  156.4197 H   0  0  0  0  0  0  0  0  0  0  0  0
  152.8807  138.9140  157.9803 H   0  0  0  0  0  0  0  0  0  0  0  0
  151.3686  138.0400  158.1315 H   0  0  0  0  0  0  0  0  0  0  0  0
  153.6211  137.4372  156.1290 H   0  0  0  0  0  0  0  0  0  0  0  0
  153.1822  136.4780  157.5301 H   0  0  0  0  0  0  0  0  0  0  0  0
  152.1290  137.4972  154.2664 H   0  0  0  0  0  0  0  0  0  0  0  0
  150.6107  136.6318  154.3646 H   0  0  0  0  0  0  0  0  0  0  0  0
  149.7280  138.1852  156.0397 H   0  0  0  0  0  0  0  0  0  0  0  0
  149.1636  139.1598  152.4558 H   0  0  0  0  0  0  0  0  0  0  0  0
  149.3833  137.6520  153.3212 H   0  0  0  0  0  0  0  0  0  0  0  0
  1  2  1  0  0  0  0
  1 19  1  0  0  0  0
  1 20  1  0  0  0  0
  1 21  1  0  0  0  0
  2  3  1  0  0  0  0
  2  4  1  0  0  0  0
  2 22  1  0  0  0  0
  3 23  1  0  0  0  0
  3 24  1  0  0  0  0
  3 25  1  0  0  0  0
  4 18  1  0  0  0  0
  4  5  2  0  0  0  0
  5  6  1  0  0  0  0
  6  7  2  0  0  0  0
  6 26  1  0  0  0  0
  7  8  1  0  0  0  0
  7 27  1  0  0  0  0
  8  9  1  0  0  0  0
  8 18  2  0  0  0  0
  9 14  1  0  0  0  0
  9 10  1  0  0  0  0
 10 11  1  0  0  0  0
 10 28  1  0  0  0  0
 10 29  1  0  0  0  0
 11 12  1  0  0  0  0
 11 30  1  0  0  0  0
 11 31  1  0  0  0  0
 12 13  1  0  0  0  0
 13 14  1  0  0  0  0
 13 32  1  0  0  0  0
 13 33  1  0  0  0  0
 14 15  1  0  0  0  0
 14 34  1  0  0  0  0
 15 16  1  0  0  0  0
 15 17  2  0  0  0  0
 16 35  1  0  0  0  0
 16 36  1  0  0  0  0
M  END
> <s_m_source_file>
AV-unprocessed.smi

> <i_m_source_file_index>
2397

> <i_lp_mmshare_version>
43012

> <i_f3d_flags>
0

> <s_epik_input>
W0NIM11bQ0hdKFtDSDNdKWMxbltjSF1bY0hdYyhuMSlOMltDSDJdW0NIMl1PW0NIMl1bQ0BIXTJDKD1PKVtOSDJd

> <s_epik_cmdline>
J2VwaWtfcHl0aG9uJywgJy1waCcsICc3LjAnLCAnLXRuJywgJzgnLCAnLW1hJywgJzIwMCcsICctbWV0YWxfYmluZGluZycsICctaW1hZScsICc8aW5maWxlLm1hZT4nLCAnLW9tYWUnLCAnPG91dGZpbGUubWFlPic=

> <r_lp_tautomer_probability>
1

> <r_epik_Ionization_Penalty>
0.0323151

> <r_epik_Ionization_Penalty_Charging>
0

> <r_epik_Ionization_Penalty_Neutral>
0.0323151

> <r_epik_State_Penalty>
0.0267324

> <r_epik_Charging_Adjusted_Penalty>
0.0267324

> <i_epik_Tot_Q>
0

> <i_epik_Tot_abs_Q>
0

> <r_epik_Metal_State_Penalty>
0.0253461

> <b_epik_Metal_Only>
0

> <s_lp_Force_Field>
OPLS_2005

> <r_lp_Energy>
6.15108

> <b_lp_Chiralities_Consistent>
1

> <s_lp_Variant>
AV-unprocessed.smi:2397-2

> <Gold.Version>
5.8.1

> <Gold.Id.Protein>
6NUR|6NUR_protein|mol2

> <Gold.PLP.Fitness>
38.9710

> <Gold.PLP.PLP>
-31.0702

> <Gold.PLP.part.hbond>
-3.6925

> <Gold.PLP.part.metal>
0.0000

> <Gold.PLP.part.buried>
-2.4822

> <Gold.PLP.part.nonpolar>
-24.1002

> <Gold.PLP.part.repulsive>
0.3908

> <Gold.PLP.ligand.clash>
0.0000

> <Gold.PLP.ligand.torsion>
0.5667

> <Gold.PLP.Chemscore.Hbond>
2.9219

> <Gold.PLP.Chemscore.CHOScore>
0.0000

> <Gold.PLP.Chemscore.Metal>
0.0000

> <Gold.Chemscore.Hbonds>
donor molecule, donor type, donor heavy atom, donor atom, acceptor molecule, acceptor atom, score
      L1  H    16    35       P1  7957  0.90
      L1  H    16    36       P1  7948  0.57
      P1  H  7989  7998       L1    17  0.85
      P1  H 10752 10764       L1    12  0.52

> <Gold.PLP.Chemscore.Internal.Correction>
0.2685

> <Gold.Rescore>
     Score         DG    S(hbond)    S(metal)    S(lipo)     H(rot)  DE(clash)    DE(int)     intcor
     12.58     -16.67       2.42        0.00      64.82       1.74       0.08       4.01       ----

> <Gold.Chemscore.Fitness>
12.5781

> <Gold.Chemscore.DG>
-16.6732

> <Gold.Chemscore.ZeroCoef>
-5.4800

> <Gold.Chemscore.Hbond>
2.4164

> <Gold.Chemscore.Metal>
0.0000

> <Gold.Chemscore.Lipo>
64.8171

> <Gold.Chemscore.Internal_Hbond>
0.0000

> <Gold.Chemscore.DEClash>
0.0826

> <Gold.Chemscore.DEInternal>
4.0125

> <Gold.Chemscore.Rot>
1.7426

> <Gold.Chemscore.Internal.Correction>
   9.000000E+99

> <Gold.Chemscore.Hbonds>
donor molecule, donor type, donor heavy atom, donor atom, acceptor molecule, acceptor atom, score
      L1  H    16    35       P1  7957  0.87
      L1  H    16    36       P1  7948  0.53
      P1  H  7989  7998       L1    17  0.64
      P1  H 10752 10764       L1    12  0.01

> <Gold.Chemscore.Hbond.Weighted>
-8.0706

> <Gold.Chemscore.Metal.Weighted>
-0.0000

> <Gold.Chemscore.Lipo.Weighted>
-7.5836

> <Gold.Chemscore.Internal_Hbond.Weighted>
0.0000

> <Gold.Chemscore.DEClash.Weighted>
0.0826

> <Gold.Chemscore.DEInternal.Weighted>
4.0125

> <Gold.Chemscore.Rot.Weighted>
4.4610

> <Gold.Chemscore.Internal.Correction.Weighted>
   9.000000E+99

> <Gold.Protein.RotatedTorsions>
[ 6907 6896 6895 6894 ] final  -94.42 input  -60.11 | X-H torsion
[ 7974 7965 7964 7962 ] final  159.33 input  175.53 | X-H torsion
[ 8008 7997 7996 7995 ] final   -4.05 input   59.86 | X-H torsion
[ 10167 10162 10161 10158 ] final  -95.14 input  -65.29 | X-H torsion
[ 10718 10713 10712 10709 ] final -175.86 input   66.30 | X-H torsion
[ 10763 10752 10751 10750 ] final  -41.85 input  -60.55 | X-H torsion
[ 11005 11000 10999 10996 ] final  161.68 input  -57.11 | X-H torsion

> <Gold.Protein.ActiveResidues>
 VAL166  LYS551  ARG553  GLY616  TRP617  ASP618  TYR619  PRO620  LYS621  CYS622 
 ASP623  PHE694  ASN695  SER759  ASP760  ASP761  ALA762  ILE779  LEU786  VAL792 
 PHE793  MET794  SER795  GLU796  ALA797  LYS798  CYS799  TRP800  GLU811  SER814 

> <Gold.Protein.RotatedAtoms>
  150.6941  134.1815  159.4250 H   0  0  0  0  0  0  0  0  0  0  0  0  # atno 6907 bound_to 6896
  151.9789  135.0036  160.0566 H   0  0  0  0  0  0  0  0  0  0  0  0  # atno 6908 bound_to 6896
  152.1773  133.4648  159.4977 H   0  0  0  0  0  0  0  0  0  0  0  0  # atno 6909 bound_to 6896
  144.7796  139.7603  143.6265 H   0  0  0  0  0  0  0  0  0  0  0  0  # atno 7974 bound_to 7965
  154.6184  140.2494  155.7580 H   0  0  0  0  0  0  0  0  0  0  0  0  # atno 8008 bound_to 7997
  156.2412  140.2931  156.0400 H   0  0  0  0  0  0  0  0  0  0  0  0  # atno 8009 bound_to 7997
  155.1936  140.0392  157.2895 H   0  0  0  0  0  0  0  0  0  0  0  0  # atno 8010 bound_to 7997
  140.3072  143.3127  152.0187 H   0  0  0  0  0  0  0  0  0  0  0  0  # atno 10167 bound_to 10162
  156.8061  130.9569  151.3117 H   0  0  0  0  0  0  0  0  0  0  0  0  # atno 10718 bound_to 10713
  153.9694  135.6730  153.4747 H   0  0  0  0  0  0  0  0  0  0  0  0  # atno 10763 bound_to 10752
  153.0800  135.4928  154.8480 H   0  0  0  0  0  0  0  0  0  0  0  0  # atno 10764 bound_to 10752
  154.7228  135.3121  154.8981 H   0  0  0  0  0  0  0  0  0  0  0  0  # atno 10765 bound_to 10752
  140.2182  134.8216  157.3192 H   0  0  0  0  0  0  0  0  0  0  0  0  # atno 11005 bound_to 11000
  146.1996  139.5283  142.9752 LP  0  0  0  0  0  0  0  0  0  0  0  0  # atno 17320 bound_to 7965
  145.6088  141.0343  143.1978 LP  0  0  0  0  0  0  0  0  0  0  0  0  # atno 17321 bound_to 7965
  139.4902  144.6412  151.6873 LP  0  0  0  0  0  0  0  0  0  0  0  0  # atno 17342 bound_to 10162
  140.5600  144.0285  150.6165 LP  0  0  0  0  0  0  0  0  0  0  0  0  # atno 17343 bound_to 10162
  157.6529  130.8900  149.9670 LP  0  0  0  0  0  0  0  0  0  0  0  0  # atno 17370 bound_to 10713
  156.1072  130.3652  150.0112 LP  0  0  0  0  0  0  0  0  0  0  0  0  # atno 17371 bound_to 10713
  140.1878  134.4409  155.7733 LP  0  0  0  0  0  0  0  0  0  0  0  0  # atno 17394 bound_to 11000
  141.2224  133.7013  156.7976 LP  0  0  0  0  0  0  0  0  0  0  0  0  # atno 17395 bound_to 11000

$$$$
