AV-unprocessed.smi:3259|AV-procd|sdf|12472|dock2
  -GOLD-   2272018373D 1   1.00000     0.00000
 Structure written by MMmdl.
 39 40  0  0  0  0  0  0  0  0  1 V2000
  148.7943  140.5533  154.1164 C   0  0  0  0  0  0  0  0  0  0  0  0
  150.1395  140.7365  154.5383 O   0  0  0  0  0  0  0  0  0  0  0  0
  150.6055  139.8628  155.5681 C   0  0  1  0  0  0  0  0  0  0  0  0
  150.5163  138.4023  155.0985 C   0  0  0  0  0  0  0  0  0  0  0  0
  151.9336  140.3417  156.1819 C   0  0  0  0  0  0  0  0  0  0  0  0
  151.3244  140.0080  157.5420 C   0  0  1  0  0  0  0  0  0  0  0  0
  151.7134  140.9586  158.5760 N   0  0  0  0  0  0  0  0  0  0  0  0
  152.8883  140.9419  159.2230 C   0  0  0  0  0  0  0  0  0  0  0  0
  153.7980  140.1572  158.9560 O   0  0  0  0  0  0  0  0  0  0  0  0
  153.0578  141.9588  160.3529 C   0  0  0  0  0  0  0  0  0  0  0  0
  152.6461  143.2871  159.9311 N   0  0  0  0  0  0  0  0  0  0  0  0
  151.9821  144.2513  160.6613 C   0  0  0  0  0  0  0  0  0  0  0  0
  151.8278  145.3402  159.8525 C   0  0  0  0  0  0  0  0  0  0  0  0
  152.4363  144.9416  158.6296 C   0  0  0  0  0  0  0  0  0  0  0  0
  152.9253  143.7130  158.6795 N   0  0  0  0  0  0  0  0  0  0  0  0
  149.9283  140.2666  156.9183 C   0  0  0  0  0  0  0  0  0  0  0  0
  149.3858  141.7089  157.0029 C   0  0  0  0  0  0  0  0  0  0  0  0
  148.7965  139.3643  157.4195 C   0  0  0  0  0  0  0  0  0  0  0  0
  148.5965  141.2064  153.2667 H   0  0  0  0  0  0  0  0  0  0  0  0
  148.0831  140.8167  154.8988 H   0  0  0  0  0  0  0  0  0  0  0  0
  148.6018  139.5291  153.7965 H   0  0  0  0  0  0  0  0  0  0  0  0
  150.7378  137.7023  155.9039 H   0  0  0  0  0  0  0  0  0  0  0  0
  151.2282  138.1867  154.3025 H   0  0  0  0  0  0  0  0  0  0  0  0
  149.5196  138.1658  154.7256 H   0  0  0  0  0  0  0  0  0  0  0  0
  152.8036  139.7403  155.9167 H   0  0  0  0  0  0  0  0  0  0  0  0
  152.1256  141.4065  156.0370 H   0  0  0  0  0  0  0  0  0  0  0  0
  151.4864  138.9631  157.8161 H   0  0  0  0  0  0  0  0  0  0  0  0
  151.0234  141.6409  158.8550 H   0  0  0  0  0  0  0  0  0  0  0  0
  152.4718  141.6596  161.2233 H   0  0  0  0  0  0  0  0  0  0  0  0
  154.1026  141.9929  160.6642 H   0  0  0  0  0  0  0  0  0  0  0  0
  151.6820  144.0848  161.6855 H   0  0  0  0  0  0  0  0  0  0  0  0
  151.3532  146.2787  160.0976 H   0  0  0  0  0  0  0  0  0  0  0  0
  152.5373  145.5050  157.7137 H   0  0  0  0  0  0  0  0  0  0  0  0
  149.1069  141.9766  158.0227 H   0  0  0  0  0  0  0  0  0  0  0  0
  148.4977  141.8378  156.3834 H   0  0  0  0  0  0  0  0  0  0  0  0
  150.1159  142.4470  156.6701 H   0  0  0  0  0  0  0  0  0  0  0  0
  148.4360  139.6800  158.3989 H   0  0  0  0  0  0  0  0  0  0  0  0
  149.1164  138.3279  157.5253 H   0  0  0  0  0  0  0  0  0  0  0  0
  147.9463  139.3747  156.7369 H   0  0  0  0  0  0  0  0  0  0  0  0
  1  2  1  0  0  0  0
  1 19  1  0  0  0  0
  1 20  1  0  0  0  0
  1 21  1  0  0  0  0
  2  3  1  0  0  0  0
  3 16  1  0  0  0  0
  3  4  1  0  0  0  0
  3  5  1  0  0  0  0
  4 22  1  0  0  0  0
  4 23  1  0  0  0  0
  4 24  1  0  0  0  0
  5  6  1  0  0  0  0
  5 25  1  0  0  0  0
  5 26  1  0  0  0  0
  6  7  1  0  0  0  0
  6 16  1  0  0  0  0
  6 27  1  0  0  0  0
  7  8  1  0  0  0  0
  7 28  1  0  0  0  0
  8  9  2  0  0  0  0
  8 10  1  0  0  0  0
 10 11  1  0  0  0  0
 10 29  1  0  0  0  0
 10 30  1  0  0  0  0
 11 15  1  0  0  0  0
 11 12  1  0  0  0  0
 12 13  2  0  0  0  0
 12 31  1  0  0  0  0
 13 14  1  0  0  0  0
 13 32  1  0  0  0  0
 14 15  2  0  0  0  0
 14 33  1  0  0  0  0
 16 17  1  0  0  0  0
 16 18  1  0  0  0  0
 17 34  1  0  0  0  0
 17 35  1  0  0  0  0
 17 36  1  0  0  0  0
 18 37  1  0  0  0  0
 18 38  1  0  0  0  0
 18 39  1  0  0  0  0
M  END
> <s_m_source_file>
AV-unprocessed.smi

> <i_m_source_file_index>
3259

> <i_lp_mmshare_version>
43012

> <i_f3d_flags>
0

> <s_epik_input>
W0NIM11PW0NAQF0xKFtDSDNdKVtDSDJdW0NASF0oQzEoW0NIM10pW0NIM10pW05IXUMoPU8pW0NIMl1uMltjSF1bY0hdW2NIXW4y

> <s_epik_cmdline>
J2VwaWtfcHl0aG9uJywgJy1waCcsICc3LjAnLCAnLXRuJywgJzgnLCAnLW1hJywgJzIwMCcsICctbWV0YWxfYmluZGluZycsICctaW1hZScsICc8aW5maWxlLm1hZT4nLCAnLW9tYWUnLCAnPG91dGZpbGUubWFlPic=

> <r_lp_tautomer_probability>
1

> <r_epik_Ionization_Penalty>
1.78399e-05

> <r_epik_Ionization_Penalty_Charging>
0

> <r_epik_Ionization_Penalty_Neutral>
1.78399e-05

> <r_epik_State_Penalty>
-0

> <r_epik_Charging_Adjusted_Penalty>
0

> <i_epik_Tot_Q>
0

> <i_epik_Tot_abs_Q>
0

> <r_epik_Metal_State_Penalty>
-0

> <b_epik_Metal_Only>
0

> <s_lp_Force_Field>
OPLS_2005

> <r_lp_Energy>
22.2184

> <b_lp_Chiralities_Consistent>
1

> <s_lp_Variant>
AV-unprocessed.smi:3259-1

> <Gold.Version>
5.8.1

> <Gold.Id.Protein>
6NUR|6NUR_protein|mol2

> <Gold.PLP.Fitness>
44.2199

> <Gold.PLP.PLP>
-40.0395

> <Gold.PLP.part.hbond>
-2.0000

> <Gold.PLP.part.metal>
0.0000

> <Gold.PLP.part.buried>
-5.1046

> <Gold.PLP.part.nonpolar>
-32.9360

> <Gold.PLP.part.repulsive>
0.2382

> <Gold.PLP.ligand.clash>
0.0000

> <Gold.PLP.ligand.torsion>
0.6681

> <Gold.PLP.Chemscore.Hbond>
1.7120

> <Gold.PLP.Chemscore.CHOScore>
0.0000

> <Gold.PLP.Chemscore.Metal>
0.0000

> <Gold.Chemscore.Hbonds>
donor molecule, donor type, donor heavy atom, donor atom, acceptor molecule, acceptor atom, score
      P1  H  7989  7998       L1     2  0.78
      P1  H  7997  8008       L1     9  0.94

> <Gold.PLP.Chemscore.Internal.Correction>
0.3806

> <Gold.Rescore>
     Score         DG    S(hbond)    S(metal)    S(lipo)     H(rot)  DE(clash)    DE(int)     intcor
     16.89     -17.95       1.81        0.00      89.94       1.60       0.47       0.59       ----

> <Gold.Chemscore.Fitness>
16.8920

> <Gold.Chemscore.DG>
-17.9548

> <Gold.Chemscore.ZeroCoef>
-5.4800

> <Gold.Chemscore.Hbond>
1.8079

> <Gold.Chemscore.Metal>
0.0000

> <Gold.Chemscore.Lipo>
89.9365

> <Gold.Chemscore.Internal_Hbond>
0.0000

> <Gold.Chemscore.DEClash>
0.4683

> <Gold.Chemscore.DEInternal>
0.5945

> <Gold.Chemscore.Rot>
1.5962

> <Gold.Chemscore.Internal.Correction>
   9.000000E+99

> <Gold.Chemscore.Hbonds>
donor molecule, donor type, donor heavy atom, donor atom, acceptor molecule, acceptor atom, score
      P1  H  7989  7998       L1     2  0.27
      P1  H  7997  8008       L1     9  0.87

> <Gold.Chemscore.Hbond.Weighted>
-6.0385

> <Gold.Chemscore.Metal.Weighted>
-0.0000

> <Gold.Chemscore.Lipo.Weighted>
-10.5226

> <Gold.Chemscore.Internal_Hbond.Weighted>
0.0000

> <Gold.Chemscore.DEClash.Weighted>
0.4683

> <Gold.Chemscore.DEInternal.Weighted>
0.5945

> <Gold.Chemscore.Rot.Weighted>
4.0862

> <Gold.Chemscore.Internal.Correction.Weighted>
   9.000000E+99

> <Gold.Protein.RotatedTorsions>
[ 6907 6896 6895 6894 ] final   13.78 input  -60.11 | X-H torsion
[ 7974 7965 7964 7962 ] final   28.66 input  175.53 | X-H torsion
[ 8008 7997 7996 7995 ] final -107.35 input   59.86 | X-H torsion
[ 10167 10162 10161 10158 ] final -171.08 input  -65.29 | X-H torsion
[ 10718 10713 10712 10709 ] final   20.95 input   66.30 | X-H torsion
[ 10763 10752 10751 10750 ] final   36.94 input  -60.55 | X-H torsion
[ 11005 11000 10999 10996 ] final -148.30 input  -57.11 | X-H torsion

> <Gold.Protein.ActiveResidues>
 VAL166  LYS551  ARG553  GLY616  TRP617  ASP618  TYR619  PRO620  LYS621  CYS622 
 ASP623  PHE694  ASN695  SER759  ASP760  ASP761  ALA762  ILE779  LEU786  VAL792 
 PHE793  MET794  SER795  GLU796  ALA797  LYS798  CYS799  TRP800  GLU811  SER814 

> <Gold.Protein.RotatedAtoms>
  151.7918  135.0734  160.0387 H   0  0  0  0  0  0  0  0  0  0  0  0  # atno 6907 bound_to 6896
  152.3151  133.5790  159.5715 H   0  0  0  0  0  0  0  0  0  0  0  0  # atno 6908 bound_to 6896
  150.7340  134.0010  159.3680 H   0  0  0  0  0  0  0  0  0  0  0  0  # atno 6909 bound_to 6896
  146.1716  139.7026  142.8963 H   0  0  0  0  0  0  0  0  0  0  0  0  # atno 7974 bound_to 7965
  154.9281  140.0405  157.2033 H   0  0  0  0  0  0  0  0  0  0  0  0  # atno 8008 bound_to 7997
  154.8188  140.2880  155.5780 H   0  0  0  0  0  0  0  0  0  0  0  0  # atno 8009 bound_to 7997
  156.2978  140.2523  156.3091 H   0  0  0  0  0  0  0  0  0  0  0  0  # atno 8010 bound_to 7997
  139.5823  144.1395  152.1531 H   0  0  0  0  0  0  0  0  0  0  0  0  # atno 10167 bound_to 10162
  157.1316  130.6593  149.5953 H   0  0  0  0  0  0  0  0  0  0  0  0  # atno 10718 bound_to 10713
  153.0057  135.6292  154.2065 H   0  0  0  0  0  0  0  0  0  0  0  0  # atno 10763 bound_to 10752
  154.1809  135.2813  155.3054 H   0  0  0  0  0  0  0  0  0  0  0  0  # atno 10764 bound_to 10752
  154.5835  135.5640  153.7268 H   0  0  0  0  0  0  0  0  0  0  0  0  # atno 10765 bound_to 10752
  140.7626  134.3280  157.5097 H   0  0  0  0  0  0  0  0  0  0  0  0  # atno 11005 bound_to 11000
  145.4324  141.0416  143.2903 LP  0  0  0  0  0  0  0  0  0  0  0  0  # atno 17320 bound_to 7965
  144.8172  139.5855  143.7003 LP  0  0  0  0  0  0  0  0  0  0  0  0  # atno 17321 bound_to 7965
  140.0951  144.5588  150.7028 LP  0  0  0  0  0  0  0  0  0  0  0  0  # atno 17342 bound_to 10162
  140.7100  143.2497  151.4610 LP  0  0  0  0  0  0  0  0  0  0  0  0  # atno 17343 bound_to 10162
  155.9806  130.4809  150.6785 LP  0  0  0  0  0  0  0  0  0  0  0  0  # atno 17370 bound_to 10713
  157.4387  131.0858  151.0966 LP  0  0  0  0  0  0  0  0  0  0  0  0  # atno 17371 bound_to 10713
  139.8768  134.9212  156.3269 LP  0  0  0  0  0  0  0  0  0  0  0  0  # atno 17394 bound_to 11000
  140.9648  133.7365  156.0452 LP  0  0  0  0  0  0  0  0  0  0  0  0  # atno 17395 bound_to 11000

$$$$
