AV-unprocessed.smi:3076|AV-procd|sdf|11728|dock3
  -GOLD-   2272017123D 1   1.00000     0.00000
 Structure written by MMmdl.
 20 20  0  0  0  0  0  0  0  0  1 V2000
  150.0909  144.3248  158.2932 N   0  0  0  0  0  0  0  0  0  0  0  0
  151.2503  145.1613  158.6391 C   0  0  0  0  0  0  0  0  0  0  0  0
  151.5583  145.1614  160.1466 C   0  0  1  0  0  0  0  0  0  0  0  0
  150.3438  145.3348  160.8499 O   0  0  0  0  0  0  0  0  0  0  0  0
  152.2537  143.8736  160.5584 C   0  0  0  0  0  0  0  0  0  0  0  0
  152.5382  143.5923  161.9126 C   0  0  0  0  0  0  0  0  0  0  0  0
  153.1729  142.3779  162.2371 C   0  0  0  0  0  0  0  0  0  0  0  0
  153.4968  141.4905  161.1921 C   0  0  0  0  0  0  0  0  0  0  0  0
  153.2283  141.7454  159.8937 N   0  0  0  0  0  0  0  0  0  0  0  0
  152.6192  142.9122  159.5911 C   0  0  0  0  0  0  0  0  0  0  0  0
  149.8161  144.4796  157.3244 H   0  0  0  0  0  0  0  0  0  0  0  0
  150.3245  143.3372  158.3843 H   0  0  0  0  0  0  0  0  0  0  0  0
  152.1282  144.8511  158.0712 H   0  0  0  0  0  0  0  0  0  0  0  0
  151.0360  146.1844  158.3284 H   0  0  0  0  0  0  0  0  0  0  0  0
  152.2108  146.0018  160.3886 H   0  0  0  0  0  0  0  0  0  0  0  0
  150.5183  145.8372  161.6308 H   0  0  0  0  0  0  0  0  0  0  0  0
  152.2727  144.2925  162.6912 H   0  0  0  0  0  0  0  0  0  0  0  0
  153.4041  142.1317  163.2628 H   0  0  0  0  0  0  0  0  0  0  0  0
  153.9828  140.5499  161.4052 H   0  0  0  0  0  0  0  0  0  0  0  0
  152.4163  143.0803  158.5435 H   0  0  0  0  0  0  0  0  0  0  0  0
  1  2  1  0  0  0  0
  1 11  1  0  0  0  0
  1 12  1  0  0  0  0
  2  3  1  0  0  0  0
  2 13  1  0  0  0  0
  2 14  1  0  0  0  0
  3  4  1  0  0  0  0
  3  5  1  0  0  0  0
  3 15  1  0  0  0  0
  4 16  1  0  0  0  0
  5 10  1  0  0  0  0
  5  6  2  0  0  0  0
  6  7  1  0  0  0  0
  6 17  1  0  0  0  0
  7  8  2  0  0  0  0
  7 18  1  0  0  0  0
  8  9  1  0  0  0  0
  8 19  1  0  0  0  0
  9 10  2  0  0  0  0
 10 20  1  0  0  0  0
M  END
> <s_m_source_file>
AV-unprocessed.smi

> <i_m_source_file_index>
3076

> <i_lp_mmshare_version>
43012

> <i_f3d_flags>
0

> <s_epik_input>
W05IMl1bQ0gyXVtDQEhdKFtPSF0pYzFbY0hdW2NIXVtjSF1uW2NIXTE=

> <s_epik_cmdline>
J2VwaWtfcHl0aG9uJywgJy1waCcsICc3LjAnLCAnLXRuJywgJzgnLCAnLW1hJywgJzIwMCcsICctbWV0YWxfYmluZGluZycsICctaW1hZScsICc8aW5maWxlLm1hZT4nLCAnLW9tYWUnLCAnPG91dGZpbGUubWFlPic=

> <r_epik_Ionization_Penalty>
2.22627

> <r_epik_Ionization_Penalty_Charging>
0

> <r_epik_Ionization_Penalty_Neutral>
2.22627

> <r_epik_State_Penalty>
2.36938

> <r_epik_Charging_Adjusted_Penalty>
2.36938

> <i_epik_Tot_Q>
0

> <i_epik_Tot_abs_Q>
0

> <r_epik_Metal_State_Penalty>
2.36785

> <b_epik_Metal_Only>
0

> <s_lp_Force_Field>
OPLS_2005

> <r_lp_Energy>
11.5599

> <b_lp_Chiralities_Consistent>
1

> <s_lp_Variant>
AV-unprocessed.smi:3076-4

> <Gold.Version>
5.8.1

> <Gold.Id.Protein>
6NUR|6NUR_protein|mol2

> <Gold.PLP.Fitness>
35.2979

> <Gold.PLP.PLP>
-32.6431

> <Gold.PLP.part.hbond>
-2.9426

> <Gold.PLP.part.metal>
0.0000

> <Gold.PLP.part.buried>
-4.9797

> <Gold.PLP.part.nonpolar>
-25.3736

> <Gold.PLP.part.repulsive>
0.0000

> <Gold.PLP.ligand.clash>
0.0000

> <Gold.PLP.ligand.torsion>
0.1741

> <Gold.PLP.Chemscore.Hbond>
1.0000

> <Gold.PLP.Chemscore.CHOScore>
0.0000

> <Gold.PLP.Chemscore.Metal>
0.0000

> <Gold.Chemscore.Hbonds>
donor molecule, donor type, donor heavy atom, donor atom, acceptor molecule, acceptor atom, score
      L1  H     1    11       P1  8028  0.95

> <Gold.PLP.Chemscore.Internal.Correction>
0.0029

> <Gold.Rescore>
     Score         DG    S(hbond)    S(metal)    S(lipo)     H(rot)  DE(clash)    DE(int)     intcor
     13.16     -13.30       0.94        0.00      80.45       1.85       0.00       0.15       ----

> <Gold.Chemscore.Fitness>
13.1567

> <Gold.Chemscore.DG>
-13.3037

> <Gold.Chemscore.ZeroCoef>
-5.4800

> <Gold.Chemscore.Hbond>
0.9389

> <Gold.Chemscore.Metal>
0.0000

> <Gold.Chemscore.Lipo>
80.4471

> <Gold.Chemscore.Internal_Hbond>
0.0000

> <Gold.Chemscore.DEClash>
0.0000

> <Gold.Chemscore.DEInternal>
0.1470

> <Gold.Chemscore.Rot>
1.8455

> <Gold.Chemscore.Internal.Correction>
   9.000000E+99

> <Gold.Chemscore.Hbonds>
donor molecule, donor type, donor heavy atom, donor atom, acceptor molecule, acceptor atom, score
      L1  H     1    11       P1  8028  0.22

> <Gold.Chemscore.Hbond.Weighted>
-3.1359

> <Gold.Chemscore.Metal.Weighted>
-0.0000

> <Gold.Chemscore.Lipo.Weighted>
-9.4123

> <Gold.Chemscore.Internal_Hbond.Weighted>
0.0000

> <Gold.Chemscore.DEClash.Weighted>
0.0000

> <Gold.Chemscore.DEInternal.Weighted>
0.1470

> <Gold.Chemscore.Rot.Weighted>
4.7245

> <Gold.Chemscore.Internal.Correction.Weighted>
   9.000000E+99

> <Gold.Protein.RotatedTorsions>
[ 6907 6896 6895 6894 ] final  -92.47 input  -60.11 | X-H torsion
[ 7974 7965 7964 7962 ] final -109.91 input  175.53 | X-H torsion
[ 8008 7997 7996 7995 ] final   40.64 input   59.86 | X-H torsion
[ 10167 10162 10161 10158 ] final  164.52 input  -65.29 | X-H torsion
[ 10718 10713 10712 10709 ] final -162.06 input   66.30 | X-H torsion
[ 10763 10752 10751 10750 ] final  113.49 input  -60.55 | X-H torsion
[ 11005 11000 10999 10996 ] final   21.47 input  -57.11 | X-H torsion

> <Gold.Protein.ActiveResidues>
 VAL166  LYS551  ARG553  GLY616  TRP617  ASP618  TYR619  PRO620  LYS621  CYS622 
 ASP623  PHE694  ASN695  SER759  ASP760  ASP761  ALA762  ILE779  LEU786  VAL792 
 PHE793  MET794  SER795  GLU796  ALA797  LYS798  CYS799  TRP800  GLU811  SER814 

> <Gold.Protein.RotatedAtoms>
  150.6907  134.2116  159.4361 H   0  0  0  0  0  0  0  0  0  0  0  0  # atno 6907 bound_to 6896
  152.0078  134.9891  160.0576 H   0  0  0  0  0  0  0  0  0  0  0  0  # atno 6908 bound_to 6896
  152.1518  133.4491  159.4854 H   0  0  0  0  0  0  0  0  0  0  0  0  # atno 6909 bound_to 6896
  145.1747  140.8942  143.3515 H   0  0  0  0  0  0  0  0  0  0  0  0  # atno 7974 bound_to 7965
  155.2564  140.3356  155.4277 H   0  0  0  0  0  0  0  0  0  0  0  0  # atno 8008 bound_to 7997
  156.2193  140.1802  156.7557 H   0  0  0  0  0  0  0  0  0  0  0  0  # atno 8009 bound_to 7997
  154.5801  140.0655  156.9077 H   0  0  0  0  0  0  0  0  0  0  0  0  # atno 8010 bound_to 7997
  139.4890  144.4226  151.9167 H   0  0  0  0  0  0  0  0  0  0  0  0  # atno 10167 bound_to 10162
  156.6051  130.8827  151.2923 H   0  0  0  0  0  0  0  0  0  0  0  0  # atno 10718 bound_to 10713
  153.4932  135.3654  155.2502 H   0  0  0  0  0  0  0  0  0  0  0  0  # atno 10763 bound_to 10752
  154.8751  135.3982  154.3564 H   0  0  0  0  0  0  0  0  0  0  0  0  # atno 10764 bound_to 10752
  153.4187  135.7079  153.6374 H   0  0  0  0  0  0  0  0  0  0  0  0  # atno 10765 bound_to 10752
  140.3912  134.1817  155.7662 H   0  0  0  0  0  0  0  0  0  0  0  0  # atno 11005 bound_to 11000
  145.0197  139.3435  143.6078 LP  0  0  0  0  0  0  0  0  0  0  0  0  # atno 17320 bound_to 7965
  146.3463  139.9492  142.8731 LP  0  0  0  0  0  0  0  0  0  0  0  0  # atno 17321 bound_to 7965
  140.3671  144.2901  150.5925 LP  0  0  0  0  0  0  0  0  0  0  0  0  # atno 17342 bound_to 10162
  140.5352  143.2235  151.8175 LP  0  0  0  0  0  0  0  0  0  0  0  0  # atno 17343 bound_to 10162
  157.7269  130.9636  150.1677 LP  0  0  0  0  0  0  0  0  0  0  0  0  # atno 17370 bound_to 10713
  156.2437  130.3693  149.8309 LP  0  0  0  0  0  0  0  0  0  0  0  0  # atno 17371 bound_to 10713
  141.1890  133.8248  157.0974 LP  0  0  0  0  0  0  0  0  0  0  0  0  # atno 17394 bound_to 11000
  140.0405  134.9857  157.0952 LP  0  0  0  0  0  0  0  0  0  0  0  0  # atno 17395 bound_to 11000

$$$$
