AV-unprocessed.smi:110|AV-procd|sdf|1064|dock9
  -GOLD-   2262018143D 1   1.00000     0.00000
 Structure written by MMmdl.
 46 50  0  0  0  0  0  0  0  0  1 V2000
  146.4855  142.4893  153.9984 O   0  0  0  0  0  0  0  0  0  0  0  0
  146.8654  141.2717  153.3928 C   0  0  0  0  0  0  0  0  0  0  0  0
  148.0256  140.5518  154.1129 C   0  0  2  0  0  0  0  0  0  0  0  0
  149.3052  141.0647  153.7720 O   0  0  0  0  0  0  0  0  0  0  0  0
  150.2831  140.2132  154.2949 C   0  0  1  0  0  0  0  0  0  0  0  0
  150.7611  140.7962  155.5900 N   0  0  0  0  0  0  0  0  0  0  0  0
  150.3928  141.9686  156.2151 C   0  0  0  0  0  0  0  0  0  0  0  0
  150.9975  142.2097  157.3466 N   0  0  0  0  0  0  0  0  0  0  0  0
  151.8729  141.1413  157.5040 C   0  0  0  0  0  0  0  0  0  0  0  0
  152.8255  140.7627  158.4933 C   0  0  0  0  0  0  0  0  0  0  0  0
  153.0928  141.4689  159.6166 N   0  0  0  0  0  0  0  0  0  0  0  0
  153.5349  140.7525  160.8218 C   0  0  0  0  0  0  0  0  0  0  0  0
  153.3009  141.6812  162.0284 C   0  0  0  0  0  0  0  0  0  0  0  0
  152.8203  142.9208  161.3456 C   0  0  0  0  0  0  0  0  0  0  0  0
  152.5021  144.1530  161.9427 C   0  0  0  0  0  0  0  0  0  0  0  0
  152.0867  145.2102  161.1051 C   0  0  0  0  0  0  0  0  0  0  0  0
  152.0073  145.0239  159.7053 C   0  0  0  0  0  0  0  0  0  0  0  0
  152.3342  143.7773  159.1276 C   0  0  0  0  0  0  0  0  0  0  0  0
  152.7268  142.7186  159.9723 C   0  0  0  0  0  0  0  0  0  0  0  0
  153.4747  139.5829  158.3213 N   0  0  0  0  0  0  0  0  0  0  0  0
  153.2436  138.8402  157.2352 C   0  0  0  0  0  0  0  0  0  0  0  0
  152.4051  139.0784  156.2253 N   0  0  0  0  0  0  0  0  0  0  0  0
  151.7250  140.2467  156.4070 C   0  0  0  0  0  0  0  0  0  0  0  0
  149.6118  138.8433  154.5499 C   0  0  2  0  0  0  0  0  0  0  0  0
  150.3004  137.7654  153.9432 O   0  0  0  0  0  0  0  0  0  0  0  0
  148.1936  139.0309  154.0007 C   0  0  2  0  0  0  0  0  0  0  0  0
  148.0720  138.5746  152.6647 O   0  0  0  0  0  0  0  0  0  0  0  0
  147.8904  140.7707  155.1738 H   0  0  0  0  0  0  0  0  0  0  0  0
  151.1680  140.1817  153.6579 H   0  0  0  0  0  0  0  0  0  0  0  0
  149.5562  138.6613  155.6245 H   0  0  0  0  0  0  0  0  0  0  0  0
  147.4548  138.5041  154.6054 H   0  0  0  0  0  0  0  0  0  0  0  0
  145.5970  142.6877  153.7443 H   0  0  0  0  0  0  0  0  0  0  0  0
  145.9947  140.6172  153.3455 H   0  0  0  0  0  0  0  0  0  0  0  0
  147.1528  141.4871  152.3634 H   0  0  0  0  0  0  0  0  0  0  0  0
  149.6548  142.6466  155.8124 H   0  0  0  0  0  0  0  0  0  0  0  0
  152.9871  139.8164  160.9389 H   0  0  0  0  0  0  0  0  0  0  0  0
  154.5938  140.5091  160.7270 H   0  0  0  0  0  0  0  0  0  0  0  0
  152.5341  141.2943  162.7001 H   0  0  0  0  0  0  0  0  0  0  0  0
  154.2165  141.8685  162.5901 H   0  0  0  0  0  0  0  0  0  0  0  0
  152.5776  144.2887  163.0115 H   0  0  0  0  0  0  0  0  0  0  0  0
  151.8362  146.1691  161.5344 H   0  0  0  0  0  0  0  0  0  0  0  0
  151.6991  145.8428  159.0721 H   0  0  0  0  0  0  0  0  0  0  0  0
  152.2861  143.6471  158.0566 H   0  0  0  0  0  0  0  0  0  0  0  0
  153.8102  137.9233  157.1664 H   0  0  0  0  0  0  0  0  0  0  0  0
  149.6854  137.2719  153.4228 H   0  0  0  0  0  0  0  0  0  0  0  0
  148.5482  137.7620  152.5806 H   0  0  0  0  0  0  0  0  0  0  0  0
  1  2  1  0  0  0  0
  1 32  1  0  0  0  0
  2  3  1  0  0  0  0
  2 33  1  0  0  0  0
  2 34  1  0  0  0  0
  3 28  1  0  0  0  0
  3 26  1  0  0  0  0
  3  4  1  0  0  0  0
  4  5  1  0  0  0  0
  5 29  1  0  0  0  0
  5  6  1  0  0  0  0
  5 24  1  0  0  0  0
  6 23  1  0  0  0  0
  6  7  1  0  0  0  0
  7  8  2  0  0  0  0
  7 35  1  0  0  0  0
  8  9  1  0  0  0  0
  9 23  2  0  0  0  0
  9 10  1  0  0  0  0
 10 11  1  0  0  0  0
 10 20  2  0  0  0  0
 11 19  1  0  0  0  0
 11 12  1  0  0  0  0
 12 13  1  0  0  0  0
 12 36  1  0  0  0  0
 12 37  1  0  0  0  0
 13 14  1  0  0  0  0
 13 38  1  0  0  0  0
 13 39  1  0  0  0  0
 14 19  2  0  0  0  0
 14 15  1  0  0  0  0
 15 16  2  0  0  0  0
 15 40  1  0  0  0  0
 16 17  1  0  0  0  0
 16 41  1  0  0  0  0
 17 18  2  0  0  0  0
 17 42  1  0  0  0  0
 18 19  1  0  0  0  0
 18 43  1  0  0  0  0
 20 21  1  0  0  0  0
 21 22  2  0  0  0  0
 21 44  1  0  0  0  0
 22 23  1  0  0  0  0
 24 30  1  0  0  0  0
 24 25  1  0  0  0  0
 24 26  1  0  0  0  0
 25 45  1  0  0  0  0
 26 31  1  0  0  0  0
 26 27  1  0  0  0  0
 27 46  1  0  0  0  0
M  END
> <s_m_source_file>
AV-unprocessed.smi

> <i_m_source_file_index>
110

> <i_lp_mmshare_version>
43012

> <i_f3d_flags>
0

> <s_epik_input>
W09IXVtDSDJdW0NASF0xT1tDQEhdKFtDQEhdKFtPSF0pW0NAQEhdMVtPSF0pbihbY0hdbjIpYyhjMjMpbltjSF1uYzNOKFtDSDJdW0NIMl00KWMoYzQ1KVtjSF1bY0hdW2NIXVtjSF01

> <s_epik_cmdline>
J2VwaWtfcHl0aG9uJywgJy1waCcsICc3LjAnLCAnLXRuJywgJzgnLCAnLW1hJywgJzIwMCcsICctbWV0YWxfYmluZGluZycsICctaW1hZScsICc8aW5maWxlLm1hZT4nLCAnLW9tYWUnLCAnPG91dGZpbGUubWFlPic=

> <r_lp_tautomer_probability>
1

> <r_epik_Ionization_Penalty>
0.00068475

> <r_epik_Ionization_Penalty_Charging>
0

> <r_epik_Ionization_Penalty_Neutral>
0.00068475

> <r_epik_State_Penalty>
0.000417442

> <r_epik_Charging_Adjusted_Penalty>
0.000417442

> <i_epik_Tot_Q>
0

> <i_epik_Tot_abs_Q>
0

> <r_epik_Metal_State_Penalty>
-0

> <b_epik_Metal_Only>
0

> <s_epik_Chemistry_Notes>
This compound contains an acetal/aminal-like group ( X-CH(R)-Y where X, Y are N, S, or O) that may be acid/base labile, releasing an aldehyde.

> <s_lp_Force_Field>
OPLS_2005

> <r_lp_Energy>
64.7575

> <b_lp_Chiralities_Consistent>
1

> <s_lp_Variant>
AV-unprocessed.smi:110-2

> <Gold.Version>
5.8.1

> <Gold.Id.Protein>
6NUR|6NUR_protein|mol2

> <Gold.PLP.Fitness>
63.1135

> <Gold.PLP.PLP>
-52.7114

> <Gold.PLP.part.hbond>
-6.6145

> <Gold.PLP.part.metal>
0.0000

> <Gold.PLP.part.buried>
0.6609

> <Gold.PLP.part.nonpolar>
-47.2195

> <Gold.PLP.part.repulsive>
2.1996

> <Gold.PLP.ligand.clash>
0.9722

> <Gold.PLP.ligand.torsion>
0.4510

> <Gold.PLP.Chemscore.Hbond>
3.0596

> <Gold.PLP.Chemscore.CHOScore>
1.0000

> <Gold.PLP.Chemscore.Metal>
0.0000

> <Gold.Chemscore.Hbonds>
donor molecule, donor type, donor heavy atom, donor atom, acceptor molecule, acceptor atom, score
      L1  H    25    45       P1  7948  1.00
      L1  H    27    46       P1  7948  1.00
      P1  H  7997  8009       L1    20  0.04
      P1  H  8011  8017       L1     4  0.95
      L1  C     7    35       P1  8028  1.00

> <Gold.PLP.Chemscore.Internal.Correction>
0.0976

> <Gold.Rescore>
     Score         DG    S(hbond)    S(metal)    S(lipo)     H(rot)  DE(clash)    DE(int)     intcor
     14.73     -20.38       2.76        0.00     122.76       3.38       3.74       1.91       ----

> <Gold.Chemscore.Fitness>
14.7297

> <Gold.Chemscore.DG>
-20.3839

> <Gold.Chemscore.ZeroCoef>
-5.4800

> <Gold.Chemscore.Hbond>
2.7554

> <Gold.Chemscore.Metal>
0.0000

> <Gold.Chemscore.Lipo>
122.7621

> <Gold.Chemscore.Internal_Hbond>
0.0000

> <Gold.Chemscore.DEClash>
3.7400

> <Gold.Chemscore.DEInternal>
1.9143

> <Gold.Chemscore.Rot>
3.3837

> <Gold.Chemscore.Internal.Correction>
   9.000000E+99

> <Gold.Chemscore.Hbonds>
donor molecule, donor type, donor heavy atom, donor atom, acceptor molecule, acceptor atom, score
      L1  H    25    45       P1  7948  0.72
      L1  H    27    46       P1  7948  0.98
      P1  H  8011  8017       L1     4  0.83

> <Gold.Chemscore.Hbond.Weighted>
-9.2029

> <Gold.Chemscore.Metal.Weighted>
-0.0000

> <Gold.Chemscore.Lipo.Weighted>
-14.3632

> <Gold.Chemscore.Internal_Hbond.Weighted>
0.0000

> <Gold.Chemscore.DEClash.Weighted>
3.7400

> <Gold.Chemscore.DEInternal.Weighted>
1.9143

> <Gold.Chemscore.Rot.Weighted>
8.6622

> <Gold.Chemscore.Internal.Correction.Weighted>
   9.000000E+99

> <Gold.Protein.RotatedTorsions>
[ 6907 6896 6895 6894 ] final   80.11 input  -60.11 | X-H torsion
[ 7974 7965 7964 7962 ] final  -71.74 input  175.53 | X-H torsion
[ 8008 7997 7996 7995 ] final  120.28 input   59.86 | X-H torsion
[ 10167 10162 10161 10158 ] final   88.89 input  -65.29 | X-H torsion
[ 10718 10713 10712 10709 ] final   31.63 input   66.30 | X-H torsion
[ 10763 10752 10751 10750 ] final   55.54 input  -60.55 | X-H torsion
[ 11005 11000 10999 10996 ] final -150.50 input  -57.11 | X-H torsion

> <Gold.Protein.ActiveResidues>
 VAL166  LYS551  ARG553  GLY616  TRP617  ASP618  TYR619  PRO620  LYS621  CYS622 
 ASP623  PHE694  ASN695  SER759  ASP760  ASP761  ALA762  ILE779  LEU786  VAL792 
 PHE793  MET794  SER795  GLU796  ALA797  LYS798  CYS799  TRP800  GLU811  SER814 

> <Gold.Protein.RotatedAtoms>
  152.5223  134.3407  159.9215 H   0  0  0  0  0  0  0  0  0  0  0  0  # atno 6907 bound_to 6896
  151.3357  133.3976  159.2674 H   0  0  0  0  0  0  0  0  0  0  0  0  # atno 6908 bound_to 6896
  150.9844  134.9210  159.7921 H   0  0  0  0  0  0  0  0  0  0  0  0  # atno 6909 bound_to 6896
  145.6741  140.9211  143.0867 H   0  0  0  0  0  0  0  0  0  0  0  0  # atno 7974 bound_to 7965
  156.2635  140.2834  156.1125 H   0  0  0  0  0  0  0  0  0  0  0  0  # atno 8008 bound_to 7997
  155.1242  140.0392  157.2775 H   0  0  0  0  0  0  0  0  0  0  0  0  # atno 8009 bound_to 7997
  154.6648  140.2574  155.7076 H   0  0  0  0  0  0  0  0  0  0  0  0  # atno 8010 bound_to 7997
  139.8627  144.6535  150.9039 H   0  0  0  0  0  0  0  0  0  0  0  0  # atno 10167 bound_to 10162
  157.2749  130.7226  149.6524 H   0  0  0  0  0  0  0  0  0  0  0  0  # atno 10718 bound_to 10713
  152.9818  135.5707  154.5083 H   0  0  0  0  0  0  0  0  0  0  0  0  # atno 10763 bound_to 10752
  154.4591  135.2781  155.1728 H   0  0  0  0  0  0  0  0  0  0  0  0  # atno 10764 bound_to 10752
  154.3323  135.6247  153.5610 H   0  0  0  0  0  0  0  0  0  0  0  0  # atno 10765 bound_to 10752
  140.7395  134.3530  157.5150 H   0  0  0  0  0  0  0  0  0  0  0  0  # atno 11005 bound_to 11000
  144.7047  139.8611  143.7433 LP  0  0  0  0  0  0  0  0  0  0  0  0  # atno 17320 bound_to 7965
  146.1020  139.4016  143.0341 LP  0  0  0  0  0  0  0  0  0  0  0  0  # atno 17321 bound_to 7965
  140.7772  143.3730  151.1614 LP  0  0  0  0  0  0  0  0  0  0  0  0  # atno 17342 bound_to 10162
  139.7358  143.9001  152.3034 LP  0  0  0  0  0  0  0  0  0  0  0  0  # atno 17343 bound_to 10162
  155.9663  130.4356  150.5098 LP  0  0  0  0  0  0  0  0  0  0  0  0  # atno 17370 bound_to 10713
  157.3030  131.0649  151.2054 LP  0  0  0  0  0  0  0  0  0  0  0  0  # atno 17371 bound_to 10713
  139.8809  134.9071  156.2938 LP  0  0  0  0  0  0  0  0  0  0  0  0  # atno 17394 bound_to 11000
  140.9850  133.7244  156.0727 LP  0  0  0  0  0  0  0  0  0  0  0  0  # atno 17395 bound_to 11000

$$$$
