AV-unprocessed.smi:765|AV-procd|sdf|3648|dock4
  -GOLD-   22720 1 53D 1   1.00000     0.00000
 Structure written by MMmdl.
 39 40  0  0  0  0  0  0  0  0  1 V2000
  153.0859  142.4587  161.4408 C   0  0  0  0  0  0  0  0  0  0  0  0
  152.0750  143.1335  160.5026 C   0  0  1  0  0  0  0  0  0  0  0  0
  152.4830  144.5841  160.1895 C   0  0  0  0  0  0  0  0  0  0  0  0
  151.4865  145.2581  159.2361 C   0  0  0  0  0  0  0  0  0  0  0  0
  151.3167  144.4416  157.9448 C   0  0  0  0  0  0  0  0  0  0  0  0
  150.8814  142.9825  158.2277 C   0  0  1  0  0  0  0  0  0  0  0  0
  149.5376  142.9490  158.8399 C   0  0  0  0  0  0  0  0  0  0  0  0
  148.4855  142.9225  159.3209 N   0  0  0  0  0  0  0  0  0  0  0  0
  150.9138  142.2082  156.9853 N   0  0  0  0  0  0  0  0  0  0  0  0
  150.3890  140.9883  156.7777 C   0  0  0  0  0  0  0  0  0  0  0  0
  149.8146  140.3425  157.6543 O   0  0  0  0  0  0  0  0  0  0  0  0
  150.5360  140.4244  155.3553 C   0  0  1  0  0  0  0  0  0  0  0  0
  151.3070  139.0890  155.3159 C   0  0  0  0  0  0  0  0  0  0  0  0
  149.2294  140.3253  154.7148 N   0  0  0  0  0  0  0  0  0  0  0  0
  148.3179  141.3363  154.4864 C   0  0  0  0  0  0  0  0  0  0  0  0
  147.2194  140.7754  153.9008 C   0  0  0  0  0  0  0  0  0  0  0  0
  147.5489  139.3942  153.8188 C   0  0  0  0  0  0  0  0  0  0  0  0
  148.7462  139.1265  154.3129 N   0  0  0  0  0  0  0  0  0  0  0  0
  151.9003  142.3356  159.1940 C   0  0  0  0  0  0  0  0  0  0  0  0
  154.0755  142.4046  160.9858 H   0  0  0  0  0  0  0  0  0  0  0  0
  152.7767  141.4423  161.6864 H   0  0  0  0  0  0  0  0  0  0  0  0
  153.1802  143.0092  162.3773 H   0  0  0  0  0  0  0  0  0  0  0  0
  151.1161  143.1564  161.0221 H   0  0  0  0  0  0  0  0  0  0  0  0
  152.5525  145.1609  161.1126 H   0  0  0  0  0  0  0  0  0  0  0  0
  153.4777  144.5985  159.7419 H   0  0  0  0  0  0  0  0  0  0  0  0
  150.5221  145.3730  159.7321 H   0  0  0  0  0  0  0  0  0  0  0  0
  151.8293  146.2646  158.9944 H   0  0  0  0  0  0  0  0  0  0  0  0
  150.5902  144.9402  157.3023 H   0  0  0  0  0  0  0  0  0  0  0  0
  152.2598  144.4446  157.3959 H   0  0  0  0  0  0  0  0  0  0  0  0
  151.3659  142.6528  156.1999 H   0  0  0  0  0  0  0  0  0  0  0  0
  151.1198  141.1469  154.7824 H   0  0  0  0  0  0  0  0  0  0  0  0
  152.3012  139.1966  155.7506 H   0  0  0  0  0  0  0  0  0  0  0  0
  151.4360  138.7461  154.2890 H   0  0  0  0  0  0  0  0  0  0  0  0
  150.7910  138.2999  155.8644 H   0  0  0  0  0  0  0  0  0  0  0  0
  148.5244  142.3612  154.7575 H   0  0  0  0  0  0  0  0  0  0  0  0
  146.3162  141.2749  153.5833 H   0  0  0  0  0  0  0  0  0  0  0  0
  146.9566  138.5828  153.4219 H   0  0  0  0  0  0  0  0  0  0  0  0
  152.8696  142.2477  158.6996 H   0  0  0  0  0  0  0  0  0  0  0  0
  151.5868  141.3168  159.4277 H   0  0  0  0  0  0  0  0  0  0  0  0
  1  2  1  0  0  0  0
  1 20  1  0  0  0  0
  1 21  1  0  0  0  0
  1 22  1  0  0  0  0
  2 19  1  0  0  0  0
  2  3  1  0  0  0  0
  2 23  1  0  0  0  0
  3  4  1  0  0  0  0
  3 24  1  0  0  0  0
  3 25  1  0  0  0  0
  4  5  1  0  0  0  0
  4 26  1  0  0  0  0
  4 27  1  0  0  0  0
  5  6  1  0  0  0  0
  5 28  1  0  0  0  0
  5 29  1  0  0  0  0
  6  7  1  0  0  0  0
  6  9  1  0  0  0  0
  6 19  1  0  0  0  0
  7  8  3  0  0  0  0
  9 10  1  0  0  0  0
  9 30  1  0  0  0  0
 10 11  2  0  0  0  0
 10 12  1  0  0  0  0
 12 13  1  0  0  0  0
 12 14  1  0  0  0  0
 12 31  1  0  0  0  0
 13 32  1  0  0  0  0
 13 33  1  0  0  0  0
 13 34  1  0  0  0  0
 14 18  1  0  0  0  0
 14 15  1  0  0  0  0
 15 16  2  0  0  0  0
 15 35  1  0  0  0  0
 16 17  1  0  0  0  0
 16 36  1  0  0  0  0
 17 18  2  0  0  0  0
 17 37  1  0  0  0  0
 19 38  1  0  0  0  0
 19 39  1  0  0  0  0
M  END
> <s_m_source_file>
AV-unprocessed.smi

> <i_m_source_file_index>
765

> <i_lp_mmshare_version>
43012

> <i_f3d_flags>
0

> <s_epik_input>
W0NIM11bQ0BASF0oW0NIMl0xKVtDSDJdW0NIMl1bQ0gyXVtDQEBdMShDI04pW05IXUMoPU8pW0NASF0oW0NIM10pbjJbY0hdW2NIXVtjSF1uMg==

> <s_epik_cmdline>
J2VwaWtfcHl0aG9uJywgJy1waCcsICc3LjAnLCAnLXRuJywgJzgnLCAnLW1hJywgJzIwMCcsICctbWV0YWxfYmluZGluZycsICctaW1hZScsICc8aW5maWxlLm1hZT4nLCAnLW9tYWUnLCAnPG91dGZpbGUubWFlPic=

> <r_lp_tautomer_probability>
1

> <r_epik_Ionization_Penalty>
2.71142e-05

> <r_epik_Ionization_Penalty_Charging>
0

> <r_epik_Ionization_Penalty_Neutral>
2.71142e-05

> <r_epik_State_Penalty>
-0

> <r_epik_Charging_Adjusted_Penalty>
0

> <i_epik_Tot_Q>
0

> <i_epik_Tot_abs_Q>
0

> <r_epik_Metal_State_Penalty>
-0

> <b_epik_Metal_Only>
0

> <s_lp_Force_Field>
OPLS_2005

> <r_lp_Energy>
11.5189

> <b_lp_Chiralities_Consistent>
1

> <s_lp_Variant>
AV-unprocessed.smi:765-6

> <Gold.Version>
5.8.1

> <Gold.Id.Protein>
6NUR|6NUR_protein|mol2

> <Gold.PLP.Fitness>
44.2656

> <Gold.PLP.PLP>
-41.2713

> <Gold.PLP.part.hbond>
-1.0469

> <Gold.PLP.part.metal>
0.0000

> <Gold.PLP.part.buried>
-4.6134

> <Gold.PLP.part.nonpolar>
-37.4074

> <Gold.PLP.part.repulsive>
0.3467

> <Gold.PLP.ligand.clash>
0.0000

> <Gold.PLP.ligand.torsion>
0.3434

> <Gold.PLP.Chemscore.Hbond>
0.1934

> <Gold.PLP.Chemscore.CHOScore>
1.0000

> <Gold.PLP.Chemscore.Metal>
0.0000

> <Gold.Chemscore.Hbonds>
donor molecule, donor type, donor heavy atom, donor atom, acceptor molecule, acceptor atom, score
      P1  H  6933  6944       L1     8  0.28
      L1  C    15    35       P1  8028  1.00

> <Gold.PLP.Chemscore.Internal.Correction>
0.1008

> <Gold.Rescore>
     Score         DG    S(hbond)    S(metal)    S(lipo)     H(rot)  DE(clash)    DE(int)     intcor
     13.89     -15.36       0.27        0.00     107.63       1.42       0.01       1.46       ----

> <Gold.Chemscore.Fitness>
13.8856

> <Gold.Chemscore.DG>
-15.3593

> <Gold.Chemscore.ZeroCoef>
-5.4800

> <Gold.Chemscore.Hbond>
0.2746

> <Gold.Chemscore.Metal>
0.0000

> <Gold.Chemscore.Lipo>
107.6330

> <Gold.Chemscore.Internal_Hbond>
0.0000

> <Gold.Chemscore.DEClash>
0.0128

> <Gold.Chemscore.DEInternal>
1.4609

> <Gold.Chemscore.Rot>
1.4183

> <Gold.Chemscore.Internal.Correction>
   9.000000E+99

> <Gold.Chemscore.Hbonds>
donor molecule, donor type, donor heavy atom, donor atom, acceptor molecule, acceptor atom, score
      P1  H  6933  6944       L1     8  0.24

> <Gold.Chemscore.Hbond.Weighted>
-0.9171

> <Gold.Chemscore.Metal.Weighted>
-0.0000

> <Gold.Chemscore.Lipo.Weighted>
-12.5931

> <Gold.Chemscore.Internal_Hbond.Weighted>
0.0000

> <Gold.Chemscore.DEClash.Weighted>
0.0128

> <Gold.Chemscore.DEInternal.Weighted>
1.4609

> <Gold.Chemscore.Rot.Weighted>
3.6309

> <Gold.Chemscore.Internal.Correction.Weighted>
   9.000000E+99

> <Gold.Protein.RotatedTorsions>
[ 6907 6896 6895 6894 ] final  -56.97 input  -60.11 | X-H torsion
[ 7974 7965 7964 7962 ] final  130.91 input  175.53 | X-H torsion
[ 8008 7997 7996 7995 ] final  -26.00 input   59.86 | X-H torsion
[ 10167 10162 10161 10158 ] final  -13.02 input  -65.29 | X-H torsion
[ 10718 10713 10712 10709 ] final   17.97 input   66.30 | X-H torsion
[ 10763 10752 10751 10750 ] final    9.76 input  -60.55 | X-H torsion
[ 11005 11000 10999 10996 ] final  -51.96 input  -57.11 | X-H torsion

> <Gold.Protein.ActiveResidues>
 VAL166  LYS551  ARG553  GLY616  TRP617  ASP618  TYR619  PRO620  LYS621  CYS622 
 ASP623  PHE694  ASN695  SER759  ASP760  ASP761  ALA762  ILE779  LEU786  VAL792 
 PHE793  MET794  SER795  GLU796  ALA797  LYS798  CYS799  TRP800  GLU811  SER814 

> <Gold.Protein.RotatedAtoms>
  150.8124  134.7287  159.6699 H   0  0  0  0  0  0  0  0  0  0  0  0  # atno 6907 bound_to 6896
  152.4244  134.5893  159.9979 H   0  0  0  0  0  0  0  0  0  0  0  0  # atno 6908 bound_to 6896
  151.6099  133.3311  159.3101 H   0  0  0  0  0  0  0  0  0  0  0  0  # atno 6909 bound_to 6896
  145.0129  139.4203  143.5236 H   0  0  0  0  0  0  0  0  0  0  0  0  # atno 7974 bound_to 7965
  154.4447  140.1911  156.0707 H   0  0  0  0  0  0  0  0  0  0  0  0  # atno 8008 bound_to 7997
  156.0513  140.3308  155.7328 H   0  0  0  0  0  0  0  0  0  0  0  0  # atno 8009 bound_to 7997
  155.5552  140.0598  157.2832 H   0  0  0  0  0  0  0  0  0  0  0  0  # atno 8010 bound_to 7997
  140.7173  143.5470  150.9344 H   0  0  0  0  0  0  0  0  0  0  0  0  # atno 10167 bound_to 10162
  157.0897  130.6422  149.5846 H   0  0  0  0  0  0  0  0  0  0  0  0  # atno 10718 bound_to 10713
  153.2105  135.6868  153.8120 H   0  0  0  0  0  0  0  0  0  0  0  0  # atno 10763 bound_to 10752
  153.7354  135.3246  155.3295 H   0  0  0  0  0  0  0  0  0  0  0  0  # atno 10764 bound_to 10752
  154.8219  135.4646  154.0910 H   0  0  0  0  0  0  0  0  0  0  0  0  # atno 10765 bound_to 10752
  141.0899  133.6635  156.3954 H   0  0  0  0  0  0  0  0  0  0  0  0  # atno 11005 bound_to 11000
  146.3473  139.9583  142.8720 LP  0  0  0  0  0  0  0  0  0  0  0  0  # atno 17320 bound_to 7965
  145.1999  140.9849  143.4162 LP  0  0  0  0  0  0  0  0  0  0  0  0  # atno 17321 bound_to 7965
  139.9194  143.6624  152.3100 LP  0  0  0  0  0  0  0  0  0  0  0  0  # atno 17342 bound_to 10162
  139.7036  144.7631  151.1232 LP  0  0  0  0  0  0  0  0  0  0  0  0  # atno 17343 bound_to 10162
  155.9901  130.4951  150.7244 LP  0  0  0  0  0  0  0  0  0  0  0  0  # atno 17370 bound_to 10713
  157.4732  131.0895  151.0620 LP  0  0  0  0  0  0  0  0  0  0  0  0  # atno 17371 bound_to 10713
  140.5276  134.6243  157.5339 LP  0  0  0  0  0  0  0  0  0  0  0  0  # atno 17394 bound_to 11000
  139.9723  134.7272  156.0017 LP  0  0  0  0  0  0  0  0  0  0  0  0  # atno 17395 bound_to 11000

$$$$
