AV-unprocessed.smi:177|AV-procd|sdf|1443|dock6
  -GOLD-   2262019233D 1   1.00000     0.00000
 Structure written by MMmdl.
 61 65  0  0  0  0  0  0  0  0  1 V2000
  152.1434  144.7357  161.4794 C   0  0  0  0  0  0  0  0  0  0  0  0
  152.0258  143.5135  160.7671 O   0  0  0  0  0  0  0  0  0  0  0  0
  152.5522  143.5390  159.4438 C   0  0  2  0  0  0  0  0  0  0  0  0
  151.3854  143.8206  158.4789 C   0  0  0  0  0  0  0  0  0  0  0  0
  150.3946  142.6454  158.4139 C   0  0  0  0  0  0  0  0  0  0  0  0
  151.1128  141.3341  158.0600 C   0  0  2  0  0  0  0  0  0  0  0  0
  150.1689  140.2680  158.0713 O   0  0  0  0  0  0  0  0  0  0  0  0
  150.7578  139.0337  157.6759 C   0  0  0  0  0  0  0  0  0  0  0  0
  151.8799  138.6614  158.6583 C   0  0  0  0  0  0  0  0  0  0  0  0
  152.8543  139.7428  158.7510 N   0  0  0  0  0  0  0  0  0  0  0  0
  153.9275  139.3686  159.4846 C   0  0  0  0  0  0  0  0  0  0  0  0
  155.0514  140.1140  159.3468 N   0  0  0  0  0  0  0  0  0  0  0  0
  156.1456  139.8106  160.0510 C   0  0  0  0  0  0  0  0  0  0  0  0
  156.3271  138.8189  160.9252 N   0  0  0  0  0  0  0  0  0  0  0  0
  155.2052  138.0534  161.0520 C   0  0  0  0  0  0  0  0  0  0  0  0
  153.9697  138.2561  160.3743 C   0  0  0  0  0  0  0  0  0  0  0  0
  153.0567  137.2820  160.7584 N   0  0  0  0  0  0  0  0  0  0  0  0
  153.7084  136.5560  161.6237 C   0  0  0  0  0  0  0  0  0  0  0  0
  155.0133  136.9349  161.8467 N   0  0  0  0  0  0  0  0  0  0  0  0
  155.9579  136.3026  162.7581 C   0  0  0  0  0  0  0  0  0  0  0  0
  155.4000  135.9951  164.1850 C   0  0  0  0  0  0  0  0  0  0  0  0
  154.4520  134.7673  164.1489 C   0  0  0  0  0  0  0  0  0  0  0  0
  153.9779  134.4196  165.4347 O   0  0  0  0  0  0  0  0  0  0  0  0
  156.5659  135.7173  165.1675 C   0  0  0  0  0  0  0  0  0  0  0  0
  157.3683  136.9841  165.5214 C   0  0  0  0  0  0  0  0  0  0  0  0
  156.5029  137.9845  166.0431 O   0  0  0  0  0  0  0  0  0  0  0  0
  155.5017  138.3877  165.1179 C   0  0  0  0  0  0  0  0  0  0  0  0
  154.6025  137.1877  164.7720 C   0  0  0  0  0  0  0  0  0  0  0  0
  152.2403  141.0339  159.0738 C   0  0  1  0  0  0  0  0  0  0  0  0
  153.2469  142.2086  159.0820 C   0  0  0  0  0  0  0  0  0  0  0  0
  151.6550  144.6347  162.4483 H   0  0  0  0  0  0  0  0  0  0  0  0
  151.6588  145.5542  160.9461 H   0  0  0  0  0  0  0  0  0  0  0  0
  153.1829  145.0040  161.6653 H   0  0  0  0  0  0  0  0  0  0  0  0
  153.2668  144.3596  159.3612 H   0  0  0  0  0  0  0  0  0  0  0  0
  150.8652  144.7315  158.7764 H   0  0  0  0  0  0  0  0  0  0  0  0
  151.7826  144.0079  157.4803 H   0  0  0  0  0  0  0  0  0  0  0  0
  149.8876  142.5396  159.3740 H   0  0  0  0  0  0  0  0  0  0  0  0
  149.6193  142.8557  157.6767 H   0  0  0  0  0  0  0  0  0  0  0  0
  151.5310  141.4256  157.0554 H   0  0  0  0  0  0  0  0  0  0  0  0
  149.9904  138.2597  157.6702 H   0  0  0  0  0  0  0  0  0  0  0  0
  151.1420  139.1095  156.6575 H   0  0  0  0  0  0  0  0  0  0  0  0
  151.4592  138.4664  159.6462 H   0  0  0  0  0  0  0  0  0  0  0  0
  152.3673  137.7423  158.3293 H   0  0  0  0  0  0  0  0  0  0  0  0
  156.9975  140.4551  159.8921 H   0  0  0  0  0  0  0  0  0  0  0  0
  153.2515  135.7128  162.1204 H   0  0  0  0  0  0  0  0  0  0  0  0
  156.3158  135.3855  162.2887 H   0  0  0  0  0  0  0  0  0  0  0  0
  156.8309  136.9511  162.8118 H   0  0  0  0  0  0  0  0  0  0  0  0
  153.5836  134.9699  163.5209 H   0  0  0  0  0  0  0  0  0  0  0  0
  154.9481  133.9013  163.7106 H   0  0  0  0  0  0  0  0  0  0  0  0
  153.3578  133.7119  165.3462 H   0  0  0  0  0  0  0  0  0  0  0  0
  156.1689  135.2990  166.0935 H   0  0  0  0  0  0  0  0  0  0  0  0
  157.2387  134.9616  164.7600 H   0  0  0  0  0  0  0  0  0  0  0  0
  158.1173  136.7467  166.2772 H   0  0  0  0  0  0  0  0  0  0  0  0
  157.9130  137.3704  164.6596 H   0  0  0  0  0  0  0  0  0  0  0  0
  154.9055  139.1775  165.5750 H   0  0  0  0  0  0  0  0  0  0  0  0
  155.9610  138.8184  164.2280 H   0  0  0  0  0  0  0  0  0  0  0  0
  153.7996  137.4958  164.1036 H   0  0  0  0  0  0  0  0  0  0  0  0
  154.1056  136.8730  165.6910 H   0  0  0  0  0  0  0  0  0  0  0  0
  151.7826  140.9564  160.0599 H   0  0  0  0  0  0  0  0  0  0  0  0
  153.7031  142.2985  158.0953 H   0  0  0  0  0  0  0  0  0  0  0  0
  154.0715  142.0225  159.7680 H   0  0  0  0  0  0  0  0  0  0  0  0
  1  2  1  0  0  0  0
  1 31  1  0  0  0  0
  1 32  1  0  0  0  0
  1 33  1  0  0  0  0
  2  3  1  0  0  0  0
  3 30  1  0  0  0  0
  3  4  1  0  0  0  0
  3 34  1  0  0  0  0
  4  5  1  0  0  0  0
  4 35  1  0  0  0  0
  4 36  1  0  0  0  0
  5  6  1  0  0  0  0
  5 37  1  0  0  0  0
  5 38  1  0  0  0  0
  6 29  1  0  0  0  0
  6  7  1  0  0  0  0
  6 39  1  0  0  0  0
  7  8  1  0  0  0  0
  8  9  1  0  0  0  0
  8 40  1  0  0  0  0
  8 41  1  0  0  0  0
  9 10  1  0  0  0  0
  9 42  1  0  0  0  0
  9 43  1  0  0  0  0
 10 11  1  0  0  0  0
 10 29  1  0  0  0  0
 11 16  1  0  0  0  0
 11 12  2  0  0  0  0
 12 13  1  0  0  0  0
 13 14  2  0  0  0  0
 13 44  1  0  0  0  0
 14 15  1  0  0  0  0
 15 19  1  0  0  0  0
 15 16  2  0  0  0  0
 16 17  1  0  0  0  0
 17 18  2  0  0  0  0
 18 19  1  0  0  0  0
 18 45  1  0  0  0  0
 19 20  1  0  0  0  0
 20 21  1  0  0  0  0
 20 46  1  0  0  0  0
 20 47  1  0  0  0  0
 21 28  1  0  0  0  0
 21 22  1  0  0  0  0
 21 24  1  0  0  0  0
 22 23  1  0  0  0  0
 22 48  1  0  0  0  0
 22 49  1  0  0  0  0
 23 50  1  0  0  0  0
 24 25  1  0  0  0  0
 24 51  1  0  0  0  0
 24 52  1  0  0  0  0
 25 26  1  0  0  0  0
 25 53  1  0  0  0  0
 25 54  1  0  0  0  0
 26 27  1  0  0  0  0
 27 28  1  0  0  0  0
 27 55  1  0  0  0  0
 27 56  1  0  0  0  0
 28 57  1  0  0  0  0
 28 58  1  0  0  0  0
 29 30  1  0  0  0  0
 29 59  1  0  0  0  0
 30 60  1  0  0  0  0
 30 61  1  0  0  0  0
M  END
> <s_m_source_file>
AV-unprocessed.smi

> <i_m_source_file_index>
177

> <i_lp_mmshare_version>
43012

> <i_f3d_flags>
0

> <s_epik_input>
W0NIM11PW0NASF0oW0NIMl1bQ0gyXTEpW0NIMl1bQ0BIXShbQ0BASF0xMilOKFtDSDJdW0NIMl1PMiljKG5bY0hdbjMpYyhjMzQpbltjSF1uNFtDSDJdQzUoW0NIMl1bT0hdKVtDSDJdW0NIMl1PW0NIMl1bQ0gyXTU=

> <s_epik_cmdline>
J2VwaWtfcHl0aG9uJywgJy1waCcsICc3LjAnLCAnLXRuJywgJzgnLCAnLW1hJywgJzIwMCcsICctbWV0YWxfYmluZGluZycsICctaW1hZScsICc8aW5maWxlLm1hZT4nLCAnLW9tYWUnLCAnPG91dGZpbGUubWFlPic=

> <r_lp_tautomer_probability>
1

> <r_epik_Ionization_Penalty>
0.0065899

> <r_epik_Ionization_Penalty_Charging>
0

> <r_epik_Ionization_Penalty_Neutral>
0.0065899

> <r_epik_State_Penalty>
0.00470042

> <r_epik_Charging_Adjusted_Penalty>
0.00470042

> <i_epik_Tot_Q>
0

> <i_epik_Tot_abs_Q>
0

> <r_epik_Metal_State_Penalty>
-0

> <b_epik_Metal_Only>
0

> <s_lp_Force_Field>
OPLS_2005

> <r_lp_Energy>
42.7066

> <b_lp_Chiralities_Consistent>
1

> <s_lp_Variant>
AV-unprocessed.smi:177-7

> <Gold.Version>
5.8.1

> <Gold.Id.Protein>
6NUR|6NUR_protein|mol2

> <Gold.PLP.Fitness>
41.2657

> <Gold.PLP.PLP>
-40.9258

> <Gold.PLP.part.hbond>
-2.0746

> <Gold.PLP.part.metal>
0.0000

> <Gold.PLP.part.buried>
-5.3867

> <Gold.PLP.part.nonpolar>
-33.6162

> <Gold.PLP.part.repulsive>
0.1816

> <Gold.PLP.ligand.clash>
0.5693

> <Gold.PLP.ligand.torsion>
1.0930

> <Gold.PLP.Chemscore.Hbond>
0.9760

> <Gold.PLP.Chemscore.CHOScore>
0.0000

> <Gold.PLP.Chemscore.Metal>
0.0000

> <Gold.Chemscore.Hbonds>
donor molecule, donor type, donor heavy atom, donor atom, acceptor molecule, acceptor atom, score
      P1  H  7997  8009       L1    12  0.98

> <Gold.PLP.Chemscore.Internal.Correction>
0.1671

> <Gold.Rescore>
     Score         DG    S(hbond)    S(metal)    S(lipo)     H(rot)  DE(clash)    DE(int)     intcor
      8.20     -13.80       0.45        0.00     114.77       2.58       1.80       3.81       ----

> <Gold.Chemscore.Fitness>
8.1993

> <Gold.Chemscore.DG>
-13.8048

> <Gold.Chemscore.ZeroCoef>
-5.4800

> <Gold.Chemscore.Hbond>
0.4500

> <Gold.Chemscore.Metal>
0.0000

> <Gold.Chemscore.Lipo>
114.7685

> <Gold.Chemscore.Internal_Hbond>
0.0000

> <Gold.Chemscore.DEClash>
1.7968

> <Gold.Chemscore.DEInternal>
3.8086

> <Gold.Chemscore.Rot>
2.5806

> <Gold.Chemscore.Internal.Correction>
   9.000000E+99

> <Gold.Chemscore.Hbonds>
donor molecule, donor type, donor heavy atom, donor atom, acceptor molecule, acceptor atom, score
      P1  H  7997  8009       L1    12  0.24

> <Gold.Chemscore.Hbond.Weighted>
-1.5031

> <Gold.Chemscore.Metal.Weighted>
-0.0000

> <Gold.Chemscore.Lipo.Weighted>
-13.4279

> <Gold.Chemscore.Internal_Hbond.Weighted>
0.0000

> <Gold.Chemscore.DEClash.Weighted>
1.7968

> <Gold.Chemscore.DEInternal.Weighted>
3.8086

> <Gold.Chemscore.Rot.Weighted>
6.6062

> <Gold.Chemscore.Internal.Correction.Weighted>
   9.000000E+99

> <Gold.Protein.RotatedTorsions>
[ 6907 6896 6895 6894 ] final -176.73 input  -60.11 | X-H torsion
[ 7974 7965 7964 7962 ] final  160.61 input  175.53 | X-H torsion
[ 8008 7997 7996 7995 ] final  108.17 input   59.86 | X-H torsion
[ 10167 10162 10161 10158 ] final   49.43 input  -65.29 | X-H torsion
[ 10718 10713 10712 10709 ] final  -41.99 input   66.30 | X-H torsion
[ 10763 10752 10751 10750 ] final  -56.61 input  -60.55 | X-H torsion
[ 11005 11000 10999 10996 ] final  -70.51 input  -57.11 | X-H torsion

> <Gold.Protein.ActiveResidues>
 VAL166  LYS551  ARG553  GLY616  TRP617  ASP618  TYR619  PRO620  LYS621  CYS622 
 ASP623  PHE694  ASN695  SER759  ASP760  ASP761  ALA762  ILE779  LEU786  VAL792 
 PHE793  MET794  SER795  GLU796  ALA797  LYS798  CYS799  TRP800  GLU811  SER814 

> <Gold.Protein.RotatedAtoms>
  151.6095  133.3348  159.3064 H   0  0  0  0  0  0  0  0  0  0  0  0  # atno 6907 bound_to 6896
  150.8164  134.7352  159.6745 H   0  0  0  0  0  0  0  0  0  0  0  0  # atno 6908 bound_to 6896
  152.4260  134.5873  160.0016 H   0  0  0  0  0  0  0  0  0  0  0  0  # atno 6909 bound_to 6896
  144.7728  139.7781  143.6290 H   0  0  0  0  0  0  0  0  0  0  0  0  # atno 7974 bound_to 7965
  156.1882  140.3081  155.9280 H   0  0  0  0  0  0  0  0  0  0  0  0  # atno 8008 bound_to 7997
  155.3233  140.0457  157.3057 H   0  0  0  0  0  0  0  0  0  0  0  0  # atno 8009 bound_to 7997
  154.5421  140.2265  155.8634 H   0  0  0  0  0  0  0  0  0  0  0  0  # atno 8010 bound_to 7997
  140.2830  144.3135  150.6259 H   0  0  0  0  0  0  0  0  0  0  0  0  # atno 10167 bound_to 10162
  156.2644  130.4200  149.8507 H   0  0  0  0  0  0  0  0  0  0  0  0  # atno 10718 bound_to 10713
  154.2094  135.6397  153.5111 H   0  0  0  0  0  0  0  0  0  0  0  0  # atno 10763 bound_to 10752
  152.9993  135.5470  154.6231 H   0  0  0  0  0  0  0  0  0  0  0  0  # atno 10764 bound_to 10752
  154.5664  135.2913  155.0843 H   0  0  0  0  0  0  0  0  0  0  0  0  # atno 10765 bound_to 10752
  141.1575  133.6792  156.6763 H   0  0  0  0  0  0  0  0  0  0  0  0  # atno 11005 bound_to 11000
  146.1887  139.5116  142.9819 LP  0  0  0  0  0  0  0  0  0  0  0  0  # atno 17320 bound_to 7965
  145.6273  141.0311  143.1882 LP  0  0  0  0  0  0  0  0  0  0  0  0  # atno 17321 bound_to 7965
  140.5796  143.2174  151.7452 LP  0  0  0  0  0  0  0  0  0  0  0  0  # atno 17342 bound_to 10162
  139.4958  144.4099  152.0092 LP  0  0  0  0  0  0  0  0  0  0  0  0  # atno 17343 bound_to 10162
  156.6011  130.8547  151.3432 LP  0  0  0  0  0  0  0  0  0  0  0  0  # atno 17370 bound_to 10713
  157.7262  130.9626  150.1646 LP  0  0  0  0  0  0  0  0  0  0  0  0  # atno 17371 bound_to 10713
  140.3136  134.8065  157.4196 LP  0  0  0  0  0  0  0  0  0  0  0  0  # atno 17394 bound_to 11000
  140.1157  134.5286  155.8227 LP  0  0  0  0  0  0  0  0  0  0  0  0  # atno 17395 bound_to 11000

$$$$
