AV-unprocessed.smi:652|AV-procd|sdf|3197|dock5
  -GOLD-   22720 0123D 1   1.00000     0.00000
 Structure written by MMmdl.
 47 48  0  0  0  0  0  0  0  0  1 V2000
  147.8225  136.6899  163.1489 C   0  0  0  0  0  0  0  0  0  0  0  0
  147.2865  135.8455  161.9825 C   0  0  0  0  0  0  0  0  0  0  0  0
  147.2102  134.3564  162.3453 C   0  0  0  0  0  0  0  0  0  0  0  0
  148.1283  136.0128  160.8017 N   0  0  0  0  0  0  0  0  0  0  0  0
  147.9922  136.9770  159.8779 C   0  0  0  0  0  0  0  0  0  0  0  0
  147.1415  137.8646  159.9428 O   0  0  0  0  0  0  0  0  0  0  0  0
  148.9653  136.9317  158.6952 C   0  0  0  0  0  0  0  0  0  0  0  0
  149.9535  138.1174  158.6789 C   0  0  0  0  0  0  0  0  0  0  0  0
  149.9870  138.9017  157.4425 N   0  0  0  0  0  0  0  0  0  0  0  0
  150.5871  138.1716  156.3289 C   0  0  0  0  0  0  0  0  0  0  0  0
  150.6161  139.0146  155.0424 C   0  0  0  0  0  0  0  0  0  0  0  0
  151.3085  140.2362  155.2795 O   0  0  0  0  0  0  0  0  0  0  0  0
  150.7413  140.9993  156.3419 C   0  0  2  0  0  0  0  0  0  0  0  0
  151.5144  142.3195  156.4873 C   0  0  0  0  0  0  0  0  0  0  0  0
  150.8258  143.2769  157.3417 N   0  0  0  0  0  0  0  0  0  0  0  0
  151.3091  143.5756  158.6216 C   0  0  0  0  0  0  0  0  0  0  0  0
  151.6893  144.8798  159.0140 C   0  0  0  0  0  0  0  0  0  0  0  0
  152.1585  145.0528  160.3276 C   0  0  0  0  0  0  0  0  0  0  0  0
  152.2134  143.9130  161.1496 C   0  0  0  0  0  0  0  0  0  0  0  0
  151.8368  142.6877  160.7206 N   0  0  0  0  0  0  0  0  0  0  0  0
  151.3902  142.5240  159.4700 N   0  0  0  0  0  0  0  0  0  0  0  0
  150.7080  140.1545  157.6330 C   0  0  0  0  0  0  0  0  0  0  0  0
  147.1941  136.5780  164.0330 H   0  0  0  0  0  0  0  0  0  0  0  0
  147.8423  137.7500  162.8941 H   0  0  0  0  0  0  0  0  0  0  0  0
  148.8359  136.3937  163.4215 H   0  0  0  0  0  0  0  0  0  0  0  0
  146.2741  136.1803  161.7489 H   0  0  0  0  0  0  0  0  0  0  0  0
  146.5611  134.1962  163.2066 H   0  0  0  0  0  0  0  0  0  0  0  0
  148.1941  133.9554  162.5913 H   0  0  0  0  0  0  0  0  0  0  0  0
  146.8084  133.7707  161.5177 H   0  0  0  0  0  0  0  0  0  0  0  0
  148.8588  135.3294  160.6651 H   0  0  0  0  0  0  0  0  0  0  0  0
  149.5262  135.9988  158.7569 H   0  0  0  0  0  0  0  0  0  0  0  0
  148.4128  136.8838  157.7560 H   0  0  0  0  0  0  0  0  0  0  0  0
  149.6912  138.7772  159.5074 H   0  0  0  0  0  0  0  0  0  0  0  0
  150.9554  137.7499  158.9050 H   0  0  0  0  0  0  0  0  0  0  0  0
  151.6034  137.8708  156.5876 H   0  0  0  0  0  0  0  0  0  0  0  0
  150.0293  137.2566  156.1324 H   0  0  0  0  0  0  0  0  0  0  0  0
  151.1185  138.4695  154.2431 H   0  0  0  0  0  0  0  0  0  0  0  0
  149.6025  139.2248  154.6980 H   0  0  0  0  0  0  0  0  0  0  0  0
  149.7153  141.2487  156.0648 H   0  0  0  0  0  0  0  0  0  0  0  0
  152.5045  142.1204  156.8992 H   0  0  0  0  0  0  0  0  0  0  0  0
  151.6592  142.7611  155.5006 H   0  0  0  0  0  0  0  0  0  0  0  0
  149.8971  143.5771  157.0817 H   0  0  0  0  0  0  0  0  0  0  0  0
  151.6278  145.7263  158.3469 H   0  0  0  0  0  0  0  0  0  0  0  0
  152.4646  146.0223  160.6915 H   0  0  0  0  0  0  0  0  0  0  0  0
  152.5653  143.9834  162.1681 H   0  0  0  0  0  0  0  0  0  0  0  0
  150.2369  140.7327  158.4289 H   0  0  0  0  0  0  0  0  0  0  0  0
  151.7260  139.9423  157.9631 H   0  0  0  0  0  0  0  0  0  0  0  0
  1  2  1  0  0  0  0
  1 23  1  0  0  0  0
  1 24  1  0  0  0  0
  1 25  1  0  0  0  0
  2  3  1  0  0  0  0
  2  4  1  0  0  0  0
  2 26  1  0  0  0  0
  3 27  1  0  0  0  0
  3 28  1  0  0  0  0
  3 29  1  0  0  0  0
  4  5  1  0  0  0  0
  4 30  1  0  0  0  0
  5  6  2  0  0  0  0
  5  7  1  0  0  0  0
  7  8  1  0  0  0  0
  7 31  1  0  0  0  0
  7 32  1  0  0  0  0
  8  9  1  0  0  0  0
  8 33  1  0  0  0  0
  8 34  1  0  0  0  0
  9 22  1  0  0  0  0
  9 10  1  0  0  0  0
 10 11  1  0  0  0  0
 10 35  1  0  0  0  0
 10 36  1  0  0  0  0
 11 12  1  0  0  0  0
 11 37  1  0  0  0  0
 11 38  1  0  0  0  0
 12 13  1  0  0  0  0
 13 14  1  0  0  0  0
 13 22  1  0  0  0  0
 13 39  1  0  0  0  0
 14 15  1  0  0  0  0
 14 40  1  0  0  0  0
 14 41  1  0  0  0  0
 15 16  1  0  0  0  0
 15 42  1  0  0  0  0
 16 21  1  0  0  0  0
 16 17  2  0  0  0  0
 17 18  1  0  0  0  0
 17 43  1  0  0  0  0
 18 19  2  0  0  0  0
 18 44  1  0  0  0  0
 19 20  1  0  0  0  0
 19 45  1  0  0  0  0
 20 21  2  0  0  0  0
 22 46  1  0  0  0  0
 22 47  1  0  0  0  0
M  END
> <s_m_source_file>
AV-unprocessed.smi

> <i_m_source_file_index>
652

> <i_lp_mmshare_version>
43012

> <i_f3d_flags>
0

> <s_epik_input>
W0NIM11bQ0hdKFtDSDNdKVtOSF1DKD1PKVtDSDJdW0NIMl1OMVtDSDJdW0NIMl1PW0NASF0oW0NIMl0xKVtDSDJdW05IXWMyW2NIXVtjSF1bY0hdbm4y

> <s_epik_cmdline>
J2VwaWtfcHl0aG9uJywgJy1waCcsICc3LjAnLCAnLXRuJywgJzgnLCAnLW1hJywgJzIwMCcsICctbWV0YWxfYmluZGluZycsICctaW1hZScsICc8aW5maWxlLm1hZT4nLCAnLW9tYWUnLCAnPG91dGZpbGUubWFlPic=

> <r_lp_tautomer_probability>
0.999978

> <r_epik_Ionization_Penalty>
0.428793

> <r_epik_Ionization_Penalty_Charging>
0

> <r_epik_Ionization_Penalty_Neutral>
0.428793

> <r_epik_State_Penalty>
0.437051

> <r_epik_Charging_Adjusted_Penalty>
0.437051

> <i_epik_Tot_Q>
0

> <i_epik_Tot_abs_Q>
0

> <r_epik_Metal_State_Penalty>
0.432371

> <b_epik_Metal_Only>
0

> <s_lp_Force_Field>
OPLS_2005

> <r_lp_Energy>
25.2897

> <b_lp_Chiralities_Consistent>
1

> <s_lp_Variant>
AV-unprocessed.smi:652-6

> <Gold.Version>
5.8.1

> <Gold.Id.Protein>
6NUR|6NUR_protein|mol2

> <Gold.PLP.Fitness>
50.6355

> <Gold.PLP.PLP>
-45.3371

> <Gold.PLP.part.hbond>
-4.4925

> <Gold.PLP.part.metal>
0.0000

> <Gold.PLP.part.buried>
-8.8576

> <Gold.PLP.part.nonpolar>
-32.1053

> <Gold.PLP.part.repulsive>
0.2613

> <Gold.PLP.ligand.clash>
0.0000

> <Gold.PLP.ligand.torsion>
1.5445

> <Gold.PLP.Chemscore.Hbond>
2.7667

> <Gold.PLP.Chemscore.CHOScore>
0.0000

> <Gold.PLP.Chemscore.Metal>
0.0000

> <Gold.Chemscore.Hbonds>
donor molecule, donor type, donor heavy atom, donor atom, acceptor molecule, acceptor atom, score
      L1  H    15    42       P1  8028  0.74
      P1  H  6934  6947       L1     6  0.86
      P1  H  7989  7998       L1    12  1.00

> <Gold.PLP.Chemscore.Internal.Correction>
0.0874

> <Gold.Rescore>
     Score         DG    S(hbond)    S(metal)    S(lipo)     H(rot)  DE(clash)    DE(int)     intcor
     17.86     -19.40       2.31        0.00     101.28       2.20       0.08       1.46       ----

> <Gold.Chemscore.Fitness>
17.8611

> <Gold.Chemscore.DG>
-19.3990

> <Gold.Chemscore.ZeroCoef>
-5.4800

> <Gold.Chemscore.Hbond>
2.3067

> <Gold.Chemscore.Metal>
0.0000

> <Gold.Chemscore.Lipo>
101.2833

> <Gold.Chemscore.Internal_Hbond>
0.0000

> <Gold.Chemscore.DEClash>
0.0810

> <Gold.Chemscore.DEInternal>
1.4569

> <Gold.Chemscore.Rot>
2.2013

> <Gold.Chemscore.Internal.Correction>
   9.000000E+99

> <Gold.Chemscore.Hbonds>
donor molecule, donor type, donor heavy atom, donor atom, acceptor molecule, acceptor atom, score
      L1  H    15    42       P1  8028  0.70
      P1  H  6934  6947       L1     6  0.79
      P1  H  7989  7998       L1    12  0.38

> <Gold.Chemscore.Hbond.Weighted>
-7.7043

> <Gold.Chemscore.Metal.Weighted>
-0.0000

> <Gold.Chemscore.Lipo.Weighted>
-11.8501

> <Gold.Chemscore.Internal_Hbond.Weighted>
0.0000

> <Gold.Chemscore.DEClash.Weighted>
0.0810

> <Gold.Chemscore.DEInternal.Weighted>
1.4569

> <Gold.Chemscore.Rot.Weighted>
5.6354

> <Gold.Chemscore.Internal.Correction.Weighted>
   9.000000E+99

> <Gold.Protein.RotatedTorsions>
[ 6907 6896 6895 6894 ] final  -18.49 input  -60.11 | X-H torsion
[ 7974 7965 7964 7962 ] final  144.65 input  175.53 | X-H torsion
[ 8008 7997 7996 7995 ] final -173.60 input   59.86 | X-H torsion
[ 10167 10162 10161 10158 ] final -103.26 input  -65.29 | X-H torsion
[ 10718 10713 10712 10709 ] final   68.49 input   66.30 | X-H torsion
[ 10763 10752 10751 10750 ] final  107.78 input  -60.55 | X-H torsion
[ 11005 11000 10999 10996 ] final   64.25 input  -57.11 | X-H torsion

> <Gold.Protein.ActiveResidues>
 VAL166  LYS551  ARG553  GLY616  TRP617  ASP618  TYR619  PRO620  LYS621  CYS622 
 ASP623  PHE694  ASN695  SER759  ASP760  ASP761  ALA762  ILE779  LEU786  VAL792 
 PHE793  MET794  SER795  GLU796  ALA797  LYS798  CYS799  TRP800  GLU811  SER814 

> <Gold.Protein.RotatedAtoms>
  151.2774  135.0703  159.9156 H   0  0  0  0  0  0  0  0  0  0  0  0  # atno 6907 bound_to 6896
  152.5340  134.0067  159.7930 H   0  0  0  0  0  0  0  0  0  0  0  0  # atno 6908 bound_to 6896
  151.0315  133.5736  159.2691 H   0  0  0  0  0  0  0  0  0  0  0  0  # atno 6909 bound_to 6896
  144.8818  139.5688  143.5839 H   0  0  0  0  0  0  0  0  0  0  0  0  # atno 7974 bound_to 7965
  155.9595  140.1141  157.0908 H   0  0  0  0  0  0  0  0  0  0  0  0  # atno 8008 bound_to 7997
  154.4128  140.1185  156.5226 H   0  0  0  0  0  0  0  0  0  0  0  0  # atno 8009 bound_to 7997
  155.6739  140.3473  155.4831 H   0  0  0  0  0  0  0  0  0  0  0  0  # atno 8010 bound_to 7997
  140.2219  143.3670  152.0962 H   0  0  0  0  0  0  0  0  0  0  0  0  # atno 10167 bound_to 10162
  157.6292  130.9376  150.0385 H   0  0  0  0  0  0  0  0  0  0  0  0  # atno 10718 bound_to 10713
  153.4115  135.3833  155.2053 H   0  0  0  0  0  0  0  0  0  0  0  0  # atno 10763 bound_to 10752
  154.8738  135.3795  154.4495 H   0  0  0  0  0  0  0  0  0  0  0  0  # atno 10764 bound_to 10752
  153.5004  135.7088  153.5897 H   0  0  0  0  0  0  0  0  0  0  0  0  # atno 10765 bound_to 10752
  139.9971  134.6500  155.9992 H   0  0  0  0  0  0  0  0  0  0  0  0  # atno 11005 bound_to 11000
  146.2999  139.7394  142.9099 LP  0  0  0  0  0  0  0  0  0  0  0  0  # atno 17320 bound_to 7965
  145.3940  141.0376  143.3108 LP  0  0  0  0  0  0  0  0  0  0  0  0  # atno 17321 bound_to 7965
  139.5141  144.6943  151.5674 LP  0  0  0  0  0  0  0  0  0  0  0  0  # atno 17342 bound_to 10162
  140.6249  143.9188  150.6556 LP  0  0  0  0  0  0  0  0  0  0  0  0  # atno 17343 bound_to 10162
  156.1484  130.3642  149.9475 LP  0  0  0  0  0  0  0  0  0  0  0  0  # atno 17370 bound_to 10713
  156.7500  130.9112  151.3637 LP  0  0  0  0  0  0  0  0  0  0  0  0  # atno 17371 bound_to 10713
  141.1613  133.6539  156.4329 LP  0  0  0  0  0  0  0  0  0  0  0  0  # atno 17394 bound_to 11000
  140.4797  134.6676  157.5165 LP  0  0  0  0  0  0  0  0  0  0  0  0  # atno 17395 bound_to 11000

$$$$
