#       Name:                AV-unprocessed.smi:2106
#       Creating user name   scv26
#       Creation time:       Fri Mar 27 11:32:54 2020


#       File generated by GOLD software.
#

@<TRIPOS>MOLECULE
AV-unprocessed.smi:2106
    53    54     1
SMALL
NO_CHARGES


@<TRIPOS>ATOM
      1 ****        -6.5728   2.5699  -0.9875 C.3            1 S1                 0.0000
      2 ****        -5.6800   1.8506  -0.0201 C.2            1 S1                 0.0000
      3 ****        -5.4806   2.1192   1.3628 C.2            1 S1                 0.0000
      4 ****        -4.5745   1.1775   1.7622 C.2            1 S1                 0.0000
      5 ****        -3.9627   0.9370   3.1032 C.3            1 S1                 0.0000
      6 ****        -4.2735   0.4122   0.6490 N.pl3          1 S1                 0.0000
      7 ****        -3.3665  -0.7210   0.5299 C.3            1 S1                 0.0000
      8 ****        -1.8935  -0.2976   0.4718 C.2            1 S1                 0.0000
      9 ****        -1.5716   0.8305   0.0954 O.2            1 S1                 0.0000
     10 ****        -1.0017  -1.2260   0.8498 N.am           1 S1                 0.0000
     11 ****         0.4438  -1.0384   0.8720 C.3            1 S1                 0.0000
     12 ****         1.0465  -1.1688  -0.5394 C.3            1 S1                 0.0000
     13 ****         2.5059  -1.1086  -0.5966 N.3            1 S1                 0.0000
     14 ****         3.0256   0.2120  -0.2540 C.3            1 S1                 0.0000
     15 ****         4.5633   0.2604  -0.3146 C.3            1 S1                 0.0000
     16 ****         5.1058   1.6688  -0.0494 C.3            1 S1                 0.0000
     17 ****         5.0037  -0.1464  -1.6090 O.3            1 S1                 0.0000
     18 ****         4.5227  -1.4194  -2.0429 C.3            1 S1                 0.0000
     19 ****         5.2338  -2.5761  -1.3200 C.3            1 S1                 0.0000
     20 ****         2.9866  -1.4752  -1.9247 C.3            1 S1                 0.0000
     21 ****        -4.9562   0.8264  -0.4407 N.2            1 S1                 0.0000
     22 ****        -7.1818   3.3185  -0.4805 H              1 S1                 0.0000
     23 ****        -7.2489   1.8771  -1.4894 H              1 S1                 0.0000
     24 ****        -5.9888   3.0808  -1.7531 H              1 S1                 0.0000
     25 ****        -5.9348   2.8882   1.9698 H              1 S1                 0.0000
     26 ****        -4.3731   1.6204   3.8467 H              1 S1                 0.0000
     27 ****        -2.8836   1.0875   3.0698 H              1 S1                 0.0000
     28 ****        -4.1541  -0.0808   3.4430 H              1 S1                 0.0000
     29 ****        -3.5320  -1.3870   1.3777 H              1 S1                 0.0000
     30 ****        -3.6096  -1.2871  -0.3707 H              1 S1                 0.0000
     31 ****        -1.3491  -2.1281   1.1418 H              1 S1                 0.0000
     32 ****         0.6733  -0.0705   1.3187 H              1 S1                 0.0000
     33 ****         0.8727  -1.7956   1.5288 H              1 S1                 0.0000
     34 ****         0.7200  -2.1259  -0.9489 H              1 S1                 0.0000
     35 ****         0.6233  -0.4053  -1.1938 H              1 S1                 0.0000
     36 ****         2.6093   0.9592  -0.9316 H              1 S1                 0.0000
     37 ****         2.7119   0.4927   0.7507 H              1 S1                 0.0000
     38 ****         4.9779  -0.4126   0.4364 H              1 S1                 0.0000
     39 ****         4.8096   2.0238   0.9378 H              1 S1                 0.0000
     40 ****         4.7342   2.3808  -0.7868 H              1 S1                 0.0000
     41 ****         6.1950   1.6816  -0.0939 H              1 S1                 0.0000
     42 ****         4.7793  -1.4999  -3.0996 H              1 S1                 0.0000
     43 ****         4.9367  -3.5367  -1.7415 H              1 S1                 0.0000
     44 ****         4.9991  -2.6014  -0.2562 H              1 S1                 0.0000
     45 ****         6.3159  -2.4911  -1.4218 H              1 S1                 0.0000
     46 ****         2.6383  -2.4754  -2.1856 H              1 S1                 0.0000
     47 ****         2.5542  -0.7989  -2.6637 H              1 S1                 0.0000
     48 ****        -2.2754   1.4861  -0.1782 LP             1 S1                 0.0000
     49 ****        -0.6065   1.0905   0.0634 LP             1 S1                 0.0000
     50 ****         2.8400  -1.7621   0.0826 LP             1 S1                 0.0000
     51 ****         6.0031  -0.1803  -1.5993 LP             1 S1                 0.0000
     52 ****         4.6999   0.5405  -2.2692 LP             1 S1                 0.0000
     53 ****        -4.9219   0.4426  -1.3635 LP             1 S1                 0.0000
@<TRIPOS>BOND
    1    1    2 1     
    2    1   22 1     
    3    1   23 1     
    4    1   24 1     
    5    2   21 2     
    6    2    3 1     
    7    3    4 2     
    8    3   25 1     
    9    4    5 1     
   10    4    6 1     
   11    5   26 1     
   12    5   27 1     
   13    5   28 1     
   14    6    7 1     
   15    6   21 1     
   16    7    8 1     
   17    7   29 1     
   18    7   30 1     
   19    8    9 2     
   20    8   10 am    
   21   10   11 1     
   22   10   31 1     
   23   11   12 1     
   24   11   32 1     
   25   11   33 1     
   26   12   13 1     
   27   12   34 1     
   28   12   35 1     
   29   13   20 1     
   30   13   14 1     
   31   14   15 1     
   32   14   36 1     
   33   14   37 1     
   34   15   16 1     
   35   15   17 1     
   36   15   38 1     
   37   16   39 1     
   38   16   40 1     
   39   16   41 1     
   40   17   18 1     
   41   18   19 1     
   42   18   20 1     
   43   18   42 1     
   44   19   43 1     
   45   19   44 1     
   46   19   45 1     
   47   20   46 1     
   48   20   47 1     
   49    9   48 1     
   50    9   49 1     
   51   13   50 1     
   52   17   51 1     
   53   17   52 1     
   54   21   53 1     
@<TRIPOS>SUBSTRUCTURE
      1 S1             1
@<TRIPOS>SET
LONE_PAIRS      STATIC     ATOMS    <user>   **** ""
6 48 49 50 51 52 53
DONOR_HYDROGENS      STATIC     ATOMS    <user>   **** ""
1 31
ATOM$BLUE        STATIC     ATOMS    COLORGROUP SYSTEM
6 48 49 50 51 52 53
ATOM$RED        STATIC     ATOMS    COLORGROUP SYSTEM
1 31
