AV-unprocessed.smi:1388|AV-procd|sdf|5645|dock8
  -GOLD-   22720 5263D 1   1.00000     0.00000
 Structure written by MMmdl.
 45 46  0  0  0  0  0  0  0  0  3 V2000
  150.3655  132.4610  156.5404 C   0  0  0  0  0  0  0  0  0  0  0  0
  150.1159  133.6551  157.3395 N   0  5  0  0  0  0  0  0  0  0  0  0
  149.9818  134.9009  156.8060 C   0  0  0  0  0  0  0  0  0  0  0  0
  150.0312  136.0145  157.3376 O   0  0  0  0  0  0  0  0  0  0  0  0
  149.7307  134.8294  155.2946 C   0  0  0  0  0  0  0  0  0  0  0  0
  149.7661  136.1840  154.6856 N   0  3  2  0  0  0  0  0  0  0  0  0
  151.0736  136.8587  154.8840 C   0  0  0  0  0  0  0  0  0  0  0  0
  151.1363  138.1933  154.1189 C   0  0  0  0  0  0  0  0  0  0  0  0
  149.9755  139.1299  154.4952 C   0  0  2  0  0  0  0  0  0  0  0  0
  150.1561  139.6456  155.8519 N   0  0  0  0  0  0  0  0  0  0  0  0
  151.3238  140.0285  156.3890 C   0  0  0  0  0  0  0  0  0  0  0  0
  152.3929  139.9972  155.7792 O   0  0  0  0  0  0  0  0  0  0  0  0
  151.1600  140.4437  157.6576 N   0  0  0  0  0  0  0  0  0  0  0  0
  152.1461  140.9112  158.5717 C   0  0  0  0  0  0  0  0  0  0  0  0
  153.2158  140.1626  158.9403 N   0  0  0  0  0  0  0  0  0  0  0  0
  154.1109  140.6661  159.8146 C   0  0  0  0  0  0  0  0  0  0  0  0
  153.9966  141.9491  160.3766 C   0  0  0  0  0  0  0  0  0  0  0  0
  152.8952  142.7385  160.0042 C   0  0  0  0  0  0  0  0  0  0  0  0
  151.9534  142.2198  159.0901 C   0  0  0  0  0  0  0  0  0  0  0  0
  150.7615  143.0725  158.6866 C   0  0  0  0  0  0  0  0  0  0  0  0
  148.6361  138.3833  154.3399 C   0  0  0  0  0  0  0  0  0  0  0  0
  148.6287  137.0468  155.1028 C   0  0  0  0  0  0  0  0  0  0  0  0
  150.5049  131.5787  157.1646 H   0  0  0  0  0  0  0  0  0  0  0  0
  151.2635  132.5500  155.9283 H   0  0  0  0  0  0  0  0  0  0  0  0
  149.5418  132.2344  155.8629 H   0  0  0  0  0  0  0  0  0  0  0  0
  150.4598  134.1767  154.8117 H   0  0  0  0  0  0  0  0  0  0  0  0
  148.7529  134.3692  155.1419 H   0  0  0  0  0  0  0  0  0  0  0  0
  151.2419  137.0208  155.9497 H   0  0  0  0  0  0  0  0  0  0  0  0
  151.8771  136.2103  154.5324 H   0  0  0  0  0  0  0  0  0  0  0  0
  152.0932  138.6847  154.2991 H   0  0  0  0  0  0  0  0  0  0  0  0
  151.0979  137.9899  153.0477 H   0  0  0  0  0  0  0  0  0  0  0  0
  149.9885  139.9771  153.8069 H   0  0  0  0  0  0  0  0  0  0  0  0
  149.3300  139.7027  156.4292 H   0  0  0  0  0  0  0  0  0  0  0  0
  150.2182  140.4173  158.0183 H   0  0  0  0  0  0  0  0  0  0  0  0
  154.9417  140.0266  160.0732 H   0  0  0  0  0  0  0  0  0  0  0  0
  154.7342  142.3175  161.0741 H   0  0  0  0  0  0  0  0  0  0  0  0
  152.7777  143.7295  160.4170 H   0  0  0  0  0  0  0  0  0  0  0  0
  150.7832  144.0443  159.1806 H   0  0  0  0  0  0  0  0  0  0  0  0
  149.8284  142.5787  158.9595 H   0  0  0  0  0  0  0  0  0  0  0  0
  150.7621  143.2444  157.6099 H   0  0  0  0  0  0  0  0  0  0  0  0
  147.8061  139.0087  154.6711 H   0  0  0  0  0  0  0  0  0  0  0  0
  148.4586  138.1860  153.2817 H   0  0  0  0  0  0  0  0  0  0  0  0
  147.6832  136.5378  154.9129 H   0  0  0  0  0  0  0  0  0  0  0  0
  148.6782  137.2241  156.1782 H   0  0  0  0  0  0  0  0  0  0  0  0
  149.6707  136.0297  153.6911 H   0  0  0  0  0  0  0  0  0  0  0  0
  1  2  1  0  0  0  0
  1 23  1  0  0  0  0
  1 24  1  0  0  0  0
  1 25  1  0  0  0  0
  2  3  1  0  0  0  0
  3  4  2  0  0  0  0
  3  5  1  0  0  0  0
  5  6  1  0  0  0  0
  5 26  1  0  0  0  0
  5 27  1  0  0  0  0
  6 22  1  0  0  0  0
  6  7  1  0  0  0  0
  6 45  1  0  0  0  0
  7  8  1  0  0  0  0
  7 28  1  0  0  0  0
  7 29  1  0  0  0  0
  8  9  1  0  0  0  0
  8 30  1  0  0  0  0
  8 31  1  0  0  0  0
  9 10  1  0  0  0  0
  9 21  1  0  0  0  0
  9 32  1  0  0  0  0
 10 11  1  0  0  0  0
 10 33  1  0  0  0  0
 11 12  2  0  0  0  0
 11 13  1  0  0  0  0
 13 14  1  0  0  0  0
 13 34  1  0  0  0  0
 14 19  1  0  0  0  0
 14 15  2  0  0  0  0
 15 16  1  0  0  0  0
 16 17  2  0  0  0  0
 16 35  1  0  0  0  0
 17 18  1  0  0  0  0
 17 36  1  0  0  0  0
 18 19  2  0  0  0  0
 18 37  1  0  0  0  0
 19 20  1  0  0  0  0
 20 38  1  0  0  0  0
 20 39  1  0  0  0  0
 20 40  1  0  0  0  0
 21 22  1  0  0  0  0
 21 41  1  0  0  0  0
 21 42  1  0  0  0  0
 22 43  1  0  0  0  0
 22 44  1  0  0  0  0
M  CHG  1   2  -1
M  CHG  1   6   1
M  END
> <s_m_source_file>
AV-unprocessed.smi

> <i_m_source_file_index>
1388

> <i_lp_mmshare_version>
43012

> <i_f3d_flags>
0

> <s_epik_input>
W0NIM11bTkhdQyg9TylbQ0gyXU4xW0NIMl1bQ0gyXVtDSF0oW0NIMl1bQ0gyXTEpW05IXUMoPU8pW05IXWMybltjSF1bY0hdW2NIXWMyW0NIM10=

> <s_epik_cmdline>
J2VwaWtfcHl0aG9uJywgJy1waCcsICc3LjAnLCAnLXRuJywgJzgnLCAnLW1hJywgJzIwMCcsICctbWV0YWxfYmluZGluZycsICctaW1hZScsICc8aW5maWxlLm1hZT4nLCAnLW9tYWUnLCAnPG91dGZpbGUubWFlPic=

> <r_epik_Ionization_Penalty>
6.13951

> <r_epik_Ionization_Penalty_Charging>
6.13946

> <r_epik_Ionization_Penalty_Neutral>
4.54304e-05

> <r_epik_State_Penalty>
6.9595

> <r_epik_Charging_Adjusted_Penalty>
13.099

> <i_epik_Tot_Q>
0

> <i_epik_Tot_abs_Q>
2

> <r_epik_Metal_State_Penalty>
2.89141

> <b_epik_Metal_Only>
1

> <s_lp_Force_Field>
OPLS_2005

> <r_lp_Energy>
12.9207

> <b_lp_Chiralities_Consistent>
1

> <s_lp_Variant>
AV-unprocessed.smi:1388-5

> <Gold.Version>
5.8.1

> <Gold.Id.Protein>
6NUR|6NUR_protein|mol2

> <Gold.PLP.Fitness>
48.4176

> <Gold.PLP.PLP>
-35.2058

> <Gold.PLP.part.hbond>
-3.3838

> <Gold.PLP.part.metal>
0.0000

> <Gold.PLP.part.buried>
-4.5548

> <Gold.PLP.part.nonpolar>
-27.8427

> <Gold.PLP.part.repulsive>
0.1504

> <Gold.PLP.ligand.clash>
0.0000

> <Gold.PLP.ligand.torsion>
0.9392

> <Gold.PLP.Chemscore.Hbond>
5.0000

> <Gold.PLP.Chemscore.CHOScore>
0.0000

> <Gold.PLP.Chemscore.Metal>
0.0000

> <Gold.Chemscore.Hbonds>
donor molecule, donor type, donor heavy atom, donor atom, acceptor molecule, acceptor atom, score
      L1  H     6    45       P1  7948  2.00
      P1  H  6896  6908       L1     2  1.98
      P1  H  7997  8010       L1    12  1.00

> <Gold.PLP.Chemscore.Internal.Correction>
0.0902

> <Gold.Rescore>
     Score         DG    S(hbond)    S(metal)    S(lipo)     H(rot)  DE(clash)    DE(int)     intcor
     14.76     -19.96       2.58        0.00      85.67       1.63       0.10       5.09       ----

> <Gold.Chemscore.Fitness>
14.7632

> <Gold.Chemscore.DG>
-19.9600

> <Gold.Chemscore.ZeroCoef>
-5.4800

> <Gold.Chemscore.Hbond>
2.5839

> <Gold.Chemscore.Metal>
0.0000

> <Gold.Chemscore.Lipo>
85.6685

> <Gold.Chemscore.Internal_Hbond>
0.0000

> <Gold.Chemscore.DEClash>
0.1019

> <Gold.Chemscore.DEInternal>
5.0949

> <Gold.Chemscore.Rot>
1.6303

> <Gold.Chemscore.Internal.Correction>
   9.000000E+99

> <Gold.Chemscore.Hbonds>
donor molecule, donor type, donor heavy atom, donor atom, acceptor molecule, acceptor atom, score
      L1  H     6    45       P1  7948  0.30
      P1  H  6896  6908       L1     2  0.68
      P1  H  7997  8010       L1    12  0.96

> <Gold.Chemscore.Hbond.Weighted>
-8.6303

> <Gold.Chemscore.Metal.Weighted>
-0.0000

> <Gold.Chemscore.Lipo.Weighted>
-10.0232

> <Gold.Chemscore.Internal_Hbond.Weighted>
0.0000

> <Gold.Chemscore.DEClash.Weighted>
0.1019

> <Gold.Chemscore.DEInternal.Weighted>
5.0949

> <Gold.Chemscore.Rot.Weighted>
4.1735

> <Gold.Chemscore.Internal.Correction.Weighted>
   9.000000E+99

> <Gold.Protein.RotatedTorsions>
[ 6907 6896 6895 6894 ] final  111.87 input  -60.11 | X-H torsion
[ 7974 7965 7964 7962 ] final  -16.44 input  175.53 | X-H torsion
[ 8008 7997 7996 7995 ] final   86.54 input   59.86 | X-H torsion
[ 10167 10162 10161 10158 ] final -149.57 input  -65.29 | X-H torsion
[ 10718 10713 10712 10709 ] final -115.49 input   66.30 | X-H torsion
[ 10763 10752 10751 10750 ] final  -70.36 input  -60.55 | X-H torsion
[ 11005 11000 10999 10996 ] final  143.91 input  -57.11 | X-H torsion

> <Gold.Protein.ActiveResidues>
 VAL166  LYS551  ARG553  GLY616  TRP617  ASP618  TYR619  PRO620  LYS621  CYS622 
 ASP623  PHE694  ASN695  SER759  ASP760  ASP761  ALA762  ILE779  LEU786  VAL792 
 PHE793  MET794  SER795  GLU796  ALA797  LYS798  CYS799  TRP800  GLU811  SER814 

> <Gold.Protein.RotatedAtoms>
  152.4946  133.8596  159.7242 H   0  0  0  0  0  0  0  0  0  0  0  0  # atno 6907 bound_to 6896
  150.9111  133.6987  159.2861 H   0  0  0  0  0  0  0  0  0  0  0  0  # atno 6908 bound_to 6896
  151.4396  135.1023  159.9719 H   0  0  0  0  0  0  0  0  0  0  0  0  # atno 6909 bound_to 6896
  146.1987  140.3636  142.8431 H   0  0  0  0  0  0  0  0  0  0  0  0  # atno 7974 bound_to 7965
  155.9641  140.3391  155.6516 H   0  0  0  0  0  0  0  0  0  0  0  0  # atno 8008 bound_to 7997
  155.6761  140.0732  157.2520 H   0  0  0  0  0  0  0  0  0  0  0  0  # atno 8009 bound_to 7997
  154.4150  140.1683  156.1919 H   0  0  0  0  0  0  0  0  0  0  0  0  # atno 8010 bound_to 7997
  139.7430  143.8633  152.2567 H   0  0  0  0  0  0  0  0  0  0  0  0  # atno 10167 bound_to 10162
  156.0899  130.6083  150.8912 H   0  0  0  0  0  0  0  0  0  0  0  0  # atno 10718 bound_to 10713
  154.4165  135.5996  153.5984 H   0  0  0  0  0  0  0  0  0  0  0  0  # atno 10763 bound_to 10752
  152.9792  135.5942  154.4006 H   0  0  0  0  0  0  0  0  0  0  0  0  # atno 10764 bound_to 10752
  154.3826  135.2841  155.2181 H   0  0  0  0  0  0  0  0  0  0  0  0  # atno 10765 bound_to 10752
  140.0591  134.9214  157.1152 H   0  0  0  0  0  0  0  0  0  0  0  0  # atno 11005 bound_to 11000
  144.8636  140.7175  143.6091 LP  0  0  0  0  0  0  0  0  0  0  0  0  # atno 17320 bound_to 7965
  145.3556  139.1695  143.4411 LP  0  0  0  0  0  0  0  0  0  0  0  0  # atno 17321 bound_to 7965
  139.8589  144.7127  150.9124 LP  0  0  0  0  0  0  0  0  0  0  0  0  # atno 17342 bound_to 10162
  140.7788  143.3835  151.1435 LP  0  0  0  0  0  0  0  0  0  0  0  0  # atno 17343 bound_to 10162
  157.6045  131.0939  150.8903 LP  0  0  0  0  0  0  0  0  0  0  0  0  # atno 17370 bound_to 10713
  156.9054  130.5261  149.5281 LP  0  0  0  0  0  0  0  0  0  0  0  0  # atno 17371 bound_to 10713
  140.3798  134.2299  155.7172 LP  0  0  0  0  0  0  0  0  0  0  0  0  # atno 17394 bound_to 11000
  141.1965  133.8081  157.0668 LP  0  0  0  0  0  0  0  0  0  0  0  0  # atno 17395 bound_to 11000

$$$$
