AV-unprocessed.smi:157|AV-procd|sdf|1319|dock4
  -GOLD-   2262019 13D 1   1.00000     0.00000
 Structure written by MMmdl.
 36 38  0  0  0  0  0  0  0  0  2 V2000
  150.4280  139.9352  153.8742 O   0  0  0  0  0  0  0  0  0  0  0  0
  150.2003  138.6976  154.5134 C   0  0  0  0  0  0  0  0  0  0  0  0
  151.4900  138.2281  155.2226 C   0  0  1  0  0  0  0  0  0  0  0  0
  152.2326  139.3848  155.6162 O   0  0  0  0  0  0  0  0  0  0  0  0
  152.0522  139.6646  156.9759 C   0  0  1  0  0  0  0  0  0  0  0  0
  151.5113  141.0516  157.1234 N   0  0  0  0  0  0  0  0  0  0  0  0
  150.5529  141.6347  156.3713 C   0  0  0  0  0  0  0  0  0  0  0  0
  150.2726  142.8804  156.7153 N   0  3  0  0  0  0  0  0  0  0  0  0
  151.0985  143.1888  157.7752 C   0  0  0  0  0  0  0  0  0  0  0  0
  151.8560  142.0399  158.0164 C   0  0  0  0  0  0  0  0  0  0  0  0
  152.8480  141.8029  158.9802 N   0  0  0  0  0  0  0  0  0  0  0  0
  153.0078  142.5522  160.0222 C   0  0  0  0  0  0  0  0  0  0  0  0
  152.3582  143.7280  160.3593 N   0  0  0  0  0  0  0  0  0  0  0  0
  152.1578  144.8172  159.4200 C   0  0  0  0  0  0  0  0  0  0  0  0
  151.0488  144.5518  158.3929 C   0  0  2  0  0  0  0  0  0  0  0  0
  149.8013  144.8287  158.9952 O   0  0  0  0  0  0  0  0  0  0  0  0
  151.0524  138.6438  157.5183 C   0  0  0  0  0  0  0  0  0  0  0  0
  151.2693  137.4976  156.5566 C   0  0  1  0  0  0  0  0  0  0  0  0
  150.1850  136.5916  156.5608 O   0  0  0  0  0  0  0  0  0  0  0  0
  152.0791  137.6052  154.5481 H   0  0  0  0  0  0  0  0  0  0  0  0
  153.0095  139.6695  157.4989 H   0  0  0  0  0  0  0  0  0  0  0  0
  151.1620  145.2814  157.5903 H   0  0  0  0  0  0  0  0  0  0  0  0
  152.1784  136.9610  156.8323 H   0  0  0  0  0  0  0  0  0  0  0  0
  149.9137  139.9635  153.0818 H   0  0  0  0  0  0  0  0  0  0  0  0
  149.3595  138.7800  155.2017 H   0  0  0  0  0  0  0  0  0  0  0  0
  149.9088  137.9927  153.7349 H   0  0  0  0  0  0  0  0  0  0  0  0
  150.0605  141.1290  155.5598 H   0  0  0  0  0  0  0  0  0  0  0  0
  153.7511  142.2674  160.7682 H   0  0  0  0  0  0  0  0  0  0  0  0
  152.4376  144.0685  161.3071 H   0  0  0  0  0  0  0  0  0  0  0  0
  151.9684  145.7427  159.9651 H   0  0  0  0  0  0  0  0  0  0  0  0
  153.1001  144.9666  158.8904 H   0  0  0  0  0  0  0  0  0  0  0  0
  149.2709  145.3177  158.3852 H   0  0  0  0  0  0  0  0  0  0  0  0
  151.2629  138.3951  158.5588 H   0  0  0  0  0  0  0  0  0  0  0  0
  150.0367  139.0365  157.4414 H   0  0  0  0  0  0  0  0  0  0  0  0
  150.1336  136.1877  157.4139 H   0  0  0  0  0  0  0  0  0  0  0  0
  149.5921  143.4866  156.2749 H   0  0  0  0  0  0  0  0  0  0  0  0
  1  2  1  0  0  0  0
  1 24  1  0  0  0  0
  2  3  1  0  0  0  0
  2 25  1  0  0  0  0
  2 26  1  0  0  0  0
  3 20  1  0  0  0  0
  3 18  1  0  0  0  0
  3  4  1  0  0  0  0
  4  5  1  0  0  0  0
  5 21  1  0  0  0  0
  5  6  1  0  0  0  0
  5 17  1  0  0  0  0
  6 10  1  0  0  0  0
  6  7  1  0  0  0  0
  7  8  2  0  0  0  0
  7 27  1  0  0  0  0
  8  9  1  0  0  0  0
  8 36  1  0  0  0  0
  9 15  1  0  0  0  0
  9 10  2  0  0  0  0
 10 11  1  0  0  0  0
 11 12  2  0  0  0  0
 12 13  1  0  0  0  0
 12 28  1  0  0  0  0
 13 14  1  0  0  0  0
 13 29  1  0  0  0  0
 14 15  1  0  0  0  0
 14 30  1  0  0  0  0
 14 31  1  0  0  0  0
 15 22  1  0  0  0  0
 15 16  1  0  0  0  0
 16 32  1  0  0  0  0
 17 18  1  0  0  0  0
 17 33  1  0  0  0  0
 17 34  1  0  0  0  0
 18 23  1  0  0  0  0
 18 19  1  0  0  0  0
 19 35  1  0  0  0  0
M  CHG  1   8   1
M  END
> <s_m_source_file>
AV-unprocessed.smi

> <i_m_source_file_index>
157

> <i_lp_mmshare_version>
43012

> <i_f3d_flags>
0

> <s_epik_input>
W09IXVtDSDJdW0NASF0xT1tDQEhdKFtDSDJdW0NAQEhdMVtPSF0pbihbY0hdbjIpYyhjMjMpTj1bQ0hdW05IXVtDSDJdW0NASF0zW09IXQ==

> <s_epik_cmdline>
J2VwaWtfcHl0aG9uJywgJy1waCcsICc3LjAnLCAnLXRuJywgJzgnLCAnLW1hJywgJzIwMCcsICctbWV0YWxfYmluZGluZycsICctaW1hZScsICc8aW5maWxlLm1hZT4nLCAnLW9tYWUnLCAnPG91dGZpbGUubWFlPic=

> <r_epik_Ionization_Penalty>
1.68594

> <r_epik_Ionization_Penalty_Charging>
0

> <r_epik_Ionization_Penalty_Neutral>
1.68594

> <r_epik_State_Penalty>
1.79006

> <r_epik_Charging_Adjusted_Penalty>
1.79006

> <i_epik_Tot_Q>
1

> <i_epik_Tot_abs_Q>
1

> <r_epik_Metal_State_Penalty>
5.85324

> <b_epik_Metal_Only>
0

> <s_epik_Chemistry_Notes>
This compound has an imine and may undergo hydrolysis. This compound contains an acetal/aminal-like group ( X-CH(R)-Y where X, Y are N, S, or O) that may be acid/base labile, releasing an aldehyde.

> <s_lp_Force_Field>
OPLS_2005

> <r_lp_Energy>
55.1144

> <b_lp_Chiralities_Consistent>
1

> <s_lp_Variant>
AV-unprocessed.smi:157-29

> <Gold.Version>
5.8.1

> <Gold.Id.Protein>
6NUR|6NUR_protein|mol2

> <Gold.PLP.Fitness>
48.3850

> <Gold.PLP.PLP>
-34.9967

> <Gold.PLP.part.hbond>
-3.9479

> <Gold.PLP.part.metal>
0.0000

> <Gold.PLP.part.buried>
-5.7661

> <Gold.PLP.part.nonpolar>
-24.7035

> <Gold.PLP.part.repulsive>
0.0874

> <Gold.PLP.ligand.clash>
0.0000

> <Gold.PLP.ligand.torsion>
0.8624

> <Gold.PLP.Chemscore.Hbond>
5.0325

> <Gold.PLP.Chemscore.CHOScore>
0.0000

> <Gold.PLP.Chemscore.Metal>
0.0000

> <Gold.Chemscore.Hbonds>
donor molecule, donor type, donor heavy atom, donor atom, acceptor molecule, acceptor atom, score
      L1  H     1    24       P1  7957  1.00
      L1  H     8    36       P1  8028  2.00
      L1  H    16    32       P1  8029  1.00
      P1  H  7989  7998       L1     1  1.00
      P1  H  7997  8010       L1     4  0.04

> <Gold.PLP.Chemscore.Internal.Correction>
0.0157

> <Gold.Rescore>
     Score         DG    S(hbond)    S(metal)    S(lipo)     H(rot)  DE(clash)    DE(int)     intcor
     13.51     -14.28       3.45        0.00      56.83       3.67       0.02       0.75       ----

> <Gold.Chemscore.Fitness>
13.5075

> <Gold.Chemscore.DG>
-14.2794

> <Gold.Chemscore.ZeroCoef>
-5.4800

> <Gold.Chemscore.Hbond>
3.4537

> <Gold.Chemscore.Metal>
0.0000

> <Gold.Chemscore.Lipo>
56.8272

> <Gold.Chemscore.Internal_Hbond>
0.0000

> <Gold.Chemscore.DEClash>
0.0197

> <Gold.Chemscore.DEInternal>
0.7522

> <Gold.Chemscore.Rot>
3.6659

> <Gold.Chemscore.Internal.Correction>
   9.000000E+99

> <Gold.Chemscore.Hbonds>
donor molecule, donor type, donor heavy atom, donor atom, acceptor molecule, acceptor atom, score
      L1  H     1    24       P1  7957  0.97
      L1  H     8    36       P1  8028  0.95
      L1  H    16    32       P1  8029  0.82
      P1  H  7989  7998       L1     1  0.23

> <Gold.Chemscore.Hbond.Weighted>
-11.5354

> <Gold.Chemscore.Metal.Weighted>
-0.0000

> <Gold.Chemscore.Lipo.Weighted>
-6.6488

> <Gold.Chemscore.Internal_Hbond.Weighted>
0.0000

> <Gold.Chemscore.DEClash.Weighted>
0.0197

> <Gold.Chemscore.DEInternal.Weighted>
0.7522

> <Gold.Chemscore.Rot.Weighted>
9.3848

> <Gold.Chemscore.Internal.Correction.Weighted>
   9.000000E+99

> <Gold.Protein.RotatedTorsions>
[ 6907 6896 6895 6894 ] final   22.00 input  -60.11 | X-H torsion
[ 7974 7965 7964 7962 ] final  -80.04 input  175.53 | X-H torsion
[ 8008 7997 7996 7995 ] final  102.45 input   59.86 | X-H torsion
[ 10167 10162 10161 10158 ] final -142.50 input  -65.29 | X-H torsion
[ 10718 10713 10712 10709 ] final  108.36 input   66.30 | X-H torsion
[ 10763 10752 10751 10750 ] final  -94.64 input  -60.55 | X-H torsion
[ 11005 11000 10999 10996 ] final -106.05 input  -57.11 | X-H torsion

> <Gold.Protein.ActiveResidues>
 VAL166  LYS551  ARG553  GLY616  TRP617  ASP618  TYR619  PRO620  LYS621  CYS622 
 ASP623  PHE694  ASN695  SER759  ASP760  ASP761  ALA762  ILE779  LEU786  VAL792 
 PHE793  MET794  SER795  GLU796  ALA797  LYS798  CYS799  TRP800  GLU811  SER814 

> <Gold.Protein.RotatedAtoms>
  151.9204  135.0301  160.0521 H   0  0  0  0  0  0  0  0  0  0  0  0  # atno 6907 bound_to 6896
  152.2204  133.4975  159.5168 H   0  0  0  0  0  0  0  0  0  0  0  0  # atno 6908 bound_to 6896
  150.6998  134.1266  159.4097 H   0  0  0  0  0  0  0  0  0  0  0  0  # atno 6909 bound_to 6896
  145.5652  140.9475  143.1425 H   0  0  0  0  0  0  0  0  0  0  0  0  # atno 7974 bound_to 7965
  156.1394  140.3181  155.8472 H   0  0  0  0  0  0  0  0  0  0  0  0  # atno 8008 bound_to 7997
  155.4183  140.0510  157.3044 H   0  0  0  0  0  0  0  0  0  0  0  0  # atno 8009 bound_to 7997
  154.4964  140.2112  155.9451 H   0  0  0  0  0  0  0  0  0  0  0  0  # atno 8010 bound_to 7997
  139.8083  143.7738  152.2662 H   0  0  0  0  0  0  0  0  0  0  0  0  # atno 10167 bound_to 10162
  157.6589  131.0892  150.6293 H   0  0  0  0  0  0  0  0  0  0  0  0  # atno 10718 bound_to 10713
  154.7074  135.5150  153.8615 H   0  0  0  0  0  0  0  0  0  0  0  0  # atno 10763 bound_to 10752
  153.0752  135.6614  154.0170 H   0  0  0  0  0  0  0  0  0  0  0  0  # atno 10764 bound_to 10752
  154.0018  135.3010  155.3381 H   0  0  0  0  0  0  0  0  0  0  0  0  # atno 10765 bound_to 10752
  141.1023  133.8860  157.1809 H   0  0  0  0  0  0  0  0  0  0  0  0  # atno 11005 bound_to 11000
  144.7464  139.7310  143.7291 LP  0  0  0  0  0  0  0  0  0  0  0  0  # atno 17320 bound_to 7965
  146.1823  139.5021  142.9858 LP  0  0  0  0  0  0  0  0  0  0  0  0  # atno 17321 bound_to 7965
  139.7879  144.7421  150.9996 LP  0  0  0  0  0  0  0  0  0  0  0  0  # atno 17342 bound_to 10162
  140.7818  143.4473  151.0464 LP  0  0  0  0  0  0  0  0  0  0  0  0  # atno 17343 bound_to 10162
  156.6597  130.4509  149.5691 LP  0  0  0  0  0  0  0  0  0  0  0  0  # atno 17370 bound_to 10713
  156.2076  130.6659  151.1235 LP  0  0  0  0  0  0  0  0  0  0  0  0  # atno 17371 bound_to 10713
  139.9880  135.0075  156.9908 LP  0  0  0  0  0  0  0  0  0  0  0  0  # atno 17394 bound_to 11000
  140.4989  134.1117  155.7247 LP  0  0  0  0  0  0  0  0  0  0  0  0  # atno 17395 bound_to 11000

$$$$
