AV-unprocessed.smi:320|AV-procd|sdf|2333|dock9
  -GOLD-   2262022233D 1   1.00000     0.00000
 Structure written by MMmdl.
 49 52  0  0  0  0  0  0  0  0  1 V2000
  151.3856  139.1363  154.8634 C   0  0  0  0  0  0  0  0  0  0  0  0
  150.4457  139.8449  155.8580 C   0  0  1  0  0  0  0  0  0  0  0  0
  151.1261  141.0481  156.3412 N   0  0  0  0  0  0  0  0  0  0  0  0
  151.3125  141.3940  157.6246 C   0  0  0  0  0  0  0  0  0  0  0  0
  150.9455  140.7035  158.5759 O   0  0  0  0  0  0  0  0  0  0  0  0
  152.0386  142.7249  157.8617 C   0  0  0  0  0  0  0  0  0  0  0  0
  152.1254  143.0832  159.2870 N   0  0  0  0  0  0  0  0  0  0  0  0
  151.6063  144.3365  159.6690 C   0  0  0  0  0  0  0  0  0  0  0  0
  151.6411  144.7613  160.9421 C   0  0  0  0  0  0  0  0  0  0  0  0
  152.2306  143.8948  161.9350 C   0  0  0  0  0  0  0  0  0  0  0  0
  152.7319  142.6949  161.5801 C   0  0  0  0  0  0  0  0  0  0  0  0
  152.6971  142.2267  160.1895 C   0  0  0  0  0  0  0  0  0  0  0  0
  153.1538  141.1324  159.8564 O   0  0  0  0  0  0  0  0  0  0  0  0
  149.0201  140.1810  155.3111 C   0  0  0  0  0  0  0  0  0  0  0  0
  148.3881  138.9879  154.5369 C   0  0  0  0  0  0  0  0  0  0  0  0
  146.9895  139.3661  154.0019 C   0  0  2  0  0  0  0  0  0  0  0  0
  147.1080  140.5655  153.0394 C   0  0  0  0  0  0  0  0  0  0  0  0
  147.7016  141.7683  153.8006 C   0  0  1  0  0  0  0  0  0  0  0  0
  146.7809  142.1484  154.9766 C   0  0  0  0  0  0  0  0  0  0  0  0
  146.6640  140.9449  155.9324 C   0  0  1  0  0  0  0  0  0  0  0  0
  146.0654  139.7385  155.1799 C   0  0  0  0  0  0  0  0  0  0  0  0
  148.0612  140.5724  156.4723 C   0  0  0  0  0  0  0  0  0  0  0  0
  149.0987  141.3961  154.3381 C   0  0  0  0  0  0  0  0  0  0  0  0
  150.9926  138.1730  154.5417 H   0  0  0  0  0  0  0  0  0  0  0  0
  152.3522  138.9366  155.3272 H   0  0  0  0  0  0  0  0  0  0  0  0
  151.5735  139.7399  153.9757 H   0  0  0  0  0  0  0  0  0  0  0  0
  150.3110  139.1514  156.6899 H   0  0  0  0  0  0  0  0  0  0  0  0
  151.4668  141.6827  155.6337 H   0  0  0  0  0  0  0  0  0  0  0  0
  153.0331  142.6502  157.4199 H   0  0  0  0  0  0  0  0  0  0  0  0
  151.5390  143.5231  157.3088 H   0  0  0  0  0  0  0  0  0  0  0  0
  151.1897  144.9274  158.8661 H   0  0  0  0  0  0  0  0  0  0  0  0
  151.2431  145.7273  161.2157 H   0  0  0  0  0  0  0  0  0  0  0  0
  152.2720  144.2110  162.9670 H   0  0  0  0  0  0  0  0  0  0  0  0
  153.1706  142.0612  162.3366 H   0  0  0  0  0  0  0  0  0  0  0  0
  149.0249  138.6872  153.7042 H   0  0  0  0  0  0  0  0  0  0  0  0
  148.2980  138.1145  155.1827 H   0  0  0  0  0  0  0  0  0  0  0  0
  146.5663  138.5153  153.4671 H   0  0  0  0  0  0  0  0  0  0  0  0
  147.7398  140.3067  152.1887 H   0  0  0  0  0  0  0  0  0  0  0  0
  146.1296  140.8217  152.6312 H   0  0  0  0  0  0  0  0  0  0  0  0
  147.7900  142.6173  153.1221 H   0  0  0  0  0  0  0  0  0  0  0  0
  147.1799  143.0149  155.5056 H   0  0  0  0  0  0  0  0  0  0  0  0
  145.7956  142.4375  154.6083 H   0  0  0  0  0  0  0  0  0  0  0  0
  146.0132  141.2090  156.7664 H   0  0  0  0  0  0  0  0  0  0  0  0
  145.0660  139.9787  154.8153 H   0  0  0  0  0  0  0  0  0  0  0  0
  145.9516  138.8894  155.8551 H   0  0  0  0  0  0  0  0  0  0  0  0
  147.9480  139.7497  157.1777 H   0  0  0  0  0  0  0  0  0  0  0  0
  148.4749  141.4076  157.0393 H   0  0  0  0  0  0  0  0  0  0  0  0
  149.5412  142.2557  154.8436 H   0  0  0  0  0  0  0  0  0  0  0  0
  149.7495  141.1772  153.4911 H   0  0  0  0  0  0  0  0  0  0  0  0
  1  2  1  0  0  0  0
  1 24  1  0  0  0  0
  1 25  1  0  0  0  0
  1 26  1  0  0  0  0
  2  3  1  0  0  0  0
  2 14  1  0  0  0  0
  2 27  1  0  0  0  0
  3  4  1  0  0  0  0
  3 28  1  0  0  0  0
  4  5  2  0  0  0  0
  4  6  1  0  0  0  0
  6  7  1  0  0  0  0
  6 29  1  0  0  0  0
  6 30  1  0  0  0  0
  7 12  1  0  0  0  0
  7  8  1  0  0  0  0
  8  9  2  0  0  0  0
  8 31  1  0  0  0  0
  9 10  1  0  0  0  0
  9 32  1  0  0  0  0
 10 11  2  0  0  0  0
 10 33  1  0  0  0  0
 11 12  1  0  0  0  0
 11 34  1  0  0  0  0
 12 13  2  0  0  0  0
 14 22  1  0  0  0  0
 14 23  1  0  0  0  0
 14 15  1  0  0  0  0
 15 16  1  0  0  0  0
 15 35  1  0  0  0  0
 15 36  1  0  0  0  0
 16 21  1  0  0  0  0
 16 17  1  0  0  0  0
 16 37  1  0  0  0  0
 17 18  1  0  0  0  0
 17 38  1  0  0  0  0
 17 39  1  0  0  0  0
 18 19  1  0  0  0  0
 18 23  1  0  0  0  0
 18 40  1  0  0  0  0
 19 20  1  0  0  0  0
 19 41  1  0  0  0  0
 19 42  1  0  0  0  0
 20 21  1  0  0  0  0
 20 22  1  0  0  0  0
 20 43  1  0  0  0  0
 21 44  1  0  0  0  0
 21 45  1  0  0  0  0
 22 46  1  0  0  0  0
 22 47  1  0  0  0  0
 23 48  1  0  0  0  0
 23 49  1  0  0  0  0
M  END
> <s_m_source_file>
AV-unprocessed.smi

> <i_m_source_file_index>
320

> <i_lp_mmshare_version>
43012

> <i_f3d_flags>
0

> <s_epik_input>
W0NIMl0xW0NAQEhdKFtDSDJdMilbQ0gyXVtDQEBIXShbQ0gyXTMpW0NIMl1bQ0BIXTFbQ0gyXUMyM1tDQEhdKFtDSDNdKVtOSF1DKD1PKVtDSDJdbjRbY0hdW2NIXVtjSF1bY0hdYzQ9Tw==

> <s_epik_cmdline>
J2VwaWtfcHl0aG9uJywgJy1waCcsICc3LjAnLCAnLXRuJywgJzgnLCAnLW1hJywgJzIwMCcsICctbWV0YWxfYmluZGluZycsICctaW1hZScsICc8aW5maWxlLm1hZT4nLCAnLW9tYWUnLCAnPG91dGZpbGUubWFlPic=

> <r_lp_tautomer_probability>
1

> <r_epik_Ionization_Penalty>
4.15949e-07

> <r_epik_Ionization_Penalty_Charging>
3.97363e-07

> <r_epik_Ionization_Penalty_Neutral>
1.85865e-08

> <r_epik_State_Penalty>
-0

> <r_epik_Charging_Adjusted_Penalty>
3.97363e-07

> <i_epik_Tot_Q>
0

> <i_epik_Tot_abs_Q>
0

> <r_epik_Metal_State_Penalty>
-0

> <b_epik_Metal_Only>
0

> <s_lp_Force_Field>
OPLS_2005

> <r_lp_Energy>
45.3355

> <b_lp_Chiralities_Consistent>
1

> <s_lp_Variant>
AV-unprocessed.smi:320-2

> <Gold.Version>
5.8.1

> <Gold.Id.Protein>
6NUR|6NUR_protein|mol2

> <Gold.PLP.Fitness>
45.6095

> <Gold.PLP.PLP>
-46.3815

> <Gold.PLP.part.hbond>
0.0000

> <Gold.PLP.part.metal>
0.0000

> <Gold.PLP.part.buried>
-5.0876

> <Gold.PLP.part.nonpolar>
-40.7487

> <Gold.PLP.part.repulsive>
0.1211

> <Gold.PLP.ligand.clash>
0.0000

> <Gold.PLP.ligand.torsion>
0.4061

> <Gold.PLP.Chemscore.Hbond>
0.0000

> <Gold.PLP.Chemscore.CHOScore>
0.0000

> <Gold.PLP.Chemscore.Metal>
0.0000

> <Gold.PLP.Chemscore.Internal.Correction>
0.0402

> <Gold.Rescore>
     Score         DG    S(hbond)    S(metal)    S(lipo)     H(rot)  DE(clash)    DE(int)     intcor
     13.75     -15.37       0.00        0.00     117.79       1.52       1.10       0.52       ----

> <Gold.Chemscore.Fitness>
13.7502

> <Gold.Chemscore.DG>
-15.3699

> <Gold.Chemscore.ZeroCoef>
-5.4800

> <Gold.Chemscore.Hbond>
0.0000

> <Gold.Chemscore.Metal>
0.0000

> <Gold.Chemscore.Lipo>
117.7905

> <Gold.Chemscore.Internal_Hbond>
0.0000

> <Gold.Chemscore.DEClash>
1.0985

> <Gold.Chemscore.DEInternal>
0.5211

> <Gold.Chemscore.Rot>
1.5202

> <Gold.Chemscore.Internal.Correction>
   9.000000E+99

> <Gold.Chemscore.Hbond.Weighted>
-0.0000

> <Gold.Chemscore.Metal.Weighted>
-0.0000

> <Gold.Chemscore.Lipo.Weighted>
-13.7815

> <Gold.Chemscore.Internal_Hbond.Weighted>
0.0000

> <Gold.Chemscore.DEClash.Weighted>
1.0985

> <Gold.Chemscore.DEInternal.Weighted>
0.5211

> <Gold.Chemscore.Rot.Weighted>
3.8916

> <Gold.Chemscore.Internal.Correction.Weighted>
   9.000000E+99

> <Gold.Protein.RotatedTorsions>
[ 6907 6896 6895 6894 ] final  171.79 input  -60.11 | X-H torsion
[ 7974 7965 7964 7962 ] final   44.48 input  175.53 | X-H torsion
[ 8008 7997 7996 7995 ] final  143.14 input   59.86 | X-H torsion
[ 10167 10162 10161 10158 ] final -124.53 input  -65.29 | X-H torsion
[ 10718 10713 10712 10709 ] final  133.15 input   66.30 | X-H torsion
[ 10763 10752 10751 10750 ] final   29.40 input  -60.55 | X-H torsion
[ 11005 11000 10999 10996 ] final -122.06 input  -57.11 | X-H torsion

> <Gold.Protein.ActiveResidues>
 VAL166  LYS551  ARG553  GLY616  TRP617  ASP618  TYR619  PRO620  LYS621  CYS622 
 ASP623  PHE694  ASN695  SER759  ASP760  ASP761  ALA762  ILE779  LEU786  VAL792 
 PHE793  MET794  SER795  GLU796  ALA797  LYS798  CYS799  TRP800  GLU811  SER814 

> <Gold.Protein.RotatedAtoms>
  151.7946  133.3363  159.3508 H   0  0  0  0  0  0  0  0  0  0  0  0  # atno 6907 bound_to 6896
  150.7379  134.5810  159.5948 H   0  0  0  0  0  0  0  0  0  0  0  0  # atno 6908 bound_to 6896
  152.3186  134.7410  160.0370 H   0  0  0  0  0  0  0  0  0  0  0  0  # atno 6909 bound_to 6896
  146.0565  139.5070  142.9685 H   0  0  0  0  0  0  0  0  0  0  0  0  # atno 7974 bound_to 7965
  156.2936  140.2270  156.4842 H   0  0  0  0  0  0  0  0  0  0  0  0  # atno 8008 bound_to 7997
  154.7827  140.0459  157.1161 H   0  0  0  0  0  0  0  0  0  0  0  0  # atno 8009 bound_to 7997
  154.9740  140.3070  155.4979 H   0  0  0  0  0  0  0  0  0  0  0  0  # atno 8010 bound_to 7997
  139.9918  143.5633  152.2339 H   0  0  0  0  0  0  0  0  0  0  0  0  # atno 10167 bound_to 10162
  157.4802  131.1085  150.9692 H   0  0  0  0  0  0  0  0  0  0  0  0  # atno 10718 bound_to 10713
  153.0432  135.6490  154.0886 H   0  0  0  0  0  0  0  0  0  0  0  0  # atno 10763 bound_to 10752
  154.0588  135.2889  155.3330 H   0  0  0  0  0  0  0  0  0  0  0  0  # atno 10764 bound_to 10752
  154.6671  135.5370  153.8156 H   0  0  0  0  0  0  0  0  0  0  0  0  # atno 10765 bound_to 10752
  141.0024  134.0384  157.3521 H   0  0  0  0  0  0  0  0  0  0  0  0  # atno 11005 bound_to 11000
  145.6634  141.0235  143.1696 LP  0  0  0  0  0  0  0  0  0  0  0  0  # atno 17320 bound_to 7965
  144.7151  139.8227  143.7401 LP  0  0  0  0  0  0  0  0  0  0  0  0  # atno 17321 bound_to 7965
  139.6335  144.7647  151.2487 LP  0  0  0  0  0  0  0  0  0  0  0  0  # atno 17342 bound_to 10162
  140.7452  143.6439  150.8310 LP  0  0  0  0  0  0  0  0  0  0  0  0  # atno 17343 bound_to 10162
  157.0428  130.5756  149.5358 LP  0  0  0  0  0  0  0  0  0  0  0  0  # atno 17370 bound_to 10713
  156.0117  130.5209  150.8010 LP  0  0  0  0  0  0  0  0  0  0  0  0  # atno 17371 bound_to 10713
  139.9045  135.0175  156.7424 LP  0  0  0  0  0  0  0  0  0  0  0  0  # atno 17394 bound_to 11000
  140.6868  133.9425  155.7942 LP  0  0  0  0  0  0  0  0  0  0  0  0  # atno 17395 bound_to 11000

$$$$
