#       Name:                AV-unprocessed.smi:1403
#       Creating user name   scv26
#       Creation time:       Fri Mar 27 05:33:23 2020


#       File generated by GOLD software.
#

@<TRIPOS>MOLECULE
AV-unprocessed.smi:1403
    44    45     1
SMALL
NO_CHARGES


@<TRIPOS>ATOM
      1 ****        -2.1528  -1.1047   1.0118 C.3            1 S1                 0.0000
      2 ****        -1.6131  -0.2555  -0.1511 C.3            1 S1                 0.0000
      3 ****        -0.1526  -0.2824  -0.1503 N.am           1 S1                 0.0000
      4 ****         0.6412   0.5045   0.5917 C.2            1 S1                 0.0000
      5 ****         0.2127   1.3695   1.3566 O.2            1 S1                 0.0000
      6 ****         2.1511   0.2957   0.4177 C.3            1 S1                 0.0000
      7 ****         2.8926   0.4347   1.6811 N.am           1 S1                 0.0000
      8 ****         3.5194   1.6661   1.9417 C.2            1 S1                 0.0000
      9 ****         4.2170   1.8826   3.0732 C.2            1 S1                 0.0000
     10 ****         4.3144   0.7983   4.0424 C.2            1 S1                 0.0000
     11 ****         4.9530   0.9759   5.0780 O.2            1 S1                 0.0000
     12 ****         3.6833  -0.3757   3.7467 N.pl3          1 S1                -1.0000
     13 ****         2.9753  -0.5811   2.5928 C.2            1 S1                 0.0000
     14 ****         2.4122  -1.6484   2.3461 O.2            1 S1                 0.0000
     15 ****        -2.1420  -0.7477  -1.5117 C.3            1 S1                 0.0000
     16 ****        -1.6435   0.0489  -2.7209 C.3            1 S1                 0.0000
     17 ****        -2.7534  -0.1123  -3.7497 C.3            1 S1                 0.0000
     18 ****        -3.9059  -0.7414  -2.9635 C.3            1 S1                 0.0000
     19 ****        -3.5479  -0.5758  -1.5998 O.3            1 S1                 0.0000
     20 ****        -3.2425  -1.0849   1.0413 H              1 S1                 0.0000
     21 ****        -1.7946  -0.7337   1.9726 H              1 S1                 0.0000
     22 ****        -1.8414  -2.1458   0.9210 H              1 S1                 0.0000
     23 ****        -1.9475   0.7745  -0.0127 H              1 S1                 0.0000
     24 ****         0.2894  -0.9632  -0.7507 H              1 S1                 0.0000
     25 ****         2.3454  -0.6834  -0.0243 H              1 S1                 0.0000
     26 ****         2.5098   1.0174  -0.3172 H              1 S1                 0.0000
     27 ****         3.3935   2.4176   1.1763 H              1 S1                 0.0000
     28 ****         4.6902   2.8354   3.2600 H              1 S1                 0.0000
     29 ****        -1.9092  -1.8057  -1.6488 H              1 S1                 0.0000
     30 ****        -1.5385   1.1036  -2.4626 H              1 S1                 0.0000
     31 ****        -0.6774  -0.3039  -3.0830 H              1 S1                 0.0000
     32 ****        -3.0358   0.8571  -4.1617 H              1 S1                 0.0000
     33 ****        -2.4511  -0.7542  -4.5779 H              1 S1                 0.0000
     34 ****        -4.8671  -0.2752  -3.1809 H              1 S1                 0.0000
     35 ****        -3.9857  -1.8067  -3.1855 H              1 S1                 0.0000
     36 ****        -0.7727   1.5128   1.4476 LP             1 S1                 0.0000
     37 ****         0.8503   1.9286   1.8867 LP             1 S1                 0.0000
     38 ****         5.3975   1.8557   5.2468 LP             1 S1                 0.0000
     39 ****         5.0280   0.2406   5.7516 LP             1 S1                 0.0000
     40 ****         3.7412  -1.1244   4.4071 LP             1 S1                 0.0000
     41 ****         1.9058  -1.7606   1.4912 LP             1 S1                 0.0000
     42 ****         2.4616  -2.4027   3.0008 LP             1 S1                 0.0000
     43 ****        -3.8014   0.3398  -1.2876 LP             1 S1                 0.0000
     44 ****        -4.0127  -1.2601  -1.0379 LP             1 S1                 0.0000
@<TRIPOS>BOND
    1    1    2 1     
    2    1   20 1     
    3    1   21 1     
    4    1   22 1     
    5    2    3 1     
    6    2   15 1     
    7    2   23 1     
    8    3    4 am    
    9    3   24 1     
   10    4    5 2     
   11    4    6 1     
   12    6    7 1     
   13    6   25 1     
   14    6   26 1     
   15    7   13 am    
   16    7    8 1     
   17    8    9 2     
   18    8   27 1     
   19    9   10 1     
   20    9   28 1     
   21   10   11 2     
   22   10   12 1     
   23   12   13 1     
   24   13   14 2     
   25   15   19 1     
   26   15   16 1     
   27   15   29 1     
   28   16   17 1     
   29   16   30 1     
   30   16   31 1     
   31   17   18 1     
   32   17   32 1     
   33   17   33 1     
   34   18   19 1     
   35   18   34 1     
   36   18   35 1     
   37    5   36 1     
   38    5   37 1     
   39   11   38 1     
   40   11   39 1     
   41   12   40 1     
   42   14   41 1     
   43   14   42 1     
   44   19   43 1     
   45   19   44 1     
@<TRIPOS>SUBSTRUCTURE
      1 S1             1
@<TRIPOS>SET
LONE_PAIRS      STATIC     ATOMS    <user>   **** ""
9 36 37 38 39 40 41 42 43 44
DONOR_HYDROGENS      STATIC     ATOMS    <user>   **** ""
1 24
ATOM$BLUE        STATIC     ATOMS    COLORGROUP SYSTEM
9 36 37 38 39 40 41 42 43 44
ATOM$RED        STATIC     ATOMS    COLORGROUP SYSTEM
1 24
