AV-unprocessed.smi:1675|AV-procd|sdf|6718|dock2
  -GOLD-   22720 7463D 1   1.00000     0.00000
 Structure written by MMmdl.
 40 42  0  0  0  0  0  0  0  0  1 V2000
  148.0171  138.5148  152.0065 N   0  0  0  0  0  0  0  0  0  0  0  0
  146.7773  138.9480  152.2484 C   0  0  0  0  0  0  0  0  0  0  0  0
  145.8117  138.1884  152.2919 O   0  0  0  0  0  0  0  0  0  0  0  0
  146.5940  140.4496  152.4760 C   0  0  0  0  0  0  0  0  0  0  0  0
  147.2434  140.8767  153.7018 N   0  0  0  0  0  0  0  0  0  0  0  0
  148.5547  140.6755  154.0853 C   0  0  0  0  0  0  0  0  0  0  0  0
  148.6769  141.2645  155.3121 C   0  0  0  0  0  0  0  0  0  0  0  0
  149.8117  141.3543  156.1578 N   0  0  0  0  0  0  0  0  0  0  0  0
  149.9247  140.9169  157.4244 C   0  0  0  0  0  0  0  0  0  0  0  0
  149.0184  140.3644  158.0487 O   0  0  0  0  0  0  0  0  0  0  0  0
  151.2870  141.1627  158.0860 C   0  0  0  0  0  0  0  0  0  0  0  0
  151.3048  142.3353  159.0945 C   0  0  1  0  0  0  0  0  0  0  0  0
  152.7227  142.7777  159.5317 C   0  0  0  0  0  0  0  0  0  0  0  0
  152.7332  144.2833  159.2113 C   0  0  2  0  0  0  0  0  0  0  0  0
  151.7889  145.0234  160.1767 C   0  0  0  0  0  0  0  0  0  0  0  0
  150.3944  144.6047  159.6739 C   0  0  0  0  0  0  0  0  0  0  0  0
  150.7257  143.6461  158.5138 C   0  0  1  0  0  0  0  0  0  0  0  0
  151.9501  144.3236  157.9056 C   0  0  0  0  0  0  0  0  0  0  0  0
  147.4002  141.8092  155.6080 C   0  0  0  0  0  0  0  0  0  0  0  0
  146.5379  141.5690  154.6316 N   0  0  0  0  0  0  0  0  0  0  0  0
  148.1836  137.5305  151.8553 H   0  0  0  0  0  0  0  0  0  0  0  0
  148.7843  139.1707  151.9801 H   0  0  0  0  0  0  0  0  0  0  0  0
  146.9903  141.0226  151.6357 H   0  0  0  0  0  0  0  0  0  0  0  0
  145.5298  140.6786  152.5456 H   0  0  0  0  0  0  0  0  0  0  0  0
  149.2583  140.1457  153.4601 H   0  0  0  0  0  0  0  0  0  0  0  0
  150.6215  141.8093  155.7617 H   0  0  0  0  0  0  0  0  0  0  0  0
  151.6120  140.2437  158.5752 H   0  0  0  0  0  0  0  0  0  0  0  0
  152.0083  141.3591  157.2919 H   0  0  0  0  0  0  0  0  0  0  0  0
  150.7186  142.0453  159.9683 H   0  0  0  0  0  0  0  0  0  0  0  0
  152.9130  142.5756  160.5864 H   0  0  0  0  0  0  0  0  0  0  0  0
  153.4951  142.2674  158.9544 H   0  0  0  0  0  0  0  0  0  0  0  0
  153.7341  144.7133  159.1624 H   0  0  0  0  0  0  0  0  0  0  0  0
  151.9587  144.7408  161.2163 H   0  0  0  0  0  0  0  0  0  0  0  0
  151.9162  146.1038  160.0977 H   0  0  0  0  0  0  0  0  0  0  0  0
  149.7945  144.1308  160.4517 H   0  0  0  0  0  0  0  0  0  0  0  0
  149.8423  145.4728  159.3116 H   0  0  0  0  0  0  0  0  0  0  0  0
  149.8917  143.4971  157.8271 H   0  0  0  0  0  0  0  0  0  0  0  0
  151.7527  145.3369  157.5509 H   0  0  0  0  0  0  0  0  0  0  0  0
  152.4160  143.7502  157.1030 H   0  0  0  0  0  0  0  0  0  0  0  0
  147.0758  142.3571  156.4803 H   0  0  0  0  0  0  0  0  0  0  0  0
  1  2  1  0  0  0  0
  1 21  1  0  0  0  0
  1 22  1  0  0  0  0
  2  3  2  0  0  0  0
  2  4  1  0  0  0  0
  4  5  1  0  0  0  0
  4 23  1  0  0  0  0
  4 24  1  0  0  0  0
  5 20  1  0  0  0  0
  5  6  1  0  0  0  0
  6  7  2  0  0  0  0
  6 25  1  0  0  0  0
  7  8  1  0  0  0  0
  7 19  1  0  0  0  0
  8  9  1  0  0  0  0
  8 26  1  0  0  0  0
  9 10  2  0  0  0  0
  9 11  1  0  0  0  0
 11 12  1  0  0  0  0
 11 27  1  0  0  0  0
 11 28  1  0  0  0  0
 12 17  1  0  0  0  0
 12 13  1  0  0  0  0
 12 29  1  0  0  0  0
 13 14  1  0  0  0  0
 13 30  1  0  0  0  0
 13 31  1  0  0  0  0
 14 18  1  0  0  0  0
 14 15  1  0  0  0  0
 14 32  1  0  0  0  0
 15 16  1  0  0  0  0
 15 33  1  0  0  0  0
 15 34  1  0  0  0  0
 16 17  1  0  0  0  0
 16 35  1  0  0  0  0
 16 36  1  0  0  0  0
 17 18  1  0  0  0  0
 17 37  1  0  0  0  0
 18 38  1  0  0  0  0
 18 39  1  0  0  0  0
 19 20  2  0  0  0  0
 19 40  1  0  0  0  0
M  END
> <s_m_source_file>
AV-unprocessed.smi

> <i_m_source_file_index>
1675

> <i_lp_mmshare_version>
43012

> <i_f3d_flags>
0

> <s_epik_input>
W05IMl1DKD1PKVtDSDJdbjFbY0hdYyhbY0hdbjEpW05IXUMoPU8pW0NIMl1bQ0BIXShbQ0gyXVtDQEBIXTIzKVtDQEBIXShbQ0gyXTMpW0NIMl1bQ0gyXTI=

> <s_epik_cmdline>
J2VwaWtfcHl0aG9uJywgJy1waCcsICc3LjAnLCAnLXRuJywgJzgnLCAnLW1hJywgJzIwMCcsICctbWV0YWxfYmluZGluZycsICctaW1hZScsICc8aW5maWxlLm1hZT4nLCAnLW9tYWUnLCAnPG91dGZpbGUubWFlPic=

> <r_lp_tautomer_probability>
1

> <r_epik_Ionization_Penalty>
2.17494e-05

> <r_epik_Ionization_Penalty_Charging>
0

> <r_epik_Ionization_Penalty_Neutral>
2.17494e-05

> <r_epik_State_Penalty>
-0

> <r_epik_Charging_Adjusted_Penalty>
0

> <i_epik_Tot_Q>
0

> <i_epik_Tot_abs_Q>
0

> <r_epik_Metal_State_Penalty>
-0

> <b_epik_Metal_Only>
0

> <s_lp_Force_Field>
OPLS_2005

> <r_lp_Energy>
53.1529

> <b_lp_Chiralities_Consistent>
1

> <s_lp_Variant>
AV-unprocessed.smi:1675-4

> <Gold.Version>
5.8.1

> <Gold.Id.Protein>
6NUR|6NUR_protein|mol2

> <Gold.PLP.Fitness>
47.5064

> <Gold.PLP.PLP>
-40.7146

> <Gold.PLP.part.hbond>
-1.3663

> <Gold.PLP.part.metal>
0.0000

> <Gold.PLP.part.buried>
-2.7533

> <Gold.PLP.part.nonpolar>
-38.4031

> <Gold.PLP.part.repulsive>
1.0311

> <Gold.PLP.ligand.clash>
0.0000

> <Gold.PLP.ligand.torsion>
0.8927

> <Gold.PLP.Chemscore.Hbond>
1.8450

> <Gold.PLP.Chemscore.CHOScore>
1.0000

> <Gold.PLP.Chemscore.Metal>
0.0000

> <Gold.Chemscore.Hbonds>
donor molecule, donor type, donor heavy atom, donor atom, acceptor molecule, acceptor atom, score
      L1  H     1    21       P1  7948  0.86
      L1  H     1    22       P1  7957  0.67
      L1  C     6    25       P1  7957  1.00

> <Gold.PLP.Chemscore.Internal.Correction>
0.0423

> <Gold.Rescore>
     Score         DG    S(hbond)    S(metal)    S(lipo)     H(rot)  DE(clash)    DE(int)     intcor
     16.75     -19.60       1.87        0.00     114.32       2.15       2.00       0.85       ----

> <Gold.Chemscore.Fitness>
16.7482

> <Gold.Chemscore.DG>
-19.5957

> <Gold.Chemscore.ZeroCoef>
-5.4800

> <Gold.Chemscore.Hbond>
1.8684

> <Gold.Chemscore.Metal>
0.0000

> <Gold.Chemscore.Lipo>
114.3214

> <Gold.Chemscore.Internal_Hbond>
0.0000

> <Gold.Chemscore.DEClash>
1.9952

> <Gold.Chemscore.DEInternal>
0.8523

> <Gold.Chemscore.Rot>
2.1486

> <Gold.Chemscore.Internal.Correction>
   9.000000E+99

> <Gold.Chemscore.Hbonds>
donor molecule, donor type, donor heavy atom, donor atom, acceptor molecule, acceptor atom, score
      L1  H     1    21       P1  7948  0.83
      L1  H     1    22       P1  7957  0.65

> <Gold.Chemscore.Hbond.Weighted>
-6.2405

> <Gold.Chemscore.Metal.Weighted>
-0.0000

> <Gold.Chemscore.Lipo.Weighted>
-13.3756

> <Gold.Chemscore.Internal_Hbond.Weighted>
0.0000

> <Gold.Chemscore.DEClash.Weighted>
1.9952

> <Gold.Chemscore.DEInternal.Weighted>
0.8523

> <Gold.Chemscore.Rot.Weighted>
5.5004

> <Gold.Chemscore.Internal.Correction.Weighted>
   9.000000E+99

> <Gold.Protein.RotatedTorsions>
[ 6907 6896 6895 6894 ] final  -97.08 input  -60.11 | X-H torsion
[ 7974 7965 7964 7962 ] final   44.53 input  175.53 | X-H torsion
[ 8008 7997 7996 7995 ] final  -46.65 input   59.86 | X-H torsion
[ 10167 10162 10161 10158 ] final -148.73 input  -65.29 | X-H torsion
[ 10718 10713 10712 10709 ] final   89.81 input   66.30 | X-H torsion
[ 10763 10752 10751 10750 ] final   64.41 input  -60.55 | X-H torsion
[ 11005 11000 10999 10996 ] final    9.56 input  -57.11 | X-H torsion

> <Gold.Protein.ActiveResidues>
 VAL166  LYS551  ARG553  GLY616  TRP617  ASP618  TYR619  PRO620  LYS621  CYS622 
 ASP623  PHE694  ASN695  SER759  ASP760  ASP761  ALA762  ILE779  LEU786  VAL792 
 PHE793  MET794  SER795  GLU796  ALA797  LYS798  CYS799  TRP800  GLU811  SER814 

> <Gold.Protein.RotatedAtoms>
  150.7006  134.1404  159.4102 H   0  0  0  0  0  0  0  0  0  0  0  0  # atno 6907 bound_to 6896
  151.9389  135.0220  160.0544 H   0  0  0  0  0  0  0  0  0  0  0  0  # atno 6908 bound_to 6896
  152.2111  133.4877  159.5147 H   0  0  0  0  0  0  0  0  0  0  0  0  # atno 6909 bound_to 6896
  146.0560  139.5064  142.9688 H   0  0  0  0  0  0  0  0  0  0  0  0  # atno 7974 bound_to 7965
  154.4009  140.1366  156.4046 H   0  0  0  0  0  0  0  0  0  0  0  0  # atno 8008 bound_to 7997
  155.7792  140.3482  155.5268 H   0  0  0  0  0  0  0  0  0  0  0  0  # atno 8009 bound_to 7997
  155.8691  140.0969  157.1553 H   0  0  0  0  0  0  0  0  0  0  0  0  # atno 8010 bound_to 7997
  139.7505  143.8525  152.2585 H   0  0  0  0  0  0  0  0  0  0  0  0  # atno 10167 bound_to 10162
  157.6957  131.0347  150.3482 H   0  0  0  0  0  0  0  0  0  0  0  0  # atno 10718 bound_to 10713
  153.0055  135.5394  154.6506 H   0  0  0  0  0  0  0  0  0  0  0  0  # atno 10763 bound_to 10752
  154.5739  135.2844  155.0802 H   0  0  0  0  0  0  0  0  0  0  0  0  # atno 10764 bound_to 10752
  154.1958  135.6492  153.5125 H   0  0  0  0  0  0  0  0  0  0  0  0  # atno 10765 bound_to 10752
  140.5244  134.0527  155.7854 H   0  0  0  0  0  0  0  0  0  0  0  0  # atno 11005 bound_to 11000
  145.6643  141.0233  143.1692 LP  0  0  0  0  0  0  0  0  0  0  0  0  # atno 17320 bound_to 7965
  144.7148  139.8236  143.7402 LP  0  0  0  0  0  0  0  0  0  0  0  0  # atno 17321 bound_to 7965
  139.8502  144.7168  150.9223 LP  0  0  0  0  0  0  0  0  0  0  0  0  # atno 17342 bound_to 10162
  140.7797  143.3906  151.1317 LP  0  0  0  0  0  0  0  0  0  0  0  0  # atno 17343 bound_to 10162
  156.3934  130.3902  149.7013 LP  0  0  0  0  0  0  0  0  0  0  0  0  # atno 17370 bound_to 10713
  156.4355  130.7836  151.2856 LP  0  0  0  0  0  0  0  0  0  0  0  0  # atno 17371 bound_to 10713
  141.1316  133.9292  157.2522 LP  0  0  0  0  0  0  0  0  0  0  0  0  # atno 17394 bound_to 11000
  139.9588  135.0159  156.9204 LP  0  0  0  0  0  0  0  0  0  0  0  0  # atno 17395 bound_to 11000

$$$$
