AV-unprocessed.smi:72|AV-procd|sdf|682|dock1
  -GOLD-   2262016593D 1   1.00000     0.00000
 Structure written by MMmdl.
 29 30  0  0  0  0  0  0  0  0  1 V2000
  153.9741  138.2570  160.8260 N   0  0  0  0  0  0  0  0  0  0  0  0
  153.1464  138.3249  159.8459 C   0  0  0  0  0  0  0  0  0  0  0  0
  153.2707  139.1735  158.7357 N   0  0  0  0  0  0  0  0  0  0  0  0
  152.3541  139.1323  157.8181 C   0  0  0  0  0  0  0  0  0  0  0  0
  151.2050  138.2449  157.9082 N   0  0  0  0  0  0  0  0  0  0  0  0
  150.1549  138.2161  156.8172 C   0  0  1  0  0  0  0  0  0  0  0  0
  149.6949  139.5169  156.5980 O   0  0  0  0  0  0  0  0  0  0  0  0
  149.5253  139.7270  155.2016 C   0  0  1  0  0  0  0  0  0  0  0  0
  149.5012  141.2296  154.8693 C   0  0  0  0  0  0  0  0  0  0  0  0
  149.2919  141.4228  153.4863 O   0  0  0  0  0  0  0  0  0  0  0  0
  150.6406  138.8872  154.5609 C   0  0  1  0  0  0  0  0  0  0  0  0
  151.8676  139.5971  154.5364 O   0  0  0  0  0  0  0  0  0  0  0  0
  150.6844  137.6650  155.4746 C   0  0  1  0  0  0  0  0  0  0  0  0
  151.9550  137.0371  155.5205 O   0  0  0  0  0  0  0  0  0  0  0  0
  151.0706  137.3747  159.0181 C   0  0  0  0  0  0  0  0  0  0  0  0
  150.1318  136.5875  159.1355 O   0  0  0  0  0  0  0  0  0  0  0  0
  152.0495  137.4594  159.9447 N   0  0  0  0  0  0  0  0  0  0  0  0
  149.3194  137.6309  157.2033 H   0  0  0  0  0  0  0  0  0  0  0  0
  148.5623  139.2887  154.9319 H   0  0  0  0  0  0  0  0  0  0  0  0
  150.3937  138.6102  153.5354 H   0  0  0  0  0  0  0  0  0  0  0  0
  149.9551  136.9346  155.1218 H   0  0  0  0  0  0  0  0  0  0  0  0
  154.7338  138.9072  160.6834 H   0  0  0  0  0  0  0  0  0  0  0  0
  152.3859  139.7561  156.9242 H   0  0  0  0  0  0  0  0  0  0  0  0
  148.6886  141.7154  155.4100 H   0  0  0  0  0  0  0  0  0  0  0  0
  150.4234  141.7240  155.1755 H   0  0  0  0  0  0  0  0  0  0  0  0
  149.5274  140.6277  153.0330 H   0  0  0  0  0  0  0  0  0  0  0  0
  152.5747  138.9718  154.5817 H   0  0  0  0  0  0  0  0  0  0  0  0
  152.4589  137.4307  156.2162 H   0  0  0  0  0  0  0  0  0  0  0  0
  151.9863  136.8538  160.7499 H   0  0  0  0  0  0  0  0  0  0  0  0
  1  2  2  0  0  0  0
  1 22  1  0  0  0  0
  2 17  1  0  0  0  0
  2  3  1  0  0  0  0
  3  4  2  0  0  0  0
  4  5  1  0  0  0  0
  4 23  1  0  0  0  0
  5  6  1  0  0  0  0
  5 15  1  0  0  0  0
  6 18  1  0  0  0  0
  6 13  1  0  0  0  0
  6  7  1  0  0  0  0
  7  8  1  0  0  0  0
  8 19  1  0  0  0  0
  8  9  1  0  0  0  0
  8 11  1  0  0  0  0
  9 10  1  0  0  0  0
  9 24  1  0  0  0  0
  9 25  1  0  0  0  0
 10 26  1  0  0  0  0
 11 20  1  0  0  0  0
 11 12  1  0  0  0  0
 11 13  1  0  0  0  0
 12 27  1  0  0  0  0
 13 21  1  0  0  0  0
 13 14  1  0  0  0  0
 14 28  1  0  0  0  0
 15 16  2  0  0  0  0
 15 17  1  0  0  0  0
 17 29  1  0  0  0  0
M  END
> <s_m_source_file>
AV-unprocessed.smi

> <i_m_source_file_index>
72

> <i_lp_mmshare_version>
43012

> <i_f3d_flags>
0

> <s_epik_input>
W05IMl1jMW5bY0hdbihjKD1PKW4xKVtDQEBIXTJPW0NASF0oW0NIMl1bT0hdKVtDQEBIXShbT0hdKVtDQEhdMltPSF0=

> <s_epik_cmdline>
J2VwaWtfcHl0aG9uJywgJy1waCcsICc3LjAnLCAnLXRuJywgJzgnLCAnLW1hJywgJzIwMCcsICctbWV0YWxfYmluZGluZycsICctaW1hZScsICc8aW5maWxlLm1hZT4nLCAnLW9tYWUnLCAnPG91dGZpbGUubWFlPic=

> <r_lp_tautomer_probability>
7.17554e-07

> <r_epik_Ionization_Penalty>
0.0066451

> <r_epik_Ionization_Penalty_Charging>
0.00663793

> <r_epik_Ionization_Penalty_Neutral>
7.17052e-06

> <r_epik_State_Penalty>
0.419231

> <r_epik_Charging_Adjusted_Penalty>
0.425868

> <i_epik_Tot_Q>
0

> <i_epik_Tot_abs_Q>
0

> <r_epik_Metal_State_Penalty>
1.44144

> <b_epik_Metal_Only>
0

> <s_epik_Chemistry_Notes>
This compound contains an acetal/aminal-like group ( X-CH(R)-Y where X, Y are N, S, or O) that may be acid/base labile, releasing an aldehyde.

> <s_lp_Force_Field>
OPLS_2005

> <r_lp_Energy>
48.5612

> <b_lp_Chiralities_Consistent>
1

> <s_lp_Variant>
AV-unprocessed.smi:72-20

> <Gold.Version>
5.8.1

> <Gold.Id.Protein>
6NUR|6NUR_protein|mol2

> <Gold.PLP.Fitness>
37.8545

> <Gold.PLP.PLP>
-21.3384

> <Gold.PLP.part.hbond>
-6.9815

> <Gold.PLP.part.metal>
0.0000

> <Gold.PLP.part.buried>
-1.7246

> <Gold.PLP.part.nonpolar>
-11.6561

> <Gold.PLP.part.repulsive>
0.1316

> <Gold.PLP.ligand.clash>
0.0000

> <Gold.PLP.ligand.torsion>
0.1068

> <Gold.PLP.Chemscore.Hbond>
5.5760

> <Gold.PLP.Chemscore.CHOScore>
0.0000

> <Gold.PLP.Chemscore.Metal>
0.0000

> <Gold.Chemscore.Hbonds>
donor molecule, donor type, donor heavy atom, donor atom, acceptor molecule, acceptor atom, score
      L1  H    10    26       P1  7957  0.70
      P1  H  6896  6909       L1    16  1.00
      P1  H  7989  7998       L1    12  0.98
      P1  H  7997  8010       L1     3  0.05
      P1  H  8011  8017       L1    10  0.73
      P1  H 10752 10763       L1    14  0.98

> <Gold.PLP.Chemscore.Internal.Correction>
0.0016

> <Gold.Rescore>
     Score         DG    S(hbond)    S(metal)    S(lipo)     H(rot)  DE(clash)    DE(int)     intcor
     11.44     -12.26       4.30        0.00      23.95       4.06       0.71       0.12       ----

> <Gold.Chemscore.Fitness>
11.4365

> <Gold.Chemscore.DG>
-12.2625

> <Gold.Chemscore.ZeroCoef>
-5.4800

> <Gold.Chemscore.Hbond>
4.3036

> <Gold.Chemscore.Metal>
0.0000

> <Gold.Chemscore.Lipo>
23.9483

> <Gold.Chemscore.Internal_Hbond>
0.0000

> <Gold.Chemscore.DEClash>
0.7073

> <Gold.Chemscore.DEInternal>
0.1187

> <Gold.Chemscore.Rot>
4.0600

> <Gold.Chemscore.Internal.Correction>
   9.000000E+99

> <Gold.Chemscore.Hbonds>
donor molecule, donor type, donor heavy atom, donor atom, acceptor molecule, acceptor atom, score
      L1  H    10    26       P1  7957  0.71
      P1  H  6896  6909       L1    16  0.35
      P1  H  7989  7998       L1    12  0.56
      P1  H  7997  8010       L1     3  0.01
      P1  H  8011  8017       L1    10  0.10
      P1  H 10752 10763       L1    14  0.72

> <Gold.Chemscore.Hbond.Weighted>
-14.3741

> <Gold.Chemscore.Metal.Weighted>
-0.0000

> <Gold.Chemscore.Lipo.Weighted>
-2.8019

> <Gold.Chemscore.Internal_Hbond.Weighted>
0.0000

> <Gold.Chemscore.DEClash.Weighted>
0.7073

> <Gold.Chemscore.DEInternal.Weighted>
0.1187

> <Gold.Chemscore.Rot.Weighted>
10.3936

> <Gold.Chemscore.Internal.Correction.Weighted>
   9.000000E+99

> <Gold.Protein.RotatedTorsions>
[ 6907 6896 6895 6894 ] final   83.67 input  -60.11 | X-H torsion
[ 7974 7965 7964 7962 ] final   -9.23 input  175.53 | X-H torsion
[ 8008 7997 7996 7995 ] final    4.36 input   59.86 | X-H torsion
[ 10167 10162 10161 10158 ] final -141.49 input  -65.29 | X-H torsion
[ 10718 10713 10712 10709 ] final -119.85 input   66.30 | X-H torsion
[ 10763 10752 10751 10750 ] final   63.19 input  -60.55 | X-H torsion
[ 11005 11000 10999 10996 ] final -172.95 input  -57.11 | X-H torsion

> <Gold.Protein.ActiveResidues>
 VAL166  LYS551  ARG553  GLY616  TRP617  ASP618  TYR619  PRO620  LYS621  CYS622 
 ASP623  PHE694  ASN695  SER759  ASP760  ASP761  ALA762  ILE779  LEU786  VAL792 
 PHE793  MET794  SER795  GLU796  ALA797  LYS798  CYS799  TRP800  GLU811  SER814 

> <Gold.Protein.RotatedAtoms>
  152.5333  134.2859  159.9024 H   0  0  0  0  0  0  0  0  0  0  0  0  # atno 6907 bound_to 6896
  151.2812  133.4202  159.2634 H   0  0  0  0  0  0  0  0  0  0  0  0  # atno 6908 bound_to 6896
  151.0282  134.9535  159.8153 H   0  0  0  0  0  0  0  0  0  0  0  0  # atno 6909 bound_to 6896
  146.2258  140.2585  142.8350 H   0  0  0  0  0  0  0  0  0  0  0  0  # atno 7974 bound_to 7965
  154.7150  140.2700  155.6594 H   0  0  0  0  0  0  0  0  0  0  0  0  # atno 8008 bound_to 7997
  156.2807  140.2745  156.1728 H   0  0  0  0  0  0  0  0  0  0  0  0  # atno 8009 bound_to 7997
  155.0583  140.0371  157.2558 H   0  0  0  0  0  0  0  0  0  0  0  0  # atno 8010 bound_to 7997
  139.8180  143.7612  152.2665 H   0  0  0  0  0  0  0  0  0  0  0  0  # atno 10167 bound_to 10162
  156.1212  130.6325  150.9467 H   0  0  0  0  0  0  0  0  0  0  0  0  # atno 10718 bound_to 10713
  153.0009  135.5438  154.6313 H   0  0  0  0  0  0  0  0  0  0  0  0  # atno 10763 bound_to 10752
  154.5590  135.2832  155.0939 H   0  0  0  0  0  0  0  0  0  0  0  0  # atno 10764 bound_to 10752
  154.2150  135.6461  153.5179 H   0  0  0  0  0  0  0  0  0  0  0  0  # atno 10765 bound_to 10752
  140.4912  134.5983  157.4955 H   0  0  0  0  0  0  0  0  0  0  0  0  # atno 11005 bound_to 11000
  144.9357  140.8024  143.5661 LP  0  0  0  0  0  0  0  0  0  0  0  0  # atno 17320 bound_to 7965
  145.2532  139.2023  143.4931 LP  0  0  0  0  0  0  0  0  0  0  0  0  # atno 17321 bound_to 7965
  139.7782  144.7454  151.0126 LP  0  0  0  0  0  0  0  0  0  0  0  0  # atno 17342 bound_to 10162
  140.7815  143.4571  151.0330 LP  0  0  0  0  0  0  0  0  0  0  0  0  # atno 17343 bound_to 10162
  157.6396  131.0912  150.8279 LP  0  0  0  0  0  0  0  0  0  0  0  0  # atno 17370 bound_to 10713
  156.8375  130.5037  149.5324 LP  0  0  0  0  0  0  0  0  0  0  0  0  # atno 17371 bound_to 10713
  139.9768  134.7202  155.9935 LP  0  0  0  0  0  0  0  0  0  0  0  0  # atno 17394 bound_to 11000
  141.1483  133.6552  156.3935 LP  0  0  0  0  0  0  0  0  0  0  0  0  # atno 17395 bound_to 11000

$$$$
