AV-unprocessed.smi:2300|AV-procd|sdf|9233|dock5
  -GOLD-   2272012453D 1   1.00000     0.00000
 Structure written by MMmdl.
 51 52  0  0  0  0  0  0  0  0  1 V2000
  145.2604  142.1529  156.1702 C   0  0  0  0  0  0  0  0  0  0  0  0
  146.2700  142.2372  155.0296 C   0  0  0  0  0  0  0  0  0  0  0  0
  145.9979  142.8802  154.0164 O   0  0  0  0  0  0  0  0  0  0  0  0
  147.4277  141.5811  155.2019 N   0  0  0  0  0  0  0  0  0  0  0  0
  148.5127  141.5254  154.2281 C   0  0  0  0  0  0  0  0  0  0  0  0
  149.7292  140.7590  154.7740 C   0  0  1  0  0  0  0  0  0  0  0  0
  150.1903  141.3124  156.1354 C   0  0  0  0  0  0  0  0  0  0  0  0
  151.2836  140.5041  156.6712 N   0  0  0  0  0  0  0  0  0  0  0  0
  152.0089  141.0179  157.7671 C   0  0  0  0  0  0  0  0  0  0  0  0
  151.7073  142.2906  158.3064 C   0  0  0  0  0  0  0  0  0  0  0  0
  152.4807  142.7209  159.4054 C   0  0  0  0  0  0  0  0  0  0  0  0
  152.2334  144.0704  160.0646 C   0  0  0  0  0  0  0  0  0  0  0  0
  152.1087  143.9461  161.5909 C   0  0  0  0  0  0  0  0  0  0  0  0
  151.0358  144.8008  159.4374 C   0  0  0  0  0  0  0  0  0  0  0  0
  153.4668  141.9533  159.9204 N   0  0  0  0  0  0  0  0  0  0  0  0
  153.6729  140.7659  159.3455 C   0  0  0  0  0  0  0  0  0  0  0  0
  154.7862  139.9048  159.9276 C   0  0  0  0  0  0  0  0  0  0  0  0
  154.4792  139.4668  161.3681 C   0  0  0  0  0  0  0  0  0  0  0  0
  156.1642  140.5693  159.7819 C   0  0  0  0  0  0  0  0  0  0  0  0
  152.9993  140.2650  158.3053 N   0  0  0  0  0  0  0  0  0  0  0  0
  150.9815  139.0764  156.7203 C   0  0  0  0  0  0  0  0  0  0  0  0
  150.4710  138.5904  155.3530 C   0  0  0  0  0  0  0  0  0  0  0  0
  149.3683  139.3892  154.9372 O   0  0  0  0  0  0  0  0  0  0  0  0
  145.7126  141.7459  157.0755 H   0  0  0  0  0  0  0  0  0  0  0  0
  144.4258  141.5117  155.8857 H   0  0  0  0  0  0  0  0  0  0  0  0
  144.8681  143.1434  156.4029 H   0  0  0  0  0  0  0  0  0  0  0  0
  147.5629  141.0732  156.0641 H   0  0  0  0  0  0  0  0  0  0  0  0
  148.1555  141.0628  153.3063 H   0  0  0  0  0  0  0  0  0  0  0  0
  148.7979  142.5457  153.9700 H   0  0  0  0  0  0  0  0  0  0  0  0
  150.5519  140.8349  154.0602 H   0  0  0  0  0  0  0  0  0  0  0  0
  150.5145  142.3466  156.0125 H   0  0  0  0  0  0  0  0  0  0  0  0
  149.3613  141.3120  156.8447 H   0  0  0  0  0  0  0  0  0  0  0  0
  150.9116  142.9060  157.9138 H   0  0  0  0  0  0  0  0  0  0  0  0
  153.1124  144.6868  159.8715 H   0  0  0  0  0  0  0  0  0  0  0  0
  152.9974  143.4814  162.0193 H   0  0  0  0  0  0  0  0  0  0  0  0
  151.2468  143.3409  161.8741 H   0  0  0  0  0  0  0  0  0  0  0  0
  151.9920  144.9255  162.0555 H   0  0  0  0  0  0  0  0  0  0  0  0
  151.1777  144.9348  158.3647 H   0  0  0  0  0  0  0  0  0  0  0  0
  150.9042  145.7889  159.8788 H   0  0  0  0  0  0  0  0  0  0  0  0
  150.1080  144.2467  159.5841 H   0  0  0  0  0  0  0  0  0  0  0  0
  154.8278  138.9893  159.3344 H   0  0  0  0  0  0  0  0  0  0  0  0
  153.5303  138.9323  161.4203 H   0  0  0  0  0  0  0  0  0  0  0  0
  154.4172  140.3228  162.0409 H   0  0  0  0  0  0  0  0  0  0  0  0
  155.2543  138.8015  161.7487 H   0  0  0  0  0  0  0  0  0  0  0  0
  156.3788  140.8007  158.7381 H   0  0  0  0  0  0  0  0  0  0  0  0
  156.9558  139.9137  160.1451 H   0  0  0  0  0  0  0  0  0  0  0  0
  156.2198  141.5000  160.3478 H   0  0  0  0  0  0  0  0  0  0  0  0
  151.8535  138.4880  157.0017 H   0  0  0  0  0  0  0  0  0  0  0  0
  150.2221  138.9048  157.4842 H   0  0  0  0  0  0  0  0  0  0  0  0
  151.2646  138.6290  154.6049 H   0  0  0  0  0  0  0  0  0  0  0  0
  150.1496  137.5510  155.4211 H   0  0  0  0  0  0  0  0  0  0  0  0
  1  2  1  0  0  0  0
  1 24  1  0  0  0  0
  1 25  1  0  0  0  0
  1 26  1  0  0  0  0
  2  3  2  0  0  0  0
  2  4  1  0  0  0  0
  4  5  1  0  0  0  0
  4 27  1  0  0  0  0
  5  6  1  0  0  0  0
  5 28  1  0  0  0  0
  5 29  1  0  0  0  0
  6 23  1  0  0  0  0
  6  7  1  0  0  0  0
  6 30  1  0  0  0  0
  7  8  1  0  0  0  0
  7 31  1  0  0  0  0
  7 32  1  0  0  0  0
  8  9  1  0  0  0  0
  8 21  1  0  0  0  0
  9 20  1  0  0  0  0
  9 10  2  0  0  0  0
 10 11  1  0  0  0  0
 10 33  1  0  0  0  0
 11 12  1  0  0  0  0
 11 15  2  0  0  0  0
 12 13  1  0  0  0  0
 12 14  1  0  0  0  0
 12 34  1  0  0  0  0
 13 35  1  0  0  0  0
 13 36  1  0  0  0  0
 13 37  1  0  0  0  0
 14 38  1  0  0  0  0
 14 39  1  0  0  0  0
 14 40  1  0  0  0  0
 15 16  1  0  0  0  0
 16 17  1  0  0  0  0
 16 20  2  0  0  0  0
 17 18  1  0  0  0  0
 17 19  1  0  0  0  0
 17 41  1  0  0  0  0
 18 42  1  0  0  0  0
 18 43  1  0  0  0  0
 18 44  1  0  0  0  0
 19 45  1  0  0  0  0
 19 46  1  0  0  0  0
 19 47  1  0  0  0  0
 21 22  1  0  0  0  0
 21 48  1  0  0  0  0
 21 49  1  0  0  0  0
 22 23  1  0  0  0  0
 22 50  1  0  0  0  0
 22 51  1  0  0  0  0
M  END
> <s_m_source_file>
AV-unprocessed.smi

> <i_m_source_file_index>
2300

> <i_lp_mmshare_version>
43012

> <i_f3d_flags>
0

> <s_epik_input>
W0NIM11DKD1PKVtOSF1bQ0gyXVtDQEBIXTFbQ0gyXU4oW0NIMl1bQ0gyXU8xKWMyW2NIXWMoW0NIXShbQ0gzXSlbQ0gzXSluYyhuMilbQ0hdKFtDSDNdKVtDSDNd

> <s_epik_cmdline>
J2VwaWtfcHl0aG9uJywgJy1waCcsICc3LjAnLCAnLXRuJywgJzgnLCAnLW1hJywgJzIwMCcsICctbWV0YWxfYmluZGluZycsICctaW1hZScsICc8aW5maWxlLm1hZT4nLCAnLW9tYWUnLCAnPG91dGZpbGUubWFlPic=

> <r_lp_tautomer_probability>
1

> <r_epik_Ionization_Penalty>
0.0035465

> <r_epik_Ionization_Penalty_Charging>
0

> <r_epik_Ionization_Penalty_Neutral>
0.0035465

> <r_epik_State_Penalty>
0.00247846

> <r_epik_Charging_Adjusted_Penalty>
0.00247846

> <i_epik_Tot_Q>
0

> <i_epik_Tot_abs_Q>
0

> <r_epik_Metal_State_Penalty>
-0

> <b_epik_Metal_Only>
0

> <s_lp_Force_Field>
OPLS_2005

> <r_lp_Energy>
1.47364

> <b_lp_Chiralities_Consistent>
1

> <s_lp_Variant>
AV-unprocessed.smi:2300-2

> <Gold.Version>
5.8.1

> <Gold.Id.Protein>
6NUR|6NUR_protein|mol2

> <Gold.PLP.Fitness>
45.1863

> <Gold.PLP.PLP>
-42.8341

> <Gold.PLP.part.hbond>
-1.0000

> <Gold.PLP.part.metal>
0.0000

> <Gold.PLP.part.buried>
-4.6062

> <Gold.PLP.part.nonpolar>
-36.3504

> <Gold.PLP.part.repulsive>
0.3534

> <Gold.PLP.ligand.clash>
0.0000

> <Gold.PLP.ligand.torsion>
0.4773

> <Gold.PLP.Chemscore.Hbond>
0.9440

> <Gold.PLP.Chemscore.CHOScore>
0.0000

> <Gold.PLP.Chemscore.Metal>
0.0000

> <Gold.Chemscore.Hbonds>
donor molecule, donor type, donor heavy atom, donor atom, acceptor molecule, acceptor atom, score
      P1  H  7997  8010       L1    20  0.86

> <Gold.PLP.Chemscore.Internal.Correction>
0.4747

> <Gold.Rescore>
     Score         DG    S(hbond)    S(metal)    S(lipo)     H(rot)  DE(clash)    DE(int)     intcor
     14.12     -14.60       0.14        0.00     113.71       1.82       0.14       0.34       ----

> <Gold.Chemscore.Fitness>
14.1234

> <Gold.Chemscore.DG>
-14.6004

> <Gold.Chemscore.ZeroCoef>
-5.4800

> <Gold.Chemscore.Hbond>
0.1391

> <Gold.Chemscore.Metal>
0.0000

> <Gold.Chemscore.Lipo>
113.7069

> <Gold.Chemscore.Internal_Hbond>
0.0000

> <Gold.Chemscore.DEClash>
0.1406

> <Gold.Chemscore.DEInternal>
0.3364

> <Gold.Chemscore.Rot>
1.8156

> <Gold.Chemscore.Internal.Correction>
   9.000000E+99

> <Gold.Chemscore.Hbonds>
donor molecule, donor type, donor heavy atom, donor atom, acceptor molecule, acceptor atom, score
      P1  H  7997  8010       L1    20  0.14

> <Gold.Chemscore.Hbond.Weighted>
-0.4647

> <Gold.Chemscore.Metal.Weighted>
-0.0000

> <Gold.Chemscore.Lipo.Weighted>
-13.3037

> <Gold.Chemscore.Internal_Hbond.Weighted>
0.0000

> <Gold.Chemscore.DEClash.Weighted>
0.1406

> <Gold.Chemscore.DEInternal.Weighted>
0.3364

> <Gold.Chemscore.Rot.Weighted>
4.6481

> <Gold.Chemscore.Internal.Correction.Weighted>
   9.000000E+99

> <Gold.Protein.RotatedTorsions>
[ 6907 6896 6895 6894 ] final  134.32 input  -60.11 | X-H torsion
[ 7974 7965 7964 7962 ] final  132.10 input  175.53 | X-H torsion
[ 8008 7997 7996 7995 ] final   37.10 input   59.86 | X-H torsion
[ 10167 10162 10161 10158 ] final    0.26 input  -65.29 | X-H torsion
[ 10718 10713 10712 10709 ] final   -1.86 input   66.30 | X-H torsion
[ 10763 10752 10751 10750 ] final   31.53 input  -60.55 | X-H torsion
[ 11005 11000 10999 10996 ] final   19.39 input  -57.11 | X-H torsion

> <Gold.Protein.ActiveResidues>
 VAL166  LYS551  ARG553  GLY616  TRP617  ASP618  TYR619  PRO620  LYS621  CYS622 
 ASP623  PHE694  ASN695  SER759  ASP760  ASP761  ALA762  ILE779  LEU786  VAL792 
 PHE793  MET794  SER795  GLU796  ALA797  LYS798  CYS799  TRP800  GLU811  SER814 

> <Gold.Protein.RotatedAtoms>
  152.3126  133.5769  159.5690 H   0  0  0  0  0  0  0  0  0  0  0  0  # atno 6907 bound_to 6896
  150.7330  134.0130  159.3685 H   0  0  0  0  0  0  0  0  0  0  0  0  # atno 6908 bound_to 6896
  151.8021  135.0706  160.0452 H   0  0  0  0  0  0  0  0  0  0  0  0  # atno 6909 bound_to 6896
  145.0003  139.4318  143.5295 H   0  0  0  0  0  0  0  0  0  0  0  0  # atno 7974 bound_to 7965
  155.1983  140.3313  155.4347 H   0  0  0  0  0  0  0  0  0  0  0  0  # atno 8008 bound_to 7997
  156.2416  140.1898  156.7021 H   0  0  0  0  0  0  0  0  0  0  0  0  # atno 8009 bound_to 7997
  154.6159  140.0602  156.9539 H   0  0  0  0  0  0  0  0  0  0  0  0  # atno 8010 bound_to 7997
  140.6737  143.6978  150.7976 H   0  0  0  0  0  0  0  0  0  0  0  0  # atno 10167 bound_to 10162
  156.7994  130.5388  149.5724 H   0  0  0  0  0  0  0  0  0  0  0  0  # atno 10718 bound_to 10713
  153.0311  135.6436  154.1213 H   0  0  0  0  0  0  0  0  0  0  0  0  # atno 10763 bound_to 10752
  154.0935  135.2864  155.3268 H   0  0  0  0  0  0  0  0  0  0  0  0  # atno 10764 bound_to 10752
  154.6448  135.5447  153.7895 H   0  0  0  0  0  0  0  0  0  0  0  0  # atno 10765 bound_to 10752
  140.4142  134.1586  155.7669 H   0  0  0  0  0  0  0  0  0  0  0  0  # atno 11005 bound_to 11000
  146.3450  139.9388  142.8744 LP  0  0  0  0  0  0  0  0  0  0  0  0  # atno 17320 bound_to 7965
  145.2162  140.9916  143.4072 LP  0  0  0  0  0  0  0  0  0  0  0  0  # atno 17321 bound_to 7965
  140.0667  143.5101  152.2600 LP  0  0  0  0  0  0  0  0  0  0  0  0  # atno 17342 bound_to 10162
  139.6017  144.7584  151.3155 LP  0  0  0  0  0  0  0  0  0  0  0  0  # atno 17343 bound_to 10162
  156.1110  130.6040  151.0048 LP  0  0  0  0  0  0  0  0  0  0  0  0  # atno 17370 bound_to 10713
  157.6561  131.0889  150.7943 LP  0  0  0  0  0  0  0  0  0  0  0  0  # atno 17371 bound_to 10713
  141.1809  133.8415  157.1260 LP  0  0  0  0  0  0  0  0  0  0  0  0  # atno 17394 bound_to 11000
  140.0246  134.9930  157.0659 LP  0  0  0  0  0  0  0  0  0  0  0  0  # atno 17395 bound_to 11000

$$$$
