#       Name:                AV-unprocessed.smi:776
#       Creating user name   scv26
#       Creation time:       Fri Mar 27 01:12:03 2020


#       File generated by GOLD software.
#

@<TRIPOS>MOLECULE
AV-unprocessed.smi:776
    50    51     1
SMALL
NO_CHARGES


@<TRIPOS>ATOM
      1 ****        -6.6130  -0.5744   0.6233 C.3            1 S1                 0.0000
      2 ****        -5.6238   0.0773   1.6014 C.3            1 S1                 0.0000
      3 ****        -6.2871   1.1018   2.5344 C.3            1 S1                 0.0000
      4 ****        -4.4343   0.6528   0.8950 C.2            1 S1                 0.0000
      5 ****        -4.5568   1.6435   0.0175 N.2            1 S1                 0.0000
      6 ****        -3.2382   1.8738  -0.3999 O.3            1 S1                 0.0000
      7 ****        -2.4726   1.0017   0.2986 C.2            1 S1                 0.0000
      8 ****        -1.0033   0.9678   0.0429 C.3            1 S1                 0.0000
      9 ****        -0.6356   0.0603  -1.1420 C.3            1 S1                 0.0000
     10 ****         0.7984   0.0753  -1.4072 N.am           1 S1                 0.0000
     11 ****         1.7250  -0.5998  -0.7058 C.2            1 S1                 0.0000
     12 ****         1.4255  -1.3529   0.2207 O.2            1 S1                 0.0000
     13 ****         2.9835  -0.4600  -1.1951 N.am           1 S1                 0.0000
     14 ****         3.5178   0.8691  -1.5461 C.3            1 S1                 0.0000
     15 ****         4.2654   1.4483  -0.3289 C.3            1 S1                 0.0000
     16 ****         5.3762   0.4934   0.1472 C.3            1 S1                 0.0000
     17 ****         4.8603  -0.9484   0.3160 C.3            1 S1                 0.0000
     18 ****         4.0939  -1.4056  -0.9427 C.3            1 S1                 0.0000
     19 ****         3.6951  -2.8954  -0.8826 C.3            1 S1                 0.0000
     20 ****        -3.1658   0.2051   1.1078 N.2            1 S1                 0.0000
     21 ****        -6.1245  -1.3458   0.0269 H              1 S1                 0.0000
     22 ****        -7.0362   0.1595  -0.0631 H              1 S1                 0.0000
     23 ****        -7.4398  -1.0437   1.1569 H              1 S1                 0.0000
     24 ****        -5.2546  -0.7255   2.2415 H              1 S1                 0.0000
     25 ****        -5.5754   1.4819   3.2679 H              1 S1                 0.0000
     26 ****        -7.1170   0.6539   3.0816 H              1 S1                 0.0000
     27 ****        -6.6785   1.9533   1.9769 H              1 S1                 0.0000
     28 ****        -0.6594   1.9859  -0.1426 H              1 S1                 0.0000
     29 ****        -0.5033   0.6300   0.9515 H              1 S1                 0.0000
     30 ****        -0.9723  -0.9618  -0.9607 H              1 S1                 0.0000
     31 ****        -1.1475   0.4012  -2.0424 H              1 S1                 0.0000
     32 ****         1.1128   0.6357  -2.1858 H              1 S1                 0.0000
     33 ****         4.1967   0.7791  -2.3953 H              1 S1                 0.0000
     34 ****         2.7494   1.5731  -1.8669 H              1 S1                 0.0000
     35 ****         4.6916   2.4206  -0.5775 H              1 S1                 0.0000
     36 ****         3.5590   1.6201   0.4845 H              1 S1                 0.0000
     37 ****         6.1839   0.4969  -0.5857 H              1 S1                 0.0000
     38 ****         5.8082   0.8520   1.0818 H              1 S1                 0.0000
     39 ****         5.6998  -1.6161   0.5123 H              1 S1                 0.0000
     40 ****         4.2079  -1.0066   1.1881 H              1 S1                 0.0000
     41 ****         4.7743  -1.3281  -1.7924 H              1 S1                 0.0000
     42 ****         4.5828  -3.5276  -0.9129 H              1 S1                 0.0000
     43 ****         3.0697  -3.1732  -1.7317 H              1 S1                 0.0000
     44 ****         3.1621  -3.1502   0.0330 H              1 S1                 0.0000
     45 ****        -5.3901   2.1125  -0.2751 LP             1 S1                 0.0000
     46 ****        -2.9679   2.8149  -0.1966 LP             1 S1                 0.0000
     47 ****        -3.1494   1.7063  -1.3818 LP             1 S1                 0.0000
     48 ****         0.4660  -1.4781   0.4730 LP             1 S1                 0.0000
     49 ****         2.1417  -1.8394   0.7210 LP             1 S1                 0.0000
     50 ****        -2.8427  -0.5251   1.7097 LP             1 S1                 0.0000
@<TRIPOS>BOND
    1    1    2 1     
    2    1   21 1     
    3    1   22 1     
    4    1   23 1     
    5    2    3 1     
    6    2    4 1     
    7    2   24 1     
    8    3   25 1     
    9    3   26 1     
   10    3   27 1     
   11    4   20 1     
   12    4    5 2     
   13    5    6 1     
   14    6    7 1     
   15    7    8 1     
   16    7   20 2     
   17    8    9 1     
   18    8   28 1     
   19    8   29 1     
   20    9   10 1     
   21    9   30 1     
   22    9   31 1     
   23   10   11 am    
   24   10   32 1     
   25   11   12 2     
   26   11   13 am    
   27   13   18 1     
   28   13   14 1     
   29   14   15 1     
   30   14   33 1     
   31   14   34 1     
   32   15   16 1     
   33   15   35 1     
   34   15   36 1     
   35   16   17 1     
   36   16   37 1     
   37   16   38 1     
   38   17   18 1     
   39   17   39 1     
   40   17   40 1     
   41   18   19 1     
   42   18   41 1     
   43   19   42 1     
   44   19   43 1     
   45   19   44 1     
   46    5   45 1     
   47    6   46 1     
   48    6   47 1     
   49   12   48 1     
   50   12   49 1     
   51   20   50 1     
@<TRIPOS>SUBSTRUCTURE
      1 S1             1
@<TRIPOS>SET
LONE_PAIRS      STATIC     ATOMS    <user>   **** ""
6 45 46 47 48 49 50
DONOR_HYDROGENS      STATIC     ATOMS    <user>   **** ""
1 32
ATOM$BLUE        STATIC     ATOMS    COLORGROUP SYSTEM
6 45 46 47 48 49 50
ATOM$RED        STATIC     ATOMS    COLORGROUP SYSTEM
1 32
