#       Name:                AV-unprocessed.smi:658
#       Creating user name   scv26
#       Creation time:       Fri Mar 27 00:17:14 2020


#       File generated by GOLD software.
#

@<TRIPOS>MOLECULE
AV-unprocessed.smi:658
    40    40     1
SMALL
NO_CHARGES


@<TRIPOS>ATOM
      1 ****        -2.2151  -1.6454  -2.2427 C.3            1 S1                 0.0000
      2 ****        -1.7026  -0.8549  -1.0272 C.3            1 S1                 0.0000
      3 ****        -0.2272  -0.7539  -1.1260 N.4            1 S1                 1.0000
      4 ****         0.3243   0.6058  -0.9526 C.3            1 S1                 0.0000
      5 ****         1.8569   0.5767  -0.9461 C.3            1 S1                 0.0000
      6 ****         2.4693   1.9735  -0.7726 C.3            1 S1                 0.0000
      7 ****         4.3110   1.9038  -0.7047 S.o2           1 S1                 0.0000
      8 ****         4.5968   1.4812   0.9373 N.3            1 S1                 0.0000
      9 ****         4.7847   0.7862  -1.5354 O.2            1 S1                 0.0000
     10 ****         4.8363   3.2633  -0.8990 O.2            1 S1                 0.0000
     11 ****        -2.1193  -1.5014   0.3227 C.3            1 S1                 0.0000
     12 ****        -3.6419  -1.6842   0.4728 C.3            1 S1                 0.0000
     13 ****        -1.5991  -0.7458   1.4569 N.pl3          1 S1                 0.0000
     14 ****        -2.0550   0.4438   1.9913 C.2            1 S1                 0.0000
     15 ****        -1.2221   0.7756   3.0209 C.2            1 S1                 0.0000
     16 ****        -0.2667  -0.2778   3.0357 C.2            1 S1                 0.0000
     17 ****        -0.4883  -1.1798   2.0932 N.2            1 S1                 0.0000
     18 ****        -3.3035  -1.6416  -2.2982 H              1 S1                 0.0000
     19 ****        -1.8840  -2.6841  -2.2112 H              1 S1                 0.0000
     20 ****        -1.8505  -1.2098  -3.1736 H              1 S1                 0.0000
     21 ****        -2.1322   0.1470  -1.0878 H              1 S1                 0.0000
     22 ****         0.1783  -1.3623  -0.4287 H              1 S1                 0.0000
     23 ****        -0.0376   1.2430  -1.7605 H              1 S1                 0.0000
     24 ****        -0.0365   1.0356  -0.0183 H              1 S1                 0.0000
     25 ****         2.2023  -0.0706  -0.1388 H              1 S1                 0.0000
     26 ****         2.2158   0.1336  -1.8757 H              1 S1                 0.0000
     27 ****         2.1968   2.6041  -1.6194 H              1 S1                 0.0000
     28 ****         2.1097   2.4660   0.1313 H              1 S1                 0.0000
     29 ****         5.0468   2.2254   1.4703 H              1 S1                 0.0000
     30 ****         5.0145   0.5575   1.0478 H              1 S1                 0.0000
     31 ****        -1.6774  -2.4990   0.3679 H              1 S1                 0.0000
     32 ****        -4.0343  -2.4010  -0.2479 H              1 S1                 0.0000
     33 ****        -4.1764  -0.7444   0.3321 H              1 S1                 0.0000
     34 ****        -3.8932  -2.0646   1.4637 H              1 S1                 0.0000
     35 ****        -2.9242   0.9517   1.5998 H              1 S1                 0.0000
     36 ****        -1.2846   1.6404   3.6649 H              1 S1                 0.0000
     37 ****         0.5779  -0.4104   3.6958 H              1 S1                 0.0000
     38 ****         0.0518  -1.0842  -2.0389 H              1 S1                 0.0000
     39 ****         3.6968   1.3897   1.3634 LP             1 S1                 0.0000
     40 ****         0.0473  -2.0007   1.8955 LP             1 S1                 0.0000
@<TRIPOS>BOND
    1    1    2 1     
    2    1   18 1     
    3    1   19 1     
    4    1   20 1     
    5    2    3 1     
    6    2   11 1     
    7    2   21 1     
    8    3    4 1     
    9    3   22 1     
   10    3   38 1     
   11    4    5 1     
   12    4   23 1     
   13    4   24 1     
   14    5    6 1     
   15    5   25 1     
   16    5   26 1     
   17    6    7 1     
   18    6   27 1     
   19    6   28 1     
   20    7    8 1     
   21    7    9 2     
   22    7   10 2     
   23    8   29 1     
   24    8   30 1     
   25   11   12 1     
   26   11   13 1     
   27   11   31 1     
   28   12   32 1     
   29   12   33 1     
   30   12   34 1     
   31   13   17 1     
   32   13   14 1     
   33   14   15 2     
   34   14   35 1     
   35   15   16 1     
   36   15   36 1     
   37   16   17 2     
   38   16   37 1     
   39    8   39 1     
   40   17   40 1     
@<TRIPOS>SUBSTRUCTURE
      1 S1             1
@<TRIPOS>SET
LONE_PAIRS      STATIC     ATOMS    <user>   **** ""
4 39 9 10 40
DONOR_HYDROGENS      STATIC     ATOMS    <user>   **** ""
4 22 38 29 30
ATOM$BLUE        STATIC     ATOMS    COLORGROUP SYSTEM
4 39 9 10 40
ATOM$RED        STATIC     ATOMS    COLORGROUP SYSTEM
4 22 38 29 30
