AV-unprocessed.smi:290|AV-procd|sdf|2235|dock2
  -GOLD-   2262022103D 1   1.00000     0.00000
 Structure written by MMmdl.
 59 62  0  0  0  0  0  0  0  0  2 V2000
  150.4988  145.8403  160.7512 C   0  0  0  0  0  0  0  0  0  0  0  0
  151.7238  145.1265  160.1611 C   0  0  2  0  0  0  0  0  0  0  0  0
  152.1263  145.7412  158.9399 O   0  0  0  0  0  0  0  0  0  0  0  0
  152.6533  144.7633  158.0474 C   0  0  0  0  0  0  0  0  0  0  0  0
  152.7109  143.4637  158.8449 C   0  0  0  0  0  0  0  0  0  0  0  0
  151.5646  143.6291  159.8352 C   0  0  1  0  0  0  0  0  0  0  0  0
  151.8342  142.8446  160.9813 O   0  0  0  0  0  0  0  0  0  0  0  0
  150.1717  143.2526  159.2584 C   0  0  0  0  0  0  0  0  0  0  0  0
  150.1961  142.1373  158.3252 N   0  0  0  0  0  0  0  0  0  0  0  0
  149.4685  142.0219  157.1626 C   0  0  0  0  0  0  0  0  0  0  0  0
  149.6618  140.9192  156.4924 N   0  0  0  0  0  0  0  0  0  0  0  0
  150.5781  140.2100  157.2605 C   0  0  0  0  0  0  0  0  0  0  0  0
  151.2210  138.9449  157.1342 C   0  0  0  0  0  0  0  0  0  0  0  0
  151.0600  138.0826  156.1057 N   0  0  0  0  0  0  0  0  0  0  0  0
  150.7611  136.6883  156.4266 C   0  0  0  0  0  0  0  0  0  0  0  0
  149.5451  136.2943  155.5800 C   0  0  0  0  0  0  0  0  0  0  0  0
  148.9077  137.6411  155.2150 C   0  0  2  0  0  0  0  0  0  0  0  0
  147.9863  137.6291  154.0406 N   0  3  1  0  0  0  0  0  0  0  0  0
  146.7387  136.8646  154.2975 C   0  0  0  0  0  0  0  0  0  0  0  0
  147.7041  139.0007  153.5331 C   0  0  0  0  0  0  0  0  0  0  0  0
  146.8632  139.0119  152.2437 C   0  0  0  0  0  0  0  0  0  0  0  0
  147.4075  138.1188  151.2963 O   0  0  0  0  0  0  0  0  0  0  0  0
  150.1505  138.5440  155.0628 C   0  0  2  0  0  0  0  0  0  0  0  0
  150.8432  138.4487  153.6899 C   0  0  0  0  0  0  0  0  0  0  0  0
  152.1012  138.5808  158.0978 N   0  0  0  0  0  0  0  0  0  0  0  0
  152.3272  139.3889  159.1378 C   0  0  0  0  0  0  0  0  0  0  0  0
  151.7966  140.5862  159.3957 N   0  0  0  0  0  0  0  0  0  0  0  0
  150.9244  140.9641  158.4174 C   0  0  0  0  0  0  0  0  0  0  0  0
  148.3321  137.9789  156.0779 H   0  0  0  0  0  0  0  0  0  0  0  0
  149.8747  139.5857  155.2358 H   0  0  0  0  0  0  0  0  0  0  0  0
  150.1629  145.3514  161.6660 H   0  0  0  0  0  0  0  0  0  0  0  0
  149.6644  145.8587  160.0502 H   0  0  0  0  0  0  0  0  0  0  0  0
  150.7393  146.8748  160.9973 H   0  0  0  0  0  0  0  0  0  0  0  0
  152.5606  145.2487  160.8518 H   0  0  0  0  0  0  0  0  0  0  0  0
  151.9760  144.6639  157.1988 H   0  0  0  0  0  0  0  0  0  0  0  0
  153.6316  145.0582  157.6672 H   0  0  0  0  0  0  0  0  0  0  0  0
  152.6540  142.5726  158.2213 H   0  0  0  0  0  0  0  0  0  0  0  0
  153.6633  143.4217  159.3767 H   0  0  0  0  0  0  0  0  0  0  0  0
  151.2925  143.1547  161.6911 H   0  0  0  0  0  0  0  0  0  0  0  0
  149.4833  142.9959  160.0644 H   0  0  0  0  0  0  0  0  0  0  0  0
  149.7301  144.1082  158.7458 H   0  0  0  0  0  0  0  0  0  0  0  0
  148.7915  142.7916  156.8215 H   0  0  0  0  0  0  0  0  0  0  0  0
  151.6195  136.0595  156.1892 H   0  0  0  0  0  0  0  0  0  0  0  0
  150.5516  136.5512  157.4874 H   0  0  0  0  0  0  0  0  0  0  0  0
  149.8797  135.7731  154.6822 H   0  0  0  0  0  0  0  0  0  0  0  0
  148.8671  135.6334  156.1209 H   0  0  0  0  0  0  0  0  0  0  0  0
  146.1895  137.2892  155.1387 H   0  0  0  0  0  0  0  0  0  0  0  0
  146.9498  135.8189  154.5198 H   0  0  0  0  0  0  0  0  0  0  0  0
  146.0787  136.8618  153.4319 H   0  0  0  0  0  0  0  0  0  0  0  0
  147.2005  139.5738  154.3129 H   0  0  0  0  0  0  0  0  0  0  0  0
  148.6328  139.5325  153.3277 H   0  0  0  0  0  0  0  0  0  0  0  0
  145.8175  138.7662  152.4225 H   0  0  0  0  0  0  0  0  0  0  0  0
  146.8764  140.0120  151.8099 H   0  0  0  0  0  0  0  0  0  0  0  0
  147.7762  137.3791  151.7554 H   0  0  0  0  0  0  0  0  0  0  0  0
  150.2020  138.8173  152.8907 H   0  0  0  0  0  0  0  0  0  0  0  0
  151.1288  137.4257  153.4448 H   0  0  0  0  0  0  0  0  0  0  0  0
  151.7504  139.0535  153.6754 H   0  0  0  0  0  0  0  0  0  0  0  0
  153.0366  139.0249  159.8666 H   0  0  0  0  0  0  0  0  0  0  0  0
  148.4780  137.1451  153.3024 H   0  0  0  0  0  0  0  0  0  0  0  0
  1  2  1  0  0  0  0
  1 31  1  0  0  0  0
  1 32  1  0  0  0  0
  1 33  1  0  0  0  0
  2  6  1  0  0  0  0
  2  3  1  0  0  0  0
  2 34  1  0  0  0  0
  3  4  1  0  0  0  0
  4  5  1  0  0  0  0
  4 35  1  0  0  0  0
  4 36  1  0  0  0  0
  5  6  1  0  0  0  0
  5 37  1  0  0  0  0
  5 38  1  0  0  0  0
  6  7  1  0  0  0  0
  6  8  1  0  0  0  0
  7 39  1  0  0  0  0
  8  9  1  0  0  0  0
  8 40  1  0  0  0  0
  8 41  1  0  0  0  0
  9 28  1  0  0  0  0
  9 10  1  0  0  0  0
 10 11  2  0  0  0  0
 10 42  1  0  0  0  0
 11 12  1  0  0  0  0
 12 28  2  0  0  0  0
 12 13  1  0  0  0  0
 13 14  1  0  0  0  0
 13 25  2  0  0  0  0
 14 23  1  0  0  0  0
 14 15  1  0  0  0  0
 15 16  1  0  0  0  0
 15 43  1  0  0  0  0
 15 44  1  0  0  0  0
 16 17  1  0  0  0  0
 16 45  1  0  0  0  0
 16 46  1  0  0  0  0
 17 29  1  0  0  0  0
 17 18  1  0  0  0  0
 17 23  1  0  0  0  0
 18 19  1  0  0  0  0
 18 20  1  0  0  0  0
 18 59  1  0  0  0  0
 19 47  1  0  0  0  0
 19 48  1  0  0  0  0
 19 49  1  0  0  0  0
 20 21  1  0  0  0  0
 20 50  1  0  0  0  0
 20 51  1  0  0  0  0
 21 22  1  0  0  0  0
 21 52  1  0  0  0  0
 21 53  1  0  0  0  0
 22 54  1  0  0  0  0
 23 30  1  0  0  0  0
 23 24  1  0  0  0  0
 24 55  1  0  0  0  0
 24 56  1  0  0  0  0
 24 57  1  0  0  0  0
 25 26  1  0  0  0  0
 26 27  2  0  0  0  0
 26 58  1  0  0  0  0
 27 28  1  0  0  0  0
M  CHG  1  18   1
M  END
> <s_m_source_file>
AV-unprocessed.smi

> <i_m_source_file_index>
290

> <i_lp_mmshare_version>
43012

> <i_f3d_flags>
0

> <s_epik_input>
W0NIMl0xW0NIMl1PW0NAQEhdKFtDSDNdKVtDQEBdMShbT0hdKVtDSDJdbihbY0hdbjIpYyhjMjMpbltjSF1uYzNONFtDSDJdW0NIMl1bQ0BIXShbQ0BIXTRbQ0gzXSlOKFtDSDNdKVtDSDJdW0NIMl1bT0hd

> <s_epik_cmdline>
J2VwaWtfcHl0aG9uJywgJy1waCcsICc3LjAnLCAnLXRuJywgJzgnLCAnLW1hJywgJzIwMCcsICctbWV0YWxfYmluZGluZycsICctaW1hZScsICc8aW5maWxlLm1hZT4nLCAnLW9tYWUnLCAnPG91dGZpbGUubWFlPic=

> <r_lp_tautomer_probability>
1

> <r_epik_Ionization_Penalty>
0.0036983

> <r_epik_Ionization_Penalty_Charging>
0.0032725

> <r_epik_Ionization_Penalty_Neutral>
0.000425798

> <r_epik_State_Penalty>
-0

> <r_epik_Charging_Adjusted_Penalty>
0.0032725

> <i_epik_Tot_Q>
1

> <i_epik_Tot_abs_Q>
1

> <r_epik_Metal_State_Penalty>
-0

> <b_epik_Metal_Only>
0

> <s_lp_Force_Field>
OPLS_2005

> <r_lp_Energy>
64.7341

> <b_lp_Chiralities_Consistent>
1

> <s_lp_Variant>
AV-unprocessed.smi:290-21

> <Gold.Version>
5.8.1

> <Gold.Id.Protein>
6NUR|6NUR_protein|mol2

> <Gold.PLP.Fitness>
50.3102

> <Gold.PLP.PLP>
-37.5552

> <Gold.PLP.part.hbond>
-5.3785

> <Gold.PLP.part.metal>
0.0000

> <Gold.PLP.part.buried>
3.5752

> <Gold.PLP.part.nonpolar>
-35.1259

> <Gold.PLP.part.repulsive>
0.1297

> <Gold.PLP.ligand.clash>
0.0000

> <Gold.PLP.ligand.torsion>
1.0156

> <Gold.PLP.Chemscore.Hbond>
3.8120

> <Gold.PLP.Chemscore.CHOScore>
1.0000

> <Gold.PLP.Chemscore.Metal>
0.0000

> <Gold.Chemscore.Hbonds>
donor molecule, donor type, donor heavy atom, donor atom, acceptor molecule, acceptor atom, score
      L1  H    18    59       P1  7948  2.00
      L1  H    22    54       P1  7948  0.94
      P1  H  7954  7966       L1    22  0.85
      L1  C    10    42       P1  8028  1.00

> <Gold.PLP.Chemscore.Internal.Correction>
0.3503

> <Gold.Rescore>
     Score         DG    S(hbond)    S(metal)    S(lipo)     H(rot)  DE(clash)    DE(int)     intcor
     10.09     -15.79       1.95        0.00     112.59       3.67       1.98       3.73       ----

> <Gold.Chemscore.Fitness>
10.0860

> <Gold.Chemscore.DG>
-15.7922

> <Gold.Chemscore.ZeroCoef>
-5.4800

> <Gold.Chemscore.Hbond>
1.9532

> <Gold.Chemscore.Metal>
0.0000

> <Gold.Chemscore.Lipo>
112.5891

> <Gold.Chemscore.Internal_Hbond>
0.0000

> <Gold.Chemscore.DEClash>
1.9777

> <Gold.Chemscore.DEInternal>
3.7286

> <Gold.Chemscore.Rot>
3.6658

> <Gold.Chemscore.Internal.Correction>
   9.000000E+99

> <Gold.Chemscore.Hbonds>
donor molecule, donor type, donor heavy atom, donor atom, acceptor molecule, acceptor atom, score
      L1  H    18    59       P1  7948  1.00
      L1  H    22    54       P1  7948  0.90
      P1  H  7954  7966       L1    22  0.14

> <Gold.Chemscore.Hbond.Weighted>
-6.5237

> <Gold.Chemscore.Metal.Weighted>
-0.0000

> <Gold.Chemscore.Lipo.Weighted>
-13.1729

> <Gold.Chemscore.Internal_Hbond.Weighted>
0.0000

> <Gold.Chemscore.DEClash.Weighted>
1.9777

> <Gold.Chemscore.DEInternal.Weighted>
3.7286

> <Gold.Chemscore.Rot.Weighted>
9.3844

> <Gold.Chemscore.Internal.Correction.Weighted>
   9.000000E+99

> <Gold.Protein.RotatedTorsions>
[ 6907 6896 6895 6894 ] final   17.47 input  -60.11 | X-H torsion
[ 7974 7965 7964 7962 ] final   59.65 input  175.53 | X-H torsion
[ 8008 7997 7996 7995 ] final -169.50 input   59.86 | X-H torsion
[ 10167 10162 10161 10158 ] final  -83.78 input  -65.29 | X-H torsion
[ 10718 10713 10712 10709 ] final -127.21 input   66.30 | X-H torsion
[ 10763 10752 10751 10750 ] final   -7.87 input  -60.55 | X-H torsion
[ 11005 11000 10999 10996 ] final -113.92 input  -57.11 | X-H torsion

> <Gold.Protein.ActiveResidues>
 VAL166  LYS551  ARG553  GLY616  TRP617  ASP618  TYR619  PRO620  LYS621  CYS622 
 ASP623  PHE694  ASN695  SER759  ASP760  ASP761  ALA762  ILE779  LEU786  VAL792 
 PHE793  MET794  SER795  GLU796  ALA797  LYS798  CYS799  TRP800  GLU811  SER814 

> <Gold.Protein.RotatedAtoms>
  151.8502  135.0560  160.0457 H   0  0  0  0  0  0  0  0  0  0  0  0  # atno 6907 bound_to 6896
  152.2742  133.5406  159.5466 H   0  0  0  0  0  0  0  0  0  0  0  0  # atno 6908 bound_to 6896
  150.7164  134.0570  159.3860 H   0  0  0  0  0  0  0  0  0  0  0  0  # atno 6909 bound_to 6896
  145.9048  139.3608  143.0571 H   0  0  0  0  0  0  0  0  0  0  0  0  # atno 7974 bound_to 7965
  155.9058  140.1049  157.1316 H   0  0  0  0  0  0  0  0  0  0  0  0  # atno 8008 bound_to 7997
  154.4032  140.1283  156.4559 H   0  0  0  0  0  0  0  0  0  0  0  0  # atno 8009 bound_to 7997
  155.7368  140.3467  155.5088 H   0  0  0  0  0  0  0  0  0  0  0  0  # atno 8010 bound_to 7997
  140.4194  143.2590  151.8911 H   0  0  0  0  0  0  0  0  0  0  0  0  # atno 10167 bound_to 10162
  156.1836  130.6748  151.0336 H   0  0  0  0  0  0  0  0  0  0  0  0  # atno 10718 bound_to 10713
  153.4325  135.7012  153.6221 H   0  0  0  0  0  0  0  0  0  0  0  0  # atno 10763 bound_to 10752
  153.4630  135.3732  155.2349 H   0  0  0  0  0  0  0  0  0  0  0  0  # atno 10764 bound_to 10752
  154.8726  135.4024  154.3711 H   0  0  0  0  0  0  0  0  0  0  0  0  # atno 10765 bound_to 10752
  141.0584  133.9575  157.2712 H   0  0  0  0  0  0  0  0  0  0  0  0  # atno 11005 bound_to 11000
  145.8746  140.9399  143.0633 LP  0  0  0  0  0  0  0  0  0  0  0  0  # atno 17320 bound_to 7965
  144.6738  140.0699  143.7473 LP  0  0  0  0  0  0  0  0  0  0  0  0  # atno 17321 bound_to 7965
  139.4782  144.5453  151.8467 LP  0  0  0  0  0  0  0  0  0  0  0  0  # atno 17342 bound_to 10162
  140.4550  144.1801  150.5901 LP  0  0  0  0  0  0  0  0  0  0  0  0  # atno 17343 bound_to 10162
  157.6884  131.0817  150.7177 LP  0  0  0  0  0  0  0  0  0  0  0  0  # atno 17370 bound_to 10713
  156.7234  130.4687  149.5517 LP  0  0  0  0  0  0  0  0  0  0  0  0  # atno 17371 bound_to 10713
  139.9410  135.0191  156.8709 LP  0  0  0  0  0  0  0  0  0  0  0  0  # atno 17394 bound_to 11000
  140.5918  134.0254  155.7502 LP  0  0  0  0  0  0  0  0  0  0  0  0  # atno 17395 bound_to 11000

$$$$
