AV-unprocessed.smi:15|AV-procd|sdf|83|dock2
  -GOLD-   2262015213D 1   1.00000     0.00000
 Structure written by MMmdl.
 53 56  0  0  0  0  0  0  0  0  1 V2000
  150.8150  139.1143  155.4163 C   0  0  0  0  0  0  0  0  0  0  0  0
  150.3093  140.3290  156.2062 C   0  0  0  0  0  0  0  0  0  0  0  0
  150.7402  140.3239  157.6072 N   0  0  0  0  0  0  0  0  0  0  0  0
  151.8820  141.1485  158.0122 C   0  0  0  0  0  0  0  0  0  0  0  0
  151.5290  142.1926  159.0869 C   0  0  2  0  0  0  0  0  0  0  0  0
  150.5024  143.2184  158.6166 C   0  0  0  0  0  0  0  0  0  0  0  0
  150.7330  144.3882  159.5571 C   0  0  0  0  0  0  0  0  0  0  0  0
  152.1674  144.1816  160.0539 C   0  0  0  0  0  0  0  0  0  0  0  0
  152.6424  143.0209  159.3829 O   0  0  0  0  0  0  0  0  0  0  0  0
  150.6237  139.1492  158.2805 C   0  0  0  0  0  0  0  0  0  0  0  0
  151.7270  138.5785  158.8356 N   0  0  0  0  0  0  0  0  0  0  0  0
  151.6256  137.4370  159.5223 C   0  0  0  0  0  0  0  0  0  0  0  0
  150.5367  136.7077  159.7713 N   0  0  0  0  0  0  0  0  0  0  0  0
  149.4278  137.2677  159.2088 C   0  0  0  0  0  0  0  0  0  0  0  0
  149.3816  138.4755  158.4565 C   0  0  0  0  0  0  0  0  0  0  0  0
  148.0773  138.7230  158.0440 N   0  0  0  0  0  0  0  0  0  0  0  0
  147.3917  137.7268  158.5339 C   0  0  0  0  0  0  0  0  0  0  0  0
  148.1263  136.7972  159.2348 N   0  0  0  0  0  0  0  0  0  0  0  0
  147.6228  135.5975  159.8851 C   0  0  0  0  0  0  0  0  0  0  0  0
  146.8645  135.8408  161.2160 C   0  0  1  0  0  0  0  0  0  0  0  0
  147.7165  136.6487  162.0107 O   0  0  0  0  0  0  0  0  0  0  0  0
  145.5232  136.5469  161.0759 C   0  0  0  0  0  0  0  0  0  0  0  0
  144.8397  136.2268  162.4018 C   0  0  0  0  0  0  0  0  0  0  0  0
  145.2991  134.9290  162.7636 O   0  0  0  0  0  0  0  0  0  0  0  0
  146.4469  134.5734  161.9947 C   0  0  2  0  0  0  0  0  0  0  0  0
  147.5270  133.9209  162.8716 C   0  0  0  0  0  0  0  0  0  0  0  0
  150.5509  139.2066  154.3630 H   0  0  0  0  0  0  0  0  0  0  0  0
  150.3757  138.1851  155.7788 H   0  0  0  0  0  0  0  0  0  0  0  0
  151.8998  139.0257  155.4799 H   0  0  0  0  0  0  0  0  0  0  0  0
  150.6881  141.2279  155.7174 H   0  0  0  0  0  0  0  0  0  0  0  0
  149.2215  140.3821  156.1553 H   0  0  0  0  0  0  0  0  0  0  0  0
  152.6955  140.5128  158.3606 H   0  0  0  0  0  0  0  0  0  0  0  0
  152.2838  141.6668  157.1429 H   0  0  0  0  0  0  0  0  0  0  0  0
  151.1726  141.7153  160.0017 H   0  0  0  0  0  0  0  0  0  0  0  0
  150.7183  143.5234  157.5914 H   0  0  0  0  0  0  0  0  0  0  0  0
  149.4799  142.8409  158.6490 H   0  0  0  0  0  0  0  0  0  0  0  0
  150.6033  145.3444  159.0494 H   0  0  0  0  0  0  0  0  0  0  0  0
  150.0356  144.3544  160.3950 H   0  0  0  0  0  0  0  0  0  0  0  0
  152.8090  145.0355  159.8362 H   0  0  0  0  0  0  0  0  0  0  0  0
  152.1812  144.0113  161.1311 H   0  0  0  0  0  0  0  0  0  0  0  0
  152.5488  137.0540  159.9317 H   0  0  0  0  0  0  0  0  0  0  0  0
  146.3246  137.6381  158.3896 H   0  0  0  0  0  0  0  0  0  0  0  0
  146.9730  135.0814  159.1769 H   0  0  0  0  0  0  0  0  0  0  0  0
  148.4689  134.9309  160.0576 H   0  0  0  0  0  0  0  0  0  0  0  0
  147.6609  136.3511  162.9060 H   0  0  0  0  0  0  0  0  0  0  0  0
  145.6086  137.6173  160.8852 H   0  0  0  0  0  0  0  0  0  0  0  0
  144.9340  136.1108  160.2702 H   0  0  0  0  0  0  0  0  0  0  0  0
  145.1494  136.9341  163.1721 H   0  0  0  0  0  0  0  0  0  0  0  0
  143.7525  136.2595  162.3302 H   0  0  0  0  0  0  0  0  0  0  0  0
  146.0810  133.8250  161.2933 H   0  0  0  0  0  0  0  0  0  0  0  0
  148.4046  133.6576  162.2810 H   0  0  0  0  0  0  0  0  0  0  0  0
  147.1496  133.0060  163.3285 H   0  0  0  0  0  0  0  0  0  0  0  0
  147.8464  134.5812  163.6782 H   0  0  0  0  0  0  0  0  0  0  0  0
  1  2  1  0  0  0  0
  1 27  1  0  0  0  0
  1 28  1  0  0  0  0
  1 29  1  0  0  0  0
  2  3  1  0  0  0  0
  2 30  1  0  0  0  0
  2 31  1  0  0  0  0
  3  4  1  0  0  0  0
  3 10  1  0  0  0  0
  4  5  1  0  0  0  0
  4 32  1  0  0  0  0
  4 33  1  0  0  0  0
  5  9  1  0  0  0  0
  5  6  1  0  0  0  0
  5 34  1  0  0  0  0
  6  7  1  0  0  0  0
  6 35  1  0  0  0  0
  6 36  1  0  0  0  0
  7  8  1  0  0  0  0
  7 37  1  0  0  0  0
  7 38  1  0  0  0  0
  8  9  1  0  0  0  0
  8 39  1  0  0  0  0
  8 40  1  0  0  0  0
 10 15  1  0  0  0  0
 10 11  2  0  0  0  0
 11 12  1  0  0  0  0
 12 13  2  0  0  0  0
 12 41  1  0  0  0  0
 13 14  1  0  0  0  0
 14 18  1  0  0  0  0
 14 15  2  0  0  0  0
 15 16  1  0  0  0  0
 16 17  2  0  0  0  0
 17 18  1  0  0  0  0
 17 42  1  0  0  0  0
 18 19  1  0  0  0  0
 19 20  1  0  0  0  0
 19 43  1  0  0  0  0
 19 44  1  0  0  0  0
 20 25  1  0  0  0  0
 20 21  1  0  0  0  0
 20 22  1  0  0  0  0
 21 45  1  0  0  0  0
 22 23  1  0  0  0  0
 22 46  1  0  0  0  0
 22 47  1  0  0  0  0
 23 24  1  0  0  0  0
 23 48  1  0  0  0  0
 23 49  1  0  0  0  0
 24 25  1  0  0  0  0
 25 26  1  0  0  0  0
 25 50  1  0  0  0  0
 26 51  1  0  0  0  0
 26 52  1  0  0  0  0
 26 53  1  0  0  0  0
M  END
> <s_m_source_file>
AV-unprocessed.smi

> <i_m_source_file_index>
15

> <i_lp_mmshare_version>
43012

> <i_f3d_flags>
0

> <s_epik_input>
TzFbQ0gyXVtDSDJdW0NIMl1bQ0BIXTFbQ0gyXU4oW0NIMl1bQ0gzXSljKG5bY0hdbjIpYyhjMjMpbltjSF1uM1tDSDJdW0NAQF00KFtPSF0pW0NIMl1bQ0gyXU9bQ0BIXTRbQ0gzXQ==

> <s_epik_cmdline>
J2VwaWtfcHl0aG9uJywgJy1waCcsICc3LjAnLCAnLXRuJywgJzgnLCAnLW1hJywgJzIwMCcsICctbWV0YWxfYmluZGluZycsICctaW1hZScsICc8aW5maWxlLm1hZT4nLCAnLW9tYWUnLCAnPG91dGZpbGUubWFlPic=

> <r_lp_tautomer_probability>
1

> <r_epik_Ionization_Penalty>
0.00360814

> <r_epik_Ionization_Penalty_Charging>
0

> <r_epik_Ionization_Penalty_Neutral>
0.00360814

> <r_epik_State_Penalty>
0.00237482

> <r_epik_Charging_Adjusted_Penalty>
0.00237482

> <i_epik_Tot_Q>
0

> <i_epik_Tot_abs_Q>
0

> <r_epik_Metal_State_Penalty>
-0

> <b_epik_Metal_Only>
0

> <s_lp_Force_Field>
OPLS_2005

> <r_lp_Energy>
48.2804

> <b_lp_Chiralities_Consistent>
1

> <s_lp_Variant>
AV-unprocessed.smi:15-5

> <Gold.Version>
5.8.1

> <Gold.Id.Protein>
6NUR|6NUR_protein|mol2

> <Gold.PLP.Fitness>
49.4417

> <Gold.PLP.PLP>
-43.3412

> <Gold.PLP.part.hbond>
-3.0747

> <Gold.PLP.part.metal>
0.0000

> <Gold.PLP.part.buried>
-7.8811

> <Gold.PLP.part.nonpolar>
-32.3641

> <Gold.PLP.part.repulsive>
0.0000

> <Gold.PLP.ligand.clash>
0.0000

> <Gold.PLP.ligand.torsion>
1.3612

> <Gold.PLP.Chemscore.Hbond>
2.6403

> <Gold.PLP.Chemscore.CHOScore>
0.0000

> <Gold.PLP.Chemscore.Metal>
0.0000

> <Gold.Chemscore.Hbonds>
donor molecule, donor type, donor heavy atom, donor atom, acceptor molecule, acceptor atom, score
      P1  H  6896  6908       L1    13  1.00
      P1  H  6931  6943       L1    21  0.89

> <Gold.PLP.Chemscore.Internal.Correction>
0.9020

> <Gold.Rescore>
     Score         DG    S(hbond)    S(metal)    S(lipo)     H(rot)  DE(clash)    DE(int)     intcor
     14.84     -16.08       1.92        0.00      89.30       2.44       0.02       1.23       ----

> <Gold.Chemscore.Fitness>
14.8417

> <Gold.Chemscore.DG>
-16.0848

> <Gold.Chemscore.ZeroCoef>
-5.4800

> <Gold.Chemscore.Hbond>
1.9194

> <Gold.Chemscore.Metal>
0.0000

> <Gold.Chemscore.Lipo>
89.3028

> <Gold.Chemscore.Internal_Hbond>
0.0000

> <Gold.Chemscore.DEClash>
0.0155

> <Gold.Chemscore.DEInternal>
1.2276

> <Gold.Chemscore.Rot>
2.4431

> <Gold.Chemscore.Internal.Correction>
   9.000000E+99

> <Gold.Chemscore.Hbonds>
donor molecule, donor type, donor heavy atom, donor atom, acceptor molecule, acceptor atom, score
      P1  H  6896  6908       L1    13  0.40
      P1  H  6931  6943       L1    21  0.57

> <Gold.Chemscore.Hbond.Weighted>
-6.4108

> <Gold.Chemscore.Metal.Weighted>
-0.0000

> <Gold.Chemscore.Lipo.Weighted>
-10.4484

> <Gold.Chemscore.Internal_Hbond.Weighted>
0.0000

> <Gold.Chemscore.DEClash.Weighted>
0.0155

> <Gold.Chemscore.DEInternal.Weighted>
1.2276

> <Gold.Chemscore.Rot.Weighted>
6.2544

> <Gold.Chemscore.Internal.Correction.Weighted>
   9.000000E+99

> <Gold.Protein.RotatedTorsions>
[ 6907 6896 6895 6894 ] final -144.56 input  -60.11 | X-H torsion
[ 7974 7965 7964 7962 ] final  -76.23 input  175.53 | X-H torsion
[ 8008 7997 7996 7995 ] final -120.79 input   59.86 | X-H torsion
[ 10167 10162 10161 10158 ] final -143.29 input  -65.29 | X-H torsion
[ 10718 10713 10712 10709 ] final -153.86 input   66.30 | X-H torsion
[ 10763 10752 10751 10750 ] final   23.27 input  -60.55 | X-H torsion
[ 11005 11000 10999 10996 ] final   48.31 input  -57.11 | X-H torsion

> <Gold.Protein.ActiveResidues>
 VAL166  LYS551  ARG553  GLY616  TRP617  ASP618  TYR619  PRO620  LYS621  CYS622 
 ASP623  PHE694  ASN695  SER759  ASP760  ASP761  ALA762  ILE779  LEU786  VAL792 
 PHE793  MET794  SER795  GLU796  ALA797  LYS798  CYS799  TRP800  GLU811  SER814 

> <Gold.Protein.RotatedAtoms>
  151.1158  133.5140  159.2603 H   0  0  0  0  0  0  0  0  0  0  0  0  # atno 6907 bound_to 6896
  151.1916  135.0404  159.8845 H   0  0  0  0  0  0  0  0  0  0  0  0  # atno 6908 bound_to 6896
  152.5453  134.0997  159.8366 H   0  0  0  0  0  0  0  0  0  0  0  0  # atno 6909 bound_to 6896
  145.6155  140.9376  143.1166 H   0  0  0  0  0  0  0  0  0  0  0  0  # atno 7974 bound_to 7965
  155.1375  140.0401  157.2790 H   0  0  0  0  0  0  0  0  0  0  0  0  # atno 8008 bound_to 7997
  154.6497  140.2566  155.7201 H   0  0  0  0  0  0  0  0  0  0  0  0  # atno 8009 bound_to 7997
  156.2571  140.2839  156.0925 H   0  0  0  0  0  0  0  0  0  0  0  0  # atno 8010 bound_to 7997
  139.8007  143.7837  152.2658 H   0  0  0  0  0  0  0  0  0  0  0  0  # atno 10167 bound_to 10162
  156.4915  130.8349  151.2572 H   0  0  0  0  0  0  0  0  0  0  0  0  # atno 10718 bound_to 10713
  153.0851  135.6630  153.9965 H   0  0  0  0  0  0  0  0  0  0  0  0  # atno 10763 bound_to 10752
  153.9576  135.2977  155.3436 H   0  0  0  0  0  0  0  0  0  0  0  0  # atno 10764 bound_to 10752
  154.7258  135.5145  153.8956 H   0  0  0  0  0  0  0  0  0  0  0  0  # atno 10765 bound_to 10752
  140.1202  134.4840  155.8604 H   0  0  0  0  0  0  0  0  0  0  0  0  # atno 11005 bound_to 11000
  144.7252  139.7899  143.7367 LP  0  0  0  0  0  0  0  0  0  0  0  0  # atno 17320 bound_to 7965
  146.1471  139.4544  143.0072 LP  0  0  0  0  0  0  0  0  0  0  0  0  # atno 17321 bound_to 7965
  139.7957  144.7393  150.9894 LP  0  0  0  0  0  0  0  0  0  0  0  0  # atno 17342 bound_to 10162
  140.7820  143.4397  151.0571 LP  0  0  0  0  0  0  0  0  0  0  0  0  # atno 17343 bound_to 10162
  157.7473  131.0012  150.2954 LP  0  0  0  0  0  0  0  0  0  0  0  0  # atno 17370 bound_to 10713
  156.3422  130.3817  149.7399 LP  0  0  0  0  0  0  0  0  0  0  0  0  # atno 17371 bound_to 10713
  141.2150  133.6758  156.6873 LP  0  0  0  0  0  0  0  0  0  0  0  0  # atno 17394 bound_to 11000
  140.2976  134.8190  157.4070 LP  0  0  0  0  0  0  0  0  0  0  0  0  # atno 17395 bound_to 11000

$$$$
