AV-unprocessed.smi:980|AV-procd|sdf|4312|dock8
  -GOLD-   22720 2223D 1   1.00000     0.00000
 Structure written by MMmdl.
 44 45  0  0  0  0  0  0  0  0  1 V2000
  147.8111  136.7439  163.0478 C   0  0  0  0  0  0  0  0  0  0  0  0
  147.0592  135.8798  162.0129 C   0  0  0  0  0  0  0  0  0  0  0  0
  147.1983  134.4038  162.4353 C   0  0  0  0  0  0  0  0  0  0  0  0
  145.5746  136.2944  162.0362 C   0  0  0  0  0  0  0  0  0  0  0  0
  147.6271  136.0754  160.6210 C   0  0  0  0  0  0  0  0  0  0  0  0
  147.2189  135.4850  159.4463 C   0  0  0  0  0  0  0  0  0  0  0  0
  148.1765  135.9912  158.0822 S   0  0  0  0  0  0  0  0  0  0  0  0
  149.1069  137.0209  159.1590 C   0  0  0  0  0  0  0  0  0  0  0  0
  150.2635  137.8460  158.7049 C   0  0  0  0  0  0  0  0  0  0  0  0
  149.8265  139.0216  157.8158 C   0  0  0  0  0  0  0  0  0  0  0  0
  150.4878  140.2648  158.1945 N   0  0  0  0  0  0  0  0  0  0  0  0
  151.6112  140.7439  157.6384 C   0  0  0  0  0  0  0  0  0  0  0  0
  152.2205  140.1628  156.7397 O   0  0  0  0  0  0  0  0  0  0  0  0
  152.1208  142.0881  158.1758 C   0  0  1  0  0  0  0  0  0  0  0  0
  151.1760  143.2457  157.7799 C   0  0  0  0  0  0  0  0  0  0  0  0
  151.5192  144.5363  158.5034 C   0  0  0  0  0  0  0  0  0  0  0  0
  152.3051  144.5869  159.5927 C   0  0  0  0  0  0  0  0  0  0  0  0
  152.9335  143.3590  160.2279 C   0  0  0  0  0  0  0  0  0  0  0  0
  152.3116  142.0498  159.7058 C   0  0  0  0  0  0  0  0  0  0  0  0
  148.7103  136.9443  160.4311 N   0  0  0  0  0  0  0  0  0  0  0  0
  147.4064  136.6042  164.0509 H   0  0  0  0  0  0  0  0  0  0  0  0
  147.7345  137.8065  162.8142 H   0  0  0  0  0  0  0  0  0  0  0  0
  148.8706  136.4877  163.0887 H   0  0  0  0  0  0  0  0  0  0  0  0
  148.2419  134.0867  162.4286 H   0  0  0  0  0  0  0  0  0  0  0  0
  146.6496  133.7400  161.7660 H   0  0  0  0  0  0  0  0  0  0  0  0
  146.8109  134.2398  163.4413 H   0  0  0  0  0  0  0  0  0  0  0  0
  145.1442  136.1775  163.0313 H   0  0  0  0  0  0  0  0  0  0  0  0
  144.9775  135.6903  161.3523 H   0  0  0  0  0  0  0  0  0  0  0  0
  145.4506  137.3382  161.7452 H   0  0  0  0  0  0  0  0  0  0  0  0
  146.4175  134.7773  159.2960 H   0  0  0  0  0  0  0  0  0  0  0  0
  150.7903  138.2167  159.5849 H   0  0  0  0  0  0  0  0  0  0  0  0
  150.9625  137.2007  158.1713 H   0  0  0  0  0  0  0  0  0  0  0  0
  150.0221  138.7997  156.7652 H   0  0  0  0  0  0  0  0  0  0  0  0
  148.7506  139.1736  157.9060 H   0  0  0  0  0  0  0  0  0  0  0  0
  150.0524  140.8080  158.9258 H   0  0  0  0  0  0  0  0  0  0  0  0
  153.0976  142.2836  157.7288 H   0  0  0  0  0  0  0  0  0  0  0  0
  151.2403  143.4227  156.7056 H   0  0  0  0  0  0  0  0  0  0  0  0
  150.1354  143.0028  157.9997 H   0  0  0  0  0  0  0  0  0  0  0  0
  151.0887  145.4454  158.1096 H   0  0  0  0  0  0  0  0  0  0  0  0
  152.5242  145.5391  160.0531 H   0  0  0  0  0  0  0  0  0  0  0  0
  154.0027  143.3790  160.0153 H   0  0  0  0  0  0  0  0  0  0  0  0
  152.8233  143.4170  161.3110 H   0  0  0  0  0  0  0  0  0  0  0  0
  151.3451  141.8980  160.1894 H   0  0  0  0  0  0  0  0  0  0  0  0
  152.9370  141.2050  159.9982 H   0  0  0  0  0  0  0  0  0  0  0  0
  1  2  1  0  0  0  0
  1 21  1  0  0  0  0
  1 22  1  0  0  0  0
  1 23  1  0  0  0  0
  2  3  1  0  0  0  0
  2  4  1  0  0  0  0
  2  5  1  0  0  0  0
  3 24  1  0  0  0  0
  3 25  1  0  0  0  0
  3 26  1  0  0  0  0
  4 27  1  0  0  0  0
  4 28  1  0  0  0  0
  4 29  1  0  0  0  0
  5 20  1  0  0  0  0
  5  6  2  0  0  0  0
  6  7  1  0  0  0  0
  6 30  1  0  0  0  0
  7  8  1  0  0  0  0
  8  9  1  0  0  0  0
  8 20  2  0  0  0  0
  9 10  1  0  0  0  0
  9 31  1  0  0  0  0
  9 32  1  0  0  0  0
 10 11  1  0  0  0  0
 10 33  1  0  0  0  0
 10 34  1  0  0  0  0
 11 12  1  0  0  0  0
 11 35  1  0  0  0  0
 12 13  2  0  0  0  0
 12 14  1  0  0  0  0
 14 19  1  0  0  0  0
 14 15  1  0  0  0  0
 14 36  1  0  0  0  0
 15 16  1  0  0  0  0
 15 37  1  0  0  0  0
 15 38  1  0  0  0  0
 16 17  2  0  0  0  0
 16 39  1  0  0  0  0
 17 18  1  0  0  0  0
 17 40  1  0  0  0  0
 18 19  1  0  0  0  0
 18 41  1  0  0  0  0
 18 42  1  0  0  0  0
 19 43  1  0  0  0  0
 19 44  1  0  0  0  0
M  END
> <s_m_source_file>
AV-unprocessed.smi

> <i_m_source_file_index>
980

> <i_lp_mmshare_version>
43012

> <i_f3d_flags>
0

> <s_epik_input>
W0NIM11DKFtDSDNdKShbQ0gzXSljMVtjSF1zYyhuMSlbQ0gyXVtDSDJdW05IXUMoPU8pW0NAQEhdMltDSDJdW0NIXT1bQ0hdW0NIMl1bQ0gyXTI=

> <s_epik_cmdline>
J2VwaWtfcHl0aG9uJywgJy1waCcsICc3LjAnLCAnLXRuJywgJzgnLCAnLW1hJywgJzIwMCcsICctbWV0YWxfYmluZGluZycsICctaW1hZScsICc8aW5maWxlLm1hZT4nLCAnLW9tYWUnLCAnPG91dGZpbGUubWFlPic=

> <r_epik_Ionization_Penalty>
0.000809238

> <r_epik_Ionization_Penalty_Charging>
0

> <r_epik_Ionization_Penalty_Neutral>
0.000809238

> <r_epik_State_Penalty>
0.000520038

> <r_epik_Charging_Adjusted_Penalty>
0.000520038

> <i_epik_Tot_Q>
0

> <i_epik_Tot_abs_Q>
0

> <r_epik_Metal_State_Penalty>
-0

> <b_epik_Metal_Only>
0

> <s_lp_Force_Field>
OPLS_2005

> <r_lp_Energy>
-0.741004

> <b_lp_Chiralities_Consistent>
1

> <s_lp_Variant>
AV-unprocessed.smi:980-2

> <Gold.Version>
5.8.1

> <Gold.Id.Protein>
6NUR|6NUR_protein|mol2

> <Gold.PLP.Fitness>
51.0936

> <Gold.PLP.PLP>
-46.8316

> <Gold.PLP.part.hbond>
-2.0000

> <Gold.PLP.part.metal>
0.0000

> <Gold.PLP.part.buried>
-5.3456

> <Gold.PLP.part.nonpolar>
-39.5919

> <Gold.PLP.part.repulsive>
0.1548

> <Gold.PLP.ligand.clash>
0.0000

> <Gold.PLP.ligand.torsion>
0.6812

> <Gold.PLP.Chemscore.Hbond>
1.8640

> <Gold.PLP.Chemscore.CHOScore>
0.0000

> <Gold.PLP.Chemscore.Metal>
0.0000

> <Gold.Chemscore.Hbonds>
donor molecule, donor type, donor heavy atom, donor atom, acceptor molecule, acceptor atom, score
      P1  H  6931  6943       L1    20  0.77
      P1  H  7997  8008       L1    13  0.75

> <Gold.PLP.Chemscore.Internal.Correction>
0.0324

> <Gold.Rescore>
     Score         DG    S(hbond)    S(metal)    S(lipo)     H(rot)  DE(clash)    DE(int)     intcor
     23.03     -23.75       1.82        0.00     134.93       1.41       0.12       0.60       ----

> <Gold.Chemscore.Fitness>
23.0250

> <Gold.Chemscore.DG>
-23.7491

> <Gold.Chemscore.ZeroCoef>
-5.4800

> <Gold.Chemscore.Hbond>
1.8238

> <Gold.Chemscore.Metal>
0.0000

> <Gold.Chemscore.Lipo>
134.9259

> <Gold.Chemscore.Internal_Hbond>
0.0000

> <Gold.Chemscore.DEClash>
0.1208

> <Gold.Chemscore.DEInternal>
0.6033

> <Gold.Chemscore.Rot>
1.4097

> <Gold.Chemscore.Internal.Correction>
   9.000000E+99

> <Gold.Chemscore.Hbonds>
donor molecule, donor type, donor heavy atom, donor atom, acceptor molecule, acceptor atom, score
      P1  H  6931  6943       L1    20  0.70
      P1  H  7997  8008       L1    13  0.71

> <Gold.Chemscore.Hbond.Weighted>
-6.0915

> <Gold.Chemscore.Metal.Weighted>
-0.0000

> <Gold.Chemscore.Lipo.Weighted>
-15.7863

> <Gold.Chemscore.Internal_Hbond.Weighted>
0.0000

> <Gold.Chemscore.DEClash.Weighted>
0.1208

> <Gold.Chemscore.DEInternal.Weighted>
0.6033

> <Gold.Chemscore.Rot.Weighted>
3.6087

> <Gold.Chemscore.Internal.Correction.Weighted>
   9.000000E+99

> <Gold.Protein.RotatedTorsions>
[ 6907 6896 6895 6894 ] final  -12.56 input  -60.11 | X-H torsion
[ 7974 7965 7964 7962 ] final  136.55 input  175.53 | X-H torsion
[ 8008 7997 7996 7995 ] final  -49.84 input   59.86 | X-H torsion
[ 10167 10162 10161 10158 ] final  125.59 input  -65.29 | X-H torsion
[ 10718 10713 10712 10709 ] final -118.92 input   66.30 | X-H torsion
[ 10763 10752 10751 10750 ] final -118.16 input  -60.55 | X-H torsion
[ 11005 11000 10999 10996 ] final   11.80 input  -57.11 | X-H torsion

> <Gold.Protein.ActiveResidues>
 VAL166  LYS551  ARG553  GLY616  TRP617  ASP618  TYR619  PRO620  LYS621  CYS622 
 ASP623  PHE694  ASN695  SER759  ASP760  ASP761  ALA762  ILE779  LEU786  VAL792 
 PHE793  MET794  SER795  GLU796  ALA797  LYS798  CYS799  TRP800  GLU811  SER814 

> <Gold.Protein.RotatedAtoms>
  151.3685  135.0918  159.9457 H   0  0  0  0  0  0  0  0  0  0  0  0  # atno 6907 bound_to 6896
  152.5142  133.9188  159.7534 H   0  0  0  0  0  0  0  0  0  0  0  0  # atno 6908 bound_to 6896
  150.9597  133.6404  159.2786 H   0  0  0  0  0  0  0  0  0  0  0  0  # atno 6909 bound_to 6896
  144.9554  139.4770  143.5505 H   0  0  0  0  0  0  0  0  0  0  0  0  # atno 7974 bound_to 7965
  154.4051  140.1287  156.4568 H   0  0  0  0  0  0  0  0  0  0  0  0  # atno 8008 bound_to 7997
  155.7312  140.3491  155.5040 H   0  0  0  0  0  0  0  0  0  0  0  0  # atno 8009 bound_to 7997
  155.9126  140.1038  157.1258 H   0  0  0  0  0  0  0  0  0  0  0  0  # atno 8010 bound_to 7997
  139.5677  144.6921  151.3864 H   0  0  0  0  0  0  0  0  0  0  0  0  # atno 10167 bound_to 10162
  156.1142  130.6273  150.9351 H   0  0  0  0  0  0  0  0  0  0  0  0  # atno 10718 bound_to 10713
  154.8578  135.4284  154.2094 H   0  0  0  0  0  0  0  0  0  0  0  0  # atno 10763 bound_to 10752
  153.3123  135.6976  153.7110 H   0  0  0  0  0  0  0  0  0  0  0  0  # atno 10764 bound_to 10752
  153.6198  135.3504  155.2981 H   0  0  0  0  0  0  0  0  0  0  0  0  # atno 10765 bound_to 10752
  140.4992  134.0763  155.7789 H   0  0  0  0  0  0  0  0  0  0  0  0  # atno 11005 bound_to 11000
  146.3335  139.8668  142.8847 LP  0  0  0  0  0  0  0  0  0  0  0  0  # atno 17320 bound_to 7965
  145.2780  141.0130  143.3734 LP  0  0  0  0  0  0  0  0  0  0  0  0  # atno 17321 bound_to 7965
  140.6961  143.7745  150.7329 LP  0  0  0  0  0  0  0  0  0  0  0  0  # atno 17342 bound_to 10162
  140.1242  143.4584  152.2294 LP  0  0  0  0  0  0  0  0  0  0  0  0  # atno 17343 bound_to 10162
  157.6325  131.0919  150.8414 LP  0  0  0  0  0  0  0  0  0  0  0  0  # atno 17370 bound_to 10713
  156.8520  130.5083  149.5311 LP  0  0  0  0  0  0  0  0  0  0  0  0  # atno 17371 bound_to 10713
  141.1444  133.9081  157.2250 LP  0  0  0  0  0  0  0  0  0  0  0  0  # atno 17394 bound_to 11000
  139.9723  135.0124  156.9544 LP  0  0  0  0  0  0  0  0  0  0  0  0  # atno 17395 bound_to 11000

$$$$
