AV-unprocessed.smi:3102|AV-procd|sdf|11812|dock6
  -GOLD-   2272017183D 1   1.00000     0.00000
 Structure written by MMmdl.
 31 32  0  0  0  0  0  0  0  0  1 V2000
  147.6675  141.9724  154.1116 C   0  0  0  0  0  0  0  0  0  0  0  0
  148.8899  141.3086  153.8100 O   0  0  0  0  0  0  0  0  0  0  0  0
  149.7699  141.0562  154.8425 C   0  0  0  0  0  0  0  0  0  0  0  0
  149.5921  141.7363  156.0620 C   0  0  0  0  0  0  0  0  0  0  0  0
  150.4887  141.4841  157.1167 C   0  0  0  0  0  0  0  0  0  0  0  0
  151.5424  140.5592  156.9250 C   0  0  0  0  0  0  0  0  0  0  0  0
  152.4782  140.2550  157.9280 N   0  0  0  0  0  0  0  0  0  0  0  0
  152.4476  140.9157  159.2267 C   0  0  2  0  0  0  0  0  0  0  0  0
  152.5745  142.4247  159.1457 C   0  0  0  0  0  0  0  0  0  0  0  0
  153.0283  142.7708  160.5605 C   0  0  0  0  0  0  0  0  0  0  0  0
  153.7905  141.6529  161.0093 O   0  0  0  0  0  0  0  0  0  0  0  0
  153.6589  140.5715  160.0909 C   0  0  0  0  0  0  0  0  0  0  0  0
  151.6317  139.9238  155.6617 C   0  0  0  0  0  0  0  0  0  0  0  0
  152.7244  138.9134  155.3581 C   0  0  0  0  0  0  0  0  0  0  0  0
  150.7719  140.1652  154.6475 N   0  0  0  0  0  0  0  0  0  0  0  0
  147.0877  142.0938  153.1967 H   0  0  0  0  0  0  0  0  0  0  0  0
  147.8442  142.9663  154.5252 H   0  0  0  0  0  0  0  0  0  0  0  0
  147.0625  141.3952  154.8123 H   0  0  0  0  0  0  0  0  0  0  0  0
  148.7820  142.4394  156.1869 H   0  0  0  0  0  0  0  0  0  0  0  0
  150.3510  142.0031  158.0529 H   0  0  0  0  0  0  0  0  0  0  0  0
  153.3331  139.7876  157.6616 H   0  0  0  0  0  0  0  0  0  0  0  0
  151.5440  140.6428  159.7729 H   0  0  0  0  0  0  0  0  0  0  0  0
  153.3477  142.7066  158.4289 H   0  0  0  0  0  0  0  0  0  0  0  0
  151.6488  142.9265  158.8636 H   0  0  0  0  0  0  0  0  0  0  0  0
  153.6110  143.6915  160.5963 H   0  0  0  0  0  0  0  0  0  0  0  0
  152.1666  142.8891  161.2182 H   0  0  0  0  0  0  0  0  0  0  0  0
  153.5485  139.6176  160.6073 H   0  0  0  0  0  0  0  0  0  0  0  0
  154.5676  140.5269  159.4884 H   0  0  0  0  0  0  0  0  0  0  0  0
  153.7072  139.3741  155.4629 H   0  0  0  0  0  0  0  0  0  0  0  0
  152.6415  138.5254  154.3419 H   0  0  0  0  0  0  0  0  0  0  0  0
  152.6630  138.0694  156.0457 H   0  0  0  0  0  0  0  0  0  0  0  0
  1  2  1  0  0  0  0
  1 16  1  0  0  0  0
  1 17  1  0  0  0  0
  1 18  1  0  0  0  0
  2  3  1  0  0  0  0
  3 15  1  0  0  0  0
  3  4  2  0  0  0  0
  4  5  1  0  0  0  0
  4 19  1  0  0  0  0
  5  6  2  0  0  0  0
  5 20  1  0  0  0  0
  6  7  1  0  0  0  0
  6 13  1  0  0  0  0
  7  8  1  0  0  0  0
  7 21  1  0  0  0  0
  8 12  1  0  0  0  0
  8  9  1  0  0  0  0
  8 22  1  0  0  0  0
  9 10  1  0  0  0  0
  9 23  1  0  0  0  0
  9 24  1  0  0  0  0
 10 11  1  0  0  0  0
 10 25  1  0  0  0  0
 10 26  1  0  0  0  0
 11 12  1  0  0  0  0
 12 27  1  0  0  0  0
 12 28  1  0  0  0  0
 13 14  1  0  0  0  0
 13 15  2  0  0  0  0
 14 29  1  0  0  0  0
 14 30  1  0  0  0  0
 14 31  1  0  0  0  0
M  END
> <s_m_source_file>
AV-unprocessed.smi

> <i_m_source_file_index>
3102

> <i_lp_mmshare_version>
43012

> <i_f3d_flags>
0

> <s_epik_input>
W0NIM11PYzFbY0hdW2NIXWMoYyhuMSlbQ0gzXSlbTkhdW0NAQEhdMltDSDJdW0NIMl1PW0NIMl0y

> <s_epik_cmdline>
J2VwaWtfcHl0aG9uJywgJy1waCcsICc3LjAnLCAnLXRuJywgJzgnLCAnLW1hJywgJzIwMCcsICctbWV0YWxfYmluZGluZycsICctaW1hZScsICc8aW5maWxlLm1hZT4nLCAnLW9tYWUnLCAnPG91dGZpbGUubWFlPic=

> <r_lp_tautomer_probability>
1

> <r_epik_Ionization_Penalty>
0.00117248

> <r_epik_Ionization_Penalty_Charging>
0

> <r_epik_Ionization_Penalty_Neutral>
0.00117248

> <r_epik_State_Penalty>
0.000742146

> <r_epik_Charging_Adjusted_Penalty>
0.000742146

> <i_epik_Tot_Q>
0

> <i_epik_Tot_abs_Q>
0

> <r_epik_Metal_State_Penalty>
-0

> <b_epik_Metal_Only>
0

> <s_lp_Force_Field>
OPLS_2005

> <r_lp_Energy>
20.6196

> <b_lp_Chiralities_Consistent>
1

> <s_lp_Variant>
AV-unprocessed.smi:3102-1

> <Gold.Version>
5.8.1

> <Gold.Id.Protein>
6NUR|6NUR_protein|mol2

> <Gold.PLP.Fitness>
37.9172

> <Gold.PLP.PLP>
-32.8971

> <Gold.PLP.part.hbond>
-2.2448

> <Gold.PLP.part.metal>
0.0000

> <Gold.PLP.part.buried>
-1.9533

> <Gold.PLP.part.nonpolar>
-28.5785

> <Gold.PLP.part.repulsive>
1.0519

> <Gold.PLP.ligand.clash>
0.0000

> <Gold.PLP.ligand.torsion>
0.2243

> <Gold.PLP.Chemscore.Hbond>
1.8160

> <Gold.PLP.Chemscore.CHOScore>
0.0000

> <Gold.PLP.Chemscore.Metal>
0.0000

> <Gold.Chemscore.Hbonds>
donor molecule, donor type, donor heavy atom, donor atom, acceptor molecule, acceptor atom, score
      P1  H  7989  7998       L1    15  1.00
      P1  H  8011  8017       L1     2  0.77

> <Gold.PLP.Chemscore.Internal.Correction>
0.0206

> <Gold.Rescore>
     Score         DG    S(hbond)    S(metal)    S(lipo)     H(rot)  DE(clash)    DE(int)     intcor
     13.82     -14.57       0.88        0.00      78.57       1.18       0.59       0.16       ----

> <Gold.Chemscore.Fitness>
13.8168

> <Gold.Chemscore.DG>
-14.5703

> <Gold.Chemscore.ZeroCoef>
-5.4800

> <Gold.Chemscore.Hbond>
0.8773

> <Gold.Chemscore.Metal>
0.0000

> <Gold.Chemscore.Lipo>
78.5720

> <Gold.Chemscore.Internal_Hbond>
0.0000

> <Gold.Chemscore.DEClash>
0.5940

> <Gold.Chemscore.DEInternal>
0.1595

> <Gold.Chemscore.Rot>
1.1847

> <Gold.Chemscore.Internal.Correction>
   9.000000E+99

> <Gold.Chemscore.Hbonds>
donor molecule, donor type, donor heavy atom, donor atom, acceptor molecule, acceptor atom, score
      P1  H  7989  7998       L1    15  0.19
      P1  H  8011  8017       L1     2  0.32

> <Gold.Chemscore.Hbond.Weighted>
-2.9302

> <Gold.Chemscore.Metal.Weighted>
-0.0000

> <Gold.Chemscore.Lipo.Weighted>
-9.1929

> <Gold.Chemscore.Internal_Hbond.Weighted>
0.0000

> <Gold.Chemscore.DEClash.Weighted>
0.5940

> <Gold.Chemscore.DEInternal.Weighted>
0.1595

> <Gold.Chemscore.Rot.Weighted>
3.0328

> <Gold.Chemscore.Internal.Correction.Weighted>
   9.000000E+99

> <Gold.Protein.RotatedTorsions>
[ 6907 6896 6895 6894 ] final  110.67 input  -60.11 | X-H torsion
[ 7974 7965 7964 7962 ] final   -9.90 input  175.53 | X-H torsion
[ 8008 7997 7996 7995 ] final  130.56 input   59.86 | X-H torsion
[ 10167 10162 10161 10158 ] final  -42.30 input  -65.29 | X-H torsion
[ 10718 10713 10712 10709 ] final -149.42 input   66.30 | X-H torsion
[ 10763 10752 10751 10750 ] final  -65.41 input  -60.55 | X-H torsion
[ 11005 11000 10999 10996 ] final  -82.01 input  -57.11 | X-H torsion

> <Gold.Protein.ActiveResidues>
 VAL166  LYS551  ARG553  GLY616  TRP617  ASP618  TYR619  PRO620  LYS621  CYS622 
 ASP623  PHE694  ASN695  SER759  ASP760  ASP761  ALA762  ILE779  LEU786  VAL792 
 PHE793  MET794  SER795  GLU796  ALA797  LYS798  CYS799  TRP800  GLU811  SER814 

> <Gold.Protein.RotatedAtoms>
  152.5008  133.8766  159.7325 H   0  0  0  0  0  0  0  0  0  0  0  0  # atno 6907 bound_to 6896
  150.9239  133.6838  159.2832 H   0  0  0  0  0  0  0  0  0  0  0  0  # atno 6908 bound_to 6896
  151.4205  135.1002  159.9665 H   0  0  0  0  0  0  0  0  0  0  0  0  # atno 6909 bound_to 6896
  146.2237  140.2684  142.8355 H   0  0  0  0  0  0  0  0  0  0  0  0  # atno 7974 bound_to 7965
  156.2956  140.2593  156.2782 H   0  0  0  0  0  0  0  0  0  0  0  0  # atno 8008 bound_to 7997
  154.9627  140.0392  157.2216 H   0  0  0  0  0  0  0  0  0  0  0  0  # atno 8009 bound_to 7997
  154.7931  140.2815  155.5981 H   0  0  0  0  0  0  0  0  0  0  0  0  # atno 8010 bound_to 7997
  140.6974  143.3046  151.3189 H   0  0  0  0  0  0  0  0  0  0  0  0  # atno 10167 bound_to 10162
  156.4329  130.8084  151.2312 H   0  0  0  0  0  0  0  0  0  0  0  0  # atno 10718 bound_to 10713
  154.3446  135.6149  153.5613 H   0  0  0  0  0  0  0  0  0  0  0  0  # atno 10763 bound_to 10752
  152.9802  135.5778  154.4813 H   0  0  0  0  0  0  0  0  0  0  0  0  # atno 10764 bound_to 10752
  154.4524  135.2853  155.1749 H   0  0  0  0  0  0  0  0  0  0  0  0  # atno 10765 bound_to 10752
  141.1665  133.7224  156.8507 H   0  0  0  0  0  0  0  0  0  0  0  0  # atno 11005 bound_to 11000
  144.9286  140.7950  143.5703 LP  0  0  0  0  0  0  0  0  0  0  0  0  # atno 17320 bound_to 7965
  145.2626  139.1986  143.4884 LP  0  0  0  0  0  0  0  0  0  0  0  0  # atno 17321 bound_to 7965
  139.6446  144.0475  152.2581 LP  0  0  0  0  0  0  0  0  0  0  0  0  # atno 17342 bound_to 10162
  139.9991  144.6306  150.7746 LP  0  0  0  0  0  0  0  0  0  0  0  0  # atno 17343 bound_to 10162
  157.7508  131.0193  150.3660 LP  0  0  0  0  0  0  0  0  0  0  0  0  # atno 17370 bound_to 10713
  156.4001  130.3914  149.6966 LP  0  0  0  0  0  0  0  0  0  0  0  0  # atno 17371 bound_to 10713
  140.1917  134.8960  157.3068 LP  0  0  0  0  0  0  0  0  0  0  0  0  # atno 17394 bound_to 11000
  140.2282  134.3940  155.7534 LP  0  0  0  0  0  0  0  0  0  0  0  0  # atno 17395 bound_to 11000

$$$$
