AV-unprocessed.smi:970|AV-procd|sdf|4293|dock10
  -GOLD-   22720 2203D 1   1.00000     0.00000
 Structure written by MMmdl.
 31 31  0  0  0  0  0  0  0  0  1 V2000
  143.6625  140.3505  156.6663 C   0  0  0  0  0  0  0  0  0  0  0  0
  144.6067  140.9704  155.7498 N   0  0  0  0  0  0  0  0  0  0  0  0
  145.8015  141.4573  156.1136 C   0  0  0  0  0  0  0  0  0  0  0  0
  146.2215  141.4141  157.2715 O   0  0  0  0  0  0  0  0  0  0  0  0
  146.6563  142.0717  154.9925 C   0  0  2  0  0  0  0  0  0  0  0  0
  146.6850  141.0803  153.8176 C   0  0  0  0  0  0  0  0  0  0  0  0
  148.0297  142.2661  155.4525 N   0  0  0  0  0  0  0  0  0  0  0  0
  148.9176  141.2850  155.6832 C   0  0  0  0  0  0  0  0  0  0  0  0
  148.6393  140.0894  155.5819 O   0  0  0  0  0  0  0  0  0  0  0  0
  150.3340  141.7332  156.0732 C   0  0  1  0  0  0  0  0  0  0  0  0
  150.3886  142.3969  157.4646 C   0  0  0  0  0  0  0  0  0  0  0  0
  151.2580  140.6113  155.9555 N   0  0  0  0  0  0  0  0  0  0  0  0
  152.2297  140.2122  156.7793 C   0  0  0  0  0  0  0  0  0  0  0  0
  152.9238  139.1751  156.3324 N   0  0  0  0  0  0  0  0  0  0  0  0
  152.2946  138.9790  155.1360 C   0  0  0  0  0  0  0  0  0  0  0  0
  151.2971  139.8174  154.8563 N   0  0  0  0  0  0  0  0  0  0  0  0
  142.7620  140.0537  156.1283 H   0  0  0  0  0  0  0  0  0  0  0  0
  143.3742  141.0454  157.4562 H   0  0  0  0  0  0  0  0  0  0  0  0
  144.0948  139.4604  157.1254 H   0  0  0  0  0  0  0  0  0  0  0  0
  144.3336  141.0405  154.7802 H   0  0  0  0  0  0  0  0  0  0  0  0
  146.2294  143.0210  154.6630 H   0  0  0  0  0  0  0  0  0  0  0  0
  145.6822  140.8960  153.4301 H   0  0  0  0  0  0  0  0  0  0  0  0
  147.1121  140.1186  154.1063 H   0  0  0  0  0  0  0  0  0  0  0  0
  147.2829  141.4715  152.9940 H   0  0  0  0  0  0  0  0  0  0  0  0
  148.3414  143.2208  155.5555 H   0  0  0  0  0  0  0  0  0  0  0  0
  150.6498  142.4840  155.3468 H   0  0  0  0  0  0  0  0  0  0  0  0
  149.7314  143.2660  157.5106 H   0  0  0  0  0  0  0  0  0  0  0  0
  151.3984  142.7401  157.6913 H   0  0  0  0  0  0  0  0  0  0  0  0
  150.0866  141.7132  158.2590 H   0  0  0  0  0  0  0  0  0  0  0  0
  152.4381  140.6945  157.7231 H   0  0  0  0  0  0  0  0  0  0  0  0
  152.5846  138.1988  154.4478 H   0  0  0  0  0  0  0  0  0  0  0  0
  1  2  1  0  0  0  0
  1 17  1  0  0  0  0
  1 18  1  0  0  0  0
  1 19  1  0  0  0  0
  2  3  1  0  0  0  0
  2 20  1  0  0  0  0
  3  4  2  0  0  0  0
  3  5  1  0  0  0  0
  5  6  1  0  0  0  0
  5  7  1  0  0  0  0
  5 21  1  0  0  0  0
  6 22  1  0  0  0  0
  6 23  1  0  0  0  0
  6 24  1  0  0  0  0
  7  8  1  0  0  0  0
  7 25  1  0  0  0  0
  8  9  2  0  0  0  0
  8 10  1  0  0  0  0
 10 11  1  0  0  0  0
 10 12  1  0  0  0  0
 10 26  1  0  0  0  0
 11 27  1  0  0  0  0
 11 28  1  0  0  0  0
 11 29  1  0  0  0  0
 12 16  1  0  0  0  0
 12 13  1  0  0  0  0
 13 14  2  0  0  0  0
 13 30  1  0  0  0  0
 14 15  1  0  0  0  0
 15 16  2  0  0  0  0
 15 31  1  0  0  0  0
M  END
> <s_m_source_file>
AV-unprocessed.smi

> <i_m_source_file_index>
970

> <i_lp_mmshare_version>
43012

> <i_f3d_flags>
0

> <s_epik_input>
W0NIM11bTkhdQyg9TylbQ0BIXShbQ0gzXSlbTkhdQyg9TylbQ0BIXShbQ0gzXSluMVtjSF1uW2NIXW4x

> <s_epik_cmdline>
J2VwaWtfcHl0aG9uJywgJy1waCcsICc3LjAnLCAnLXRuJywgJzgnLCAnLW1hJywgJzIwMCcsICctbWV0YWxfYmluZGluZycsICctaW1hZScsICc8aW5maWxlLm1hZT4nLCAnLW9tYWUnLCAnPG91dGZpbGUubWFlPic=

> <r_lp_tautomer_probability>
1

> <r_epik_Ionization_Penalty>
1.07271e-05

> <r_epik_Ionization_Penalty_Charging>
0

> <r_epik_Ionization_Penalty_Neutral>
1.07271e-05

> <r_epik_State_Penalty>
-0

> <r_epik_Charging_Adjusted_Penalty>
0

> <i_epik_Tot_Q>
0

> <i_epik_Tot_abs_Q>
0

> <r_epik_Metal_State_Penalty>
-0

> <b_epik_Metal_Only>
0

> <s_lp_Force_Field>
OPLS_2005

> <r_lp_Energy>
8.21169

> <b_lp_Chiralities_Consistent>
1

> <s_lp_Variant>
AV-unprocessed.smi:970-3

> <Gold.Version>
5.8.1

> <Gold.Id.Protein>
6NUR|6NUR_protein|mol2

> <Gold.PLP.Fitness>
35.9373

> <Gold.PLP.PLP>
-26.5833

> <Gold.PLP.part.hbond>
-4.0000

> <Gold.PLP.part.metal>
0.0000

> <Gold.PLP.part.buried>
-4.1953

> <Gold.PLP.part.nonpolar>
-19.1880

> <Gold.PLP.part.repulsive>
0.2768

> <Gold.PLP.ligand.clash>
0.0000

> <Gold.PLP.ligand.torsion>
0.8565

> <Gold.PLP.Chemscore.Hbond>
3.6500

> <Gold.PLP.Chemscore.CHOScore>
0.0000

> <Gold.PLP.Chemscore.Metal>
0.0000

> <Gold.Chemscore.Hbonds>
donor molecule, donor type, donor heavy atom, donor atom, acceptor molecule, acceptor atom, score
      L1  H     7    25       P1  8028  1.00
      P1  H  7989  7998       L1    16  1.00
      P1  H  7997  8010       L1    14  0.50

> <Gold.PLP.Chemscore.Internal.Correction>
0.1169

> <Gold.Rescore>
     Score         DG    S(hbond)    S(metal)    S(lipo)     H(rot)  DE(clash)    DE(int)     intcor
      9.20     -13.04       3.28        0.00      27.69       2.59       0.16       3.68       ----

> <Gold.Chemscore.Fitness>
9.1974

> <Gold.Chemscore.DG>
-13.0413

> <Gold.Chemscore.ZeroCoef>
-5.4800

> <Gold.Chemscore.Hbond>
3.2755

> <Gold.Chemscore.Metal>
0.0000

> <Gold.Chemscore.Lipo>
27.6858

> <Gold.Chemscore.Internal_Hbond>
0.0000

> <Gold.Chemscore.DEClash>
0.1650

> <Gold.Chemscore.DEInternal>
3.6789

> <Gold.Chemscore.Rot>
2.5852

> <Gold.Chemscore.Internal.Correction>
   9.000000E+99

> <Gold.Chemscore.Hbonds>
donor molecule, donor type, donor heavy atom, donor atom, acceptor molecule, acceptor atom, score
      L1  H     2    20       P1 10175  0.06
      L1  H     7    25       P1  8028  0.94
      P1  H  7989  7998       L1    16  0.51
      P1  H  7997  8010       L1    14  0.02

> <Gold.Chemscore.Hbond.Weighted>
-10.9403

> <Gold.Chemscore.Metal.Weighted>
-0.0000

> <Gold.Chemscore.Lipo.Weighted>
-3.2392

> <Gold.Chemscore.Internal_Hbond.Weighted>
0.0000

> <Gold.Chemscore.DEClash.Weighted>
0.1650

> <Gold.Chemscore.DEInternal.Weighted>
3.6789

> <Gold.Chemscore.Rot.Weighted>
6.6182

> <Gold.Chemscore.Internal.Correction.Weighted>
   9.000000E+99

> <Gold.Protein.RotatedTorsions>
[ 6907 6896 6895 6894 ] final  -52.53 input  -60.11 | X-H torsion
[ 7974 7965 7964 7962 ] final  111.67 input  175.53 | X-H torsion
[ 8008 7997 7996 7995 ] final   69.25 input   59.86 | X-H torsion
[ 10167 10162 10161 10158 ] final    5.33 input  -65.29 | X-H torsion
[ 10718 10713 10712 10709 ] final -109.46 input   66.30 | X-H torsion
[ 10763 10752 10751 10750 ] final  -97.46 input  -60.55 | X-H torsion
[ 11005 11000 10999 10996 ] final  -19.77 input  -57.11 | X-H torsion

> <Gold.Protein.ActiveResidues>
 VAL166  LYS551  ARG553  GLY616  TRP617  ASP618  TYR619  PRO620  LYS621  CYS622 
 ASP623  PHE694  ASN695  SER759  ASP760  ASP761  ALA762  ILE779  LEU786  VAL792 
 PHE793  MET794  SER795  GLU796  ALA797  LYS798  CYS799  TRP800  GLU811  SER814 

> <Gold.Protein.RotatedAtoms>
  150.8509  134.7833  159.7007 H   0  0  0  0  0  0  0  0  0  0  0  0  # atno 6907 bound_to 6896
  152.4574  134.5258  159.9806 H   0  0  0  0  0  0  0  0  0  0  0  0  # atno 6908 bound_to 6896
  151.5379  133.3400  159.2965 H   0  0  0  0  0  0  0  0  0  0  0  0  # atno 6909 bound_to 6896
  145.2393  139.2785  143.4126 H   0  0  0  0  0  0  0  0  0  0  0  0  # atno 7974 bound_to 7965
  155.7208  140.3493  155.5015 H   0  0  0  0  0  0  0  0  0  0  0  0  # atno 8008 bound_to 7997
  155.9271  140.1077  157.1183 H   0  0  0  0  0  0  0  0  0  0  0  0  # atno 8009 bound_to 7997
  154.4079  140.1238  156.4741 H   0  0  0  0  0  0  0  0  0  0  0  0  # atno 8010 bound_to 7997
  140.6488  143.7597  150.7541 H   0  0  0  0  0  0  0  0  0  0  0  0  # atno 10167 bound_to 10162
  156.0538  130.5765  150.8103 H   0  0  0  0  0  0  0  0  0  0  0  0  # atno 10718 bound_to 10713
  154.7329  135.5046  153.8994 H   0  0  0  0  0  0  0  0  0  0  0  0  # atno 10763 bound_to 10752
  153.0967  135.6674  153.9758 H   0  0  0  0  0  0  0  0  0  0  0  0  # atno 10764 bound_to 10752
  153.9554  135.3053  155.3415 H   0  0  0  0  0  0  0  0  0  0  0  0  # atno 10765 bound_to 10752
  140.8399  133.7934  155.9849 H   0  0  0  0  0  0  0  0  0  0  0  0  # atno 11005 bound_to 11000
  146.3332  140.2752  142.8607 LP  0  0  0  0  0  0  0  0  0  0  0  0  # atno 17320 bound_to 7965
  144.9604  140.8269  143.5517 LP  0  0  0  0  0  0  0  0  0  0  0  0  # atno 17321 bound_to 7965
  140.1243  143.4583  152.2294 LP  0  0  0  0  0  0  0  0  0  0  0  0  # atno 17342 bound_to 10162
  139.5700  144.7457  151.3915 LP  0  0  0  0  0  0  0  0  0  0  0  0  # atno 17343 bound_to 10162
  157.5490  131.0943  150.9723 LP  0  0  0  0  0  0  0  0  0  0  0  0  # atno 17370 bound_to 10713
  156.9987  130.5591  149.5309 LP  0  0  0  0  0  0  0  0  0  0  0  0  # atno 17371 bound_to 10713
  140.8907  134.2499  157.5096 LP  0  0  0  0  0  0  0  0  0  0  0  0  # atno 17394 bound_to 11000
  139.8703  134.9660  156.4547 LP  0  0  0  0  0  0  0  0  0  0  0  0  # atno 17395 bound_to 11000

$$$$
