AV-unprocessed.smi:3161|AV-procd|sdf|12059|dock2
  -GOLD-   2272017483D 1   1.00000     0.00000
 Structure written by MMmdl.
 40 41  0  0  0  0  0  0  0  0  1 V2000
  151.3084  136.4887  155.8891 C   0  0  0  0  0  0  0  0  0  0  0  0
  151.0586  137.8947  155.4253 C   0  0  0  0  0  0  0  0  0  0  0  0
  151.0235  138.3823  154.0878 C   0  0  0  0  0  0  0  0  0  0  0  0
  150.7737  139.6797  154.0195 N   0  0  0  0  0  0  0  0  0  0  0  0
  150.6471  140.0670  155.3067 N   0  0  0  0  0  0  0  0  0  0  0  0
  150.3685  141.4574  155.6221 C   0  0  0  0  0  0  0  0  0  0  0  0
  150.3067  141.7164  157.1408 C   0  0  2  0  0  0  0  0  0  0  0  0
  148.8928  141.4233  157.6749 C   0  0  0  0  0  0  0  0  0  0  0  0
  150.7234  143.0918  157.4369 N   0  0  0  0  0  0  0  0  0  0  0  0
  150.4652  143.5540  158.7992 C   0  0  0  0  0  0  0  0  0  0  0  0
  151.7307  143.4423  159.6612 C   0  0  2  0  0  0  0  0  0  0  0  0
  152.3551  142.0362  159.5784 C   0  0  0  0  0  0  0  0  0  0  0  0
  153.5640  141.9279  160.5151 C   0  0  0  0  0  0  0  0  0  0  0  0
  153.1600  142.3499  161.9316 C   0  0  0  0  0  0  0  0  0  0  0  0
  152.4812  143.7282  161.9048 C   0  0  0  0  0  0  0  0  0  0  0  0
  151.3683  143.7034  161.0163 O   0  0  0  0  0  0  0  0  0  0  0  0
  150.8116  139.0094  156.1757 C   0  0  0  0  0  0  0  0  0  0  0  0
  151.6168  135.8398  155.0689 H   0  0  0  0  0  0  0  0  0  0  0  0
  150.4144  136.0471  156.3296 H   0  0  0  0  0  0  0  0  0  0  0  0
  152.0939  136.4471  156.6437 H   0  0  0  0  0  0  0  0  0  0  0  0
  151.1699  137.8337  153.1691 H   0  0  0  0  0  0  0  0  0  0  0  0
  151.1207  142.0930  155.1511 H   0  0  0  0  0  0  0  0  0  0  0  0
  149.4142  141.7132  155.1598 H   0  0  0  0  0  0  0  0  0  0  0  0
  150.9959  141.0244  157.6265 H   0  0  0  0  0  0  0  0  0  0  0  0
  148.5674  140.4236  157.3858 H   0  0  0  0  0  0  0  0  0  0  0  0
  148.1642  142.1332  157.2816 H   0  0  0  0  0  0  0  0  0  0  0  0
  148.8498  141.4642  158.7630 H   0  0  0  0  0  0  0  0  0  0  0  0
  150.2970  143.7325  156.7746 H   0  0  0  0  0  0  0  0  0  0  0  0
  150.1145  144.5858  158.8072 H   0  0  0  0  0  0  0  0  0  0  0  0
  149.6727  142.9474  159.2387 H   0  0  0  0  0  0  0  0  0  0  0  0
  152.4630  144.1796  159.3258 H   0  0  0  0  0  0  0  0  0  0  0  0
  151.6121  141.2863  159.8532 H   0  0  0  0  0  0  0  0  0  0  0  0
  152.6581  141.8160  158.5543 H   0  0  0  0  0  0  0  0  0  0  0  0
  153.9554  140.9102  160.5170 H   0  0  0  0  0  0  0  0  0  0  0  0
  154.3666  142.5725  160.1545 H   0  0  0  0  0  0  0  0  0  0  0  0
  152.4726  141.6144  162.3512 H   0  0  0  0  0  0  0  0  0  0  0  0
  154.0335  142.3709  162.5839 H   0  0  0  0  0  0  0  0  0  0  0  0
  152.1299  143.9918  162.9024 H   0  0  0  0  0  0  0  0  0  0  0  0
  153.1858  144.5038  161.6008 H   0  0  0  0  0  0  0  0  0  0  0  0
  150.7417  139.1374  157.2458 H   0  0  0  0  0  0  0  0  0  0  0  0
  1  2  1  0  0  0  0
  1 18  1  0  0  0  0
  1 19  1  0  0  0  0
  1 20  1  0  0  0  0
  2 17  2  0  0  0  0
  2  3  1  0  0  0  0
  3  4  2  0  0  0  0
  3 21  1  0  0  0  0
  4  5  1  0  0  0  0
  5  6  1  0  0  0  0
  5 17  1  0  0  0  0
  6  7  1  0  0  0  0
  6 22  1  0  0  0  0
  6 23  1  0  0  0  0
  7  8  1  0  0  0  0
  7  9  1  0  0  0  0
  7 24  1  0  0  0  0
  8 25  1  0  0  0  0
  8 26  1  0  0  0  0
  8 27  1  0  0  0  0
  9 10  1  0  0  0  0
  9 28  1  0  0  0  0
 10 11  1  0  0  0  0
 10 29  1  0  0  0  0
 10 30  1  0  0  0  0
 11 16  1  0  0  0  0
 11 12  1  0  0  0  0
 11 31  1  0  0  0  0
 12 13  1  0  0  0  0
 12 32  1  0  0  0  0
 12 33  1  0  0  0  0
 13 14  1  0  0  0  0
 13 34  1  0  0  0  0
 13 35  1  0  0  0  0
 14 15  1  0  0  0  0
 14 36  1  0  0  0  0
 14 37  1  0  0  0  0
 15 16  1  0  0  0  0
 15 38  1  0  0  0  0
 15 39  1  0  0  0  0
 17 40  1  0  0  0  0
M  END
> <s_m_source_file>
AV-unprocessed.smi

> <i_m_source_file_index>
3161

> <i_lp_mmshare_version>
43012

> <i_f3d_flags>
0

> <s_epik_input>
W0NIM11jMVtjSF1ubihbY0hdMSlbQ0gyXVtDQEhdKFtDSDNdKVtOSF1bQ0gyXVtDQEBIXTJbQ0gyXVtDSDJdW0NIMl1bQ0gyXU8y

> <s_epik_cmdline>
J2VwaWtfcHl0aG9uJywgJy1waCcsICc3LjAnLCAnLXRuJywgJzgnLCAnLW1hJywgJzIwMCcsICctbWV0YWxfYmluZGluZycsICctaW1hZScsICc8aW5maWxlLm1hZT4nLCAnLW9tYWUnLCAnPG91dGZpbGUubWFlPic=

> <r_lp_tautomer_probability>
1

> <r_epik_Ionization_Penalty>
2.51986

> <r_epik_Ionization_Penalty_Charging>
0

> <r_epik_Ionization_Penalty_Neutral>
2.51986

> <r_epik_State_Penalty>
2.68614

> <r_epik_Charging_Adjusted_Penalty>
2.68614

> <i_epik_Tot_Q>
0

> <i_epik_Tot_abs_Q>
0

> <r_epik_Metal_State_Penalty>
2.68606

> <b_epik_Metal_Only>
0

> <s_lp_Force_Field>
OPLS_2005

> <r_lp_Energy>
14.7371

> <b_lp_Chiralities_Consistent>
1

> <s_lp_Variant>
AV-unprocessed.smi:3161-5

> <Gold.Version>
5.8.1

> <Gold.Id.Protein>
6NUR|6NUR_protein|mol2

> <Gold.PLP.Fitness>
46.2191

> <Gold.PLP.PLP>
-38.2921

> <Gold.PLP.part.hbond>
-2.4081

> <Gold.PLP.part.metal>
0.0000

> <Gold.PLP.part.buried>
-6.1216

> <Gold.PLP.part.nonpolar>
-30.0881

> <Gold.PLP.part.repulsive>
0.4396

> <Gold.PLP.ligand.clash>
0.0000

> <Gold.PLP.ligand.torsion>
0.7237

> <Gold.PLP.Chemscore.Hbond>
2.0000

> <Gold.PLP.Chemscore.CHOScore>
1.0795

> <Gold.PLP.Chemscore.Metal>
0.0000

> <Gold.Chemscore.Hbonds>
donor molecule, donor type, donor heavy atom, donor atom, acceptor molecule, acceptor atom, score
      L1  H     9    28       P1  8028  0.98
      P1  H  7989  7998       L1     4  1.00
      L1  C     3    21       P1  7949  1.00

> <Gold.PLP.Chemscore.Internal.Correction>
0.1358

> <Gold.Rescore>
     Score         DG    S(hbond)    S(metal)    S(lipo)     H(rot)  DE(clash)    DE(int)     intcor
     18.23     -19.38       1.94        0.00      96.47       1.50       0.07       1.08       ----

> <Gold.Chemscore.Fitness>
18.2342

> <Gold.Chemscore.DG>
-19.3819

> <Gold.Chemscore.ZeroCoef>
-5.4800

> <Gold.Chemscore.Hbond>
1.9350

> <Gold.Chemscore.Metal>
0.0000

> <Gold.Chemscore.Lipo>
96.4681

> <Gold.Chemscore.Internal_Hbond>
0.0000

> <Gold.Chemscore.DEClash>
0.0727

> <Gold.Chemscore.DEInternal>
1.0750

> <Gold.Chemscore.Rot>
1.5030

> <Gold.Chemscore.Internal.Correction>
   9.000000E+99

> <Gold.Chemscore.Hbonds>
donor molecule, donor type, donor heavy atom, donor atom, acceptor molecule, acceptor atom, score
      L1  H     9    28       P1  8028  0.92
      P1  H  7989  7998       L1     4  0.24

> <Gold.Chemscore.Hbond.Weighted>
-6.4629

> <Gold.Chemscore.Metal.Weighted>
-0.0000

> <Gold.Chemscore.Lipo.Weighted>
-11.2868

> <Gold.Chemscore.Internal_Hbond.Weighted>
0.0000

> <Gold.Chemscore.DEClash.Weighted>
0.0727

> <Gold.Chemscore.DEInternal.Weighted>
1.0750

> <Gold.Chemscore.Rot.Weighted>
3.8477

> <Gold.Chemscore.Internal.Correction.Weighted>
   9.000000E+99

> <Gold.Protein.RotatedTorsions>
[ 6907 6896 6895 6894 ] final   25.42 input  -60.11 | X-H torsion
[ 7974 7965 7964 7962 ] final  -49.76 input  175.53 | X-H torsion
[ 8008 7997 7996 7995 ] final   67.25 input   59.86 | X-H torsion
[ 10167 10162 10161 10158 ] final  156.55 input  -65.29 | X-H torsion
[ 10718 10713 10712 10709 ] final  -62.67 input   66.30 | X-H torsion
[ 10763 10752 10751 10750 ] final   47.32 input  -60.55 | X-H torsion
[ 11005 11000 10999 10996 ] final  -89.82 input  -57.11 | X-H torsion

> <Gold.Protein.ActiveResidues>
 VAL166  LYS551  ARG553  GLY616  TRP617  ASP618  TYR619  PRO620  LYS621  CYS622 
 ASP623  PHE694  ASN695  SER759  ASP760  ASP761  ALA762  ILE779  LEU786  VAL792 
 PHE793  MET794  SER795  GLU796  ALA797  LYS798  CYS799  TRP800  GLU811  SER814 

> <Gold.Protein.RotatedAtoms>
  151.9722  135.0071  160.0553 H   0  0  0  0  0  0  0  0  0  0  0  0  # atno 6907 bound_to 6896
  152.1773  133.4678  159.4948 H   0  0  0  0  0  0  0  0  0  0  0  0  # atno 6908 bound_to 6896
  150.6911  134.1795  159.4286 H   0  0  0  0  0  0  0  0  0  0  0  0  # atno 6909 bound_to 6896
  145.9371  140.7696  142.9570 H   0  0  0  0  0  0  0  0  0  0  0  0  # atno 7974 bound_to 7965
  155.6899  140.3496  155.4889 H   0  0  0  0  0  0  0  0  0  0  0  0  # atno 8008 bound_to 7997
  155.9533  140.1123  157.0980 H   0  0  0  0  0  0  0  0  0  0  0  0  # atno 8009 bound_to 7997
  154.4126  140.1190  156.5068 H   0  0  0  0  0  0  0  0  0  0  0  0  # atno 8010 bound_to 7997
  139.4821  144.4999  151.8184 H   0  0  0  0  0  0  0  0  0  0  0  0  # atno 10167 bound_to 10162
  156.0840  130.4212  150.1168 H   0  0  0  0  0  0  0  0  0  0  0  0  # atno 10718 bound_to 10713
  152.9801  135.5980  154.3743 H   0  0  0  0  0  0  0  0  0  0  0  0  # atno 10763 bound_to 10752
  154.3413  135.2767  155.2423 H   0  0  0  0  0  0  0  0  0  0  0  0  # atno 10764 bound_to 10752
  154.4503  135.5991  153.6242 H   0  0  0  0  0  0  0  0  0  0  0  0  # atno 10765 bound_to 10752
  141.1577  133.7654  156.9650 H   0  0  0  0  0  0  0  0  0  0  0  0  # atno 11005 bound_to 11000
  144.6773  140.2220  143.7365 LP  0  0  0  0  0  0  0  0  0  0  0  0  # atno 17320 bound_to 7965
  145.8349  139.2103  143.1861 LP  0  0  0  0  0  0  0  0  0  0  0  0  # atno 17321 bound_to 7965
  140.4491  144.1880  150.5896 LP  0  0  0  0  0  0  0  0  0  0  0  0  # atno 17342 bound_to 10162
  140.4604  143.2451  151.9228 LP  0  0  0  0  0  0  0  0  0  0  0  0  # atno 17343 bound_to 10162
  156.9193  130.9677  151.3551 LP  0  0  0  0  0  0  0  0  0  0  0  0  # atno 17370 bound_to 10713
  157.5968  130.8483  149.8741 LP  0  0  0  0  0  0  0  0  0  0  0  0  # atno 17371 bound_to 10713
  140.1167  134.9442  157.2145 LP  0  0  0  0  0  0  0  0  0  0  0  0  # atno 17394 bound_to 11000
  140.3124  134.3009  155.7264 LP  0  0  0  0  0  0  0  0  0  0  0  0  # atno 17395 bound_to 11000

$$$$
