AV-unprocessed.smi:69|AV-procd|sdf|654|dock1
  -GOLD-   2262016553D 1   1.00000     0.00000
 Structure written by MMmdl.
 32 34  0  0  0  0  0  0  0  0  1 V2000
  152.8385  138.4598  158.4722 N   0  0  0  0  0  0  0  0  0  0  0  0
  152.3104  138.9501  157.3422 C   0  0  0  0  0  0  0  0  0  0  0  0
  152.9650  138.7290  156.1786 N   0  0  0  0  0  0  0  0  0  0  0  0
  152.4592  139.2094  155.0386 C   0  0  0  0  0  0  0  0  0  0  0  0
  151.3417  139.9168  154.8541 N   0  0  0  0  0  0  0  0  0  0  0  0
  150.6802  140.1415  156.0270 C   0  0  0  0  0  0  0  0  0  0  0  0
  151.1010  139.6896  157.3097 C   0  0  0  0  0  0  0  0  0  0  0  0
  150.1923  140.0934  158.2773 N   0  0  0  0  0  0  0  0  0  0  0  0
  149.2875  140.7481  157.6012 C   0  0  0  0  0  0  0  0  0  0  0  0
  149.5015  140.8316  156.2425 N   0  0  0  0  0  0  0  0  0  0  0  0
  148.6211  141.5189  155.2452 C   0  0  1  0  0  0  0  0  0  0  0  0
  148.6346  140.8117  154.0441 O   0  0  0  0  0  0  0  0  0  0  0  0
  147.3235  140.7119  153.4819 C   0  0  1  0  0  0  0  0  0  0  0  0
  146.9453  139.2169  153.4148 C   0  0  0  0  0  0  0  0  0  0  0  0
  147.9615  138.4934  152.7536 O   0  0  0  0  0  0  0  0  0  0  0  0
  146.4366  141.5716  154.4052 C   0  0  1  0  0  0  0  0  0  0  0  0
  145.1144  141.0868  154.5440 O   0  0  0  0  0  0  0  0  0  0  0  0
  147.1748  141.5561  155.7340 C   0  0  2  0  0  0  0  0  0  0  0  0
  146.8867  142.7455  156.4436 O   0  0  0  0  0  0  0  0  0  0  0  0
  149.0643  142.5047  155.0926 H   0  0  0  0  0  0  0  0  0  0  0  0
  147.3172  141.1351  152.4763 H   0  0  0  0  0  0  0  0  0  0  0  0
  146.4037  142.5879  154.0079 H   0  0  0  0  0  0  0  0  0  0  0  0
  146.9498  140.6591  156.3141 H   0  0  0  0  0  0  0  0  0  0  0  0
  152.3697  138.6123  159.3536 H   0  0  0  0  0  0  0  0  0  0  0  0
  153.7043  137.9416  158.4404 H   0  0  0  0  0  0  0  0  0  0  0  0
  153.0308  138.9979  154.1472 H   0  0  0  0  0  0  0  0  0  0  0  0
  148.4267  141.1923  158.0795 H   0  0  0  0  0  0  0  0  0  0  0  0
  146.7534  138.8013  154.4031 H   0  0  0  0  0  0  0  0  0  0  0  0
  146.0387  139.0705  152.8279 H   0  0  0  0  0  0  0  0  0  0  0  0
  148.2872  139.0185  152.0386 H   0  0  0  0  0  0  0  0  0  0  0  0
  144.8149  140.7825  153.7007 H   0  0  0  0  0  0  0  0  0  0  0  0
  147.5052  143.4098  156.1816 H   0  0  0  0  0  0  0  0  0  0  0  0
  1  2  1  0  0  0  0
  1 24  1  0  0  0  0
  1 25  1  0  0  0  0
  2  7  1  0  0  0  0
  2  3  2  0  0  0  0
  3  4  1  0  0  0  0
  4  5  2  0  0  0  0
  4 26  1  0  0  0  0
  5  6  1  0  0  0  0
  6 10  1  0  0  0  0
  6  7  2  0  0  0  0
  7  8  1  0  0  0  0
  8  9  2  0  0  0  0
  9 10  1  0  0  0  0
  9 27  1  0  0  0  0
 10 11  1  0  0  0  0
 11 20  1  0  0  0  0
 11 18  1  0  0  0  0
 11 12  1  0  0  0  0
 12 13  1  0  0  0  0
 13 21  1  0  0  0  0
 13 14  1  0  0  0  0
 13 16  1  0  0  0  0
 14 15  1  0  0  0  0
 14 28  1  0  0  0  0
 14 29  1  0  0  0  0
 15 30  1  0  0  0  0
 16 22  1  0  0  0  0
 16 17  1  0  0  0  0
 16 18  1  0  0  0  0
 17 31  1  0  0  0  0
 18 23  1  0  0  0  0
 18 19  1  0  0  0  0
 19 32  1  0  0  0  0
M  END
> <s_m_source_file>
AV-unprocessed.smi

> <i_m_source_file_index>
69

> <i_lp_mmshare_version>
43012

> <i_f3d_flags>
0

> <s_epik_input>
bjFbY0hdbmMoW05IMl0pYyhjMTIpbltjSF1uMltDQEBIXTNPW0NASF0oW0NIMl1bT0hdKVtDQEBIXShbT0hdKVtDQEhdM1tPSF0=

> <s_epik_cmdline>
J2VwaWtfcHl0aG9uJywgJy1waCcsICc3LjAnLCAnLXRuJywgJzgnLCAnLW1hJywgJzIwMCcsICctbWV0YWxfYmluZGluZycsICctaW1hZScsICc8aW5maWxlLm1hZT4nLCAnLW9tYWUnLCAnPG91dGZpbGUubWFlPic=

> <r_lp_tautomer_probability>
1

> <r_epik_Ionization_Penalty>
0.000428445

> <r_epik_Ionization_Penalty_Charging>
0

> <r_epik_Ionization_Penalty_Neutral>
0.000428445

> <r_epik_State_Penalty>
-0

> <r_epik_Charging_Adjusted_Penalty>
0

> <i_epik_Tot_Q>
0

> <i_epik_Tot_abs_Q>
0

> <r_epik_Metal_State_Penalty>
-0

> <b_epik_Metal_Only>
0

> <s_epik_Chemistry_Notes>
This compound contains an acetal/aminal-like group ( X-CH(R)-Y where X, Y are N, S, or O) that may be acid/base labile, releasing an aldehyde.

> <s_lp_Force_Field>
OPLS_2005

> <r_lp_Energy>
41.5942

> <b_lp_Chiralities_Consistent>
1

> <s_lp_Variant>
AV-unprocessed.smi:69-12

> <Gold.Version>
5.8.1

> <Gold.Id.Protein>
6NUR|6NUR_protein|mol2

> <Gold.PLP.Fitness>
37.4177

> <Gold.PLP.PLP>
-26.1716

> <Gold.PLP.part.hbond>
-6.0000

> <Gold.PLP.part.metal>
0.0000

> <Gold.PLP.part.buried>
-3.9863

> <Gold.PLP.part.nonpolar>
-18.1421

> <Gold.PLP.part.repulsive>
0.2901

> <Gold.PLP.ligand.clash>
0.0000

> <Gold.PLP.ligand.torsion>
0.7630

> <Gold.PLP.Chemscore.Hbond>
4.2550

> <Gold.PLP.Chemscore.CHOScore>
0.0000

> <Gold.PLP.Chemscore.Metal>
0.0000

> <Gold.Chemscore.Hbonds>
donor molecule, donor type, donor heavy atom, donor atom, acceptor molecule, acceptor atom, score
      L1  H    15    30       P1  7957  1.00
      L1  H    17    31       P1 10175  1.00
      L1  H    19    32       P1  8028  0.40
      P1  H  7989  7998       L1     5  1.00
      P1  H  7997  8009       L1     3  0.72

> <Gold.PLP.Chemscore.Internal.Correction>
0.0070

> <Gold.Rescore>
     Score         DG    S(hbond)    S(metal)    S(lipo)     H(rot)  DE(clash)    DE(int)     intcor
      5.21      -7.07       2.64        0.00      26.44       4.03       0.23       1.63       ----

> <Gold.Chemscore.Fitness>
5.2095

> <Gold.Chemscore.DG>
-7.0672

> <Gold.Chemscore.ZeroCoef>
-5.4800

> <Gold.Chemscore.Hbond>
2.6362

> <Gold.Chemscore.Metal>
0.0000

> <Gold.Chemscore.Lipo>
26.4384

> <Gold.Chemscore.Internal_Hbond>
0.0000

> <Gold.Chemscore.DEClash>
0.2319

> <Gold.Chemscore.DEInternal>
1.6259

> <Gold.Chemscore.Rot>
4.0277

> <Gold.Chemscore.Internal.Correction>
   9.000000E+99

> <Gold.Chemscore.Hbonds>
donor molecule, donor type, donor heavy atom, donor atom, acceptor molecule, acceptor atom, score
      L1  H    15    30       P1  7957  0.96
      L1  H    17    31       P1 10175  0.93
      L1  H    19    32       P1  8028  0.01
      P1  H  7989  7998       L1     5  0.50
      P1  H  7997  8009       L1     3  0.02

> <Gold.Chemscore.Hbond.Weighted>
-8.8049

> <Gold.Chemscore.Metal.Weighted>
-0.0000

> <Gold.Chemscore.Lipo.Weighted>
-3.0933

> <Gold.Chemscore.Internal_Hbond.Weighted>
0.0000

> <Gold.Chemscore.DEClash.Weighted>
0.2319

> <Gold.Chemscore.DEInternal.Weighted>
1.6259

> <Gold.Chemscore.Rot.Weighted>
10.3110

> <Gold.Chemscore.Internal.Correction.Weighted>
   9.000000E+99

> <Gold.Protein.RotatedTorsions>
[ 6907 6896 6895 6894 ] final -140.42 input  -60.11 | X-H torsion
[ 7974 7965 7964 7962 ] final   90.54 input  175.53 | X-H torsion
[ 8008 7997 7996 7995 ] final -165.43 input   59.86 | X-H torsion
[ 10167 10162 10161 10158 ] final  -23.85 input  -65.29 | X-H torsion
[ 10718 10713 10712 10709 ] final  167.37 input   66.30 | X-H torsion
[ 10763 10752 10751 10750 ] final -149.59 input  -60.55 | X-H torsion
[ 11005 11000 10999 10996 ] final   95.61 input  -57.11 | X-H torsion

> <Gold.Protein.ActiveResidues>
 VAL166  LYS551  ARG553  GLY616  TRP617  ASP618  TYR619  PRO620  LYS621  CYS622 
 ASP623  PHE694  ASN695  SER759  ASP760  ASP761  ALA762  ILE779  LEU786  VAL792 
 PHE793  MET794  SER795  GLU796  ALA797  LYS798  CYS799  TRP800  GLU811  SER814 

> <Gold.Protein.RotatedAtoms>
  151.0605  133.5548  159.2634 H   0  0  0  0  0  0  0  0  0  0  0  0  # atno 6907 bound_to 6896
  151.2525  135.0626  159.9077 H   0  0  0  0  0  0  0  0  0  0  0  0  # atno 6908 bound_to 6896
  152.5397  134.0363  159.8101 H   0  0  0  0  0  0  0  0  0  0  0  0  # atno 6909 bound_to 6896
  145.5176  139.2278  143.2690 H   0  0  0  0  0  0  0  0  0  0  0  0  # atno 7974 bound_to 7965
  155.8497  140.0961  157.1683 H   0  0  0  0  0  0  0  0  0  0  0  0  # atno 8008 bound_to 7997
  154.3985  140.1385  156.3891 H   0  0  0  0  0  0  0  0  0  0  0  0  # atno 8009 bound_to 7997
  155.7975  140.3454  155.5386 H   0  0  0  0  0  0  0  0  0  0  0  0  # atno 8010 bound_to 7997
  140.7288  143.4406  151.0663 H   0  0  0  0  0  0  0  0  0  0  0  0  # atno 10167 bound_to 10162
  157.0524  131.0317  151.2676 H   0  0  0  0  0  0  0  0  0  0  0  0  # atno 10718 bound_to 10713
  154.8168  135.3305  154.7152 H   0  0  0  0  0  0  0  0  0  0  0  0  # atno 10763 bound_to 10752
  153.7791  135.6920  153.4896 H   0  0  0  0  0  0  0  0  0  0  0  0  # atno 10764 bound_to 10752
  153.1992  135.4522  155.0193 H   0  0  0  0  0  0  0  0  0  0  0  0  # atno 10765 bound_to 10752
  139.8788  134.8908  156.4036 H   0  0  0  0  0  0  0  0  0  0  0  0  # atno 11005 bound_to 11000
  146.2127  140.5986  142.9052 LP  0  0  0  0  0  0  0  0  0  0  0  0  # atno 17320 bound_to 7965
  144.7693  140.5602  143.6681 LP  0  0  0  0  0  0  0  0  0  0  0  0  # atno 17321 bound_to 7965
  139.8072  143.8001  152.3168 LP  0  0  0  0  0  0  0  0  0  0  0  0  # atno 17342 bound_to 10162
  139.8038  144.7363  150.9789 LP  0  0  0  0  0  0  0  0  0  0  0  0  # atno 17343 bound_to 10162
  157.5019  130.7885  149.7614 LP  0  0  0  0  0  0  0  0  0  0  0  0  # atno 17370 bound_to 10713
  156.0003  130.3884  150.2631 LP  0  0  0  0  0  0  0  0  0  0  0  0  # atno 17371 bound_to 10713
  140.9250  133.7619  155.9953 LP  0  0  0  0  0  0  0  0  0  0  0  0  # atno 17394 bound_to 11000
  140.8397  134.3082  157.5318 LP  0  0  0  0  0  0  0  0  0  0  0  0  # atno 17395 bound_to 11000

$$$$
