AV-unprocessed.smi:1826|AV-procd|sdf|7416|dock5
  -GOLD-   22720 9 93D 1   1.00000     0.00000
 Structure written by MMmdl.
 39 41  0  0  0  0  0  0  0  0  1 V2000
  151.8746  136.8913  154.0681 O   0  0  0  0  0  0  0  0  0  0  0  0
  151.2048  136.8468  155.3100 C   0  0  0  0  0  0  0  0  0  0  0  0
  151.3143  138.1318  156.0720 C   0  0  0  0  0  0  0  0  0  0  0  0
  151.7851  138.1725  157.3194 N   0  0  0  0  0  0  0  0  0  0  0  0
  151.7084  139.5162  157.6297 C   0  0  0  0  0  0  0  0  0  0  0  0
  152.0596  140.2081  158.8110 C   0  0  0  0  0  0  0  0  0  0  0  0
  151.8893  141.6054  158.8971 C   0  0  0  0  0  0  0  0  0  0  0  0
  151.3661  142.3295  157.8062 C   0  0  0  0  0  0  0  0  0  0  0  0
  151.0096  141.6596  156.6200 C   0  0  0  0  0  0  0  0  0  0  0  0
  151.1823  140.2650  156.5392 C   0  0  0  0  0  0  0  0  0  0  0  0
  150.9408  139.3248  155.5432 N   0  0  0  0  0  0  0  0  0  0  0  0
  150.3953  139.6033  154.2211 C   0  0  0  0  0  0  0  0  0  0  0  0
  148.9837  140.2206  154.2804 C   0  0  1  0  0  0  0  0  0  0  0  0
  148.9397  141.4068  153.5110 O   0  0  0  0  0  0  0  0  0  0  0  0
  147.9232  139.2191  153.8507 C   0  0  0  0  0  0  0  0  0  0  0  0
  147.1327  139.4732  152.7104 C   0  0  0  0  0  0  0  0  0  0  0  0
  146.1459  138.5513  152.3107 C   0  0  0  0  0  0  0  0  0  0  0  0
  145.9362  137.3647  153.0449 C   0  0  0  0  0  0  0  0  0  0  0  0
  144.8621  136.3841  152.5976 C   0  0  0  0  0  0  0  0  0  0  0  0
  144.8285  135.2980  153.3706 F   0  0  0  0  0  0  0  0  0  0  0  0
  143.6717  136.9808  152.6496 F   0  0  0  0  0  0  0  0  0  0  0  0
  145.0948  135.9988  151.3428 F   0  0  0  0  0  0  0  0  0  0  0  0
  146.7225  137.1149  154.1912 C   0  0  0  0  0  0  0  0  0  0  0  0
  147.7095  138.0364  154.5911 C   0  0  0  0  0  0  0  0  0  0  0  0
  151.2671  136.6354  153.3913 H   0  0  0  0  0  0  0  0  0  0  0  0
  150.1527  136.6231  155.1301 H   0  0  0  0  0  0  0  0  0  0  0  0
  151.6005  136.0258  155.9076 H   0  0  0  0  0  0  0  0  0  0  0  0
  152.4607  139.6624  159.6522 H   0  0  0  0  0  0  0  0  0  0  0  0
  152.1607  142.1241  159.8048 H   0  0  0  0  0  0  0  0  0  0  0  0
  151.2384  143.3996  157.8807 H   0  0  0  0  0  0  0  0  0  0  0  0
  150.6086  142.2107  155.7824 H   0  0  0  0  0  0  0  0  0  0  0  0
  151.0768  140.2511  153.6702 H   0  0  0  0  0  0  0  0  0  0  0  0
  150.3638  138.6631  153.6690 H   0  0  0  0  0  0  0  0  0  0  0  0
  148.7745  140.5147  155.3098 H   0  0  0  0  0  0  0  0  0  0  0  0
  149.3072  141.2246  152.6595 H   0  0  0  0  0  0  0  0  0  0  0  0
  147.2784  140.3771  152.1373 H   0  0  0  0  0  0  0  0  0  0  0  0
  145.5456  138.7569  151.4365 H   0  0  0  0  0  0  0  0  0  0  0  0
  146.5748  136.2178  154.7736 H   0  0  0  0  0  0  0  0  0  0  0  0
  148.3012  137.8332  155.4718 H   0  0  0  0  0  0  0  0  0  0  0  0
  1  2  1  0  0  0  0
  1 25  1  0  0  0  0
  2  3  1  0  0  0  0
  2 26  1  0  0  0  0
  2 27  1  0  0  0  0
  3 11  1  0  0  0  0
  3  4  2  0  0  0  0
  4  5  1  0  0  0  0
  5 10  2  0  0  0  0
  5  6  1  0  0  0  0
  6  7  2  0  0  0  0
  6 28  1  0  0  0  0
  7  8  1  0  0  0  0
  7 29  1  0  0  0  0
  8  9  2  0  0  0  0
  8 30  1  0  0  0  0
  9 10  1  0  0  0  0
  9 31  1  0  0  0  0
 10 11  1  0  0  0  0
 11 12  1  0  0  0  0
 12 13  1  0  0  0  0
 12 32  1  0  0  0  0
 12 33  1  0  0  0  0
 13 14  1  0  0  0  0
 13 15  1  0  0  0  0
 13 34  1  0  0  0  0
 14 35  1  0  0  0  0
 15 24  1  0  0  0  0
 15 16  2  0  0  0  0
 16 17  1  0  0  0  0
 16 36  1  0  0  0  0
 17 18  2  0  0  0  0
 17 37  1  0  0  0  0
 18 19  1  0  0  0  0
 18 23  1  0  0  0  0
 19 20  1  0  0  0  0
 19 21  1  0  0  0  0
 19 22  1  0  0  0  0
 23 24  2  0  0  0  0
 23 38  1  0  0  0  0
 24 39  1  0  0  0  0
M  END
> <s_m_source_file>
AV-unprocessed.smi

> <i_m_source_file_index>
1826

> <i_lp_mmshare_version>
43012

> <i_f3d_flags>
0

> <s_epik_input>
W2NIXTFbY0hdW2NIXVtjSF1jKGMxMiluKGMobjIpW0NIMl1bT0hdKVtDSDJdW0NASF0oW09IXSljM1tjSF1bY0hdYyhDKEYpKEYpRilbY0hdW2NIXTM=

> <s_epik_cmdline>
J2VwaWtfcHl0aG9uJywgJy1waCcsICc3LjAnLCAnLXRuJywgJzgnLCAnLW1hJywgJzIwMCcsICctbWV0YWxfYmluZGluZycsICctaW1hZScsICc8aW5maWxlLm1hZT4nLCAnLW9tYWUnLCAnPG91dGZpbGUubWFlPic=

> <r_epik_Ionization_Penalty>
0.0634718

> <r_epik_Ionization_Penalty_Charging>
0

> <r_epik_Ionization_Penalty_Neutral>
0.0634718

> <r_epik_State_Penalty>
0.0551572

> <r_epik_Charging_Adjusted_Penalty>
0.0551572

> <i_epik_Tot_Q>
0

> <i_epik_Tot_abs_Q>
0

> <r_epik_Metal_State_Penalty>
5.78034e-05

> <b_epik_Metal_Only>
0

> <s_lp_Force_Field>
OPLS_2005

> <r_lp_Energy>
14.1967

> <b_lp_Chiralities_Consistent>
1

> <s_lp_Variant>
AV-unprocessed.smi:1826-2

> <Gold.Version>
5.8.1

> <Gold.Id.Protein>
6NUR|6NUR_protein|mol2

> <Gold.PLP.Fitness>
45.9583

> <Gold.PLP.PLP>
-38.6191

> <Gold.PLP.part.hbond>
-4.6359

> <Gold.PLP.part.metal>
0.0000

> <Gold.PLP.part.buried>
1.7590

> <Gold.PLP.part.nonpolar>
-35.3955

> <Gold.PLP.part.repulsive>
0.0000

> <Gold.PLP.ligand.clash>
0.0057

> <Gold.PLP.ligand.torsion>
0.7904

> <Gold.PLP.Chemscore.Hbond>
2.9280

> <Gold.PLP.Chemscore.CHOScore>
0.0000

> <Gold.PLP.Chemscore.Metal>
0.0000

> <Gold.Chemscore.Hbonds>
donor molecule, donor type, donor heavy atom, donor atom, acceptor molecule, acceptor atom, score
      L1  H     1    25       P1  7949  0.85
      L1  H    14    35       P1  7957  1.00
      P1  H 10752 10763       L1     1  1.00

> <Gold.PLP.Chemscore.Internal.Correction>
0.1417

> <Gold.Rescore>
     Score         DG    S(hbond)    S(metal)    S(lipo)     H(rot)  DE(clash)    DE(int)     intcor
     13.42     -15.76       2.07        0.00      92.52       2.91       1.67       0.67       ----

> <Gold.Chemscore.Fitness>
13.4152

> <Gold.Chemscore.DG>
-15.7579

> <Gold.Chemscore.ZeroCoef>
-5.4800

> <Gold.Chemscore.Hbond>
2.0696

> <Gold.Chemscore.Metal>
0.0000

> <Gold.Chemscore.Lipo>
92.5243

> <Gold.Chemscore.Internal_Hbond>
0.0000

> <Gold.Chemscore.DEClash>
1.6707

> <Gold.Chemscore.DEInternal>
0.6720

> <Gold.Chemscore.Rot>
2.9141

> <Gold.Chemscore.Internal.Correction>
   9.000000E+99

> <Gold.Chemscore.Hbonds>
donor molecule, donor type, donor heavy atom, donor atom, acceptor molecule, acceptor atom, score
      L1  H     1    25       P1  7949  0.49
      L1  H    14    35       P1  7957  0.96
      P1  H 10752 10763       L1     1  0.30

> <Gold.Chemscore.Hbond.Weighted>
-6.9125

> <Gold.Chemscore.Metal.Weighted>
-0.0000

> <Gold.Chemscore.Lipo.Weighted>
-10.8253

> <Gold.Chemscore.Internal_Hbond.Weighted>
0.0000

> <Gold.Chemscore.DEClash.Weighted>
1.6707

> <Gold.Chemscore.DEInternal.Weighted>
0.6720

> <Gold.Chemscore.Rot.Weighted>
7.4600

> <Gold.Chemscore.Internal.Correction.Weighted>
   9.000000E+99

> <Gold.Protein.RotatedTorsions>
[ 6907 6896 6895 6894 ] final   99.88 input  -60.11 | X-H torsion
[ 7974 7965 7964 7962 ] final -171.12 input  175.53 | X-H torsion
[ 8008 7997 7996 7995 ] final   38.47 input   59.86 | X-H torsion
[ 10167 10162 10161 10158 ] final -115.08 input  -65.29 | X-H torsion
[ 10718 10713 10712 10709 ] final  103.13 input   66.30 | X-H torsion
[ 10763 10752 10751 10750 ] final   21.35 input  -60.55 | X-H torsion
[ 11005 11000 10999 10996 ] final  -86.72 input  -57.11 | X-H torsion

> <Gold.Protein.ActiveResidues>
 VAL166  LYS551  ARG553  GLY616  TRP617  ASP618  TYR619  PRO620  LYS621  CYS622 
 ASP623  PHE694  ASN695  SER759  ASP760  ASP761  ALA762  ILE779  LEU786  VAL792 
 PHE793  MET794  SER795  GLU796  ALA797  LYS798  CYS799  TRP800  GLU811  SER814 

> <Gold.Protein.RotatedAtoms>
  152.5383  134.0362  159.8046 H   0  0  0  0  0  0  0  0  0  0  0  0  # atno 6907 bound_to 6896
  151.0525  133.5604  159.2648 H   0  0  0  0  0  0  0  0  0  0  0  0  # atno 6908 bound_to 6896
  151.2533  135.0637  159.9124 H   0  0  0  0  0  0  0  0  0  0  0  0  # atno 6909 bound_to 6896
  144.7161  140.1970  143.6342 H   0  0  0  0  0  0  0  0  0  0  0  0  # atno 7974 bound_to 7965
  155.2208  140.3331  155.4316 H   0  0  0  0  0  0  0  0  0  0  0  0  # atno 8008 bound_to 7997
  156.2334  140.1861  156.7231 H   0  0  0  0  0  0  0  0  0  0  0  0  # atno 8009 bound_to 7997
  154.6017  140.0622  156.9362 H   0  0  0  0  0  0  0  0  0  0  0  0  # atno 8010 bound_to 7997
  140.0940  143.4673  152.1852 H   0  0  0  0  0  0  0  0  0  0  0  0  # atno 10167 bound_to 10162
  157.6781  131.0771  150.5509 H   0  0  0  0  0  0  0  0  0  0  0  0  # atno 10718 bound_to 10713
  153.1002  135.6670  153.9687 H   0  0  0  0  0  0  0  0  0  0  0  0  # atno 10763 bound_to 10752
  153.9260  135.3009  155.3448 H   0  0  0  0  0  0  0  0  0  0  0  0  # atno 10764 bound_to 10752
  154.7423  135.5074  153.9218 H   0  0  0  0  0  0  0  0  0  0  0  0  # atno 10765 bound_to 10752
  141.1626  133.7470  156.9202 H   0  0  0  0  0  0  0  0  0  0  0  0  # atno 11005 bound_to 11000
  145.8715  139.2274  143.1658 LP  0  0  0  0  0  0  0  0  0  0  0  0  # atno 17320 bound_to 7965
  146.0080  140.8461  142.9985 LP  0  0  0  0  0  0  0  0  0  0  0  0  # atno 17321 bound_to 7965
  139.5708  144.7462  151.3895 LP  0  0  0  0  0  0  0  0  0  0  0  0  # atno 17342 bound_to 10162
  140.7013  143.7624  150.7408 LP  0  0  0  0  0  0  0  0  0  0  0  0  # atno 17343 bound_to 10162
  156.5814  130.4305  149.5976 LP  0  0  0  0  0  0  0  0  0  0  0  0  # atno 17370 bound_to 10713
  156.2658  130.6989  151.1771 LP  0  0  0  0  0  0  0  0  0  0  0  0  # atno 17371 bound_to 10713
  140.1456  134.9264  157.2525 LP  0  0  0  0  0  0  0  0  0  0  0  0  # atno 17394 bound_to 11000
  140.2784  134.3379  155.7351 LP  0  0  0  0  0  0  0  0  0  0  0  0  # atno 17395 bound_to 11000

$$$$
