AV-unprocessed.smi:508|AV-procd|sdf|2758|dock5
  -GOLD-   2262023223D 1   1.00000     0.00000
 Structure written by MMmdl.
 49 51  0  0  0  0  0  0  0  0  1 V2000
  153.7131  137.6917  160.9259 C   0  0  0  0  0  0  0  0  0  0  0  0
  152.5765  137.5332  159.9135 C   0  0  0  0  0  0  0  0  0  0  0  0
  152.6942  138.5467  158.9297 O   0  0  0  0  0  0  0  0  0  0  0  0
  151.6680  138.4878  157.9537 C   0  0  0  0  0  0  0  0  0  0  0  0
  152.0406  139.4330  156.8000 C   0  0  0  0  0  0  0  0  0  0  0  0
  150.8925  140.1746  156.2876 N   0  0  0  0  0  0  0  0  0  0  0  0
  150.3439  141.3516  156.7183 C   0  0  0  0  0  0  0  0  0  0  0  0
  150.8505  142.1197  157.7820 N   0  0  0  0  0  0  0  0  0  0  0  0
  150.7658  143.5712  157.9531 C   0  0  0  0  0  0  0  0  0  0  0  0
  152.1291  144.2855  158.0663 C   0  0  0  0  0  0  0  0  0  0  0  0
  152.7905  144.1107  159.4412 C   0  0  0  0  0  0  0  0  0  0  0  0
  153.5703  142.7961  159.6212 C   0  0  0  0  0  0  0  0  0  0  0  0
  152.9393  141.5379  158.9968 C   0  0  0  0  0  0  0  0  0  0  0  0
  151.4021  141.5096  158.9949 C   0  0  0  0  0  0  0  0  0  0  0  0
  149.2423  141.7081  156.0474 N   0  0  0  0  0  0  0  0  0  0  0  0
  149.0818  140.7010  155.1127 C   0  0  0  0  0  0  0  0  0  0  0  0
  150.0572  139.7691  155.2425 C   0  0  0  0  0  0  0  0  0  0  0  0
  150.1135  138.5708  154.3913 C   0  0  0  0  0  0  0  0  0  0  0  0
  150.9729  137.6991  154.5002 O   0  0  0  0  0  0  0  0  0  0  0  0
  149.1189  138.5224  153.4721 N   0  0  0  0  0  0  0  0  0  0  0  0
  148.1146  139.4317  153.2852 C   0  0  0  0  0  0  0  0  0  0  0  0
  147.2803  139.2535  152.3978 O   0  0  0  0  0  0  0  0  0  0  0  0
  148.0826  140.5234  154.1140 N   0  0  0  0  0  0  0  0  0  0  0  0
  147.0256  141.5260  153.9665 C   0  0  0  0  0  0  0  0  0  0  0  0
  149.1177  137.7224  152.8562 H   0  0  0  0  0  0  0  0  0  0  0  0
  153.6550  136.9267  161.7001 H   0  0  0  0  0  0  0  0  0  0  0  0
  153.6692  138.6658  161.4136 H   0  0  0  0  0  0  0  0  0  0  0  0
  154.6851  137.6026  160.4400 H   0  0  0  0  0  0  0  0  0  0  0  0
  152.6291  136.5481  159.4477 H   0  0  0  0  0  0  0  0  0  0  0  0
  151.6129  137.6098  160.4193 H   0  0  0  0  0  0  0  0  0  0  0  0
  151.5493  137.4642  157.5990 H   0  0  0  0  0  0  0  0  0  0  0  0
  150.7161  138.7792  158.3979 H   0  0  0  0  0  0  0  0  0  0  0  0
  152.7967  140.1446  157.1309 H   0  0  0  0  0  0  0  0  0  0  0  0
  152.5153  138.8873  155.9909 H   0  0  0  0  0  0  0  0  0  0  0  0
  150.2046  143.9993  157.1289 H   0  0  0  0  0  0  0  0  0  0  0  0
  150.1604  143.7904  158.8336 H   0  0  0  0  0  0  0  0  0  0  0  0
  152.8134  143.9855  157.2731 H   0  0  0  0  0  0  0  0  0  0  0  0
  151.9510  145.3507  157.9175 H   0  0  0  0  0  0  0  0  0  0  0  0
  153.4785  144.9388  159.6146 H   0  0  0  0  0  0  0  0  0  0  0  0
  152.0317  144.1980  160.2199 H   0  0  0  0  0  0  0  0  0  0  0  0
  154.5732  142.9135  159.2090 H   0  0  0  0  0  0  0  0  0  0  0  0
  153.7125  142.6322  160.6901 H   0  0  0  0  0  0  0  0  0  0  0  0
  153.3053  141.4063  157.9772 H   0  0  0  0  0  0  0  0  0  0  0  0
  153.3085  140.6715  159.5463 H   0  0  0  0  0  0  0  0  0  0  0  0
  151.0010  141.9803  159.8936 H   0  0  0  0  0  0  0  0  0  0  0  0
  151.0807  140.4699  159.0529 H   0  0  0  0  0  0  0  0  0  0  0  0
  147.1455  142.0652  153.0263 H   0  0  0  0  0  0  0  0  0  0  0  0
  147.0312  142.2612  154.7714 H   0  0  0  0  0  0  0  0  0  0  0  0
  146.0405  141.0571  153.9680 H   0  0  0  0  0  0  0  0  0  0  0  0
  1  2  1  0  0  0  0
  1 26  1  0  0  0  0
  1 27  1  0  0  0  0
  1 28  1  0  0  0  0
  2  3  1  0  0  0  0
  2 29  1  0  0  0  0
  2 30  1  0  0  0  0
  3  4  1  0  0  0  0
  4  5  1  0  0  0  0
  4 31  1  0  0  0  0
  4 32  1  0  0  0  0
  5  6  1  0  0  0  0
  5 33  1  0  0  0  0
  5 34  1  0  0  0  0
  6 17  1  0  0  0  0
  6  7  1  0  0  0  0
  7  8  1  0  0  0  0
  7 15  2  0  0  0  0
  8 14  1  0  0  0  0
  8  9  1  0  0  0  0
  9 10  1  0  0  0  0
  9 35  1  0  0  0  0
  9 36  1  0  0  0  0
 10 11  1  0  0  0  0
 10 37  1  0  0  0  0
 10 38  1  0  0  0  0
 11 12  1  0  0  0  0
 11 39  1  0  0  0  0
 11 40  1  0  0  0  0
 12 13  1  0  0  0  0
 12 41  1  0  0  0  0
 12 42  1  0  0  0  0
 13 14  1  0  0  0  0
 13 43  1  0  0  0  0
 13 44  1  0  0  0  0
 14 45  1  0  0  0  0
 14 46  1  0  0  0  0
 15 16  1  0  0  0  0
 16 23  1  0  0  0  0
 16 17  2  0  0  0  0
 17 18  1  0  0  0  0
 18 19  2  0  0  0  0
 18 20  1  0  0  0  0
 20 25  1  0  0  0  0
 20 21  1  0  0  0  0
 21 22  2  0  0  0  0
 21 23  1  0  0  0  0
 23 24  1  0  0  0  0
 24 47  1  0  0  0  0
 24 48  1  0  0  0  0
 24 49  1  0  0  0  0
M  END
> <s_m_source_file>
AV-unprocessed.smi

> <i_m_source_file_index>
508

> <i_lp_mmshare_version>
43012

> <i_f3d_flags>
0

> <s_epik_input>
W0NIM11uMWMoPU8pW25IXWMoPU8pYyhjMTIpbihbQ0gyXVtDSDJdT1tDSDJdW0NIM10pYyhuMilOM1tDSDJdW0NIMl1bQ0gyXVtDSDJdW0NIMl1bQ0gyXTM=

> <s_epik_cmdline>
J2VwaWtfcHl0aG9uJywgJy1waCcsICc3LjAnLCAnLXRuJywgJzgnLCAnLW1hJywgJzIwMCcsICctbWV0YWxfYmluZGluZycsICctaW1hZScsICc8aW5maWxlLm1hZT4nLCAnLW9tYWUnLCAnPG91dGZpbGUubWFlPic=

> <r_lp_tautomer_probability>
1

> <r_epik_Ionization_Penalty>
0.000193589

> <r_epik_Ionization_Penalty_Charging>
2.00901e-05

> <r_epik_Ionization_Penalty_Neutral>
0.000173499

> <r_epik_State_Penalty>
-0

> <r_epik_Charging_Adjusted_Penalty>
2.00901e-05

> <i_epik_Tot_Q>
0

> <i_epik_Tot_abs_Q>
0

> <r_epik_Metal_State_Penalty>
0.0191145

> <b_epik_Metal_Only>
0

> <s_lp_Force_Field>
OPLS_2005

> <r_lp_Energy>
44.1417

> <b_lp_Chiralities_Consistent>
1

> <s_lp_Variant>
AV-unprocessed.smi:508-1

> <Gold.Version>
5.8.1

> <Gold.Id.Protein>
6NUR|6NUR_protein|mol2

> <Gold.PLP.Fitness>
43.6632

> <Gold.PLP.PLP>
-42.9514

> <Gold.PLP.part.hbond>
-2.0000

> <Gold.PLP.part.metal>
0.0000

> <Gold.PLP.part.buried>
-4.2523

> <Gold.PLP.part.nonpolar>
-40.7611

> <Gold.PLP.part.repulsive>
3.6541

> <Gold.PLP.ligand.clash>
0.0000

> <Gold.PLP.ligand.torsion>
1.1691

> <Gold.PLP.Chemscore.Hbond>
1.0000

> <Gold.PLP.Chemscore.CHOScore>
0.0000

> <Gold.PLP.Chemscore.Metal>
0.0000

> <Gold.Chemscore.Hbonds>
donor molecule, donor type, donor heavy atom, donor atom, acceptor molecule, acceptor atom, score
      L1  H    20    25       P1  7948  1.00

> <Gold.PLP.Chemscore.Internal.Correction>
0.0501

> <Gold.Rescore>
     Score         DG    S(hbond)    S(metal)    S(lipo)     H(rot)  DE(clash)    DE(int)     intcor
     15.20     -16.37       0.98        0.00      99.61       1.58       0.01       1.16       ----

> <Gold.Chemscore.Fitness>
15.2000

> <Gold.Chemscore.DG>
-16.3701

> <Gold.Chemscore.ZeroCoef>
-5.4800

> <Gold.Chemscore.Hbond>
0.9826

> <Gold.Chemscore.Metal>
0.0000

> <Gold.Chemscore.Lipo>
99.6116

> <Gold.Chemscore.Internal_Hbond>
0.0000

> <Gold.Chemscore.DEClash>
0.0112

> <Gold.Chemscore.DEInternal>
1.1590

> <Gold.Chemscore.Rot>
1.5806

> <Gold.Chemscore.Internal.Correction>
   9.000000E+99

> <Gold.Chemscore.Hbonds>
donor molecule, donor type, donor heavy atom, donor atom, acceptor molecule, acceptor atom, score
      L1  H    20    25       P1  7948  0.99

> <Gold.Chemscore.Hbond.Weighted>
-3.2818

> <Gold.Chemscore.Metal.Weighted>
-0.0000

> <Gold.Chemscore.Lipo.Weighted>
-11.6546

> <Gold.Chemscore.Internal_Hbond.Weighted>
0.0000

> <Gold.Chemscore.DEClash.Weighted>
0.0112

> <Gold.Chemscore.DEInternal.Weighted>
1.1590

> <Gold.Chemscore.Rot.Weighted>
4.0463

> <Gold.Chemscore.Internal.Correction.Weighted>
   9.000000E+99

> <Gold.Protein.RotatedTorsions>
[ 6907 6896 6895 6894 ] final -156.66 input  -60.11 | X-H torsion
[ 7974 7965 7964 7962 ] final  -97.15 input  175.53 | X-H torsion
[ 8008 7997 7996 7995 ] final  123.18 input   59.86 | X-H torsion
[ 10167 10162 10161 10158 ] final   18.92 input  -65.29 | X-H torsion
[ 10718 10713 10712 10709 ] final -109.88 input   66.30 | X-H torsion
[ 10763 10752 10751 10750 ] final   44.28 input  -60.55 | X-H torsion
[ 11005 11000 10999 10996 ] final  -53.65 input  -57.11 | X-H torsion

> <Gold.Protein.ActiveResidues>
 VAL166  LYS551  ARG553  GLY616  TRP617  ASP618  TYR619  PRO620  LYS621  CYS622 
 ASP623  PHE694  ASN695  SER759  ASP760  ASP761  ALA762  ILE779  LEU786  VAL792 
 PHE793  MET794  SER795  GLU796  ALA797  LYS798  CYS799  TRP800  GLU811  SER814 

> <Gold.Protein.RotatedAtoms>
  151.2911  133.4165  159.2632 H   0  0  0  0  0  0  0  0  0  0  0  0  # atno 6907 bound_to 6896
  151.0277  134.9516  159.8104 H   0  0  0  0  0  0  0  0  0  0  0  0  # atno 6908 bound_to 6896
  152.5339  134.2872  159.9082 H   0  0  0  0  0  0  0  0  0  0  0  0  # atno 6909 bound_to 6896
  145.3375  140.9453  143.2627 H   0  0  0  0  0  0  0  0  0  0  0  0  # atno 7974 bound_to 7965
  156.2756  140.2768  156.1587 H   0  0  0  0  0  0  0  0  0  0  0  0  # atno 8008 bound_to 7997
  155.0777  140.0387  157.2647 H   0  0  0  0  0  0  0  0  0  0  0  0  # atno 8009 bound_to 7997
  154.6989  140.2645  155.6744 H   0  0  0  0  0  0  0  0  0  0  0  0  # atno 8010 bound_to 7997
  140.5618  143.9323  150.6648 H   0  0  0  0  0  0  0  0  0  0  0  0  # atno 10167 bound_to 10162
  156.0560  130.5786  150.8160 H   0  0  0  0  0  0  0  0  0  0  0  0  # atno 10718 bound_to 10713
  152.9844  135.6075  154.3249 H   0  0  0  0  0  0  0  0  0  0  0  0  # atno 10763 bound_to 10752
  154.2956  135.2774  155.2636 H   0  0  0  0  0  0  0  0  0  0  0  0  # atno 10764 bound_to 10752
  154.4912  135.5891  153.6517 H   0  0  0  0  0  0  0  0  0  0  0  0  # atno 10765 bound_to 10752
  141.0987  133.6621  156.4204 H   0  0  0  0  0  0  0  0  0  0  0  0  # atno 11005 bound_to 11000
  144.8816  139.4896  143.6720 LP  0  0  0  0  0  0  0  0  0  0  0  0  # atno 17320 bound_to 7965
  146.3021  139.7460  142.9083 LP  0  0  0  0  0  0  0  0  0  0  0  0  # atno 17321 bound_to 7965
  140.2776  143.3412  152.1181 LP  0  0  0  0  0  0  0  0  0  0  0  0  # atno 17342 bound_to 10162
  139.5074  144.6830  151.5959 LP  0  0  0  0  0  0  0  0  0  0  0  0  # atno 17343 bound_to 10162
  157.5530  131.0944  150.9668 LP  0  0  0  0  0  0  0  0  0  0  0  0  # atno 17370 bound_to 10713
  156.9923  130.5568  149.5304 LP  0  0  0  0  0  0  0  0  0  0  0  0  # atno 17371 bound_to 10713
  140.5077  134.6425  157.5272 LP  0  0  0  0  0  0  0  0  0  0  0  0  # atno 17394 bound_to 11000
  139.9831  134.7105  155.9823 LP  0  0  0  0  0  0  0  0  0  0  0  0  # atno 17395 bound_to 11000

$$$$
