AV-unprocessed.smi:241|AV-procd|sdf|1842|dock9
  -GOLD-   2262020463D 1   1.00000     0.00000
 Structure written by MMmdl.
 54 57  0  0  0  0  0  0  0  0  1 V2000
  151.8647  145.3546  159.3123 C   0  0  0  0  0  0  0  0  0  0  0  0
  151.8049  144.0871  159.9458 O   0  0  0  0  0  0  0  0  0  0  0  0
  153.0772  143.5074  160.1967 C   0  0  0  0  0  0  0  0  0  0  0  0
  152.9574  141.9845  160.3996 C   0  0  2  0  0  0  0  0  0  0  0  0
  154.1132  141.3411  161.1645 C   0  0  0  0  0  0  0  0  0  0  0  0
  153.9505  139.8682  160.8016 C   0  0  2  0  0  0  0  0  0  0  0  0
  155.1766  139.1689  160.9578 O   0  0  0  0  0  0  0  0  0  0  0  0
  156.2627  139.7784  160.2794 C   0  0  0  0  0  0  0  0  0  0  0  0
  153.4587  139.9185  159.3470 C   0  0  0  0  0  0  0  0  0  0  0  0
  152.9197  141.2584  159.1334 N   0  0  0  0  0  0  0  0  0  0  0  0
  151.7480  141.2944  158.4616 C   0  0  0  0  0  0  0  0  0  0  0  0
  150.6529  141.8691  159.0257 N   0  0  0  0  0  0  0  0  0  0  0  0
  149.4978  141.9017  158.3538 C   0  0  0  0  0  0  0  0  0  0  0  0
  149.2254  141.4239  157.1371 N   0  0  0  0  0  0  0  0  0  0  0  0
  150.3239  140.8424  156.5743 C   0  0  0  0  0  0  0  0  0  0  0  0
  151.6151  140.7408  157.1623 C   0  0  0  0  0  0  0  0  0  0  0  0
  152.4891  140.1035  156.2917 N   0  0  0  0  0  0  0  0  0  0  0  0
  151.7559  139.8468  155.2425 C   0  0  0  0  0  0  0  0  0  0  0  0
  150.4362  140.2304  155.3384 N   0  0  0  0  0  0  0  0  0  0  0  0
  149.4259  140.1042  154.3294 C   0  0  0  0  0  0  0  0  0  0  0  0
  147.9830  140.5324  154.6018 C   0  0  0  0  0  0  0  0  0  0  0  0
  147.4829  139.4223  153.6484 C   0  0  0  0  0  0  0  0  0  0  0  0
  146.2521  138.6253  154.1144 C   0  0  0  0  0  0  0  0  0  0  0  0
  145.1614  139.4663  154.4298 O   0  0  0  0  0  0  0  0  0  0  0  0
  147.3023  139.8148  152.1669 C   0  0  0  0  0  0  0  0  0  0  0  0
  147.1454  138.6844  151.3345 O   0  0  0  0  0  0  0  0  0  0  0  0
  148.8361  138.7418  153.9555 C   0  0  0  0  0  0  0  0  0  0  0  0
  152.0360  141.7832  160.9485 H   0  0  0  0  0  0  0  0  0  0  0  0
  153.1761  139.4378  161.4397 H   0  0  0  0  0  0  0  0  0  0  0  0
  150.8548  145.7390  159.1697 H   0  0  0  0  0  0  0  0  0  0  0  0
  152.3340  145.2782  158.3307 H   0  0  0  0  0  0  0  0  0  0  0  0
  152.4185  146.0802  159.9070 H   0  0  0  0  0  0  0  0  0  0  0  0
  153.6859  143.7037  159.3136 H   0  0  0  0  0  0  0  0  0  0  0  0
  153.5946  143.9824  161.0325 H   0  0  0  0  0  0  0  0  0  0  0  0
  155.0689  141.7166  160.7948 H   0  0  0  0  0  0  0  0  0  0  0  0
  154.0662  141.5178  162.2393 H   0  0  0  0  0  0  0  0  0  0  0  0
  157.1648  139.1856  160.4290 H   0  0  0  0  0  0  0  0  0  0  0  0
  156.4583  140.7831  160.6556 H   0  0  0  0  0  0  0  0  0  0  0  0
  156.0745  139.8372  159.2068 H   0  0  0  0  0  0  0  0  0  0  0  0
  154.2951  139.7880  158.6597 H   0  0  0  0  0  0  0  0  0  0  0  0
  152.7396  139.1237  159.1427 H   0  0  0  0  0  0  0  0  0  0  0  0
  148.6732  142.3766  158.8647 H   0  0  0  0  0  0  0  0  0  0  0  0
  152.1614  139.3613  154.3667 H   0  0  0  0  0  0  0  0  0  0  0  0
  149.8173  140.6131  153.4470 H   0  0  0  0  0  0  0  0  0  0  0  0
  147.6876  140.3656  155.6395 H   0  0  0  0  0  0  0  0  0  0  0  0
  147.7511  141.5519  154.2926 H   0  0  0  0  0  0  0  0  0  0  0  0
  145.9369  137.9072  153.3565 H   0  0  0  0  0  0  0  0  0  0  0  0
  146.4838  138.0445  155.0077 H   0  0  0  0  0  0  0  0  0  0  0  0
  144.7149  139.6931  153.6283 H   0  0  0  0  0  0  0  0  0  0  0  0
  146.4250  140.4471  152.0287 H   0  0  0  0  0  0  0  0  0  0  0  0
  148.1522  140.3965  151.8085 H   0  0  0  0  0  0  0  0  0  0  0  0
  146.2933  138.7317  150.9269 H   0  0  0  0  0  0  0  0  0  0  0  0
  149.3154  138.2623  153.1013 H   0  0  0  0  0  0  0  0  0  0  0  0
  148.7892  138.0606  154.8072 H   0  0  0  0  0  0  0  0  0  0  0  0
  1  2  1  0  0  0  0
  1 30  1  0  0  0  0
  1 31  1  0  0  0  0
  1 32  1  0  0  0  0
  2  3  1  0  0  0  0
  3  4  1  0  0  0  0
  3 33  1  0  0  0  0
  3 34  1  0  0  0  0
  4 28  1  0  0  0  0
  4 10  1  0  0  0  0
  4  5  1  0  0  0  0
  5  6  1  0  0  0  0
  5 35  1  0  0  0  0
  5 36  1  0  0  0  0
  6 29  1  0  0  0  0
  6  7  1  0  0  0  0
  6  9  1  0  0  0  0
  7  8  1  0  0  0  0
  8 37  1  0  0  0  0
  8 38  1  0  0  0  0
  8 39  1  0  0  0  0
  9 10  1  0  0  0  0
  9 40  1  0  0  0  0
  9 41  1  0  0  0  0
 10 11  1  0  0  0  0
 11 16  1  0  0  0  0
 11 12  2  0  0  0  0
 12 13  1  0  0  0  0
 13 14  2  0  0  0  0
 13 42  1  0  0  0  0
 14 15  1  0  0  0  0
 15 19  1  0  0  0  0
 15 16  2  0  0  0  0
 16 17  1  0  0  0  0
 17 18  2  0  0  0  0
 18 19  1  0  0  0  0
 18 43  1  0  0  0  0
 19 20  1  0  0  0  0
 20 27  1  0  0  0  0
 20 21  1  0  0  0  0
 20 44  1  0  0  0  0
 21 22  1  0  0  0  0
 21 45  1  0  0  0  0
 21 46  1  0  0  0  0
 22 23  1  0  0  0  0
 22 25  1  0  0  0  0
 22 27  1  0  0  0  0
 23 24  1  0  0  0  0
 23 47  1  0  0  0  0
 23 48  1  0  0  0  0
 24 49  1  0  0  0  0
 25 26  1  0  0  0  0
 25 50  1  0  0  0  0
 25 51  1  0  0  0  0
 26 52  1  0  0  0  0
 27 53  1  0  0  0  0
 27 54  1  0  0  0  0
M  END
> <s_m_source_file>
AV-unprocessed.smi

> <i_m_source_file_index>
241

> <i_lp_mmshare_version>
43012

> <i_f3d_flags>
0

> <s_epik_input>
W0NIM11PW0NIMl1bQ0BASF0xW0NIMl1bQ0BASF0oT1tDSDNdKVtDSDJdTjFjKG5bY0hdbjIpYyhjMjMpbltjSF1uM1tDSF0oW0NIMl00KVtDSDJdQzQoW0NIMl1bT0hdKVtDSDJdW09IXQ==

> <s_epik_cmdline>
J2VwaWtfcHl0aG9uJywgJy1waCcsICc3LjAnLCAnLXRuJywgJzgnLCAnLW1hJywgJzIwMCcsICctbWV0YWxfYmluZGluZycsICctaW1hZScsICc8aW5maWxlLm1hZT4nLCAnLW9tYWUnLCAnPG91dGZpbGUubWFlPic=

> <r_lp_tautomer_probability>
1

> <r_epik_Ionization_Penalty>
0.00568677

> <r_epik_Ionization_Penalty_Charging>
0

> <r_epik_Ionization_Penalty_Neutral>
0.00568677

> <r_epik_State_Penalty>
0.00400877

> <r_epik_Charging_Adjusted_Penalty>
0.00400877

> <i_epik_Tot_Q>
0

> <i_epik_Tot_abs_Q>
0

> <r_epik_Metal_State_Penalty>
-0

> <b_epik_Metal_Only>
0

> <s_lp_Force_Field>
OPLS_2005

> <r_lp_Energy>
58.6567

> <b_lp_Chiralities_Consistent>
1

> <s_lp_Variant>
AV-unprocessed.smi:241-3

> <Gold.Version>
5.8.1

> <Gold.Id.Protein>
6NUR|6NUR_protein|mol2

> <Gold.PLP.Fitness>
55.4090

> <Gold.PLP.PLP>
-47.3898

> <Gold.PLP.part.hbond>
-5.5435

> <Gold.PLP.part.metal>
0.0000

> <Gold.PLP.part.buried>
-0.2753

> <Gold.PLP.part.nonpolar>
-41.1761

> <Gold.PLP.part.repulsive>
0.1203

> <Gold.PLP.ligand.clash>
0.0000

> <Gold.PLP.ligand.torsion>
0.8523

> <Gold.PLP.Chemscore.Hbond>
3.0000

> <Gold.PLP.Chemscore.CHOScore>
0.0000

> <Gold.PLP.Chemscore.Metal>
0.0000

> <Gold.Chemscore.Hbonds>
donor molecule, donor type, donor heavy atom, donor atom, acceptor molecule, acceptor atom, score
      L1  H    24    49       P1 10175  1.00
      P1  H  7954  7966       L1    26  1.00
      P1  H  7997  8009       L1    17  1.00

> <Gold.PLP.Chemscore.Internal.Correction>
0.7238

> <Gold.Rescore>
     Score         DG    S(hbond)    S(metal)    S(lipo)     H(rot)  DE(clash)    DE(int)     intcor
     11.42     -16.09       2.49        0.00     106.64       3.97       1.92       2.75       ----

> <Gold.Chemscore.Fitness>
11.4216

> <Gold.Chemscore.DG>
-16.0937

> <Gold.Chemscore.ZeroCoef>
-5.4800

> <Gold.Chemscore.Hbond>
2.4872

> <Gold.Chemscore.Metal>
0.0000

> <Gold.Chemscore.Lipo>
106.6396

> <Gold.Chemscore.Internal_Hbond>
0.0000

> <Gold.Chemscore.DEClash>
1.9234

> <Gold.Chemscore.DEInternal>
2.7487

> <Gold.Chemscore.Rot>
3.9727

> <Gold.Chemscore.Internal.Correction>
   9.000000E+99

> <Gold.Chemscore.Hbonds>
donor molecule, donor type, donor heavy atom, donor atom, acceptor molecule, acceptor atom, score
      L1  H    24    49       P1 10175  1.00
      P1  H  7954  7966       L1    26  0.24
      P1  H  7997  8009       L1    17  0.98

> <Gold.Chemscore.Hbond.Weighted>
-8.3071

> <Gold.Chemscore.Metal.Weighted>
-0.0000

> <Gold.Chemscore.Lipo.Weighted>
-12.4768

> <Gold.Chemscore.Internal_Hbond.Weighted>
0.0000

> <Gold.Chemscore.DEClash.Weighted>
1.9234

> <Gold.Chemscore.DEInternal.Weighted>
2.7487

> <Gold.Chemscore.Rot.Weighted>
10.1702

> <Gold.Chemscore.Internal.Correction.Weighted>
   9.000000E+99

> <Gold.Protein.RotatedTorsions>
[ 6907 6896 6895 6894 ] final   97.72 input  -60.11 | X-H torsion
[ 7974 7965 7964 7962 ] final -169.16 input  175.53 | X-H torsion
[ 8008 7997 7996 7995 ] final -156.06 input   59.86 | X-H torsion
[ 10167 10162 10161 10158 ] final   46.18 input  -65.29 | X-H torsion
[ 10718 10713 10712 10709 ] final  -52.48 input   66.30 | X-H torsion
[ 10763 10752 10751 10750 ] final  134.59 input  -60.55 | X-H torsion
[ 11005 11000 10999 10996 ] final -169.83 input  -57.11 | X-H torsion

> <Gold.Protein.ActiveResidues>
 VAL166  LYS551  ARG553  GLY616  TRP617  ASP618  TYR619  PRO620  LYS621  CYS622 
 ASP623  PHE694  ASN695  SER759  ASP760  ASP761  ALA762  ILE779  LEU786  VAL792 
 PHE793  MET794  SER795  GLU796  ALA797  LYS798  CYS799  TRP800  GLU811  SER814 

> <Gold.Protein.RotatedAtoms>
  152.5419  134.0690  159.8185 H   0  0  0  0  0  0  0  0  0  0  0  0  # atno 6907 bound_to 6896
  151.0807  133.5384  159.2628 H   0  0  0  0  0  0  0  0  0  0  0  0  # atno 6908 bound_to 6896
  151.2213  135.0528  159.9005 H   0  0  0  0  0  0  0  0  0  0  0  0  # atno 6909 bound_to 6896
  144.7190  140.2262  143.6310 H   0  0  0  0  0  0  0  0  0  0  0  0  # atno 7974 bound_to 7965
  155.7113  140.0778  157.2370 H   0  0  0  0  0  0  0  0  0  0  0  0  # atno 8008 bound_to 7997
  154.4058  140.1629  156.2353 H   0  0  0  0  0  0  0  0  0  0  0  0  # atno 8009 bound_to 7997
  155.9280  140.3393  155.6228 H   0  0  0  0  0  0  0  0  0  0  0  0  # atno 8010 bound_to 7997
  140.3165  144.2757  150.6190 H   0  0  0  0  0  0  0  0  0  0  0  0  # atno 10167 bound_to 10162
  156.1618  130.4149  149.9782 H   0  0  0  0  0  0  0  0  0  0  0  0  # atno 10718 bound_to 10713
  153.8260  135.3110  155.3414 H   0  0  0  0  0  0  0  0  0  0  0  0  # atno 10763 bound_to 10752
  154.7993  135.4736  154.0239 H   0  0  0  0  0  0  0  0  0  0  0  0  # atno 10764 bound_to 10752
  153.1664  135.6870  153.8760 H   0  0  0  0  0  0  0  0  0  0  0  0  # atno 10765 bound_to 10752
  140.5263  134.5660  157.5062 H   0  0  0  0  0  0  0  0  0  0  0  0  # atno 11005 bound_to 11000
  145.8454  139.2149  143.1803 LP  0  0  0  0  0  0  0  0  0  0  0  0  # atno 17320 bound_to 7965
  146.0309  140.8259  142.9876 LP  0  0  0  0  0  0  0  0  0  0  0  0  # atno 17321 bound_to 7965
  140.5522  143.2204  151.7908 LP  0  0  0  0  0  0  0  0  0  0  0  0  # atno 17342 bound_to 10162
  139.4883  144.4462  151.9707 LP  0  0  0  0  0  0  0  0  0  0  0  0  # atno 17343 bound_to 10162
  156.7609  130.9150  151.3641 LP  0  0  0  0  0  0  0  0  0  0  0  0  # atno 17370 bound_to 10713
  157.6738  130.9075  150.0101 LP  0  0  0  0  0  0  0  0  0  0  0  0  # atno 17371 bound_to 10713
  139.9578  134.7505  156.0303 LP  0  0  0  0  0  0  0  0  0  0  0  0  # atno 17394 bound_to 11000
  141.1306  133.6587  156.3454 LP  0  0  0  0  0  0  0  0  0  0  0  0  # atno 17395 bound_to 11000

$$$$
