AV-unprocessed.smi:3263|AV-procd|sdf|12487|dock5
  -GOLD-   2272018383D 1   1.00000     0.00000
 Structure written by MMmdl.
 41 43  0  0  0  0  0  0  0  0  1 V2000
  151.5580  140.2252  155.3192 O   0  0  0  0  0  0  0  0  0  0  0  0
  151.1145  140.9308  156.2259 C   0  0  0  0  0  0  0  0  0  0  0  0
  151.8955  141.1072  157.5335 C   0  0  0  0  0  0  0  0  0  0  0  0
  151.3401  142.2205  158.4511 C   0  0  1  0  0  0  0  0  0  0  0  0
  152.0261  142.3021  159.8365 C   0  0  0  0  0  0  0  0  0  0  0  0
  152.4913  143.7673  159.9102 C   0  0  2  0  0  0  0  0  0  0  0  0
  151.2661  144.6917  160.0381 C   0  0  0  0  0  0  0  0  0  0  0  0
  150.6459  144.6290  158.6294 C   0  0  0  0  0  0  0  0  0  0  0  0
  151.5745  143.6435  157.8937 C   0  0  1  0  0  0  0  0  0  0  0  0
  152.9339  144.0212  158.4751 C   0  0  0  0  0  0  0  0  0  0  0  0
  149.9374  141.5722  156.1516 N   0  0  0  0  0  0  0  0  0  0  0  0
  149.0160  141.5280  155.0185 C   0  0  0  0  0  0  0  0  0  0  0  0
  147.5823  141.1472  155.4374 C   0  0  0  0  0  0  0  0  0  0  0  0
  146.5413  142.1972  155.0872 C   0  0  0  0  0  0  0  0  0  0  0  0
  146.4995  142.7710  153.7980 C   0  0  0  0  0  0  0  0  0  0  0  0
  145.5318  143.7598  153.5351 C   0  0  0  0  0  0  0  0  0  0  0  0
  144.6465  144.1330  154.5646 C   0  0  0  0  0  0  0  0  0  0  0  0
  144.7679  143.4969  155.8160 C   0  0  0  0  0  0  0  0  0  0  0  0
  145.6907  142.5466  156.0784 N   0  0  0  0  0  0  0  0  0  0  0  0
  151.9154  140.1565  158.0678 H   0  0  0  0  0  0  0  0  0  0  0  0
  152.9294  141.3349  157.2718 H   0  0  0  0  0  0  0  0  0  0  0  0
  150.2677  142.0596  158.5751 H   0  0  0  0  0  0  0  0  0  0  0  0
  151.3486  142.0390  160.6497 H   0  0  0  0  0  0  0  0  0  0  0  0
  152.8866  141.6340  159.8961 H   0  0  0  0  0  0  0  0  0  0  0  0
  153.2556  143.9450  160.6671 H   0  0  0  0  0  0  0  0  0  0  0  0
  150.5753  144.3546  160.8120 H   0  0  0  0  0  0  0  0  0  0  0  0
  151.5693  145.7113  160.2792 H   0  0  0  0  0  0  0  0  0  0  0  0
  149.6075  144.2962  158.6438 H   0  0  0  0  0  0  0  0  0  0  0  0
  150.6728  145.6114  158.1564 H   0  0  0  0  0  0  0  0  0  0  0  0
  151.5017  143.7126  156.8079 H   0  0  0  0  0  0  0  0  0  0  0  0
  153.2127  145.0595  158.2860 H   0  0  0  0  0  0  0  0  0  0  0  0
  153.7466  143.3698  158.1502 H   0  0  0  0  0  0  0  0  0  0  0  0
  149.6538  142.1286  156.9452 H   0  0  0  0  0  0  0  0  0  0  0  0
  149.0063  142.5160  154.5580 H   0  0  0  0  0  0  0  0  0  0  0  0
  149.3800  140.8417  154.2521 H   0  0  0  0  0  0  0  0  0  0  0  0
  147.3042  140.2002  154.9733 H   0  0  0  0  0  0  0  0  0  0  0  0
  147.5527  140.9733  156.5137 H   0  0  0  0  0  0  0  0  0  0  0  0
  147.1987  142.4704  153.0317 H   0  0  0  0  0  0  0  0  0  0  0  0
  145.4719  144.2253  152.5625 H   0  0  0  0  0  0  0  0  0  0  0  0
  143.8932  144.8890  154.3994 H   0  0  0  0  0  0  0  0  0  0  0  0
  144.1057  143.7579  156.6282 H   0  0  0  0  0  0  0  0  0  0  0  0
  1  2  2  0  0  0  0
  2  3  1  0  0  0  0
  2 11  1  0  0  0  0
  3  4  1  0  0  0  0
  3 20  1  0  0  0  0
  3 21  1  0  0  0  0
  4  9  1  0  0  0  0
  4  5  1  0  0  0  0
  4 22  1  0  0  0  0
  5  6  1  0  0  0  0
  5 23  1  0  0  0  0
  5 24  1  0  0  0  0
  6 10  1  0  0  0  0
  6  7  1  0  0  0  0
  6 25  1  0  0  0  0
  7  8  1  0  0  0  0
  7 26  1  0  0  0  0
  7 27  1  0  0  0  0
  8  9  1  0  0  0  0
  8 28  1  0  0  0  0
  8 29  1  0  0  0  0
  9 10  1  0  0  0  0
  9 30  1  0  0  0  0
 10 31  1  0  0  0  0
 10 32  1  0  0  0  0
 11 12  1  0  0  0  0
 11 33  1  0  0  0  0
 12 13  1  0  0  0  0
 12 34  1  0  0  0  0
 12 35  1  0  0  0  0
 13 14  1  0  0  0  0
 13 36  1  0  0  0  0
 13 37  1  0  0  0  0
 14 19  1  0  0  0  0
 14 15  2  0  0  0  0
 15 16  1  0  0  0  0
 15 38  1  0  0  0  0
 16 17  2  0  0  0  0
 16 39  1  0  0  0  0
 17 18  1  0  0  0  0
 17 40  1  0  0  0  0
 18 19  2  0  0  0  0
 18 41  1  0  0  0  0
M  END
> <s_m_source_file>
AV-unprocessed.smi

> <i_m_source_file_index>
3263

> <i_lp_mmshare_version>
43012

> <i_f3d_flags>
0

> <s_epik_input>
W0NIMl0xW0NIMl1bQ0BASF0oW0NIMl0yKVtDQEBIXShbQ0gyXVtDQEhdMTIpW0NIMl1DKD1PKVtOSF1bQ0gyXVtDSDJdYzNbY0hdW2NIXVtjSF1bY0hdbjM=

> <s_epik_cmdline>
J2VwaWtfcHl0aG9uJywgJy1waCcsICc3LjAnLCAnLXRuJywgJzgnLCAnLW1hJywgJzIwMCcsICctbWV0YWxfYmluZGluZycsICctaW1hZScsICc8aW5maWxlLm1hZT4nLCAnLW9tYWUnLCAnPG91dGZpbGUubWFlPic=

> <r_epik_Ionization_Penalty>
0.0273541

> <r_epik_Ionization_Penalty_Charging>
0

> <r_epik_Ionization_Penalty_Neutral>
0.0273541

> <r_epik_State_Penalty>
0.0223838

> <r_epik_Charging_Adjusted_Penalty>
0.0223838

> <i_epik_Tot_Q>
0

> <i_epik_Tot_abs_Q>
0

> <r_epik_Metal_State_Penalty>
0.0213927

> <b_epik_Metal_Only>
0

> <s_lp_Force_Field>
OPLS_2005

> <r_lp_Energy>
47.5771

> <b_lp_Chiralities_Consistent>
1

> <s_lp_Variant>
AV-unprocessed.smi:3263-2

> <Gold.Version>
5.8.1

> <Gold.Id.Protein>
6NUR|6NUR_protein|mol2

> <Gold.PLP.Fitness>
47.0034

> <Gold.PLP.PLP>
-45.4210

> <Gold.PLP.part.hbond>
-1.0053

> <Gold.PLP.part.metal>
0.0000

> <Gold.PLP.part.buried>
-7.8581

> <Gold.PLP.part.nonpolar>
-37.4842

> <Gold.PLP.part.repulsive>
0.2357

> <Gold.PLP.ligand.clash>
0.0000

> <Gold.PLP.ligand.torsion>
0.6822

> <Gold.PLP.Chemscore.Hbond>
0.9600

> <Gold.PLP.Chemscore.CHOScore>
0.0000

> <Gold.PLP.Chemscore.Metal>
0.0000

> <Gold.Chemscore.Hbonds>
donor molecule, donor type, donor heavy atom, donor atom, acceptor molecule, acceptor atom, score
      P1  H  7989  7998       L1     1  0.94

> <Gold.PLP.Chemscore.Internal.Correction>
0.0667

> <Gold.Rescore>
     Score         DG    S(hbond)    S(metal)    S(lipo)     H(rot)  DE(clash)    DE(int)     intcor
     18.92     -19.61       0.95        0.00     125.55       1.46       0.10       0.59       ----

> <Gold.Chemscore.Fitness>
18.9232

> <Gold.Chemscore.DG>
-19.6142

> <Gold.Chemscore.ZeroCoef>
-5.4800

> <Gold.Chemscore.Hbond>
0.9494

> <Gold.Chemscore.Metal>
0.0000

> <Gold.Chemscore.Lipo>
125.5499

> <Gold.Chemscore.Internal_Hbond>
0.0000

> <Gold.Chemscore.DEClash>
0.0991

> <Gold.Chemscore.DEInternal>
0.5919

> <Gold.Chemscore.Rot>
1.4555

> <Gold.Chemscore.Internal.Correction>
   9.000000E+99

> <Gold.Chemscore.Hbonds>
donor molecule, donor type, donor heavy atom, donor atom, acceptor molecule, acceptor atom, score
      P1  H  7989  7998       L1     1  0.89

> <Gold.Chemscore.Hbond.Weighted>
-3.1709

> <Gold.Chemscore.Metal.Weighted>
-0.0000

> <Gold.Chemscore.Lipo.Weighted>
-14.6893

> <Gold.Chemscore.Internal_Hbond.Weighted>
0.0000

> <Gold.Chemscore.DEClash.Weighted>
0.0991

> <Gold.Chemscore.DEInternal.Weighted>
0.5919

> <Gold.Chemscore.Rot.Weighted>
3.7260

> <Gold.Chemscore.Internal.Correction.Weighted>
   9.000000E+99

> <Gold.Protein.RotatedTorsions>
[ 6907 6896 6895 6894 ] final  174.66 input  -60.11 | X-H torsion
[ 7974 7965 7964 7962 ] final -149.91 input  175.53 | X-H torsion
[ 8008 7997 7996 7995 ] final  -84.21 input   59.86 | X-H torsion
[ 10167 10162 10161 10158 ] final -108.32 input  -65.29 | X-H torsion
[ 10718 10713 10712 10709 ] final -105.91 input   66.30 | X-H torsion
[ 10763 10752 10751 10750 ] final  -65.93 input  -60.55 | X-H torsion
[ 11005 11000 10999 10996 ] final  -33.60 input  -57.11 | X-H torsion

> <Gold.Protein.ActiveResidues>
 VAL166  LYS551  ARG553  GLY616  TRP617  ASP618  TYR619  PRO620  LYS621  CYS622 
 ASP623  PHE694  ASN695  SER759  ASP760  ASP761  ALA762  ILE779  LEU786  VAL792 
 PHE793  MET794  SER795  GLU796  ALA797  LYS798  CYS799  TRP800  GLU811  SER814 

> <Gold.Protein.RotatedAtoms>
  151.7487  133.3326  159.3385 H   0  0  0  0  0  0  0  0  0  0  0  0  # atno 6907 bound_to 6896
  150.7544  134.6212  159.6146 H   0  0  0  0  0  0  0  0  0  0  0  0  # atno 6908 bound_to 6896
  152.3483  134.7043  160.0295 H   0  0  0  0  0  0  0  0  0  0  0  0  # atno 6909 bound_to 6896
  144.7939  140.5002  143.5753 H   0  0  0  0  0  0  0  0  0  0  0  0  # atno 7974 bound_to 7965
  154.6274  140.0608  156.9690 H   0  0  0  0  0  0  0  0  0  0  0  0  # atno 8008 bound_to 7997
  155.1721  140.3292  155.4372 H   0  0  0  0  0  0  0  0  0  0  0  0  # atno 8009 bound_to 7997
  156.2464  140.1912  156.6822 H   0  0  0  0  0  0  0  0  0  0  0  0  # atno 8010 bound_to 7997
  140.1674  143.4070  152.1380 H   0  0  0  0  0  0  0  0  0  0  0  0  # atno 10167 bound_to 10162
  156.0366  130.5587  150.7606 H   0  0  0  0  0  0  0  0  0  0  0  0  # atno 10718 bound_to 10713
  154.3523  135.6134  153.5649 H   0  0  0  0  0  0  0  0  0  0  0  0  # atno 10763 bound_to 10752
  152.9797  135.5795  154.4729 H   0  0  0  0  0  0  0  0  0  0  0  0  # atno 10764 bound_to 10752
  154.4452  135.2851  155.1797 H   0  0  0  0  0  0  0  0  0  0  0  0  # atno 10765 bound_to 10752
  140.9648  133.7143  156.1427 H   0  0  0  0  0  0  0  0  0  0  0  0  # atno 11005 bound_to 11000
  145.5723  139.1484  143.3281 LP  0  0  0  0  0  0  0  0  0  0  0  0  # atno 17320 bound_to 7965
  146.2201  140.5856  142.9021 LP  0  0  0  0  0  0  0  0  0  0  0  0  # atno 17321 bound_to 7965
  139.5353  144.7203  151.4914 LP  0  0  0  0  0  0  0  0  0  0  0  0  # atno 17342 bound_to 10162
  140.6604  143.8511  150.6881 LP  0  0  0  0  0  0  0  0  0  0  0  0  # atno 17343 bound_to 10162
  157.5126  131.0926  151.0179 LP  0  0  0  0  0  0  0  0  0  0  0  0  # atno 17370 bound_to 10713
  157.0530  130.5795  149.5373 LP  0  0  0  0  0  0  0  0  0  0  0  0  # atno 17371 bound_to 10713
  140.7415  134.4145  157.5554 LP  0  0  0  0  0  0  0  0  0  0  0  0  # atno 17394 bound_to 11000
  139.8891  134.8840  156.2441 LP  0  0  0  0  0  0  0  0  0  0  0  0  # atno 17395 bound_to 11000

$$$$
