AV-unprocessed.smi:2775|AV-procd|sdf|10701|dock10
  -GOLD-   2272015143D 1   1.00000     0.00000
 Structure written by MMmdl.
 43 46  0  0  0  0  0  0  0  0  2 V2000
  147.2699  130.0417  152.9770 C   0  0  0  0  0  0  0  0  0  0  0  0
  148.2491  130.9333  153.7159 C   0  0  0  0  0  0  0  0  0  0  0  0
  149.1278  130.3419  154.5549 N   0  3  0  0  0  0  0  0  0  0  0  0
  150.0489  131.0308  155.2597 C   0  0  0  0  0  0  0  0  0  0  0  0
  150.1203  132.4325  155.1427 C   0  0  0  0  0  0  0  0  0  0  0  0
  149.2114  133.1071  154.2884 C   0  0  0  0  0  0  0  0  0  0  0  0
  149.2121  134.5161  154.0942 N   0  0  0  0  0  0  0  0  0  0  0  0
  149.4349  135.5062  154.9798 C   0  0  0  0  0  0  0  0  0  0  0  0
  149.6885  135.3417  156.1708 O   0  0  0  0  0  0  0  0  0  0  0  0
  149.3480  136.7380  154.4487 N   0  0  0  0  0  0  0  0  0  0  0  0
  149.5341  138.0166  155.1367 C   0  0  1  0  0  0  0  0  0  0  0  0
  150.6935  138.8372  154.5409 C   0  0  2  0  0  0  0  0  0  0  0  0
  151.9027  139.1441  155.3824 C   0  0  0  0  0  0  0  0  0  0  0  0
  151.6104  140.5555  155.8991 C   0  0  0  0  0  0  0  0  0  0  0  0
  150.1937  140.6881  155.8054 O   0  0  0  0  0  0  0  0  0  0  0  0
  149.7833  140.0589  154.5951 C   0  0  2  0  0  0  0  0  0  0  0  0
  148.5629  139.1370  154.7066 C   0  0  0  0  0  0  0  0  0  0  0  0
  147.5951  138.9963  153.5161 C   0  0  0  0  0  0  0  0  0  0  0  0
  146.4400  138.8936  154.5160 C   0  0  0  0  0  0  0  0  0  0  0  0
  147.3542  139.5245  155.5704 C   0  0  0  0  0  0  0  0  0  0  0  0
  148.2717  132.3389  153.5569 C   0  0  0  0  0  0  0  0  0  0  0  0
  147.1551  133.1088  152.4793 Cl  0  0  0  0  0  0  0  0  0  0  0  0
  146.2452  130.3026  153.2429 H   0  0  0  0  0  0  0  0  0  0  0  0
  147.4258  128.9901  153.2210 H   0  0  0  0  0  0  0  0  0  0  0  0
  147.3870  130.1596  151.8995 H   0  0  0  0  0  0  0  0  0  0  0  0
  150.7016  130.4432  155.8889 H   0  0  0  0  0  0  0  0  0  0  0  0
  150.8786  132.9563  155.7033 H   0  0  0  0  0  0  0  0  0  0  0  0
  148.9551  134.8184  153.1654 H   0  0  0  0  0  0  0  0  0  0  0  0
  149.1464  136.7939  153.4605 H   0  0  0  0  0  0  0  0  0  0  0  0
  149.6190  137.9403  156.2229 H   0  0  0  0  0  0  0  0  0  0  0  0
  150.9172  138.5579  153.5095 H   0  0  0  0  0  0  0  0  0  0  0  0
  151.9914  138.4387  156.2093 H   0  0  0  0  0  0  0  0  0  0  0  0
  152.8313  139.1096  154.8123 H   0  0  0  0  0  0  0  0  0  0  0  0
  151.9618  140.7114  156.9193 H   0  0  0  0  0  0  0  0  0  0  0  0
  152.0802  141.3028  155.2579 H   0  0  0  0  0  0  0  0  0  0  0  0
  149.8352  140.6983  153.7130 H   0  0  0  0  0  0  0  0  0  0  0  0
  147.5391  139.9048  152.9145 H   0  0  0  0  0  0  0  0  0  0  0  0
  147.7306  138.1171  152.8865 H   0  0  0  0  0  0  0  0  0  0  0  0
  145.5638  139.4895  154.2593 H   0  0  0  0  0  0  0  0  0  0  0  0
  146.1716  137.8627  154.7489 H   0  0  0  0  0  0  0  0  0  0  0  0
  147.3173  139.0442  156.5483 H   0  0  0  0  0  0  0  0  0  0  0  0
  147.2230  140.6049  155.6475 H   0  0  0  0  0  0  0  0  0  0  0  0
  149.0968  129.3270  154.6560 H   0  0  0  0  0  0  0  0  0  0  0  0
  1  2  1  0  0  0  0
  1 23  1  0  0  0  0
  1 24  1  0  0  0  0
  1 25  1  0  0  0  0
  2 21  1  0  0  0  0
  2  3  2  0  0  0  0
  3  4  1  0  0  0  0
  3 43  1  0  0  0  0
  4  5  2  0  0  0  0
  4 26  1  0  0  0  0
  5  6  1  0  0  0  0
  5 27  1  0  0  0  0
  6  7  1  0  0  0  0
  6 21  2  0  0  0  0
  7  8  1  0  0  0  0
  7 28  1  0  0  0  0
  8  9  2  0  0  0  0
  8 10  1  0  0  0  0
 10 11  1  0  0  0  0
 10 29  1  0  0  0  0
 11 17  1  0  0  0  0
 11 12  1  0  0  0  0
 11 30  1  0  0  0  0
 12 16  1  0  0  0  0
 12 13  1  0  0  0  0
 12 31  1  0  0  0  0
 13 14  1  0  0  0  0
 13 32  1  0  0  0  0
 13 33  1  0  0  0  0
 14 15  1  0  0  0  0
 14 34  1  0  0  0  0
 14 35  1  0  0  0  0
 15 16  1  0  0  0  0
 16 17  1  0  0  0  0
 16 36  1  0  0  0  0
 17 20  1  0  0  0  0
 17 18  1  0  0  0  0
 18 19  1  0  0  0  0
 18 37  1  0  0  0  0
 18 38  1  0  0  0  0
 19 20  1  0  0  0  0
 19 39  1  0  0  0  0
 19 40  1  0  0  0  0
 20 41  1  0  0  0  0
 20 42  1  0  0  0  0
 21 22  1  0  0  0  0
M  CHG  1   3   1
M  END
> <s_m_source_file>
AV-unprocessed.smi

> <i_m_source_file_index>
2775

> <i_lp_mmshare_version>
43012

> <i_f3d_flags>
0

> <s_epik_input>
W0NIM11jMW5bY0hdW2NIXWMoYzFDbClbTkhdQyg9TylbTkhdW0NAQEhdMltDQEhdKFtDSDJdW0NIMl1PMylbQ0BASF0zQzI0W0NIMl1bQ0gyXVtDSDJdNA==

> <s_epik_cmdline>
J2VwaWtfcHl0aG9uJywgJy1waCcsICc3LjAnLCAnLXRuJywgJzgnLCAnLW1hJywgJzIwMCcsICctbWV0YWxfYmluZGluZycsICctaW1hZScsICc8aW5maWxlLm1hZT4nLCAnLW9tYWUnLCAnPG91dGZpbGUubWFlPic=

> <r_epik_Ionization_Penalty>
2.4104

> <r_epik_Ionization_Penalty_Charging>
2.41038

> <r_epik_Ionization_Penalty_Neutral>
1.9872e-05

> <r_epik_State_Penalty>
2.56896

> <r_epik_Charging_Adjusted_Penalty>
4.97934

> <i_epik_Tot_Q>
1

> <i_epik_Tot_abs_Q>
1

> <r_epik_Metal_State_Penalty>
2.57906

> <b_epik_Metal_Only>
0

> <s_lp_Force_Field>
OPLS_2005

> <r_lp_Energy>
60.4294

> <b_lp_Chiralities_Consistent>
1

> <s_lp_Variant>
AV-unprocessed.smi:2775-14

> <Gold.Version>
5.8.1

> <Gold.Id.Protein>
6NUR|6NUR_protein|mol2

> <Gold.PLP.Fitness>
39.7424

> <Gold.PLP.PLP>
-35.0441

> <Gold.PLP.part.hbond>
-2.0000

> <Gold.PLP.part.metal>
0.0000

> <Gold.PLP.part.buried>
-2.3919

> <Gold.PLP.part.nonpolar>
-30.0215

> <Gold.PLP.part.repulsive>
0.1076

> <Gold.PLP.ligand.clash>
0.0000

> <Gold.PLP.ligand.torsion>
0.4195

> <Gold.PLP.Chemscore.Hbond>
1.7808

> <Gold.PLP.Chemscore.CHOScore>
0.0000

> <Gold.PLP.Chemscore.Metal>
0.0000

> <Gold.Chemscore.Hbonds>
donor molecule, donor type, donor heavy atom, donor atom, acceptor molecule, acceptor atom, score
      L1  H     7    28       P1  7948  0.82
      L1  H    10    29       P1  7948  1.00

> <Gold.PLP.Chemscore.Internal.Correction>
0.1950

> <Gold.Rescore>
     Score         DG    S(hbond)    S(metal)    S(lipo)     H(rot)  DE(clash)    DE(int)     intcor
     17.36     -17.79       1.63        0.00      80.54       1.00       0.02       0.41       ----

> <Gold.Chemscore.Fitness>
17.3570

> <Gold.Chemscore.DG>
-17.7893

> <Gold.Chemscore.ZeroCoef>
-5.4800

> <Gold.Chemscore.Hbond>
1.6307

> <Gold.Chemscore.Metal>
0.0000

> <Gold.Chemscore.Lipo>
80.5351

> <Gold.Chemscore.Internal_Hbond>
0.0000

> <Gold.Chemscore.DEClash>
0.0182

> <Gold.Chemscore.DEInternal>
0.4141

> <Gold.Chemscore.Rot>
1.0000

> <Gold.Chemscore.Internal.Correction>
   9.000000E+99

> <Gold.Chemscore.Hbonds>
donor molecule, donor type, donor heavy atom, donor atom, acceptor molecule, acceptor atom, score
      L1  H     7    28       P1  7948  0.13
      L1  H    10    29       P1  7948  0.98

> <Gold.Chemscore.Hbond.Weighted>
-5.4467

> <Gold.Chemscore.Metal.Weighted>
-0.0000

> <Gold.Chemscore.Lipo.Weighted>
-9.4226

> <Gold.Chemscore.Internal_Hbond.Weighted>
0.0000

> <Gold.Chemscore.DEClash.Weighted>
0.0182

> <Gold.Chemscore.DEInternal.Weighted>
0.4141

> <Gold.Chemscore.Rot.Weighted>
2.5600

> <Gold.Chemscore.Internal.Correction.Weighted>
   9.000000E+99

> <Gold.Protein.RotatedTorsions>
[ 6907 6896 6895 6894 ] final  -91.01 input  -60.11 | X-H torsion
[ 7974 7965 7964 7962 ] final -174.17 input  175.53 | X-H torsion
[ 8008 7997 7996 7995 ] final  174.16 input   59.86 | X-H torsion
[ 10167 10162 10161 10158 ] final   -1.82 input  -65.29 | X-H torsion
[ 10718 10713 10712 10709 ] final -157.78 input   66.30 | X-H torsion
[ 10763 10752 10751 10750 ] final  173.80 input  -60.55 | X-H torsion
[ 11005 11000 10999 10996 ] final   48.93 input  -57.11 | X-H torsion

> <Gold.Protein.ActiveResidues>
 VAL166  LYS551  ARG553  GLY616  TRP617  ASP618  TYR619  PRO620  LYS621  CYS622 
 ASP623  PHE694  ASN695  SER759  ASP760  ASP761  ALA762  ILE779  LEU786  VAL792 
 PHE793  MET794  SER795  GLU796  ALA797  LYS798  CYS799  TRP800  GLU811  SER814 

> <Gold.Protein.RotatedAtoms>
  150.6887  134.2344  159.4446 H   0  0  0  0  0  0  0  0  0  0  0  0  # atno 6907 bound_to 6896
  152.0292  134.9775  160.0581 H   0  0  0  0  0  0  0  0  0  0  0  0  # atno 6908 bound_to 6896
  152.1321  133.4379  159.4763 H   0  0  0  0  0  0  0  0  0  0  0  0  # atno 6909 bound_to 6896
  144.7133  140.1512  143.6384 H   0  0  0  0  0  0  0  0  0  0  0  0  # atno 7974 bound_to 7965
  156.1002  140.1441  156.9477 H   0  0  0  0  0  0  0  0  0  0  0  0  # atno 8008 bound_to 7997
  154.4697  140.0914  156.7159 H   0  0  0  0  0  0  0  0  0  0  0  0  # atno 8009 bound_to 7997
  155.4772  140.3444  155.4336 H   0  0  0  0  0  0  0  0  0  0  0  0  # atno 8010 bound_to 7997
  140.6826  143.6730  150.8169 H   0  0  0  0  0  0  0  0  0  0  0  0  # atno 10167 bound_to 10162
  156.5450  130.8580  151.2761 H   0  0  0  0  0  0  0  0  0  0  0  0  # atno 10718 bound_to 10713
  154.4451  135.2763  155.1820 H   0  0  0  0  0  0  0  0  0  0  0  0  # atno 10763 bound_to 10752
  154.3670  135.6117  153.5724 H   0  0  0  0  0  0  0  0  0  0  0  0  # atno 10764 bound_to 10752
  152.9843  135.5848  154.4786 H   0  0  0  0  0  0  0  0  0  0  0  0  # atno 10765 bound_to 10752
  140.1147  134.4908  155.8647 H   0  0  0  0  0  0  0  0  0  0  0  0  # atno 11005 bound_to 11000
  145.9115  139.2490  143.1435 LP  0  0  0  0  0  0  0  0  0  0  0  0  # atno 17320 bound_to 7965
  145.9711  140.8759  143.0162 LP  0  0  0  0  0  0  0  0  0  0  0  0  # atno 17321 bound_to 7965
  140.0432  143.5325  152.2708 LP  0  0  0  0  0  0  0  0  0  0  0  0  # atno 17342 bound_to 10162
  139.6159  144.7619  151.2846 LP  0  0  0  0  0  0  0  0  0  0  0  0  # atno 17343 bound_to 10162
  157.7398  130.9839  150.2339 LP  0  0  0  0  0  0  0  0  0  0  0  0  # atno 17370 bound_to 10713
  156.2937  130.3749  149.7817 LP  0  0  0  0  0  0  0  0  0  0  0  0  # atno 17371 bound_to 10713
  141.2138  133.6739  156.6774 LP  0  0  0  0  0  0  0  0  0  0  0  0  # atno 17394 bound_to 11000
  140.3044  134.8138  157.4124 LP  0  0  0  0  0  0  0  0  0  0  0  0  # atno 17395 bound_to 11000

$$$$
