AV-unprocessed.smi:126|AV-procd|sdf|1151|dock1
  -GOLD-   2262018283D 1   1.00000     0.00000
 Structure written by MMmdl.
 40 42  0  0  0  0  0  0  0  0  1 V2000
  152.7226  139.2277  157.0870 O   0  0  0  0  0  0  0  0  0  0  0  0
  151.9542  140.1136  156.7097 C   0  0  0  0  0  0  0  0  0  0  0  0
  151.2261  139.9903  155.3619 C   0  0  0  0  0  0  0  0  0  0  0  0
  150.2822  138.8528  155.3029 N   0  0  0  0  0  0  0  0  0  0  0  0
  148.9009  139.0988  155.5010 C   0  0  0  0  0  0  0  0  0  0  0  0
  148.4796  140.2341  155.7265 O   0  0  0  0  0  0  0  0  0  0  0  0
  148.0340  137.9292  155.4118 C   0  0  0  0  0  0  0  0  0  0  0  0
  146.7096  138.0673  155.5934 F   0  0  0  0  0  0  0  0  0  0  0  0
  148.5401  136.7066  155.1492 C   0  0  0  0  0  0  0  0  0  0  0  0
  149.8901  136.4832  154.9475 N   0  0  0  0  0  0  0  0  0  0  0  0
  150.4393  135.1074  154.6386 C   0  0  2  0  0  0  0  0  0  0  0  0
  149.2951  134.1282  154.3227 C   0  0  0  0  0  0  0  0  0  0  0  0
  149.6284  132.9377  155.1987 C   0  0  0  0  0  0  0  0  0  0  0  0
  150.3247  133.6027  156.3767 C   0  0  0  0  0  0  0  0  0  0  0  0
  151.1185  134.6050  155.7545 O   0  0  0  0  0  0  0  0  0  0  0  0
  150.7943  137.5647  155.0187 C   0  0  0  0  0  0  0  0  0  0  0  0
  151.9999  137.3887  154.8290 O   0  0  0  0  0  0  0  0  0  0  0  0
  151.7093  141.2494  157.3881 N   0  0  0  0  0  0  0  0  0  0  0  0
  152.2074  141.6503  158.6573 C   0  0  0  0  0  0  0  0  0  0  0  0
  153.2678  140.8965  159.2030 C   0  0  0  0  0  0  0  0  0  0  0  0
  153.8260  141.2452  160.4480 C   0  0  0  0  0  0  0  0  0  0  0  0
  153.3341  142.3596  161.1531 C   0  0  0  0  0  0  0  0  0  0  0  0
  152.2881  143.1282  160.6088 C   0  0  0  0  0  0  0  0  0  0  0  0
  151.7284  142.7808  159.3637 C   0  0  0  0  0  0  0  0  0  0  0  0
  150.7060  140.9271  155.1537 H   0  0  0  0  0  0  0  0  0  0  0  0
  151.9777  139.9261  154.5737 H   0  0  0  0  0  0  0  0  0  0  0  0
  147.8452  135.8827  155.0977 H   0  0  0  0  0  0  0  0  0  0  0  0
  151.1498  135.2433  153.8213 H   0  0  0  0  0  0  0  0  0  0  0  0
  148.3374  134.5605  154.6172 H   0  0  0  0  0  0  0  0  0  0  0  0
  149.2648  133.8893  153.2592 H   0  0  0  0  0  0  0  0  0  0  0  0
  148.7501  132.3614  155.4902 H   0  0  0  0  0  0  0  0  0  0  0  0
  150.3209  132.2723  154.6817 H   0  0  0  0  0  0  0  0  0  0  0  0
  149.5971  134.0611  157.0477 H   0  0  0  0  0  0  0  0  0  0  0  0
  150.9358  132.9083  156.9537 H   0  0  0  0  0  0  0  0  0  0  0  0
  151.1400  141.9333  156.9111 H   0  0  0  0  0  0  0  0  0  0  0  0
  153.6555  140.0408  158.6695 H   0  0  0  0  0  0  0  0  0  0  0  0
  154.6331  140.6586  160.8611 H   0  0  0  0  0  0  0  0  0  0  0  0
  153.7629  142.6287  162.1070 H   0  0  0  0  0  0  0  0  0  0  0  0
  151.9175  143.9899  161.1439 H   0  0  0  0  0  0  0  0  0  0  0  0
  150.9436  143.4045  158.9642 H   0  0  0  0  0  0  0  0  0  0  0  0
  1  2  2  0  0  0  0
  2  3  1  0  0  0  0
  2 18  1  0  0  0  0
  3  4  1  0  0  0  0
  3 25  1  0  0  0  0
  3 26  1  0  0  0  0
  4 16  1  0  0  0  0
  4  5  1  0  0  0  0
  5  6  2  0  0  0  0
  5  7  1  0  0  0  0
  7  8  1  0  0  0  0
  7  9  2  0  0  0  0
  9 10  1  0  0  0  0
  9 27  1  0  0  0  0
 10 11  1  0  0  0  0
 10 16  1  0  0  0  0
 11 15  1  0  0  0  0
 11 12  1  0  0  0  0
 11 28  1  0  0  0  0
 12 13  1  0  0  0  0
 12 29  1  0  0  0  0
 12 30  1  0  0  0  0
 13 14  1  0  0  0  0
 13 31  1  0  0  0  0
 13 32  1  0  0  0  0
 14 15  1  0  0  0  0
 14 33  1  0  0  0  0
 14 34  1  0  0  0  0
 16 17  2  0  0  0  0
 18 19  1  0  0  0  0
 18 35  1  0  0  0  0
 19 24  1  0  0  0  0
 19 20  2  0  0  0  0
 20 21  1  0  0  0  0
 20 36  1  0  0  0  0
 21 22  2  0  0  0  0
 21 37  1  0  0  0  0
 22 23  1  0  0  0  0
 22 38  1  0  0  0  0
 23 24  2  0  0  0  0
 23 39  1  0  0  0  0
 24 40  1  0  0  0  0
M  END
> <s_m_source_file>
AV-unprocessed.smi

> <i_m_source_file_index>
126

> <i_lp_mmshare_version>
43012

> <i_f3d_flags>
0

> <s_epik_input>
W2NIXTFbY0hdW2NIXVtjSF1bY0hdYzFbTkhdQyg9TylbQ0gyXW4yYyg9TyljKEYpW2NIXW4oYzI9TylbQ0BASF0zW0NIMl1bQ0gyXVtDSDJdTzM=

> <s_epik_cmdline>
J2VwaWtfcHl0aG9uJywgJy1waCcsICc3LjAnLCAnLXRuJywgJzgnLCAnLW1hJywgJzIwMCcsICctbWV0YWxfYmluZGluZycsICctaW1hZScsICc8aW5maWxlLm1hZT4nLCAnLW9tYWUnLCAnPG91dGZpbGUubWFlPic=

> <r_lp_tautomer_probability>
1

> <r_epik_Ionization_Penalty>
1.86934e-06

> <r_epik_Ionization_Penalty_Charging>
3.88729e-08

> <r_epik_Ionization_Penalty_Neutral>
1.83046e-06

> <r_epik_State_Penalty>
-0

> <r_epik_Charging_Adjusted_Penalty>
3.88729e-08

> <i_epik_Tot_Q>
0

> <i_epik_Tot_abs_Q>
0

> <r_epik_Metal_State_Penalty>
-0

> <b_epik_Metal_Only>
0

> <s_epik_Chemistry_Notes>
This compound contains an acetal/aminal-like group ( X-CH(R)-Y where X, Y are N, S, or O) that may be acid/base labile, releasing an aldehyde.

> <s_lp_Force_Field>
OPLS_2005

> <r_lp_Energy>
33.0924

> <b_lp_Chiralities_Consistent>
1

> <s_lp_Variant>
AV-unprocessed.smi:126-1

> <Gold.Version>
5.8.1

> <Gold.Id.Protein>
6NUR|6NUR_protein|mol2

> <Gold.PLP.Fitness>
41.8773

> <Gold.PLP.PLP>
-37.4906

> <Gold.PLP.part.hbond>
-2.4496

> <Gold.PLP.part.metal>
0.0000

> <Gold.PLP.part.buried>
-2.9392

> <Gold.PLP.part.nonpolar>
-32.7469

> <Gold.PLP.part.repulsive>
0.2506

> <Gold.PLP.ligand.clash>
0.0192

> <Gold.PLP.ligand.torsion>
0.6028

> <Gold.PLP.Chemscore.Hbond>
1.8640

> <Gold.PLP.Chemscore.CHOScore>
0.0000

> <Gold.PLP.Chemscore.Metal>
0.0000

> <Gold.Chemscore.Hbonds>
donor molecule, donor type, donor heavy atom, donor atom, acceptor molecule, acceptor atom, score
      P1  H  7997  8010       L1     1  1.00
      P1  H 10752 10764       L1    17  0.82

> <Gold.PLP.Chemscore.Internal.Correction>
0.0196

> <Gold.Rescore>
     Score         DG    S(hbond)    S(metal)    S(lipo)     H(rot)  DE(clash)    DE(int)     intcor
     14.94     -17.24       1.75        0.00      87.01       1.66       0.05       2.25       ----

> <Gold.Chemscore.Fitness>
14.9382

> <Gold.Chemscore.DG>
-17.2394

> <Gold.Chemscore.ZeroCoef>
-5.4800

> <Gold.Chemscore.Hbond>
1.7468

> <Gold.Chemscore.Metal>
0.0000

> <Gold.Chemscore.Lipo>
87.0084

> <Gold.Chemscore.Internal_Hbond>
0.0000

> <Gold.Chemscore.DEClash>
0.0492

> <Gold.Chemscore.DEInternal>
2.2520

> <Gold.Chemscore.Rot>
1.6621

> <Gold.Chemscore.Internal.Correction>
   9.000000E+99

> <Gold.Chemscore.Hbonds>
donor molecule, donor type, donor heavy atom, donor atom, acceptor molecule, acceptor atom, score
      P1  H  7997  8010       L1     1  0.25
      P1  H 10752 10764       L1    17  0.77

> <Gold.Chemscore.Hbond.Weighted>
-5.8344

> <Gold.Chemscore.Metal.Weighted>
-0.0000

> <Gold.Chemscore.Lipo.Weighted>
-10.1800

> <Gold.Chemscore.Internal_Hbond.Weighted>
0.0000

> <Gold.Chemscore.DEClash.Weighted>
0.0492

> <Gold.Chemscore.DEInternal.Weighted>
2.2520

> <Gold.Chemscore.Rot.Weighted>
4.2550

> <Gold.Chemscore.Internal.Correction.Weighted>
   9.000000E+99

> <Gold.Protein.RotatedTorsions>
[ 6907 6896 6895 6894 ] final   40.12 input  -60.11 | X-H torsion
[ 7974 7965 7964 7962 ] final   44.73 input  175.53 | X-H torsion
[ 8008 7997 7996 7995 ] final   54.25 input   59.86 | X-H torsion
[ 10167 10162 10161 10158 ] final   97.16 input  -65.29 | X-H torsion
[ 10718 10713 10712 10709 ] final  102.89 input   66.30 | X-H torsion
[ 10763 10752 10751 10750 ] final  -58.14 input  -60.55 | X-H torsion
[ 11005 11000 10999 10996 ] final   64.47 input  -57.11 | X-H torsion

> <Gold.Protein.ActiveResidues>
 VAL166  LYS551  ARG553  GLY616  TRP617  ASP618  TYR619  PRO620  LYS621  CYS622 
 ASP623  PHE694  ASN695  SER759  ASP760  ASP761  ALA762  ILE779  LEU786  VAL792 
 PHE793  MET794  SER795  GLU796  ALA797  LYS798  CYS799  TRP800  GLU811  SER814 

> <Gold.Protein.RotatedAtoms>
  152.1784  134.8775  160.0528 H   0  0  0  0  0  0  0  0  0  0  0  0  # atno 6907 bound_to 6896
  151.9709  133.3720  159.4079 H   0  0  0  0  0  0  0  0  0  0  0  0  # atno 6908 bound_to 6896
  150.6913  134.4064  159.5186 H   0  0  0  0  0  0  0  0  0  0  0  0  # atno 6909 bound_to 6896
  146.0543  139.5042  142.9698 H   0  0  0  0  0  0  0  0  0  0  0  0  # atno 7974 bound_to 7965
  155.4817  140.3468  155.4341 H   0  0  0  0  0  0  0  0  0  0  0  0  # atno 8008 bound_to 7997
  156.1035  140.1442  156.9464 H   0  0  0  0  0  0  0  0  0  0  0  0  # atno 8009 bound_to 7997
  154.4709  140.0901  156.7120 H   0  0  0  0  0  0  0  0  0  0  0  0  # atno 8010 bound_to 7997
  139.7826  144.6882  151.0001 H   0  0  0  0  0  0  0  0  0  0  0  0  # atno 10167 bound_to 10162
  157.6789  131.0765  150.5472 H   0  0  0  0  0  0  0  0  0  0  0  0  # atno 10718 bound_to 10713
  154.2335  135.6356  153.5183 H   0  0  0  0  0  0  0  0  0  0  0  0  # atno 10763 bound_to 10752
  152.9944  135.5525  154.5987 H   0  0  0  0  0  0  0  0  0  0  0  0  # atno 10764 bound_to 10752
  154.5476  135.2899  155.1013 H   0  0  0  0  0  0  0  0  0  0  0  0  # atno 10765 bound_to 10752
  139.9957  134.6521  156.0015 H   0  0  0  0  0  0  0  0  0  0  0  0  # atno 11005 bound_to 11000
  145.6671  141.0226  143.1678 LP  0  0  0  0  0  0  0  0  0  0  0  0  # atno 17320 bound_to 7965
  144.7139  139.8267  143.7405 LP  0  0  0  0  0  0  0  0  0  0  0  0  # atno 17321 bound_to 7965
  140.7819  143.4466  151.0473 LP  0  0  0  0  0  0  0  0  0  0  0  0  # atno 17342 bound_to 10162
  139.8146  143.7903  152.3173 LP  0  0  0  0  0  0  0  0  0  0  0  0  # atno 17343 bound_to 10162
  156.5778  130.4296  149.5991 LP  0  0  0  0  0  0  0  0  0  0  0  0  # atno 17370 bound_to 10713
  156.2687  130.7004  151.1795 LP  0  0  0  0  0  0  0  0  0  0  0  0  # atno 17371 bound_to 10713
  141.1602  133.6539  156.4294 LP  0  0  0  0  0  0  0  0  0  0  0  0  # atno 17394 bound_to 11000
  140.4823  134.6653  157.5176 LP  0  0  0  0  0  0  0  0  0  0  0  0  # atno 17395 bound_to 11000

$$$$
