AV-unprocessed.smi:1824|AV-procd|sdf|7411|dock1
  -GOLD-   22720 9 83D 1   1.00000     0.00000
 Structure written by MMmdl.
 45 47  0  0  0  0  0  0  0  0  2 V2000
  147.3012  140.5214  153.9141 C   0  0  0  0  0  0  0  0  0  0  0  0
  147.9107  139.1335  154.1381 C   0  0  1  0  0  0  0  0  0  0  0  0
  149.4490  139.1791  154.1889 C   0  0  0  0  0  0  0  0  0  0  0  0
  150.0264  137.8731  154.4966 N   0  0  0  0  0  0  0  0  0  0  0  0
  151.4896  137.8969  154.5418 C   0  0  0  0  0  0  0  0  0  0  0  0
  152.1176  139.2409  154.9611 C   0  0  2  0  0  0  0  0  0  0  0  0
  153.4736  139.2399  154.5599 O   0  0  0  0  0  0  0  0  0  0  0  0
  152.0293  139.4535  156.4850 C   0  0  0  0  0  0  0  0  0  0  0  0
  151.4996  140.7761  156.8484 N   0  0  0  0  0  0  0  0  0  0  0  0
  150.6058  141.5637  156.1908 C   0  0  0  0  0  0  0  0  0  0  0  0
  150.4363  142.6968  156.9273 N   0  3  0  0  0  0  0  0  0  0  0  0
  151.2351  142.6338  158.0714 C   0  0  0  0  0  0  0  0  0  0  0  0
  151.4063  143.5384  159.1144 C   0  0  0  0  0  0  0  0  0  0  0  0
  152.3073  143.1687  160.1348 C   0  0  0  0  0  0  0  0  0  0  0  0
  152.5129  144.0133  161.1730 F   0  0  0  0  0  0  0  0  0  0  0  0
  152.9979  141.9389  160.0938 C   0  0  0  0  0  0  0  0  0  0  0  0
  153.8556  141.6235  161.0931 F   0  0  0  0  0  0  0  0  0  0  0  0
  152.8146  141.0294  159.0316 C   0  0  0  0  0  0  0  0  0  0  0  0
  151.9218  141.4024  158.0274 C   0  0  0  0  0  0  0  0  0  0  0  0
  149.4767  137.4024  155.7637 C   0  0  0  0  0  0  0  0  0  0  0  0
  147.9359  137.3569  155.7673 C   0  0  2  0  0  0  0  0  0  0  0  0
  147.3573  136.2060  154.9260 C   0  0  0  0  0  0  0  0  0  0  0  0
  147.4067  138.6230  155.3709 O   0  0  0  0  0  0  0  0  0  0  0  0
  147.6421  140.9524  152.9724 H   0  0  0  0  0  0  0  0  0  0  0  0
  147.5762  141.2073  154.7159 H   0  0  0  0  0  0  0  0  0  0  0  0
  146.2127  140.4681  153.8801 H   0  0  0  0  0  0  0  0  0  0  0  0
  147.5931  138.4844  153.3216 H   0  0  0  0  0  0  0  0  0  0  0  0
  149.8118  139.5391  153.2275 H   0  0  0  0  0  0  0  0  0  0  0  0
  149.7679  139.9080  154.9359 H   0  0  0  0  0  0  0  0  0  0  0  0
  151.8363  137.1118  155.2159 H   0  0  0  0  0  0  0  0  0  0  0  0
  151.8848  137.6349  153.5590 H   0  0  0  0  0  0  0  0  0  0  0  0
  151.6167  140.0752  154.4720 H   0  0  0  0  0  0  0  0  0  0  0  0
  153.5285  139.6345  153.7024 H   0  0  0  0  0  0  0  0  0  0  0  0
  151.3607  138.7112  156.9230 H   0  0  0  0  0  0  0  0  0  0  0  0
  152.9980  139.3090  156.9636 H   0  0  0  0  0  0  0  0  0  0  0  0
  150.1195  141.3319  155.2540 H   0  0  0  0  0  0  0  0  0  0  0  0
  150.8809  144.4813  159.1497 H   0  0  0  0  0  0  0  0  0  0  0  0
  153.3547  140.0947  159.0080 H   0  0  0  0  0  0  0  0  0  0  0  0
  149.8691  136.4115  155.9967 H   0  0  0  0  0  0  0  0  0  0  0  0
  149.8099  138.0600  156.5683 H   0  0  0  0  0  0  0  0  0  0  0  0
  147.6076  137.1961  156.7945 H   0  0  0  0  0  0  0  0  0  0  0  0
  147.6794  135.2406  155.3168 H   0  0  0  0  0  0  0  0  0  0  0  0
  147.6758  136.2579  153.8850 H   0  0  0  0  0  0  0  0  0  0  0  0
  146.2674  136.2221  154.9432 H   0  0  0  0  0  0  0  0  0  0  0  0
  149.8211  143.4563  156.6643 H   0  0  0  0  0  0  0  0  0  0  0  0
  1  2  1  0  0  0  0
  1 24  1  0  0  0  0
  1 25  1  0  0  0  0
  1 26  1  0  0  0  0
  2 23  1  0  0  0  0
  2  3  1  0  0  0  0
  2 27  1  0  0  0  0
  3  4  1  0  0  0  0
  3 28  1  0  0  0  0
  3 29  1  0  0  0  0
  4  5  1  0  0  0  0
  4 20  1  0  0  0  0
  5  6  1  0  0  0  0
  5 30  1  0  0  0  0
  5 31  1  0  0  0  0
  6  7  1  0  0  0  0
  6  8  1  0  0  0  0
  6 32  1  0  0  0  0
  7 33  1  0  0  0  0
  8  9  1  0  0  0  0
  8 34  1  0  0  0  0
  8 35  1  0  0  0  0
  9 19  1  0  0  0  0
  9 10  1  0  0  0  0
 10 11  2  0  0  0  0
 10 36  1  0  0  0  0
 11 12  1  0  0  0  0
 11 45  1  0  0  0  0
 12 19  2  0  0  0  0
 12 13  1  0  0  0  0
 13 14  2  0  0  0  0
 13 37  1  0  0  0  0
 14 15  1  0  0  0  0
 14 16  1  0  0  0  0
 16 17  1  0  0  0  0
 16 18  2  0  0  0  0
 18 19  1  0  0  0  0
 18 38  1  0  0  0  0
 20 21  1  0  0  0  0
 20 39  1  0  0  0  0
 20 40  1  0  0  0  0
 21 22  1  0  0  0  0
 21 23  1  0  0  0  0
 21 41  1  0  0  0  0
 22 42  1  0  0  0  0
 22 43  1  0  0  0  0
 22 44  1  0  0  0  0
M  CHG  1  11   1
M  END
> <s_m_source_file>
AV-unprocessed.smi

> <i_m_source_file_index>
1824

> <i_lp_mmshare_version>
43012

> <i_f3d_flags>
0

> <s_epik_input>
W0NIM11bQ0BASF0xW0NIMl1OKFtDSDJdW0NASF0oTzEpW0NIM10pW0NIMl1bQ0BIXShbT0hdKVtDSDJdbihbY0hdbjIpYyhjMjMpW2NIXWMoRiljKEYpW2NIXTM=

> <s_epik_cmdline>
J2VwaWtfcHl0aG9uJywgJy1waCcsICc3LjAnLCAnLXRuJywgJzgnLCAnLW1hJywgJzIwMCcsICctbWV0YWxfYmluZGluZycsICctaW1hZScsICc8aW5maWxlLm1hZT4nLCAnLW9tYWUnLCAnPG91dGZpbGUubWFlPic=

> <r_epik_Ionization_Penalty>
2.58709

> <r_epik_Ionization_Penalty_Charging>
2.37273

> <r_epik_Ionization_Penalty_Neutral>
0.214359

> <r_epik_State_Penalty>
2.71799

> <r_epik_Charging_Adjusted_Penalty>
5.09071

> <i_epik_Tot_Q>
1

> <i_epik_Tot_abs_Q>
1

> <r_epik_Metal_State_Penalty>
6.80217

> <b_epik_Metal_Only>
0

> <s_lp_Force_Field>
OPLS_2005

> <r_lp_Energy>
35.2196

> <b_lp_Chiralities_Consistent>
1

> <s_lp_Variant>
AV-unprocessed.smi:1824-19

> <Gold.Version>
5.8.1

> <Gold.Id.Protein>
6NUR|6NUR_protein|mol2

> <Gold.PLP.Fitness>
53.2269

> <Gold.PLP.PLP>
-47.3655

> <Gold.PLP.part.hbond>
-2.1161

> <Gold.PLP.part.metal>
0.0000

> <Gold.PLP.part.buried>
-4.1827

> <Gold.PLP.part.nonpolar>
-40.9500

> <Gold.PLP.part.repulsive>
0.3282

> <Gold.PLP.ligand.clash>
0.0000

> <Gold.PLP.ligand.torsion>
1.6293

> <Gold.PLP.Chemscore.Hbond>
3.0000

> <Gold.PLP.Chemscore.CHOScore>
0.0000

> <Gold.PLP.Chemscore.Metal>
0.0000

> <Gold.Chemscore.Hbonds>
donor molecule, donor type, donor heavy atom, donor atom, acceptor molecule, acceptor atom, score
      L1  H    11    45       P1  8028  2.00
      P1  H  7997  8008       L1     7  1.00

> <Gold.PLP.Chemscore.Internal.Correction>
0.1199

> <Gold.Rescore>
     Score         DG    S(hbond)    S(metal)    S(lipo)     H(rot)  DE(clash)    DE(int)     intcor
     16.58     -18.36       1.96        0.00     105.02       2.32       0.13       1.66       ----

> <Gold.Chemscore.Fitness>
16.5771

> <Gold.Chemscore.DG>
-18.3648

> <Gold.Chemscore.ZeroCoef>
-5.4800

> <Gold.Chemscore.Hbond>
1.9578

> <Gold.Chemscore.Metal>
0.0000

> <Gold.Chemscore.Lipo>
105.0213

> <Gold.Chemscore.Internal_Hbond>
0.0000

> <Gold.Chemscore.DEClash>
0.1250

> <Gold.Chemscore.DEInternal>
1.6627

> <Gold.Chemscore.Rot>
2.3210

> <Gold.Chemscore.Internal.Correction>
   9.000000E+99

> <Gold.Chemscore.Hbonds>
donor molecule, donor type, donor heavy atom, donor atom, acceptor molecule, acceptor atom, score
      L1  H    11    45       P1  8028  1.00
      P1  H  7997  8008       L1     7  0.43

> <Gold.Chemscore.Hbond.Weighted>
-6.5390

> <Gold.Chemscore.Metal.Weighted>
-0.0000

> <Gold.Chemscore.Lipo.Weighted>
-12.2875

> <Gold.Chemscore.Internal_Hbond.Weighted>
0.0000

> <Gold.Chemscore.DEClash.Weighted>
0.1250

> <Gold.Chemscore.DEInternal.Weighted>
1.6627

> <Gold.Chemscore.Rot.Weighted>
5.9416

> <Gold.Chemscore.Internal.Correction.Weighted>
   9.000000E+99

> <Gold.Protein.RotatedTorsions>
[ 6907 6896 6895 6894 ] final  152.28 input  -60.11 | X-H torsion
[ 7974 7965 7964 7962 ] final -165.41 input  175.53 | X-H torsion
[ 8008 7997 7996 7995 ] final    6.70 input   59.86 | X-H torsion
[ 10167 10162 10161 10158 ] final   36.13 input  -65.29 | X-H torsion
[ 10718 10713 10712 10709 ] final -119.30 input   66.30 | X-H torsion
[ 10763 10752 10751 10750 ] final  170.66 input  -60.55 | X-H torsion
[ 11005 11000 10999 10996 ] final   81.78 input  -57.11 | X-H torsion

> <Gold.Protein.ActiveResidues>
 VAL166  LYS551  ARG553  GLY616  TRP617  ASP618  TYR619  PRO620  LYS621  CYS622 
 ASP623  PHE694  ASN695  SER759  ASP760  ASP761  ALA762  ILE779  LEU786  VAL792 
 PHE793  MET794  SER795  GLU796  ALA797  LYS798  CYS799  TRP800  GLU811  SER814 

> <Gold.Protein.RotatedAtoms>
  152.0889  133.4190  159.4534 H   0  0  0  0  0  0  0  0  0  0  0  0  # atno 6907 bound_to 6896
  150.6862  134.2894  159.4669 H   0  0  0  0  0  0  0  0  0  0  0  0  # atno 6908 bound_to 6896
  152.0744  134.9512  160.0625 H   0  0  0  0  0  0  0  0  0  0  0  0  # atno 6909 bound_to 6896
  144.7271  140.2819  143.6234 H   0  0  0  0  0  0  0  0  0  0  0  0  # atno 7974 bound_to 7965
  154.7443  140.2755  155.6346 H   0  0  0  0  0  0  0  0  0  0  0  0  # atno 8008 bound_to 7997
  156.2881  140.2691  156.2105 H   0  0  0  0  0  0  0  0  0  0  0  0  # atno 8009 bound_to 7997
  155.0218  140.0371  157.2430 H   0  0  0  0  0  0  0  0  0  0  0  0  # atno 8010 bound_to 7997
  140.4156  144.1531  150.6143 H   0  0  0  0  0  0  0  0  0  0  0  0  # atno 10167 bound_to 10162
  156.1171  130.6294  150.9399 H   0  0  0  0  0  0  0  0  0  0  0  0  # atno 10718 bound_to 10713
  154.4008  135.2755  155.2098 H   0  0  0  0  0  0  0  0  0  0  0  0  # atno 10763 bound_to 10752
  154.4124  135.6019  153.5964 H   0  0  0  0  0  0  0  0  0  0  0  0  # atno 10764 bound_to 10752
  152.9831  135.5952  154.4276 H   0  0  0  0  0  0  0  0  0  0  0  0  # atno 10765 bound_to 10752
  139.9086  134.8022  156.2086 H   0  0  0  0  0  0  0  0  0  0  0  0  # atno 11005 bound_to 11000
  145.7941  139.1938  143.2086 LP  0  0  0  0  0  0  0  0  0  0  0  0  # atno 17320 bound_to 7965
  146.0731  140.7847  142.9678 LP  0  0  0  0  0  0  0  0  0  0  0  0  # atno 17321 bound_to 7965
  140.4590  143.2456  151.9246 LP  0  0  0  0  0  0  0  0  0  0  0  0  # atno 17342 bound_to 10162
  139.4782  144.5487  151.8419 LP  0  0  0  0  0  0  0  0  0  0  0  0  # atno 17343 bound_to 10162
  157.6354  131.0916  150.8359 LP  0  0  0  0  0  0  0  0  0  0  0  0  # atno 17370 bound_to 10713
  156.8460  130.5064  149.5316 LP  0  0  0  0  0  0  0  0  0  0  0  0  # atno 17371 bound_to 10713
  141.0479  133.6903  156.1718 LP  0  0  0  0  0  0  0  0  0  0  0  0  # atno 17394 bound_to 11000
  140.6855  134.4721  157.5589 LP  0  0  0  0  0  0  0  0  0  0  0  0  # atno 17395 bound_to 11000

$$$$
