AV-unprocessed.smi:2607|AV-procd|sdf|10200|dock8
  -GOLD-   2272014213D 1   1.00000     0.00000
 Structure written by MMmdl.
 21 22  0  0  0  0  0  0  0  0  2 V2000
  144.5520  143.6607  157.0488 C   0  0  0  0  0  0  0  0  0  0  0  0
  145.8396  142.9038  157.4326 C   0  0  1  0  0  0  0  0  0  0  0  0
  146.6033  142.4088  156.1914 C   0  0  0  0  0  0  0  0  0  0  0  0
  146.1170  142.5945  154.8716 C   0  0  0  0  0  0  0  0  0  0  0  0
  146.7953  142.1586  153.7867 N   0  0  0  0  0  0  0  0  0  0  0  0
  147.9693  141.5325  154.0172 C   0  0  0  0  0  0  0  0  0  0  0  0
  148.4614  141.3395  155.3241 C   0  0  0  0  0  0  0  0  0  0  0  0
  147.7825  141.7726  156.4082 N   0  0  0  0  0  0  0  0  0  0  0  0
  146.6438  143.7522  158.2918 N   0  0  0  0  0  0  0  0  0  0  0  0
  146.8398  143.2014  159.4877 C   0  0  0  0  0  0  0  0  0  0  0  0
  147.5180  143.7546  160.3504 O   0  0  0  0  0  0  0  0  0  0  0  0
  146.1997  142.0197  159.5638 N   0  5  0  0  0  0  0  0  0  0  0  0
  145.5521  141.7495  158.4091 C   0  0  0  0  0  0  0  0  0  0  0  0
  144.8308  140.7957  158.1177 O   0  0  0  0  0  0  0  0  0  0  0  0
  143.8809  143.0371  156.4572 H   0  0  0  0  0  0  0  0  0  0  0  0
  144.7811  144.5484  156.4587 H   0  0  0  0  0  0  0  0  0  0  0  0
  143.9992  143.9861  157.9313 H   0  0  0  0  0  0  0  0  0  0  0  0
  145.1816  143.0935  154.6681 H   0  0  0  0  0  0  0  0  0  0  0  0
  148.5190  141.1829  153.1560 H   0  0  0  0  0  0  0  0  0  0  0  0
  149.4005  140.8361  155.4997 H   0  0  0  0  0  0  0  0  0  0  0  0
  147.0232  144.6398  157.9975 H   0  0  0  0  0  0  0  0  0  0  0  0
  1  2  1  0  0  0  0
  1 15  1  0  0  0  0
  1 16  1  0  0  0  0
  1 17  1  0  0  0  0
  2 13  1  0  0  0  0
  2  3  1  0  0  0  0
  2  9  1  0  0  0  0
  3  8  1  0  0  0  0
  3  4  2  0  0  0  0
  4  5  1  0  0  0  0
  4 18  1  0  0  0  0
  5  6  2  0  0  0  0
  6  7  1  0  0  0  0
  6 19  1  0  0  0  0
  7  8  2  0  0  0  0
  7 20  1  0  0  0  0
  9 10  1  0  0  0  0
  9 21  1  0  0  0  0
 10 11  2  0  0  0  0
 10 12  1  0  0  0  0
 12 13  1  0  0  0  0
 13 14  2  0  0  0  0
M  CHG  1  12  -1
M  END
> <s_m_source_file>
AV-unprocessed.smi

> <i_m_source_file_index>
2607

> <i_lp_mmshare_version>
43012

> <i_f3d_flags>
0

> <s_epik_input>
Tz1DMVtOSF1DKD1PKVtOSF1bQ0BAXTEoW0NIM10pYzJbY0hdbltjSF1bY0hdbjI=

> <s_epik_cmdline>
J2VwaWtfcHl0aG9uJywgJy1waCcsICc3LjAnLCAnLXRuJywgJzgnLCAnLW1hJywgJzIwMCcsICctbWV0YWxfYmluZGluZycsICctaW1hZScsICc8aW5maWxlLm1hZT4nLCAnLW9tYWUnLCAnPG91dGZpbGUubWFlPic=

> <r_lp_tautomer_probability>
1

> <r_epik_Ionization_Penalty>
1.72482

> <r_epik_Ionization_Penalty_Charging>
1.72482

> <r_epik_Ionization_Penalty_Neutral>
2.42073e-06

> <r_epik_State_Penalty>
1.83265

> <r_epik_Charging_Adjusted_Penalty>
3.55747

> <i_epik_Tot_Q>
-1

> <i_epik_Tot_abs_Q>
1

> <r_epik_Metal_State_Penalty>
0.535818

> <b_epik_Metal_Only>
0

> <s_lp_Force_Field>
OPLS_2005

> <r_lp_Energy>
15.5794

> <b_lp_Chiralities_Consistent>
1

> <s_lp_Variant>
AV-unprocessed.smi:2607-3

> <Gold.Version>
5.8.1

> <Gold.Id.Protein>
6NUR|6NUR_protein|mol2

> <Gold.PLP.Fitness>
30.9923

> <Gold.PLP.PLP>
-16.0416

> <Gold.PLP.part.hbond>
-3.0000

> <Gold.PLP.part.metal>
0.0000

> <Gold.PLP.part.buried>
-2.1973

> <Gold.PLP.part.nonpolar>
-10.8020

> <Gold.PLP.part.repulsive>
0.4298

> <Gold.PLP.ligand.clash>
0.0000

> <Gold.PLP.ligand.torsion>
0.0508

> <Gold.PLP.Chemscore.Hbond>
4.0000

> <Gold.PLP.Chemscore.CHOScore>
0.9899

> <Gold.PLP.Chemscore.Metal>
0.0000

> <Gold.Chemscore.Hbonds>
donor molecule, donor type, donor heavy atom, donor atom, acceptor molecule, acceptor atom, score
      L1  H     9    21       P1  8029  1.00
      P1  H  6933  6944       L1    11  1.00
      P1  H  6934  6946       L1    12  2.00
      L1  C     6    19       P1  7957  0.99

> <Gold.PLP.Chemscore.Internal.Correction>
0.0826

> <Gold.Rescore>
     Score         DG    S(hbond)    S(metal)    S(lipo)     H(rot)  DE(clash)    DE(int)     intcor
     14.14     -14.22       2.54        0.00      23.90       1.00       0.02       0.05       ----

> <Gold.Chemscore.Fitness>
14.1449

> <Gold.Chemscore.DG>
-14.2163

> <Gold.Chemscore.ZeroCoef>
-5.4800

> <Gold.Chemscore.Hbond>
2.5449

> <Gold.Chemscore.Metal>
0.0000

> <Gold.Chemscore.Lipo>
23.9015

> <Gold.Chemscore.Internal_Hbond>
0.0000

> <Gold.Chemscore.DEClash>
0.0234

> <Gold.Chemscore.DEInternal>
0.0479

> <Gold.Chemscore.Rot>
1.0000

> <Gold.Chemscore.Internal.Correction>
   9.000000E+99

> <Gold.Chemscore.Hbonds>
donor molecule, donor type, donor heavy atom, donor atom, acceptor molecule, acceptor atom, score
      L1  H     9    21       P1  8029  0.60
      P1  H  6933  6944       L1    11  0.70
      P1  H  6934  6946       L1    12  0.90

> <Gold.Chemscore.Hbond.Weighted>
-8.4998

> <Gold.Chemscore.Metal.Weighted>
-0.0000

> <Gold.Chemscore.Lipo.Weighted>
-2.7965

> <Gold.Chemscore.Internal_Hbond.Weighted>
0.0000

> <Gold.Chemscore.DEClash.Weighted>
0.0234

> <Gold.Chemscore.DEInternal.Weighted>
0.0479

> <Gold.Chemscore.Rot.Weighted>
2.5600

> <Gold.Chemscore.Internal.Correction.Weighted>
   9.000000E+99

> <Gold.Protein.RotatedTorsions>
[ 6907 6896 6895 6894 ] final  -36.56 input  -60.11 | X-H torsion
[ 7974 7965 7964 7962 ] final -155.95 input  175.53 | X-H torsion
[ 8008 7997 7996 7995 ] final  -37.34 input   59.86 | X-H torsion
[ 10167 10162 10161 10158 ] final  177.19 input  -65.29 | X-H torsion
[ 10718 10713 10712 10709 ] final  103.99 input   66.30 | X-H torsion
[ 10763 10752 10751 10750 ] final  172.52 input  -60.55 | X-H torsion
[ 11005 11000 10999 10996 ] final   81.55 input  -57.11 | X-H torsion

> <Gold.Protein.ActiveResidues>
 VAL166  LYS551  ARG553  GLY616  TRP617  ASP618  TYR619  PRO620  LYS621  CYS622 
 ASP623  PHE694  ASN695  SER759  ASP760  ASP761  ALA762  ILE779  LEU786  VAL792 
 PHE793  MET794  SER795  GLU796  ALA797  LYS798  CYS799  TRP800  GLU811  SER814 

> <Gold.Protein.RotatedAtoms>
  151.0256  134.9501  159.8083 H   0  0  0  0  0  0  0  0  0  0  0  0  # atno 6907 bound_to 6896
  152.5335  134.2847  159.9030 H   0  0  0  0  0  0  0  0  0  0  0  0  # atno 6908 bound_to 6896
  151.2855  133.4147  159.2663 H   0  0  0  0  0  0  0  0  0  0  0  0  # atno 6909 bound_to 6896
  144.7616  140.4178  143.5972 H   0  0  0  0  0  0  0  0  0  0  0  0  # atno 7974 bound_to 7965
  154.4055  140.1607  156.2521 H   0  0  0  0  0  0  0  0  0  0  0  0  # atno 8008 bound_to 7997
  155.9110  140.3427  155.6076 H   0  0  0  0  0  0  0  0  0  0  0  0  # atno 8009 bound_to 7997
  155.7336  140.0783  157.2268 H   0  0  0  0  0  0  0  0  0  0  0  0  # atno 8010 bound_to 7997
  139.5243  144.2828  152.0532 H   0  0  0  0  0  0  0  0  0  0  0  0  # atno 10167 bound_to 10162
  157.6755  131.0793  150.5639 H   0  0  0  0  0  0  0  0  0  0  0  0  # atno 10718 bound_to 10713
  154.4272  135.2759  155.1936 H   0  0  0  0  0  0  0  0  0  0  0  0  # atno 10763 bound_to 10752
  154.3858  135.6077  153.5819 H   0  0  0  0  0  0  0  0  0  0  0  0  # atno 10764 bound_to 10752
  152.9835  135.5891  154.4577 H   0  0  0  0  0  0  0  0  0  0  0  0  # atno 10765 bound_to 10752
  139.9094  134.8005  156.2056 H   0  0  0  0  0  0  0  0  0  0  0  0  # atno 11005 bound_to 11000
  145.6602  139.1580  143.2813 LP  0  0  0  0  0  0  0  0  0  0  0  0  # atno 17320 bound_to 7965
  146.1684  140.6683  142.9244 LP  0  0  0  0  0  0  0  0  0  0  0  0  # atno 17321 bound_to 7965
  140.2282  144.4396  150.6311 LP  0  0  0  0  0  0  0  0  0  0  0  0  # atno 17342 bound_to 10162
  140.6373  143.2197  151.6367 LP  0  0  0  0  0  0  0  0  0  0  0  0  # atno 17343 bound_to 10162
  156.5941  130.4337  149.5924 LP  0  0  0  0  0  0  0  0  0  0  0  0  # atno 17370 bound_to 10713
  156.2559  130.6934  151.1687 LP  0  0  0  0  0  0  0  0  0  0  0  0  # atno 17371 bound_to 10713
  141.0497  133.6895  156.1750 LP  0  0  0  0  0  0  0  0  0  0  0  0  # atno 17394 bound_to 11000
  140.6829  134.4748  157.5589 LP  0  0  0  0  0  0  0  0  0  0  0  0  # atno 17395 bound_to 11000

$$$$
