AV-unprocessed.smi:1005|AV-procd|sdf|4381|dock1
  -GOLD-   22720 2303D 1   1.00000     0.00000
 Structure written by MMmdl.
 58 60  0  0  0  0  0  0  0  0  4 V2000
  152.3820  144.1276  161.2306 C   0  0  0  0  0  0  0  0  0  0  0  0
  152.2334  143.1381  160.0873 C   0  0  0  0  0  0  0  0  0  0  0  0
  151.4338  143.5016  158.9808 C   0  0  0  0  0  0  0  0  0  0  0  0
  151.3174  142.5761  157.9506 C   0  0  0  0  0  0  0  0  0  0  0  0
  150.6152  142.6353  156.7455 N   0  3  0  0  0  0  0  0  0  0  0  0
  150.8045  141.4792  156.0518 C   0  0  0  0  0  0  0  0  0  0  0  0
  151.6173  140.6806  156.7962 N   0  0  0  0  0  0  0  0  0  0  0  0
  152.1270  139.3323  156.5055 C   0  0  0  0  0  0  0  0  0  0  0  0
  151.7898  138.8595  155.0772 C   0  0  1  0  0  0  0  0  0  0  0  0
  152.8576  138.0830  154.5685 O   0  0  0  0  0  0  0  0  0  0  0  0
  150.5020  138.0125  155.0406 C   0  0  0  0  0  0  0  0  0  0  0  0
  149.3010  138.7947  155.4415 N   0  3  2  0  0  0  0  0  0  0  0  0
  148.8752  138.6006  156.8509 C   0  0  0  0  0  0  0  0  0  0  0  0
  148.0851  137.2900  157.0285 C   0  0  0  0  0  0  0  0  0  0  0  0
  146.9916  137.2580  156.1190 O   0  0  0  0  0  0  0  0  0  0  0  0
  147.4095  137.3023  154.7585 C   0  0  1  0  0  0  0  0  0  0  0  0
  146.1564  137.1816  153.8698 C   0  0  0  0  0  0  0  0  0  0  0  0
  146.4618  137.2607  152.4177 N   0  3  0  0  0  0  0  0  0  0  0  0
  146.5331  138.6477  151.9020 C   0  0  0  0  0  0  0  0  0  0  0  0
  145.5376  136.4322  151.6116 C   0  0  0  0  0  0  0  0  0  0  0  0
  148.1467  138.6383  154.5221 C   0  0  0  0  0  0  0  0  0  0  0  0
  151.9618  141.3241  157.9921 C   0  0  0  0  0  0  0  0  0  0  0  0
  152.7532  140.9505  159.0764 C   0  0  0  0  0  0  0  0  0  0  0  0
  152.8848  141.8785  160.1343 C   0  0  0  0  0  0  0  0  0  0  0  0
  153.7427  141.4985  161.3292 C   0  0  0  0  0  0  0  0  0  0  0  0
  151.8173  145.0415  161.0431 H   0  0  0  0  0  0  0  0  0  0  0  0
  153.4280  144.4045  161.3644 H   0  0  0  0  0  0  0  0  0  0  0  0
  152.0153  143.6951  162.1618 H   0  0  0  0  0  0  0  0  0  0  0  0
  150.9353  144.4592  158.9380 H   0  0  0  0  0  0  0  0  0  0  0  0
  150.3846  141.2406  155.0851 H   0  0  0  0  0  0  0  0  0  0  0  0
  153.2005  139.3027  156.6930 H   0  0  0  0  0  0  0  0  0  0  0  0
  151.6737  138.6585  157.2337 H   0  0  0  0  0  0  0  0  0  0  0  0
  151.6819  139.7378  154.4412 H   0  0  0  0  0  0  0  0  0  0  0  0
  153.5413  138.0409  155.2197 H   0  0  0  0  0  0  0  0  0  0  0  0
  150.3730  137.6283  154.0275 H   0  0  0  0  0  0  0  0  0  0  0  0
  150.6059  137.1365  155.6810 H   0  0  0  0  0  0  0  0  0  0  0  0
  149.7274  138.6289  157.5290 H   0  0  0  0  0  0  0  0  0  0  0  0
  148.2374  139.4406  157.1294 H   0  0  0  0  0  0  0  0  0  0  0  0
  148.7208  136.4159  156.8824 H   0  0  0  0  0  0  0  0  0  0  0  0
  147.6960  137.2258  158.0448 H   0  0  0  0  0  0  0  0  0  0  0  0
  148.0912  136.4763  154.5546 H   0  0  0  0  0  0  0  0  0  0  0  0
  145.6767  136.2253  154.0849 H   0  0  0  0  0  0  0  0  0  0  0  0
  145.4294  137.9533  154.1272 H   0  0  0  0  0  0  0  0  0  0  0  0
  145.5823  139.1650  152.0371 H   0  0  0  0  0  0  0  0  0  0  0  0
  146.7689  138.6480  150.8371 H   0  0  0  0  0  0  0  0  0  0  0  0
  147.3111  139.2236  152.4014 H   0  0  0  0  0  0  0  0  0  0  0  0
  144.5110  136.7903  151.7014 H   0  0  0  0  0  0  0  0  0  0  0  0
  145.5665  135.3911  151.9346 H   0  0  0  0  0  0  0  0  0  0  0  0
  145.8163  136.4557  150.5574 H   0  0  0  0  0  0  0  0  0  0  0  0
  147.4609  139.4685  154.6980 H   0  0  0  0  0  0  0  0  0  0  0  0
  148.4710  138.7285  153.4846 H   0  0  0  0  0  0  0  0  0  0  0  0
  153.2526  139.9945  159.1157 H   0  0  0  0  0  0  0  0  0  0  0  0
  154.1807  140.5074  161.2073 H   0  0  0  0  0  0  0  0  0  0  0  0
  153.1458  141.4891  162.2415 H   0  0  0  0  0  0  0  0  0  0  0  0
  154.5596  142.2091  161.4565 H   0  0  0  0  0  0  0  0  0  0  0  0
  147.3777  136.8529  152.2922 H   0  0  0  0  0  0  0  0  0  0  0  0
  149.5874  139.7605  155.3583 H   0  0  0  0  0  0  0  0  0  0  0  0
  150.0477  143.4071  156.4188 H   0  0  0  0  0  0  0  0  0  0  0  0
  1  2  1  0  0  0  0
  1 26  1  0  0  0  0
  1 27  1  0  0  0  0
  1 28  1  0  0  0  0
  2 24  1  0  0  0  0
  2  3  2  0  0  0  0
  3  4  1  0  0  0  0
  3 29  1  0  0  0  0
  4 22  2  0  0  0  0
  4  5  1  0  0  0  0
  5  6  2  0  0  0  0
  5 58  1  0  0  0  0
  6  7  1  0  0  0  0
  6 30  1  0  0  0  0
  7  8  1  0  0  0  0
  7 22  1  0  0  0  0
  8  9  1  0  0  0  0
  8 31  1  0  0  0  0
  8 32  1  0  0  0  0
  9 10  1  0  0  0  0
  9 11  1  0  0  0  0
  9 33  1  0  0  0  0
 10 34  1  0  0  0  0
 11 12  1  0  0  0  0
 11 35  1  0  0  0  0
 11 36  1  0  0  0  0
 12 21  1  0  0  0  0
 12 13  1  0  0  0  0
 12 57  1  0  0  0  0
 13 14  1  0  0  0  0
 13 37  1  0  0  0  0
 13 38  1  0  0  0  0
 14 15  1  0  0  0  0
 14 39  1  0  0  0  0
 14 40  1  0  0  0  0
 15 16  1  0  0  0  0
 16 17  1  0  0  0  0
 16 21  1  0  0  0  0
 16 41  1  0  0  0  0
 17 18  1  0  0  0  0
 17 42  1  0  0  0  0
 17 43  1  0  0  0  0
 18 19  1  0  0  0  0
 18 20  1  0  0  0  0
 18 56  1  0  0  0  0
 19 44  1  0  0  0  0
 19 45  1  0  0  0  0
 19 46  1  0  0  0  0
 20 47  1  0  0  0  0
 20 48  1  0  0  0  0
 20 49  1  0  0  0  0
 21 50  1  0  0  0  0
 21 51  1  0  0  0  0
 22 23  1  0  0  0  0
 23 24  2  0  0  0  0
 23 52  1  0  0  0  0
 24 25  1  0  0  0  0
 25 53  1  0  0  0  0
 25 54  1  0  0  0  0
 25 55  1  0  0  0  0
M  CHG  1   5   1
M  CHG  1  12   1
M  CHG  1  18   1
M  END
> <s_m_source_file>
AV-unprocessed.smi

> <i_m_source_file_index>
1005

> <i_lp_mmshare_version>
43012

> <i_f3d_flags>
0

> <s_epik_input>
W0NIM11jKFtjSF0xKWMoW0NIM10pW2NIXWMoYzEyKW4oW2NIXW4yKVtDSDJdW0NASF0oW09IXSlbQ0gyXU4zW0NIMl1bQ0gyXU9bQ0BIXShbQ0gyXTMpW0NIMl1OKFtDSDNdKVtDSDNd

> <s_epik_cmdline>
J2VwaWtfcHl0aG9uJywgJy1waCcsICc3LjAnLCAnLXRuJywgJzgnLCAnLW1hJywgJzIwMCcsICctbWV0YWxfYmluZGluZycsICctaW1hZScsICc8aW5maWxlLm1hZT4nLCAnLW9tYWUnLCAnPG91dGZpbGUubWFlPic=

> <r_epik_Ionization_Penalty>
2.30802

> <r_epik_Ionization_Penalty_Charging>
2.30798

> <r_epik_Ionization_Penalty_Neutral>
3.4851e-05

> <r_epik_State_Penalty>
2.52618

> <r_epik_Charging_Adjusted_Penalty>
4.83416

> <i_epik_Tot_Q>
3

> <i_epik_Tot_abs_Q>
3

> <r_epik_Metal_State_Penalty>
6.53149

> <b_epik_Metal_Only>
0

> <s_lp_Force_Field>
OPLS_2005

> <r_lp_Energy>
46.6076

> <b_lp_Chiralities_Consistent>
1

> <s_lp_Variant>
AV-unprocessed.smi:1005-20

> <Gold.Version>
5.8.1

> <Gold.Id.Protein>
6NUR|6NUR_protein|mol2

> <Gold.PLP.Fitness>
57.9603

> <Gold.PLP.PLP>
-48.8030

> <Gold.PLP.part.hbond>
-2.7581

> <Gold.PLP.part.metal>
0.0000

> <Gold.PLP.part.buried>
-7.8739

> <Gold.PLP.part.nonpolar>
-39.4237

> <Gold.PLP.part.repulsive>
0.1401

> <Gold.PLP.ligand.clash>
0.0000

> <Gold.PLP.ligand.torsion>
1.5051

> <Gold.PLP.Chemscore.Hbond>
4.0000

> <Gold.PLP.Chemscore.CHOScore>
0.0000

> <Gold.PLP.Chemscore.Metal>
0.0000

> <Gold.Chemscore.Hbonds>
donor molecule, donor type, donor heavy atom, donor atom, acceptor molecule, acceptor atom, score
      L1  H     5    58       P1  8028  2.00
      L1  H    18    56       P1  7948  2.00

> <Gold.PLP.Chemscore.Internal.Correction>
0.1675

> <Gold.Rescore>
     Score         DG    S(hbond)    S(metal)    S(lipo)     H(rot)  DE(clash)    DE(int)     intcor
     18.92     -20.58       2.00        0.00     127.93       2.56       0.03       1.63       ----

> <Gold.Chemscore.Fitness>
18.9239

> <Gold.Chemscore.DG>
-20.5775

> <Gold.Chemscore.ZeroCoef>
-5.4800

> <Gold.Chemscore.Hbond>
1.9985

> <Gold.Chemscore.Metal>
0.0000

> <Gold.Chemscore.Lipo>
127.9263

> <Gold.Chemscore.Internal_Hbond>
0.0000

> <Gold.Chemscore.DEClash>
0.0262

> <Gold.Chemscore.DEInternal>
1.6274

> <Gold.Chemscore.Rot>
2.5566

> <Gold.Chemscore.Internal.Correction>
   9.000000E+99

> <Gold.Chemscore.Hbonds>
donor molecule, donor type, donor heavy atom, donor atom, acceptor molecule, acceptor atom, score
      L1  H     5    58       P1  8028  1.00
      L1  H    18    56       P1  7948  1.00

> <Gold.Chemscore.Hbond.Weighted>
-6.6751

> <Gold.Chemscore.Metal.Weighted>
-0.0000

> <Gold.Chemscore.Lipo.Weighted>
-14.9674

> <Gold.Chemscore.Internal_Hbond.Weighted>
0.0000

> <Gold.Chemscore.DEClash.Weighted>
0.0262

> <Gold.Chemscore.DEInternal.Weighted>
1.6274

> <Gold.Chemscore.Rot.Weighted>
6.5450

> <Gold.Chemscore.Internal.Correction.Weighted>
   9.000000E+99

> <Gold.Protein.RotatedTorsions>
[ 6907 6896 6895 6894 ] final   44.85 input  -60.11 | X-H torsion
[ 7974 7965 7964 7962 ] final -103.49 input  175.53 | X-H torsion
[ 8008 7997 7996 7995 ] final -152.49 input   59.86 | X-H torsion
[ 10167 10162 10161 10158 ] final    0.08 input  -65.29 | X-H torsion
[ 10718 10713 10712 10709 ] final  -67.10 input   66.30 | X-H torsion
[ 10763 10752 10751 10750 ] final -118.67 input  -60.55 | X-H torsion
[ 11005 11000 10999 10996 ] final   78.82 input  -57.11 | X-H torsion

> <Gold.Protein.ActiveResidues>
 VAL166  LYS551  ARG553  GLY616  TRP617  ASP618  TYR619  PRO620  LYS621  CYS622 
 ASP623  PHE694  ASN695  SER759  ASP760  ASP761  ALA762  ILE779  LEU786  VAL792 
 PHE793  MET794  SER795  GLU796  ALA797  LYS798  CYS799  TRP800  GLU811  SER814 

> <Gold.Protein.RotatedAtoms>
  152.2375  134.8261  160.0464 H   0  0  0  0  0  0  0  0  0  0  0  0  # atno 6907 bound_to 6896
  151.8988  133.3528  159.3831 H   0  0  0  0  0  0  0  0  0  0  0  0  # atno 6908 bound_to 6896
  150.7044  134.4776  159.5499 H   0  0  0  0  0  0  0  0  0  0  0  0  # atno 6909 bound_to 6896
  145.2552  140.9251  143.3072 H   0  0  0  0  0  0  0  0  0  0  0  0  # atno 7974 bound_to 7965
  155.6559  140.0717  157.2571 H   0  0  0  0  0  0  0  0  0  0  0  0  # atno 8008 bound_to 7997
  154.4152  140.1725  156.1775 H   0  0  0  0  0  0  0  0  0  0  0  0  # atno 8009 bound_to 7997
  155.9738  140.3359  155.6603 H   0  0  0  0  0  0  0  0  0  0  0  0  # atno 8010 bound_to 7997
  140.6745  143.6956  150.7992 H   0  0  0  0  0  0  0  0  0  0  0  0  # atno 10167 bound_to 10162
  156.0576  130.4272  150.1805 H   0  0  0  0  0  0  0  0  0  0  0  0  # atno 10718 bound_to 10713
  154.8594  135.4266  154.2176 H   0  0  0  0  0  0  0  0  0  0  0  0  # atno 10763 bound_to 10752
  153.3188  135.6981  153.7055 H   0  0  0  0  0  0  0  0  0  0  0  0  # atno 10764 bound_to 10752
  153.6118  135.3518  155.2955 H   0  0  0  0  0  0  0  0  0  0  0  0  # atno 10765 bound_to 10752
  139.9197  134.7794  156.1699 H   0  0  0  0  0  0  0  0  0  0  0  0  # atno 11005 bound_to 11000
  144.9467  139.4128  143.6422 LP  0  0  0  0  0  0  0  0  0  0  0  0  # atno 17320 bound_to 7965
  146.3291  139.8454  142.8883 LP  0  0  0  0  0  0  0  0  0  0  0  0  # atno 17321 bound_to 7965
  140.0647  143.5120  152.2610 LP  0  0  0  0  0  0  0  0  0  0  0  0  # atno 17342 bound_to 10162
  139.6029  144.7588  151.3128 LP  0  0  0  0  0  0  0  0  0  0  0  0  # atno 17343 bound_to 10162
  156.9879  130.9884  151.3422 LP  0  0  0  0  0  0  0  0  0  0  0  0  # atno 17370 bound_to 10713
  157.5558  130.8213  149.8203 LP  0  0  0  0  0  0  0  0  0  0  0  0  # atno 17371 bound_to 10713
  141.0707  133.6798  156.2134 LP  0  0  0  0  0  0  0  0  0  0  0  0  # atno 17394 bound_to 11000
  140.6512  134.5065  157.5577 LP  0  0  0  0  0  0  0  0  0  0  0  0  # atno 17395 bound_to 11000

$$$$
