AV-unprocessed.smi:978|AV-procd|sdf|4308|dock4
  -GOLD-   22720 2213D 1   1.00000     0.00000
 Structure written by MMmdl.
 39 40  0  0  0  0  0  0  0  0  2 V2000
  150.5326  136.1956  156.2588 C   0  0  0  0  0  0  0  0  0  0  0  0
  150.5182  134.7033  156.0754 C   0  0  0  0  0  0  0  0  0  0  0  0
  151.2575  133.9506  156.8771 N   0  0  0  0  0  0  0  0  0  0  0  0
  151.1073  132.6257  156.4395 O   0  0  0  0  0  0  0  0  0  0  0  0
  150.2688  132.6086  155.3710 C   0  0  0  0  0  0  0  0  0  0  0  0
  149.9942  131.2828  154.7457 C   0  0  0  0  0  0  0  0  0  0  0  0
  149.8493  133.8818  155.1205 C   0  0  0  0  0  0  0  0  0  0  0  0
  148.9843  134.2496  154.0590 N   0  0  0  0  0  0  0  0  0  0  0  0
  147.9179  133.5669  153.6154 C   0  0  0  0  0  0  0  0  0  0  0  0
  147.5350  132.4872  154.0646 O   0  0  0  0  0  0  0  0  0  0  0  0
  147.3213  134.1982  152.5940 N   0  0  0  0  0  0  0  0  0  0  0  0
  146.1502  133.7058  151.8742 C   0  0  2  0  0  0  0  0  0  0  0  0
  146.5482  132.5284  150.9688 C   0  0  0  0  0  0  0  0  0  0  0  0
  145.3514  132.0379  150.1357 C   0  0  0  0  0  0  0  0  0  0  0  0
  144.7678  133.1440  149.3361 N   0  3  1  0  0  0  0  0  0  0  0  0
  143.6895  132.6807  148.4365 C   0  0  0  0  0  0  0  0  0  0  0  0
  144.3418  134.2819  150.1883 C   0  0  0  0  0  0  0  0  0  0  0  0
  145.5169  134.8211  151.0206 C   0  0  0  0  0  0  0  0  0  0  0  0
  150.4414  136.7119  155.3033 H   0  0  0  0  0  0  0  0  0  0  0  0
  151.4612  136.5321  156.7210 H   0  0  0  0  0  0  0  0  0  0  0  0
  149.7110  136.5195  156.8975 H   0  0  0  0  0  0  0  0  0  0  0  0
  149.4593  131.3967  153.8027 H   0  0  0  0  0  0  0  0  0  0  0  0
  149.3870  130.6636  155.4062 H   0  0  0  0  0  0  0  0  0  0  0  0
  150.9241  130.7512  154.5431 H   0  0  0  0  0  0  0  0  0  0  0  0
  149.2615  135.0594  153.5238 H   0  0  0  0  0  0  0  0  0  0  0  0
  147.7098  135.0787  152.2882 H   0  0  0  0  0  0  0  0  0  0  0  0
  145.4139  133.3482  152.5971 H   0  0  0  0  0  0  0  0  0  0  0  0
  147.3550  132.8303  150.2990 H   0  0  0  0  0  0  0  0  0  0  0  0
  146.9376  131.7071  151.5718 H   0  0  0  0  0  0  0  0  0  0  0  0
  145.6767  131.2380  149.4696 H   0  0  0  0  0  0  0  0  0  0  0  0
  144.5865  131.6153  150.7893 H   0  0  0  0  0  0  0  0  0  0  0  0
  142.8424  132.2955  149.0058 H   0  0  0  0  0  0  0  0  0  0  0  0
  144.0491  131.8886  147.7790 H   0  0  0  0  0  0  0  0  0  0  0  0
  143.3355  133.4982  147.8078 H   0  0  0  0  0  0  0  0  0  0  0  0
  143.9448  135.0804  149.5602 H   0  0  0  0  0  0  0  0  0  0  0  0
  143.5315  133.9634  150.8461 H   0  0  0  0  0  0  0  0  0  0  0  0
  145.1686  135.6350  151.6579 H   0  0  0  0  0  0  0  0  0  0  0  0
  146.2671  135.2502  150.3544 H   0  0  0  0  0  0  0  0  0  0  0  0
  145.5068  133.4901  148.7408 H   0  0  0  0  0  0  0  0  0  0  0  0
  1  2  1  0  0  0  0
  1 19  1  0  0  0  0
  1 20  1  0  0  0  0
  1 21  1  0  0  0  0
  2  7  1  0  0  0  0
  2  3  2  0  0  0  0
  3  4  1  0  0  0  0
  4  5  1  0  0  0  0
  5  6  1  0  0  0  0
  5  7  2  0  0  0  0
  6 22  1  0  0  0  0
  6 23  1  0  0  0  0
  6 24  1  0  0  0  0
  7  8  1  0  0  0  0
  8  9  1  0  0  0  0
  8 25  1  0  0  0  0
  9 10  2  0  0  0  0
  9 11  1  0  0  0  0
 11 12  1  0  0  0  0
 11 26  1  0  0  0  0
 12 18  1  0  0  0  0
 12 13  1  0  0  0  0
 12 27  1  0  0  0  0
 13 14  1  0  0  0  0
 13 28  1  0  0  0  0
 13 29  1  0  0  0  0
 14 15  1  0  0  0  0
 14 30  1  0  0  0  0
 14 31  1  0  0  0  0
 15 16  1  0  0  0  0
 15 17  1  0  0  0  0
 15 39  1  0  0  0  0
 16 32  1  0  0  0  0
 16 33  1  0  0  0  0
 16 34  1  0  0  0  0
 17 18  1  0  0  0  0
 17 35  1  0  0  0  0
 17 36  1  0  0  0  0
 18 37  1  0  0  0  0
 18 38  1  0  0  0  0
M  CHG  1  15   1
M  END
> <s_m_source_file>
AV-unprocessed.smi

> <i_m_source_file_index>
978

> <i_lp_mmshare_version>
43012

> <i_f3d_flags>
0

> <s_epik_input>
W0NIM11jMW5vYyhbQ0gzXSljMVtOSF1DKD1PKVtOSF1bQ0hdMltDSDJdW0NIMl1OKFtDSDNdKVtDSDJdW0NIMl0y

> <s_epik_cmdline>
J2VwaWtfcHl0aG9uJywgJy1waCcsICc3LjAnLCAnLXRuJywgJzgnLCAnLW1hJywgJzIwMCcsICctbWV0YWxfYmluZGluZycsICctaW1hZScsICc8aW5maWxlLm1hZT4nLCAnLW9tYWUnLCAnPG91dGZpbGUubWFlPic=

> <r_epik_Ionization_Penalty>
0.00369783

> <r_epik_Ionization_Penalty_Charging>
0.00366825

> <r_epik_Ionization_Penalty_Neutral>
2.95799e-05

> <r_epik_State_Penalty>
0.00261101

> <r_epik_Charging_Adjusted_Penalty>
0.00627926

> <i_epik_Tot_Q>
1

> <i_epik_Tot_abs_Q>
1

> <r_epik_Metal_State_Penalty>
-0

> <b_epik_Metal_Only>
0

> <s_lp_Force_Field>
OPLS_2005

> <r_lp_Energy>
17.6402

> <b_lp_Chiralities_Consistent>
1

> <s_lp_Variant>
AV-unprocessed.smi:978-1

> <Gold.Version>
5.8.1

> <Gold.Id.Protein>
6NUR|6NUR_protein|mol2

> <Gold.PLP.Fitness>
40.7324

> <Gold.PLP.PLP>
-32.8052

> <Gold.PLP.part.hbond>
-3.8346

> <Gold.PLP.part.metal>
0.0000

> <Gold.PLP.part.buried>
-3.8499

> <Gold.PLP.part.nonpolar>
-25.9830

> <Gold.PLP.part.repulsive>
0.2227

> <Gold.PLP.ligand.clash>
0.0000

> <Gold.PLP.ligand.torsion>
0.4405

> <Gold.PLP.Chemscore.Hbond>
2.8511

> <Gold.PLP.Chemscore.CHOScore>
0.0000

> <Gold.PLP.Chemscore.Metal>
0.0000

> <Gold.Chemscore.Hbonds>
donor molecule, donor type, donor heavy atom, donor atom, acceptor molecule, acceptor atom, score
      L1  H     8    25       P1  7948  0.82
      L1  H    11    26       P1  7948  1.00
      L1  H    15    39       P1  7921  0.99
      P1  H  6896  6907       L1     3  0.06

> <Gold.PLP.Chemscore.Internal.Correction>
0.2549

> <Gold.Rescore>
     Score         DG    S(hbond)    S(metal)    S(lipo)     H(rot)  DE(clash)    DE(int)     intcor
     15.93     -18.92       2.21        0.00      73.57       1.00       0.72       2.27       ----

> <Gold.Chemscore.Fitness>
15.9343

> <Gold.Chemscore.DG>
-18.9211

> <Gold.Chemscore.ZeroCoef>
-5.4800

> <Gold.Chemscore.Hbond>
2.2137

> <Gold.Chemscore.Metal>
0.0000

> <Gold.Chemscore.Lipo>
73.5674

> <Gold.Chemscore.Internal_Hbond>
0.0000

> <Gold.Chemscore.DEClash>
0.7170

> <Gold.Chemscore.DEInternal>
2.2698

> <Gold.Chemscore.Rot>
1.0000

> <Gold.Chemscore.Internal.Correction>
   9.000000E+99

> <Gold.Chemscore.Hbonds>
donor molecule, donor type, donor heavy atom, donor atom, acceptor molecule, acceptor atom, score
      L1  H     8    25       P1  7948  0.13
      L1  H    11    26       P1  7948  0.94
      L1  H    15    39       P1  7921  0.24
      P1  H  6896  6907       L1     3  0.01

> <Gold.Chemscore.Hbond.Weighted>
-7.3937

> <Gold.Chemscore.Metal.Weighted>
-0.0000

> <Gold.Chemscore.Lipo.Weighted>
-8.6074

> <Gold.Chemscore.Internal_Hbond.Weighted>
0.0000

> <Gold.Chemscore.DEClash.Weighted>
0.7170

> <Gold.Chemscore.DEInternal.Weighted>
2.2698

> <Gold.Chemscore.Rot.Weighted>
2.5600

> <Gold.Chemscore.Internal.Correction.Weighted>
   9.000000E+99

> <Gold.Protein.RotatedTorsions>
[ 6907 6896 6895 6894 ] final -150.16 input  -60.11 | X-H torsion
[ 7974 7965 7964 7962 ] final   81.48 input  175.53 | X-H torsion
[ 8008 7997 7996 7995 ] final  -93.54 input   59.86 | X-H torsion
[ 10167 10162 10161 10158 ] final  -71.46 input  -65.29 | X-H torsion
[ 10718 10713 10712 10709 ] final   74.96 input   66.30 | X-H torsion
[ 10763 10752 10751 10750 ] final   22.46 input  -60.55 | X-H torsion
[ 11005 11000 10999 10996 ] final -165.50 input  -57.11 | X-H torsion

> <Gold.Protein.ActiveResidues>
 VAL166  LYS551  ARG553  GLY616  TRP617  ASP618  TYR619  PRO620  LYS621  CYS622 
 ASP623  PHE694  ASN695  SER759  ASP760  ASP761  ALA762  ILE779  LEU786  VAL792 
 PHE793  MET794  SER795  GLU796  ALA797  LYS798  CYS799  TRP800  GLU811  SER814 

> <Gold.Protein.RotatedAtoms>
  151.1945  133.4647  159.2595 H   0  0  0  0  0  0  0  0  0  0  0  0  # atno 6907 bound_to 6896
  151.1130  135.0037  159.8513 H   0  0  0  0  0  0  0  0  0  0  0  0  # atno 6908 bound_to 6896
  152.5451  134.1863  159.8709 H   0  0  0  0  0  0  0  0  0  0  0  0  # atno 6909 bound_to 6896
  145.6377  139.2418  143.2049 H   0  0  0  0  0  0  0  0  0  0  0  0  # atno 7974 bound_to 7965
  154.7369  140.0498  157.0777 H   0  0  0  0  0  0  0  0  0  0  0  0  # atno 8008 bound_to 7997
  155.0228  140.3149  155.4768 H   0  0  0  0  0  0  0  0  0  0  0  0  # atno 8009 bound_to 7997
  156.2855  140.2164  156.5347 H   0  0  0  0  0  0  0  0  0  0  0  0  # atno 8010 bound_to 7997
  140.5271  143.2325  151.7327 H   0  0  0  0  0  0  0  0  0  0  0  0  # atno 10167 bound_to 10162
  157.6614  130.9703  150.1286 H   0  0  0  0  0  0  0  0  0  0  0  0  # atno 10718 bound_to 10713
  153.0913  135.6647  153.9848 H   0  0  0  0  0  0  0  0  0  0  0  0  # atno 10763 bound_to 10752
  153.9444  135.2990  155.3443 H   0  0  0  0  0  0  0  0  0  0  0  0  # atno 10764 bound_to 10752
  154.7328  135.5115  153.9065 H   0  0  0  0  0  0  0  0  0  0  0  0  # atno 10765 bound_to 10752
  140.5750  134.5199  157.5168 H   0  0  0  0  0  0  0  0  0  0  0  0  # atno 11005 bound_to 11000
  146.1306  140.7190  142.9414 LP  0  0  0  0  0  0  0  0  0  0  0  0  # atno 17320 bound_to 7965
  144.7169  140.4242  143.7037 LP  0  0  0  0  0  0  0  0  0  0  0  0  # atno 17321 bound_to 7965
  139.4942  144.4169  152.0020 LP  0  0  0  0  0  0  0  0  0  0  0  0  # atno 17342 bound_to 10162
  140.3269  144.3362  150.5996 LP  0  0  0  0  0  0  0  0  0  0  0  0  # atno 17343 bound_to 10162
  156.2138  130.3668  149.8637 LP  0  0  0  0  0  0  0  0  0  0  0  0  # atno 17370 bound_to 10713
  156.6509  130.8743  151.3531 LP  0  0  0  0  0  0  0  0  0  0  0  0  # atno 17371 bound_to 10713
  139.9344  134.7903  156.0843 LP  0  0  0  0  0  0  0  0  0  0  0  0  # atno 17394 bound_to 11000
  141.1032  133.6669  156.2803 LP  0  0  0  0  0  0  0  0  0  0  0  0  # atno 17395 bound_to 11000

$$$$
