AV-unprocessed.smi:1644|AV-procd|sdf|6588|dock5
  -GOLD-   22720 7283D 1   1.00000     0.00000
 Structure written by MMmdl.
 50 52  0  0  0  0  0  0  0  0  2 V2000
  147.0176  141.4996  153.9810 C   0  0  0  0  0  0  0  0  0  0  0  0
  147.7953  141.1326  155.2494 C   0  0  0  0  0  0  0  0  0  0  0  0
  147.5308  139.6886  155.7047 C   0  0  0  0  0  0  0  0  0  0  0  0
  148.1240  138.6333  154.7507 C   0  0  2  0  0  0  0  0  0  0  0  0
  148.3520  137.3570  155.3990 N   0  0  0  0  0  0  0  0  0  0  0  0
  149.6374  136.9835  155.3641 C   0  0  0  0  0  0  0  0  0  0  0  0
  150.0883  135.9475  155.8501 O   0  0  0  0  0  0  0  0  0  0  0  0
  150.3378  137.9349  154.7200 N   0  0  0  0  0  0  0  0  0  0  0  0
  151.7874  137.8915  154.5027 C   0  0  0  0  0  0  0  0  0  0  0  0
  152.4856  139.1621  155.0294 C   0  0  2  0  0  0  0  0  0  0  0  0
  153.8849  138.9851  154.9223 O   0  0  0  0  0  0  0  0  0  0  0  0
  152.1335  139.4332  156.5055 C   0  0  0  0  0  0  0  0  0  0  0  0
  151.5835  140.7790  156.7221 N   0  0  0  0  0  0  0  0  0  0  0  0
  150.7620  141.5170  155.9276 C   0  0  0  0  0  0  0  0  0  0  0  0
  150.5332  142.7010  156.5598 N   0  3  0  0  0  0  0  0  0  0  0  0
  151.2210  142.7206  157.7749 C   0  0  0  0  0  0  0  0  0  0  0  0
  151.3014  143.6991  158.7586 C   0  0  0  0  0  0  0  0  0  0  0  0
  152.0987  143.4129  159.8898 C   0  0  0  0  0  0  0  0  0  0  0  0
  152.2119  144.4631  160.9818 C   0  0  0  0  0  0  0  0  0  0  0  0
  152.7819  142.1746  160.0068 C   0  0  0  0  0  0  0  0  0  0  0  0
  153.6384  141.8776  161.2261 C   0  0  0  0  0  0  0  0  0  0  0  0
  152.6858  141.1918  158.9958 C   0  0  0  0  0  0  0  0  0  0  0  0
  151.8969  141.4899  157.8869 C   0  0  0  0  0  0  0  0  0  0  0  0
  149.5496  138.9479  154.3378 C   0  0  0  0  0  0  0  0  0  0  0  0
  149.8889  139.9793  153.7580 O   0  0  0  0  0  0  0  0  0  0  0  0
  147.2186  142.5299  153.6867 H   0  0  0  0  0  0  0  0  0  0  0  0
  145.9428  141.4016  154.1359 H   0  0  0  0  0  0  0  0  0  0  0  0
  147.2971  140.8549  153.1473 H   0  0  0  0  0  0  0  0  0  0  0  0
  148.8607  141.2764  155.0666 H   0  0  0  0  0  0  0  0  0  0  0  0
  147.5233  141.8225  156.0489 H   0  0  0  0  0  0  0  0  0  0  0  0
  147.9573  139.5497  156.6994 H   0  0  0  0  0  0  0  0  0  0  0  0
  146.4558  139.5329  155.8111 H   0  0  0  0  0  0  0  0  0  0  0  0
  147.5007  138.4999  153.8656 H   0  0  0  0  0  0  0  0  0  0  0  0
  147.6128  136.8202  155.8291 H   0  0  0  0  0  0  0  0  0  0  0  0
  152.1785  137.0168  155.0256 H   0  0  0  0  0  0  0  0  0  0  0  0
  152.0262  137.7225  153.4507 H   0  0  0  0  0  0  0  0  0  0  0  0
  152.1944  140.0289  154.4342 H   0  0  0  0  0  0  0  0  0  0  0  0
  154.0700  138.5309  154.1143 H   0  0  0  0  0  0  0  0  0  0  0  0
  151.3739  138.7250  156.8395 H   0  0  0  0  0  0  0  0  0  0  0  0
  152.9958  139.2834  157.1558 H   0  0  0  0  0  0  0  0  0  0  0  0
  150.3644  141.2178  154.9683 H   0  0  0  0  0  0  0  0  0  0  0  0
  150.7793  144.6397  158.6615 H   0  0  0  0  0  0  0  0  0  0  0  0
  151.8241  144.0778  161.9250 H   0  0  0  0  0  0  0  0  0  0  0  0
  151.6469  145.3618  160.7317 H   0  0  0  0  0  0  0  0  0  0  0  0
  153.2526  144.7546  161.1274 H   0  0  0  0  0  0  0  0  0  0  0  0
  154.0689  140.8770  161.1771 H   0  0  0  0  0  0  0  0  0  0  0  0
  153.0429  141.9377  162.1374 H   0  0  0  0  0  0  0  0  0  0  0  0
  154.4596  142.5907  161.2999 H   0  0  0  0  0  0  0  0  0  0  0  0
  153.2129  140.2533  159.0820 H   0  0  0  0  0  0  0  0  0  0  0  0
  149.9522  143.4403  156.1857 H   0  0  0  0  0  0  0  0  0  0  0  0
  1  2  1  0  0  0  0
  1 26  1  0  0  0  0
  1 27  1  0  0  0  0
  1 28  1  0  0  0  0
  2  3  1  0  0  0  0
  2 29  1  0  0  0  0
  2 30  1  0  0  0  0
  3  4  1  0  0  0  0
  3 31  1  0  0  0  0
  3 32  1  0  0  0  0
  4 24  1  0  0  0  0
  4  5  1  0  0  0  0
  4 33  1  0  0  0  0
  5  6  1  0  0  0  0
  5 34  1  0  0  0  0
  6  7  2  0  0  0  0
  6  8  1  0  0  0  0
  8  9  1  0  0  0  0
  8 24  1  0  0  0  0
  9 10  1  0  0  0  0
  9 35  1  0  0  0  0
  9 36  1  0  0  0  0
 10 11  1  0  0  0  0
 10 12  1  0  0  0  0
 10 37  1  0  0  0  0
 11 38  1  0  0  0  0
 12 13  1  0  0  0  0
 12 39  1  0  0  0  0
 12 40  1  0  0  0  0
 13 23  1  0  0  0  0
 13 14  1  0  0  0  0
 14 15  2  0  0  0  0
 14 41  1  0  0  0  0
 15 16  1  0  0  0  0
 15 50  1  0  0  0  0
 16 23  2  0  0  0  0
 16 17  1  0  0  0  0
 17 18  2  0  0  0  0
 17 42  1  0  0  0  0
 18 19  1  0  0  0  0
 18 20  1  0  0  0  0
 19 43  1  0  0  0  0
 19 44  1  0  0  0  0
 19 45  1  0  0  0  0
 20 21  1  0  0  0  0
 20 22  2  0  0  0  0
 21 46  1  0  0  0  0
 21 47  1  0  0  0  0
 21 48  1  0  0  0  0
 22 23  1  0  0  0  0
 22 49  1  0  0  0  0
 24 25  2  0  0  0  0
M  CHG  1  15   1
M  END
> <s_m_source_file>
AV-unprocessed.smi

> <i_m_source_file_index>
1644

> <i_lp_mmshare_version>
43012

> <i_f3d_flags>
0

> <s_epik_input>
W0NIM11bQ0gyXVtDSDJdW0NAQEhdMVtOSF1DKD1PKU4oQzE9TylbQ0gyXVtDQEhdKFtPSF0pW0NIMl1uKFtjSF1uMiljKGMyMylbY0hdYyhbQ0gzXSljKFtjSF0zKVtDSDNd

> <s_epik_cmdline>
J2VwaWtfcHl0aG9uJywgJy1waCcsICc3LjAnLCAnLXRuJywgJzgnLCAnLW1hJywgJzIwMCcsICctbWV0YWxfYmluZGluZycsICctaW1hZScsICc8aW5maWxlLm1hZT4nLCAnLW9tYWUnLCAnPG91dGZpbGUubWFlPic=

> <r_lp_tautomer_probability>
1

> <r_epik_Ionization_Penalty>
1.06742

> <r_epik_Ionization_Penalty_Charging>
1.06736

> <r_epik_Ionization_Penalty_Neutral>
5.56132e-05

> <r_epik_State_Penalty>
1.12163

> <r_epik_Charging_Adjusted_Penalty>
2.18899

> <i_epik_Tot_Q>
1

> <i_epik_Tot_abs_Q>
1

> <r_epik_Metal_State_Penalty>
1.26636

> <b_epik_Metal_Only>
0

> <s_lp_Force_Field>
OPLS_2005

> <r_lp_Energy>
29.1926

> <b_lp_Chiralities_Consistent>
1

> <s_lp_Variant>
AV-unprocessed.smi:1644-5

> <Gold.Version>
5.8.1

> <Gold.Id.Protein>
6NUR|6NUR_protein|mol2

> <Gold.PLP.Fitness>
57.9174

> <Gold.PLP.PLP>
-49.3675

> <Gold.PLP.part.hbond>
-2.9027

> <Gold.PLP.part.metal>
0.0000

> <Gold.PLP.part.buried>
-8.6117

> <Gold.PLP.part.nonpolar>
-41.6297

> <Gold.PLP.part.repulsive>
3.6728

> <Gold.PLP.ligand.clash>
0.0000

> <Gold.PLP.ligand.torsion>
1.3234

> <Gold.PLP.Chemscore.Hbond>
3.6960

> <Gold.PLP.Chemscore.CHOScore>
0.0000

> <Gold.PLP.Chemscore.Metal>
0.0000

> <Gold.Chemscore.Hbonds>
donor molecule, donor type, donor heavy atom, donor atom, acceptor molecule, acceptor atom, score
      L1  H    15    50       P1  8028  2.00
      P1  H  7989  7998       L1    25  0.78
      P1  H  7997  8008       L1    11  0.94

> <Gold.PLP.Chemscore.Internal.Correction>
0.1087

> <Gold.Rescore>
     Score         DG    S(hbond)    S(metal)    S(lipo)     H(rot)  DE(clash)    DE(int)     intcor
     15.33     -19.95       2.20        0.00     122.17       2.80       2.14       2.49       ----

> <Gold.Chemscore.Fitness>
15.3304

> <Gold.Chemscore.DG>
-19.9547

> <Gold.Chemscore.ZeroCoef>
-5.4800

> <Gold.Chemscore.Hbond>
2.1973

> <Gold.Chemscore.Metal>
0.0000

> <Gold.Chemscore.Lipo>
122.1698

> <Gold.Chemscore.Internal_Hbond>
0.0000

> <Gold.Chemscore.DEClash>
2.1356

> <Gold.Chemscore.DEInternal>
2.4887

> <Gold.Chemscore.Rot>
2.7961

> <Gold.Chemscore.Internal.Correction>
   9.000000E+99

> <Gold.Chemscore.Hbonds>
donor molecule, donor type, donor heavy atom, donor atom, acceptor molecule, acceptor atom, score
      L1  H    15    50       P1  8028  1.00
      P1  H  7989  7998       L1    25  0.77
      P1  H  7997  8008       L1    11  0.54

> <Gold.Chemscore.Hbond.Weighted>
-7.3388

> <Gold.Chemscore.Metal.Weighted>
-0.0000

> <Gold.Chemscore.Lipo.Weighted>
-14.2939

> <Gold.Chemscore.Internal_Hbond.Weighted>
0.0000

> <Gold.Chemscore.DEClash.Weighted>
2.1356

> <Gold.Chemscore.DEInternal.Weighted>
2.4887

> <Gold.Chemscore.Rot.Weighted>
7.1580

> <Gold.Chemscore.Internal.Correction.Weighted>
   9.000000E+99

> <Gold.Protein.RotatedTorsions>
[ 6907 6896 6895 6894 ] final  -18.44 input  -60.11 | X-H torsion
[ 7974 7965 7964 7962 ] final   93.57 input  175.53 | X-H torsion
[ 8008 7997 7996 7995 ] final   -3.90 input   59.86 | X-H torsion
[ 10167 10162 10161 10158 ] final -177.76 input  -65.29 | X-H torsion
[ 10718 10713 10712 10709 ] final   -2.17 input   66.30 | X-H torsion
[ 10763 10752 10751 10750 ] final -151.00 input  -60.55 | X-H torsion
[ 11005 11000 10999 10996 ] final -137.40 input  -57.11 | X-H torsion

> <Gold.Protein.ActiveResidues>
 VAL166  LYS551  ARG553  GLY616  TRP617  ASP618  TYR619  PRO620  LYS621  CYS622 
 ASP623  PHE694  ASN695  SER759  ASP760  ASP761  ALA762  ILE779  LEU786  VAL792 
 PHE793  MET794  SER795  GLU796  ALA797  LYS798  CYS799  TRP800  GLU811  SER814 

> <Gold.Protein.RotatedAtoms>
  151.2782  135.0705  159.9159 H   0  0  0  0  0  0  0  0  0  0  0  0  # atno 6907 bound_to 6896
  152.5339  134.0059  159.7926 H   0  0  0  0  0  0  0  0  0  0  0  0  # atno 6908 bound_to 6896
  151.0308  133.5741  159.2692 H   0  0  0  0  0  0  0  0  0  0  0  0  # atno 6909 bound_to 6896
  145.4772  139.2279  143.2903 H   0  0  0  0  0  0  0  0  0  0  0  0  # atno 7974 bound_to 7965
  154.6200  140.2497  155.7562 H   0  0  0  0  0  0  0  0  0  0  0  0  # atno 8008 bound_to 7997
  156.2421  140.2928  156.0422 H   0  0  0  0  0  0  0  0  0  0  0  0  # atno 8009 bound_to 7997
  155.1913  140.0391  157.2891 H   0  0  0  0  0  0  0  0  0  0  0  0  # atno 8010 bound_to 7997
  139.5464  144.2223  152.0996 H   0  0  0  0  0  0  0  0  0  0  0  0  # atno 10167 bound_to 10162
  156.7948  130.5373  149.5730 H   0  0  0  0  0  0  0  0  0  0  0  0  # atno 10718 bound_to 10713
  154.8085  135.3270  154.7369 H   0  0  0  0  0  0  0  0  0  0  0  0  # atno 10763 bound_to 10752
  153.8023  135.6902  153.4858 H   0  0  0  0  0  0  0  0  0  0  0  0  # atno 10764 bound_to 10752
  153.1846  135.4573  155.0017 H   0  0  0  0  0  0  0  0  0  0  0  0  # atno 10765 bound_to 10752
  140.8714  134.2045  157.4648 H   0  0  0  0  0  0  0  0  0  0  0  0  # atno 11005 bound_to 11000
  146.2362  140.5555  142.8953 LP  0  0  0  0  0  0  0  0  0  0  0  0  # atno 17320 bound_to 7965
  144.7910  140.6032  143.6541 LP  0  0  0  0  0  0  0  0  0  0  0  0  # atno 17321 bound_to 7965
  140.1711  144.4935  150.6579 LP  0  0  0  0  0  0  0  0  0  0  0  0  # atno 17342 bound_to 10162
  140.6714  143.2287  151.5616 LP  0  0  0  0  0  0  0  0  0  0  0  0  # atno 17343 bound_to 10162
  156.1137  130.6059  151.0087 LP  0  0  0  0  0  0  0  0  0  0  0  0  # atno 17370 bound_to 10713
  157.6583  131.0885  150.7897 LP  0  0  0  0  0  0  0  0  0  0  0  0  # atno 17371 bound_to 10713
  139.8712  134.9776  156.4965 LP  0  0  0  0  0  0  0  0  0  0  0  0  # atno 17394 bound_to 11000
  140.8568  133.8090  155.9224 LP  0  0  0  0  0  0  0  0  0  0  0  0  # atno 17395 bound_to 11000

$$$$
