AV-unprocessed.smi:1554|AV-procd|sdf|6251|dock8
  -GOLD-   22720 6433D 1   1.00000     0.00000
 Structure written by MMmdl.
 48 50  0  0  0  0  0  0  0  0  2 V2000
  153.7278  142.7265  163.6031 C   0  0  0  0  0  0  0  0  0  0  0  0
  153.1402  142.9037  162.2141 C   0  0  0  0  0  0  0  0  0  0  0  0
  152.3915  144.0676  161.9279 C   0  0  0  0  0  0  0  0  0  0  0  0
  151.8264  144.2693  160.6496 C   0  0  0  0  0  0  0  0  0  0  0  0
  151.0687  145.3176  160.1559 N   0  0  0  0  0  0  0  0  0  0  0  0
  150.8421  144.9200  158.9072 C   0  0  0  0  0  0  0  0  0  0  0  0
  151.3621  143.7347  158.5338 N   0  0  0  0  0  0  0  0  0  0  0  0
  151.2457  143.0899  157.2382 C   0  0  0  0  0  0  0  0  0  0  0  0
  150.1554  142.0015  157.2247 C   0  0  1  0  0  0  0  0  0  0  0  0
  148.8817  142.6176  157.1996 O   0  0  0  0  0  0  0  0  0  0  0  0
  150.2829  141.0695  156.0038 C   0  0  0  0  0  0  0  0  0  0  0  0
  151.4667  140.1759  156.0913 N   0  3  2  0  0  0  0  0  0  0  0  0
  151.6213  139.2734  154.9234 C   0  0  0  0  0  0  0  0  0  0  0  0
  152.8930  138.4222  155.0703 C   0  0  0  0  0  0  0  0  0  0  0  0
  152.8412  137.6918  156.2895 O   0  0  0  0  0  0  0  0  0  0  0  0
  152.7808  138.5436  157.4284 C   0  0  2  0  0  0  0  0  0  0  0  0
  152.8180  137.6658  158.6844 C   0  0  0  0  0  0  0  0  0  0  0  0
  151.4996  139.3970  157.3521 C   0  0  0  0  0  0  0  0  0  0  0  0
  152.0311  143.2654  159.6587 C   0  0  0  0  0  0  0  0  0  0  0  0
  152.7758  142.1041  159.9302 C   0  0  0  0  0  0  0  0  0  0  0  0
  153.3351  141.9194  161.2118 C   0  0  0  0  0  0  0  0  0  0  0  0
  154.1391  140.6626  161.4950 C   0  0  0  0  0  0  0  0  0  0  0  0
  153.5113  143.5849  164.2399 H   0  0  0  0  0  0  0  0  0  0  0  0
  154.8109  142.6156  163.5499 H   0  0  0  0  0  0  0  0  0  0  0  0
  153.3117  141.8400  164.0825 H   0  0  0  0  0  0  0  0  0  0  0  0
  152.2443  144.8181  162.6907 H   0  0  0  0  0  0  0  0  0  0  0  0
  150.2601  145.5231  158.2254 H   0  0  0  0  0  0  0  0  0  0  0  0
  151.0418  143.8502  156.4828 H   0  0  0  0  0  0  0  0  0  0  0  0
  152.2152  142.6554  156.9907 H   0  0  0  0  0  0  0  0  0  0  0  0
  150.2341  141.4252  158.1457 H   0  0  0  0  0  0  0  0  0  0  0  0
  148.9784  143.5016  156.8790 H   0  0  0  0  0  0  0  0  0  0  0  0
  149.3736  140.4708  155.9278 H   0  0  0  0  0  0  0  0  0  0  0  0
  150.3413  141.6506  155.0822 H   0  0  0  0  0  0  0  0  0  0  0  0
  150.7476  138.6247  154.8425 H   0  0  0  0  0  0  0  0  0  0  0  0
  151.6798  139.8449  153.9979 H   0  0  0  0  0  0  0  0  0  0  0  0
  152.9702  137.7185  154.2413 H   0  0  0  0  0  0  0  0  0  0  0  0
  153.7870  139.0475  155.0422 H   0  0  0  0  0  0  0  0  0  0  0  0
  153.6565  139.1955  157.4354 H   0  0  0  0  0  0  0  0  0  0  0  0
  152.7801  138.2725  159.5894 H   0  0  0  0  0  0  0  0  0  0  0  0
  153.7336  137.0749  158.7196 H   0  0  0  0  0  0  0  0  0  0  0  0
  151.9754  136.9741  158.7092 H   0  0  0  0  0  0  0  0  0  0  0  0
  151.4621  140.0765  158.2046 H   0  0  0  0  0  0  0  0  0  0  0  0
  150.6151  138.7600  157.4094 H   0  0  0  0  0  0  0  0  0  0  0  0
  152.9155  141.3621  159.1581 H   0  0  0  0  0  0  0  0  0  0  0  0
  154.2154  140.0310  160.6094 H   0  0  0  0  0  0  0  0  0  0  0  0
  153.6677  140.0776  162.2847 H   0  0  0  0  0  0  0  0  0  0  0  0
  155.1512  140.9181  161.8096 H   0  0  0  0  0  0  0  0  0  0  0  0
  152.2774  140.7790  156.1102 H   0  0  0  0  0  0  0  0  0  0  0  0
  1  2  1  0  0  0  0
  1 23  1  0  0  0  0
  1 24  1  0  0  0  0
  1 25  1  0  0  0  0
  2 21  1  0  0  0  0
  2  3  2  0  0  0  0
  3  4  1  0  0  0  0
  3 26  1  0  0  0  0
  4 19  2  0  0  0  0
  4  5  1  0  0  0  0
  5  6  2  0  0  0  0
  6  7  1  0  0  0  0
  6 27  1  0  0  0  0
  7  8  1  0  0  0  0
  7 19  1  0  0  0  0
  8  9  1  0  0  0  0
  8 28  1  0  0  0  0
  8 29  1  0  0  0  0
  9 10  1  0  0  0  0
  9 11  1  0  0  0  0
  9 30  1  0  0  0  0
 10 31  1  0  0  0  0
 11 12  1  0  0  0  0
 11 32  1  0  0  0  0
 11 33  1  0  0  0  0
 12 18  1  0  0  0  0
 12 13  1  0  0  0  0
 12 48  1  0  0  0  0
 13 14  1  0  0  0  0
 13 34  1  0  0  0  0
 13 35  1  0  0  0  0
 14 15  1  0  0  0  0
 14 36  1  0  0  0  0
 14 37  1  0  0  0  0
 15 16  1  0  0  0  0
 16 17  1  0  0  0  0
 16 18  1  0  0  0  0
 16 38  1  0  0  0  0
 17 39  1  0  0  0  0
 17 40  1  0  0  0  0
 17 41  1  0  0  0  0
 18 42  1  0  0  0  0
 18 43  1  0  0  0  0
 19 20  1  0  0  0  0
 20 21  2  0  0  0  0
 20 44  1  0  0  0  0
 21 22  1  0  0  0  0
 22 45  1  0  0  0  0
 22 46  1  0  0  0  0
 22 47  1  0  0  0  0
M  CHG  1  12   1
M  END
> <s_m_source_file>
AV-unprocessed.smi

> <i_m_source_file_index>
1554

> <i_lp_mmshare_version>
43012

> <i_f3d_flags>
0

> <s_epik_input>
W0NIM11jKFtjSF0xKWMoW0NIM10pW2NIXWMoYzEyKW4oW2NIXW4yKVtDSDJdW0NASF0oW09IXSlbQ0gyXU4zW0NIMl1bQ0gyXU9bQ0BASF0oW0NIM10pW0NIMl0z

> <s_epik_cmdline>
J2VwaWtfcHl0aG9uJywgJy1waCcsICc3LjAnLCAnLXRuJywgJzgnLCAnLW1hJywgJzIwMCcsICctbWV0YWxfYmluZGluZycsICctaW1hZScsICc8aW5maWxlLm1hZT4nLCAnLW9tYWUnLCAnPG91dGZpbGUubWFlPic=

> <r_epik_Ionization_Penalty>
0.695251

> <r_epik_Ionization_Penalty_Charging>
0.608065

> <r_epik_Ionization_Penalty_Neutral>
0.0871863

> <r_epik_State_Penalty>
0.731955

> <r_epik_Charging_Adjusted_Penalty>
1.34002

> <i_epik_Tot_Q>
1

> <i_epik_Tot_abs_Q>
1

> <r_epik_Metal_State_Penalty>
0.652186

> <b_epik_Metal_Only>
0

> <s_lp_Force_Field>
OPLS_2005

> <r_lp_Energy>
20.6032

> <b_lp_Chiralities_Consistent>
1

> <s_lp_Variant>
AV-unprocessed.smi:1554-12

> <Gold.Version>
5.8.1

> <Gold.Id.Protein>
6NUR|6NUR_protein|mol2

> <Gold.PLP.Fitness>
58.3165

> <Gold.PLP.PLP>
-53.3266

> <Gold.PLP.part.hbond>
-1.1474

> <Gold.PLP.part.metal>
0.0000

> <Gold.PLP.part.buried>
-5.9035

> <Gold.PLP.part.nonpolar>
-47.2966

> <Gold.PLP.part.repulsive>
0.3317

> <Gold.PLP.ligand.clash>
0.0000

> <Gold.PLP.ligand.torsion>
0.4731

> <Gold.PLP.Chemscore.Hbond>
1.0000

> <Gold.PLP.Chemscore.CHOScore>
0.9684

> <Gold.PLP.Chemscore.Metal>
0.0000

> <Gold.Chemscore.Hbonds>
donor molecule, donor type, donor heavy atom, donor atom, acceptor molecule, acceptor atom, score
      L1  H    10    31       P1  8028  1.00
      L1  C     6    27       P1  8029  0.93

> <Gold.PLP.Chemscore.Internal.Correction>
0.0307

> <Gold.Rescore>
     Score         DG    S(hbond)    S(metal)    S(lipo)     H(rot)  DE(clash)    DE(int)     intcor
     19.67     -20.19       0.97        0.00     142.92       2.05       0.07       0.45       ----

> <Gold.Chemscore.Fitness>
19.6676

> <Gold.Chemscore.DG>
-20.1949

> <Gold.Chemscore.ZeroCoef>
-5.4800

> <Gold.Chemscore.Hbond>
0.9740

> <Gold.Chemscore.Metal>
0.0000

> <Gold.Chemscore.Lipo>
142.9172

> <Gold.Chemscore.Internal_Hbond>
0.0000

> <Gold.Chemscore.DEClash>
0.0745

> <Gold.Chemscore.DEInternal>
0.4528

> <Gold.Chemscore.Rot>
2.0546

> <Gold.Chemscore.Internal.Correction>
   9.000000E+99

> <Gold.Chemscore.Hbonds>
donor molecule, donor type, donor heavy atom, donor atom, acceptor molecule, acceptor atom, score
      L1  H    10    31       P1  8028  0.68

> <Gold.Chemscore.Hbond.Weighted>
-3.2532

> <Gold.Chemscore.Metal.Weighted>
-0.0000

> <Gold.Chemscore.Lipo.Weighted>
-16.7213

> <Gold.Chemscore.Internal_Hbond.Weighted>
0.0000

> <Gold.Chemscore.DEClash.Weighted>
0.0745

> <Gold.Chemscore.DEInternal.Weighted>
0.4528

> <Gold.Chemscore.Rot.Weighted>
5.2597

> <Gold.Chemscore.Internal.Correction.Weighted>
   9.000000E+99

> <Gold.Protein.RotatedTorsions>
[ 6907 6896 6895 6894 ] final  -35.31 input  -60.11 | X-H torsion
[ 7974 7965 7964 7962 ] final   62.11 input  175.53 | X-H torsion
[ 8008 7997 7996 7995 ] final   85.38 input   59.86 | X-H torsion
[ 10167 10162 10161 10158 ] final  121.75 input  -65.29 | X-H torsion
[ 10718 10713 10712 10709 ] final   91.56 input   66.30 | X-H torsion
[ 10763 10752 10751 10750 ] final  -42.74 input  -60.55 | X-H torsion
[ 11005 11000 10999 10996 ] final   85.58 input  -57.11 | X-H torsion

> <Gold.Protein.ActiveResidues>
 VAL166  LYS551  ARG553  GLY616  TRP617  ASP618  TYR619  PRO620  LYS621  CYS622 
 ASP623  PHE694  ASN695  SER759  ASP760  ASP761  ALA762  ILE779  LEU786  VAL792 
 PHE793  MET794  SER795  GLU796  ALA797  LYS798  CYS799  TRP800  GLU811  SER814 

> <Gold.Protein.RotatedAtoms>
  151.0414  134.9610  159.8163 H   0  0  0  0  0  0  0  0  0  0  0  0  # atno 6907 bound_to 6896
  152.5365  134.2653  159.8961 H   0  0  0  0  0  0  0  0  0  0  0  0  # atno 6908 bound_to 6896
  151.2665  133.4233  159.2653 H   0  0  0  0  0  0  0  0  0  0  0  0  # atno 6909 bound_to 6896
  145.8771  139.3417  143.0728 H   0  0  0  0  0  0  0  0  0  0  0  0  # atno 7974 bound_to 7965
  155.9492  140.3402  155.6393 H   0  0  0  0  0  0  0  0  0  0  0  0  # atno 8008 bound_to 7997
  155.6941  140.0752  157.2455 H   0  0  0  0  0  0  0  0  0  0  0  0  # atno 8009 bound_to 7997
  154.4118  140.1652  156.2106 H   0  0  0  0  0  0  0  0  0  0  0  0  # atno 8010 bound_to 7997
  139.5901  144.7022  151.3312 H   0  0  0  0  0  0  0  0  0  0  0  0  # atno 10167 bound_to 10162
  157.6960  131.0412  150.3748 H   0  0  0  0  0  0  0  0  0  0  0  0  # atno 10718 bound_to 10713
  153.9841  135.6713  153.4751 H   0  0  0  0  0  0  0  0  0  0  0  0  # atno 10763 bound_to 10752
  153.0735  135.4961  154.8351 H   0  0  0  0  0  0  0  0  0  0  0  0  # atno 10764 bound_to 10752
  154.7147  135.3104  154.9104 H   0  0  0  0  0  0  0  0  0  0  0  0  # atno 10765 bound_to 10752
  139.8967  134.8296  156.2602 H   0  0  0  0  0  0  0  0  0  0  0  0  # atno 11005 bound_to 11000
  145.9068  140.9207  143.0474 LP  0  0  0  0  0  0  0  0  0  0  0  0  # atno 17320 bound_to 7965
  144.6726  140.1106  143.7455 LP  0  0  0  0  0  0  0  0  0  0  0  0  # atno 17321 bound_to 7965
  140.7165  143.7251  150.7666 LP  0  0  0  0  0  0  0  0  0  0  0  0  # atno 17342 bound_to 10162
  140.0805  143.4973  152.2532 LP  0  0  0  0  0  0  0  0  0  0  0  0  # atno 17343 bound_to 10162
  156.4169  130.3945  149.6852 LP  0  0  0  0  0  0  0  0  0  0  0  0  # atno 17370 bound_to 10713
  156.4117  130.7725  151.2738 LP  0  0  0  0  0  0  0  0  0  0  0  0  # atno 17371 bound_to 10713
  141.0167  133.7064  156.1200 LP  0  0  0  0  0  0  0  0  0  0  0  0  # atno 17394 bound_to 11000
  140.7291  134.4274  157.5567 LP  0  0  0  0  0  0  0  0  0  0  0  0  # atno 17395 bound_to 11000

$$$$
