AV-unprocessed.smi:805|AV-procd|sdf|3798|dock2
  -GOLD-   22720 1233D 1   1.00000     0.00000
 Structure written by MMmdl.
 40 41  0  0  0  0  0  0  0  0  1 V2000
  145.6338  136.6494  154.4620 C   0  0  0  0  0  0  0  0  0  0  0  0
  146.4267  137.8038  153.8456 C   0  0  0  0  0  0  0  0  0  0  0  0
  147.5550  138.0714  154.6609 O   0  0  0  0  0  0  0  0  0  0  0  0
  148.4145  139.0544  154.1060 C   0  0  2  0  0  0  0  0  0  0  0  0
  149.5407  139.5203  155.0345 C   0  0  0  0  0  0  0  0  0  0  0  0
  149.2904  140.9118  154.4516 C   0  0  2  0  0  0  0  0  0  0  0  0
  149.4361  141.9736  155.4413 N   0  0  0  0  0  0  0  0  0  0  0  0
  150.3787  141.9924  156.3927 C   0  0  0  0  0  0  0  0  0  0  0  0
  151.2196  141.1041  156.5299 O   0  0  0  0  0  0  0  0  0  0  0  0
  150.2916  143.1045  157.1422 N   0  0  0  0  0  0  0  0  0  0  0  0
  151.0899  143.4861  158.2542 C   0  0  0  0  0  0  0  0  0  0  0  0
  152.0846  142.6657  158.8399 C   0  0  0  0  0  0  0  0  0  0  0  0
  152.7969  143.1517  159.9533 C   0  0  0  0  0  0  0  0  0  0  0  0
  152.4845  144.4340  160.4449 C   0  0  0  0  0  0  0  0  0  0  0  0
  151.5299  145.2209  159.9054 N   0  0  0  0  0  0  0  0  0  0  0  0
  150.8511  144.7484  158.8380 C   0  0  0  0  0  0  0  0  0  0  0  0
  147.8251  140.4854  154.1655 C   0  0  0  0  0  0  0  0  0  0  0  0
  147.2219  141.0078  152.8617 C   0  0  0  0  0  0  0  0  0  0  0  0
  146.7880  140.7445  155.2726 C   0  0  0  0  0  0  0  0  0  0  0  0
  144.7539  136.4171  153.8618 H   0  0  0  0  0  0  0  0  0  0  0  0
  145.2960  136.9011  155.4675 H   0  0  0  0  0  0  0  0  0  0  0  0
  146.2423  135.7470  154.5280 H   0  0  0  0  0  0  0  0  0  0  0  0
  146.7424  137.5403  152.8352 H   0  0  0  0  0  0  0  0  0  0  0  0
  145.7958  138.6912  153.7744 H   0  0  0  0  0  0  0  0  0  0  0  0
  148.7728  138.7969  153.1062 H   0  0  0  0  0  0  0  0  0  0  0  0
  149.2942  139.4296  156.0940 H   0  0  0  0  0  0  0  0  0  0  0  0
  150.5213  139.1006  154.8088 H   0  0  0  0  0  0  0  0  0  0  0  0
  149.8698  141.0723  153.5388 H   0  0  0  0  0  0  0  0  0  0  0  0
  148.7843  142.7430  155.3914 H   0  0  0  0  0  0  0  0  0  0  0  0
  149.6042  143.7837  156.8504 H   0  0  0  0  0  0  0  0  0  0  0  0
  152.3050  141.6762  158.4714 H   0  0  0  0  0  0  0  0  0  0  0  0
  153.5628  142.5521  160.4226 H   0  0  0  0  0  0  0  0  0  0  0  0
  153.0115  144.8352  161.2979 H   0  0  0  0  0  0  0  0  0  0  0  0
  150.0934  145.4041  158.4339 H   0  0  0  0  0  0  0  0  0  0  0  0
  147.0065  142.0751  152.9206 H   0  0  0  0  0  0  0  0  0  0  0  0
  146.2910  140.4947  152.6182 H   0  0  0  0  0  0  0  0  0  0  0  0
  147.8996  140.8628  152.0201 H   0  0  0  0  0  0  0  0  0  0  0  0
  146.5502  141.8052  155.3592 H   0  0  0  0  0  0  0  0  0  0  0  0
  147.1373  140.4125  156.2504 H   0  0  0  0  0  0  0  0  0  0  0  0
  145.8539  140.2183  155.0738 H   0  0  0  0  0  0  0  0  0  0  0  0
  1  2  1  0  0  0  0
  1 20  1  0  0  0  0
  1 21  1  0  0  0  0
  1 22  1  0  0  0  0
  2  3  1  0  0  0  0
  2 23  1  0  0  0  0
  2 24  1  0  0  0  0
  3  4  1  0  0  0  0
  4 17  1  0  0  0  0
  4  5  1  0  0  0  0
  4 25  1  0  0  0  0
  5  6  1  0  0  0  0
  5 26  1  0  0  0  0
  5 27  1  0  0  0  0
  6  7  1  0  0  0  0
  6 17  1  0  0  0  0
  6 28  1  0  0  0  0
  7  8  1  0  0  0  0
  7 29  1  0  0  0  0
  8  9  2  0  0  0  0
  8 10  1  0  0  0  0
 10 11  1  0  0  0  0
 10 30  1  0  0  0  0
 11 16  1  0  0  0  0
 11 12  2  0  0  0  0
 12 13  1  0  0  0  0
 12 31  1  0  0  0  0
 13 14  2  0  0  0  0
 13 32  1  0  0  0  0
 14 15  1  0  0  0  0
 14 33  1  0  0  0  0
 15 16  2  0  0  0  0
 16 34  1  0  0  0  0
 17 18  1  0  0  0  0
 17 19  1  0  0  0  0
 18 35  1  0  0  0  0
 18 36  1  0  0  0  0
 18 37  1  0  0  0  0
 19 38  1  0  0  0  0
 19 39  1  0  0  0  0
 19 40  1  0  0  0  0
M  END
> <s_m_source_file>
AV-unprocessed.smi

> <i_m_source_file_index>
805

> <i_lp_mmshare_version>
43012

> <i_f3d_flags>
0

> <s_epik_input>
W0NIM11bQ0gyXU9bQ0BASF0oQzEoW0NIM10pW0NIM10pW0NIMl1bQ0BIXTFbTkhdQyg9TylbTkhdYzJbY0hdW2NIXVtjSF1uW2NIXTI=

> <s_epik_cmdline>
J2VwaWtfcHl0aG9uJywgJy1waCcsICc3LjAnLCAnLXRuJywgJzgnLCAnLW1hJywgJzIwMCcsICctbWV0YWxfYmluZGluZycsICctaW1hZScsICc8aW5maWxlLm1hZT4nLCAnLW9tYWUnLCAnPG91dGZpbGUubWFlPic=

> <r_epik_Ionization_Penalty>
0.00485231

> <r_epik_Ionization_Penalty_Charging>
0

> <r_epik_Ionization_Penalty_Neutral>
0.00485231

> <r_epik_State_Penalty>
0.00349213

> <r_epik_Charging_Adjusted_Penalty>
0.00349213

> <i_epik_Tot_Q>
0

> <i_epik_Tot_abs_Q>
0

> <r_epik_Metal_State_Penalty>
-0

> <b_epik_Metal_Only>
0

> <s_lp_Force_Field>
OPLS_2005

> <r_lp_Energy>
21.5129

> <b_lp_Chiralities_Consistent>
1

> <s_lp_Variant>
AV-unprocessed.smi:805-3

> <Gold.Version>
5.8.1

> <Gold.Id.Protein>
6NUR|6NUR_protein|mol2

> <Gold.PLP.Fitness>
38.4078

> <Gold.PLP.PLP>
-30.6249

> <Gold.PLP.part.hbond>
-2.0000

> <Gold.PLP.part.metal>
0.0000

> <Gold.PLP.part.buried>
-5.0011

> <Gold.PLP.part.nonpolar>
-23.6004

> <Gold.PLP.part.repulsive>
0.4357

> <Gold.PLP.ligand.clash>
0.0000

> <Gold.PLP.ligand.torsion>
0.3406

> <Gold.PLP.Chemscore.Hbond>
1.7200

> <Gold.PLP.Chemscore.CHOScore>
1.0000

> <Gold.PLP.Chemscore.Metal>
0.0000

> <Gold.Chemscore.Hbonds>
donor molecule, donor type, donor heavy atom, donor atom, acceptor molecule, acceptor atom, score
      L1  H     7    29       P1  8028  0.74
      L1  H    10    30       P1  8028  1.00
      L1  C    16    34       P1  8029  1.00

> <Gold.PLP.Chemscore.Internal.Correction>
0.3040

> <Gold.Rescore>
     Score         DG    S(hbond)    S(metal)    S(lipo)     H(rot)  DE(clash)    DE(int)     intcor
     15.48     -20.13       1.90        0.00     100.59       1.36       1.59       3.05       ----

> <Gold.Chemscore.Fitness>
15.4804

> <Gold.Chemscore.DG>
-20.1254

> <Gold.Chemscore.ZeroCoef>
-5.4800

> <Gold.Chemscore.Hbond>
1.8999

> <Gold.Chemscore.Metal>
0.0000

> <Gold.Chemscore.Lipo>
100.5875

> <Gold.Chemscore.Internal_Hbond>
0.0000

> <Gold.Chemscore.DEClash>
1.5928

> <Gold.Chemscore.DEInternal>
3.0522

> <Gold.Chemscore.Rot>
1.3551

> <Gold.Chemscore.Internal.Correction>
   9.000000E+99

> <Gold.Chemscore.Hbonds>
donor molecule, donor type, donor heavy atom, donor atom, acceptor molecule, acceptor atom, score
      L1  H     7    29       P1  8028  0.70
      L1  H    10    30       P1  8028  0.92

> <Gold.Chemscore.Hbond.Weighted>
-6.3457

> <Gold.Chemscore.Metal.Weighted>
-0.0000

> <Gold.Chemscore.Lipo.Weighted>
-11.7687

> <Gold.Chemscore.Internal_Hbond.Weighted>
0.0000

> <Gold.Chemscore.DEClash.Weighted>
1.5928

> <Gold.Chemscore.DEInternal.Weighted>
3.0522

> <Gold.Chemscore.Rot.Weighted>
3.4691

> <Gold.Chemscore.Internal.Correction.Weighted>
   9.000000E+99

> <Gold.Protein.RotatedTorsions>
[ 6907 6896 6895 6894 ] final  -90.93 input  -60.11 | X-H torsion
[ 7974 7965 7964 7962 ] final   53.01 input  175.53 | X-H torsion
[ 8008 7997 7996 7995 ] final  -49.34 input   59.86 | X-H torsion
[ 10167 10162 10161 10158 ] final   86.56 input  -65.29 | X-H torsion
[ 10718 10713 10712 10709 ] final   24.05 input   66.30 | X-H torsion
[ 10763 10752 10751 10750 ] final -168.22 input  -60.55 | X-H torsion
[ 11005 11000 10999 10996 ] final  -56.40 input  -57.11 | X-H torsion

> <Gold.Protein.ActiveResidues>
 VAL166  LYS551  ARG553  GLY616  TRP617  ASP618  TYR619  PRO620  LYS621  CYS622 
 ASP623  PHE694  ASN695  SER759  ASP760  ASP761  ALA762  ILE779  LEU786  VAL792 
 PHE793  MET794  SER795  GLU796  ALA797  LYS798  CYS799  TRP800  GLU811  SER814 

> <Gold.Protein.RotatedAtoms>
  150.6887  134.2356  159.4451 H   0  0  0  0  0  0  0  0  0  0  0  0  # atno 6907 bound_to 6896
  152.0303  134.9769  160.0581 H   0  0  0  0  0  0  0  0  0  0  0  0  # atno 6908 bound_to 6896
  152.1311  133.4373  159.4758 H   0  0  0  0  0  0  0  0  0  0  0  0  # atno 6909 bound_to 6896
  145.9755  139.4190  143.0164 H   0  0  0  0  0  0  0  0  0  0  0  0  # atno 7974 bound_to 7965
  154.4042  140.1299  156.4486 H   0  0  0  0  0  0  0  0  0  0  0  0  # atno 8008 bound_to 7997
  155.7388  140.3490  155.5074 H   0  0  0  0  0  0  0  0  0  0  0  0  # atno 8009 bound_to 7997
  155.9058  140.1027  157.1306 H   0  0  0  0  0  0  0  0  0  0  0  0  # atno 8010 bound_to 7997
  139.8863  144.6411  150.8788 H   0  0  0  0  0  0  0  0  0  0  0  0  # atno 10167 bound_to 10162
  157.1745  130.6775  149.6090 H   0  0  0  0  0  0  0  0  0  0  0  0  # atno 10718 bound_to 10713
  154.6651  135.2930  154.9816 H   0  0  0  0  0  0  0  0  0  0  0  0  # atno 10763 bound_to 10752
  154.0862  135.6597  153.4849 H   0  0  0  0  0  0  0  0  0  0  0  0  # atno 10764 bound_to 10752
  153.0452  135.5209  154.7620 H   0  0  0  0  0  0  0  0  0  0  0  0  # atno 10765 bound_to 10752
  141.1118  133.6610  156.4614 H   0  0  0  0  0  0  0  0  0  0  0  0  # atno 11005 bound_to 11000
  145.7845  140.9842  143.1081 LP  0  0  0  0  0  0  0  0  0  0  0  0  # atno 17320 bound_to 7965
  144.6847  139.9606  143.7480 LP  0  0  0  0  0  0  0  0  0  0  0  0  # atno 17321 bound_to 7965
  140.7735  143.3545  151.1948 LP  0  0  0  0  0  0  0  0  0  0  0  0  # atno 17342 bound_to 10162
  139.7150  143.9315  152.2963 LP  0  0  0  0  0  0  0  0  0  0  0  0  # atno 17343 bound_to 10162
  155.9733  130.4667  150.6300 LP  0  0  0  0  0  0  0  0  0  0  0  0  # atno 17370 bound_to 10713
  157.4011  131.0810  151.1307 LP  0  0  0  0  0  0  0  0  0  0  0  0  # atno 17371 bound_to 10713
  140.4754  134.6714  157.5147 LP  0  0  0  0  0  0  0  0  0  0  0  0  # atno 17394 bound_to 11000
  140.0017  134.6827  155.9520 LP  0  0  0  0  0  0  0  0  0  0  0  0  # atno 17395 bound_to 11000

$$$$
