AV-unprocessed.smi:3250|AV-procd|sdf|12427|dock5
  -GOLD-   2272018313D 1   1.00000     0.00000
 Structure written by MMmdl.
 39 40  0  0  0  0  0  0  0  0  2 V2000
  146.8030  138.9384  151.9262 C   0  0  0  0  0  0  0  0  0  0  0  0
  147.6677  139.1125  153.1823 C   0  0  0  0  0  0  0  0  0  0  0  0
  148.1686  140.5045  153.3321 N   0  3  1  0  0  0  0  0  0  0  0  0
  147.1107  141.5469  153.3429 C   0  0  0  0  0  0  0  0  0  0  0  0
  146.4058  141.6232  154.7109 C   0  0  0  0  0  0  0  0  0  0  0  0
  147.3697  141.8154  155.7395 O   0  0  0  0  0  0  0  0  0  0  0  0
  148.3053  140.7455  155.8172 C   0  0  2  0  0  0  0  0  0  0  0  0
  149.2194  141.0139  157.0252 C   0  0  0  0  0  0  0  0  0  0  0  0
  149.8114  142.3455  156.9973 N   0  0  0  0  0  0  0  0  0  0  0  0
  150.8425  142.7680  157.8169 C   0  0  0  0  0  0  0  0  0  0  0  0
  151.1233  144.0714  157.7597 N   0  0  0  0  0  0  0  0  0  0  0  0
  152.1213  144.5196  158.5525 C   0  0  0  0  0  0  0  0  0  0  0  0
  152.8397  143.6550  159.4022 C   0  0  0  0  0  0  0  0  0  0  0  0
  152.4624  142.2972  159.3824 C   0  0  0  0  0  0  0  0  0  0  0  0
  153.1238  141.3960  160.1903 O   0  0  0  0  0  0  0  0  0  0  0  0
  154.0235  141.9062  161.1682 C   0  0  0  0  0  0  0  0  0  0  0  0
  151.4594  141.8596  158.5808 N   0  0  0  0  0  0  0  0  0  0  0  0
  149.0844  140.6841  154.4847 C   0  0  0  0  0  0  0  0  0  0  0  0
  146.5233  137.8929  151.7961 H   0  0  0  0  0  0  0  0  0  0  0  0
  147.3428  139.2479  151.0307 H   0  0  0  0  0  0  0  0  0  0  0  0
  145.8801  139.5151  151.9796 H   0  0  0  0  0  0  0  0  0  0  0  0
  147.1193  138.7971  154.0700 H   0  0  0  0  0  0  0  0  0  0  0  0
  148.5178  138.4351  153.0930 H   0  0  0  0  0  0  0  0  0  0  0  0
  147.5818  142.5077  153.1322 H   0  0  0  0  0  0  0  0  0  0  0  0
  146.3863  141.3840  152.5460 H   0  0  0  0  0  0  0  0  0  0  0  0
  145.7099  142.4621  154.7234 H   0  0  0  0  0  0  0  0  0  0  0  0
  145.8175  140.7264  154.9087 H   0  0  0  0  0  0  0  0  0  0  0  0
  147.7594  139.8152  155.9807 H   0  0  0  0  0  0  0  0  0  0  0  0
  148.6570  140.9022  157.9523 H   0  0  0  0  0  0  0  0  0  0  0  0
  150.0178  140.2715  157.0609 H   0  0  0  0  0  0  0  0  0  0  0  0
  149.4661  143.0069  156.3168 H   0  0  0  0  0  0  0  0  0  0  0  0
  152.3485  145.5744  158.5085 H   0  0  0  0  0  0  0  0  0  0  0  0
  153.6361  144.0152  160.0366 H   0  0  0  0  0  0  0  0  0  0  0  0
  154.4734  141.0763  161.7133 H   0  0  0  0  0  0  0  0  0  0  0  0
  153.5072  142.5378  161.8927 H   0  0  0  0  0  0  0  0  0  0  0  0
  154.8320  142.4768  160.7088 H   0  0  0  0  0  0  0  0  0  0  0  0
  149.8309  139.8890  154.5000 H   0  0  0  0  0  0  0  0  0  0  0  0
  149.6347  141.6154  154.3424 H   0  0  0  0  0  0  0  0  0  0  0  0
  148.7283  140.6707  152.5077 H   0  0  0  0  0  0  0  0  0  0  0  0
  1  2  1  0  0  0  0
  1 19  1  0  0  0  0
  1 20  1  0  0  0  0
  1 21  1  0  0  0  0
  2  3  1  0  0  0  0
  2 22  1  0  0  0  0
  2 23  1  0  0  0  0
  3 18  1  0  0  0  0
  3  4  1  0  0  0  0
  3 39  1  0  0  0  0
  4  5  1  0  0  0  0
  4 24  1  0  0  0  0
  4 25  1  0  0  0  0
  5  6  1  0  0  0  0
  5 26  1  0  0  0  0
  5 27  1  0  0  0  0
  6  7  1  0  0  0  0
  7  8  1  0  0  0  0
  7 18  1  0  0  0  0
  7 28  1  0  0  0  0
  8  9  1  0  0  0  0
  8 29  1  0  0  0  0
  8 30  1  0  0  0  0
  9 10  1  0  0  0  0
  9 31  1  0  0  0  0
 10 17  1  0  0  0  0
 10 11  2  0  0  0  0
 11 12  1  0  0  0  0
 12 13  2  0  0  0  0
 12 32  1  0  0  0  0
 13 14  1  0  0  0  0
 13 33  1  0  0  0  0
 14 15  1  0  0  0  0
 14 17  2  0  0  0  0
 15 16  1  0  0  0  0
 16 34  1  0  0  0  0
 16 35  1  0  0  0  0
 16 36  1  0  0  0  0
 18 37  1  0  0  0  0
 18 38  1  0  0  0  0
M  CHG  1   3   1
M  END
> <s_m_source_file>
AV-unprocessed.smi

> <i_m_source_file_index>
3250

> <i_lp_mmshare_version>
43012

> <i_f3d_flags>
0

> <s_epik_input>
W0NIM11bQ0gyXU4xW0NIMl1bQ0gyXU9bQ0BIXShbQ0gyXTEpW0NIMl1bTkhdYzJuW2NIXVtjSF1jKG4yKU9bQ0gzXQ==

> <s_epik_cmdline>
J2VwaWtfcHl0aG9uJywgJy1waCcsICc3LjAnLCAnLXRuJywgJzgnLCAnLW1hJywgJzIwMCcsICctbWV0YWxfYmluZGluZycsICctaW1hZScsICc8aW5maWxlLm1hZT4nLCAnLW9tYWUnLCAnPG91dGZpbGUubWFlPic=

> <r_lp_tautomer_probability>
1

> <r_epik_Ionization_Penalty>
0.19684

> <r_epik_Ionization_Penalty_Charging>
0.178504

> <r_epik_Ionization_Penalty_Neutral>
0.0183356

> <r_epik_State_Penalty>
0.162939

> <r_epik_Charging_Adjusted_Penalty>
0.341443

> <i_epik_Tot_Q>
1

> <i_epik_Tot_abs_Q>
1

> <r_epik_Metal_State_Penalty>
0.1608

> <b_epik_Metal_Only>
0

> <s_lp_Force_Field>
OPLS_2005

> <r_lp_Energy>
9.61167

> <b_lp_Chiralities_Consistent>
1

> <s_lp_Variant>
AV-unprocessed.smi:3250-3

> <Gold.Version>
5.8.1

> <Gold.Id.Protein>
6NUR|6NUR_protein|mol2

> <Gold.PLP.Fitness>
41.9276

> <Gold.PLP.PLP>
-36.5948

> <Gold.PLP.part.hbond>
-2.0000

> <Gold.PLP.part.metal>
0.0000

> <Gold.PLP.part.buried>
-6.2105

> <Gold.PLP.part.nonpolar>
-30.0652

> <Gold.PLP.part.repulsive>
0.9989

> <Gold.PLP.ligand.clash>
0.0000

> <Gold.PLP.ligand.torsion>
0.2013

> <Gold.PLP.Chemscore.Hbond>
1.8960

> <Gold.PLP.Chemscore.CHOScore>
0.0000

> <Gold.PLP.Chemscore.Metal>
0.0000

> <Gold.Chemscore.Hbonds>
donor molecule, donor type, donor heavy atom, donor atom, acceptor molecule, acceptor atom, score
      L1  H     3    39       P1  7957  0.99
      L1  H     9    31       P1  8028  1.00

> <Gold.PLP.Chemscore.Internal.Correction>
0.0474

> <Gold.Rescore>
     Score         DG    S(hbond)    S(metal)    S(lipo)     H(rot)  DE(clash)    DE(int)     intcor
     16.26     -16.90       1.96        0.00      79.12       1.71       0.40       0.24       ----

> <Gold.Chemscore.Fitness>
16.2640

> <Gold.Chemscore.DG>
-16.8996

> <Gold.Chemscore.ZeroCoef>
-5.4800

> <Gold.Chemscore.Hbond>
1.9604

> <Gold.Chemscore.Metal>
0.0000

> <Gold.Chemscore.Lipo>
79.1155

> <Gold.Chemscore.Internal_Hbond>
0.0000

> <Gold.Chemscore.DEClash>
0.3980

> <Gold.Chemscore.DEInternal>
0.2376

> <Gold.Chemscore.Rot>
1.7127

> <Gold.Chemscore.Internal.Correction>
   9.000000E+99

> <Gold.Chemscore.Hbonds>
donor molecule, donor type, donor heavy atom, donor atom, acceptor molecule, acceptor atom, score
      L1  H     3    39       P1  7957  0.94
      L1  H     9    31       P1  8028  0.98

> <Gold.Chemscore.Hbond.Weighted>
-6.5477

> <Gold.Chemscore.Metal.Weighted>
-0.0000

> <Gold.Chemscore.Lipo.Weighted>
-9.2565

> <Gold.Chemscore.Internal_Hbond.Weighted>
0.0000

> <Gold.Chemscore.DEClash.Weighted>
0.3980

> <Gold.Chemscore.DEInternal.Weighted>
0.2376

> <Gold.Chemscore.Rot.Weighted>
4.3846

> <Gold.Chemscore.Internal.Correction.Weighted>
   9.000000E+99

> <Gold.Protein.RotatedTorsions>
[ 6907 6896 6895 6894 ] final -133.87 input  -60.11 | X-H torsion
[ 7974 7965 7964 7962 ] final -157.25 input  175.53 | X-H torsion
[ 8008 7997 7996 7995 ] final   38.64 input   59.86 | X-H torsion
[ 10167 10162 10161 10158 ] final   42.61 input  -65.29 | X-H torsion
[ 10718 10713 10712 10709 ] final -165.98 input   66.30 | X-H torsion
[ 10763 10752 10751 10750 ] final -154.22 input  -60.55 | X-H torsion
[ 11005 11000 10999 10996 ] final -172.65 input  -57.11 | X-H torsion

> <Gold.Protein.ActiveResidues>
 VAL166  LYS551  ARG553  GLY616  TRP617  ASP618  TYR619  PRO620  LYS621  CYS622 
 ASP623  PHE694  ASN695  SER759  ASP760  ASP761  ALA762  ILE779  LEU786  VAL792 
 PHE793  MET794  SER795  GLU796  ALA797  LYS798  CYS799  TRP800  GLU811  SER814 

> <Gold.Protein.RotatedAtoms>
  150.9791  133.6264  159.2725 H   0  0  0  0  0  0  0  0  0  0  0  0  # atno 6907 bound_to 6896
  151.3526  135.0886  159.9417 H   0  0  0  0  0  0  0  0  0  0  0  0  # atno 6908 bound_to 6896
  152.5209  133.9380  159.7667 H   0  0  0  0  0  0  0  0  0  0  0  0  # atno 6909 bound_to 6896
  144.7557  140.3996  143.6014 H   0  0  0  0  0  0  0  0  0  0  0  0  # atno 7974 bound_to 7965
  155.2235  140.3333  155.4312 H   0  0  0  0  0  0  0  0  0  0  0  0  # atno 8008 bound_to 7997
  156.2323  140.1856  156.7256 H   0  0  0  0  0  0  0  0  0  0  0  0  # atno 8009 bound_to 7997
  154.6000  140.0624  156.9340 H   0  0  0  0  0  0  0  0  0  0  0  0  # atno 8010 bound_to 7997
  140.3526  144.2330  150.6144 H   0  0  0  0  0  0  0  0  0  0  0  0  # atno 10167 bound_to 10162
  156.6612  130.9046  151.3029 H   0  0  0  0  0  0  0  0  0  0  0  0  # atno 10718 bound_to 10713
  154.7874  135.3195  154.7855 H   0  0  0  0  0  0  0  0  0  0  0  0  # atno 10763 bound_to 10752
  153.8552  135.6858  153.4792 H   0  0  0  0  0  0  0  0  0  0  0  0  # atno 10764 bound_to 10752
  153.1531  135.4691  154.9604 H   0  0  0  0  0  0  0  0  0  0  0  0  # atno 10765 bound_to 10752
  140.4946  134.5952  157.4967 H   0  0  0  0  0  0  0  0  0  0  0  0  # atno 11005 bound_to 11000
  145.6789  139.1614  143.2712 LP  0  0  0  0  0  0  0  0  0  0  0  0  # atno 17320 bound_to 7965
  146.1563  140.6853  142.9298 LP  0  0  0  0  0  0  0  0  0  0  0  0  # atno 17321 bound_to 7965
  140.5204  143.2267  151.8397 LP  0  0  0  0  0  0  0  0  0  0  0  0  # atno 17342 bound_to 10162
  139.4824  144.4843  151.9266 LP  0  0  0  0  0  0  0  0  0  0  0  0  # atno 17343 bound_to 10162
  157.7109  130.9439  150.1086 LP  0  0  0  0  0  0  0  0  0  0  0  0  # atno 17370 bound_to 10713
  156.2010  130.3660  149.8789 LP  0  0  0  0  0  0  0  0  0  0  0  0  # atno 17371 bound_to 10713
  139.9749  134.7232  155.9969 LP  0  0  0  0  0  0  0  0  0  0  0  0  # atno 17394 bound_to 11000
  141.1467  133.6555  156.3888 LP  0  0  0  0  0  0  0  0  0  0  0  0  # atno 17395 bound_to 11000

$$$$
