#       Name:                AV-unprocessed.smi:2325
#       Creating user name   scv26
#       Creation time:       Fri Mar 27 12:51:46 2020


#       File generated by GOLD software.
#

@<TRIPOS>MOLECULE
AV-unprocessed.smi:2325
    46    47     1
SMALL
NO_CHARGES


@<TRIPOS>ATOM
      1 ****        -5.2953  -0.2545  -0.0517 C.3            1 S1                 0.0000
      2 ****        -4.8281   1.1054  -0.2399 N.pl3          1 S1                 0.0000
      3 ****        -5.6987   2.1407  -0.2921 N.2            1 S1                 0.0000
      4 ****        -4.8960   3.1907  -0.4677 C.2            1 S1                 0.0000
      5 ****        -3.5593   2.9183  -0.5342 N.2            1 S1                 0.0000
      6 ****        -3.5943   1.5979  -0.3839 C.2            1 S1                 0.0000
      7 ****        -2.4723   0.7270  -0.3640 N.am           1 S1                 0.0000
      8 ****        -1.1753   1.0526  -0.4938 C.2            1 S1                 0.0000
      9 ****        -0.7436   2.1909  -0.6765 O.2            1 S1                 0.0000
     10 ****        -0.3924  -0.0308  -0.3956 N.am           1 S1                 0.0000
     11 ****         1.0675  -0.0235  -0.4624 C.3            1 S1                 0.0000
     12 ****         1.6080  -1.3571  -0.9388 C.3            1 S1                 0.0000
     13 ****         3.0374  -1.3718  -0.3847 C.3            1 S1                 0.0000
     14 ****         3.4808  -2.7787   0.0443 C.3            1 S1                 0.0000
     15 ****         4.0437  -0.7536  -1.3704 C.3            1 S1                 0.0000
     16 ****         3.0054  -0.5355   0.7709 O.3            1 S1                 0.0000
     17 ****         1.7582   0.1439   0.9093 C.3            1 S1                 0.0000
     18 ****         2.0599   1.6148   1.2373 C.3            1 S1                 0.0000
     19 ****         1.0184  -0.5352   2.0809 C.3            1 S1                 0.0000
     20 ****        -4.9255  -0.8848  -0.8610 H              1 S1                 0.0000
     21 ****        -6.3856  -0.2891  -0.0481 H              1 S1                 0.0000
     22 ****        -4.9245  -0.6402   0.8983 H              1 S1                 0.0000
     23 ****        -5.2897   4.1930  -0.5508 H              1 S1                 0.0000
     24 ****        -2.6815  -0.2505  -0.2260 H              1 S1                 0.0000
     25 ****        -0.8343  -0.9259  -0.2467 H              1 S1                 0.0000
     26 ****         1.4120   0.7478  -1.1543 H              1 S1                 0.0000
     27 ****         1.0259  -2.1717  -0.5045 H              1 S1                 0.0000
     28 ****         1.5665  -1.4689  -2.0229 H              1 S1                 0.0000
     29 ****         3.4952  -3.4636  -0.8040 H              1 S1                 0.0000
     30 ****         2.8082  -3.1928   0.7962 H              1 S1                 0.0000
     31 ****         4.4821  -2.7614   0.4756 H              1 S1                 0.0000
     32 ****         4.1067  -1.3380  -2.2889 H              1 S1                 0.0000
     33 ****         5.0431  -0.7110  -0.9360 H              1 S1                 0.0000
     34 ****         3.7635   0.2640  -1.6436 H              1 S1                 0.0000
     35 ****         1.1424   2.1895   1.3629 H              1 S1                 0.0000
     36 ****         2.6423   2.0857   0.4449 H              1 S1                 0.0000
     37 ****         2.6329   1.7023   2.1607 H              1 S1                 0.0000
     38 ****         0.0659  -0.0481   2.2915 H              1 S1                 0.0000
     39 ****         1.6128  -0.4913   2.9937 H              1 S1                 0.0000
     40 ****         0.8174  -1.5867   1.8750 H              1 S1                 0.0000
     41 ****        -6.6957   2.1225  -0.2175 LP             1 S1                 0.0000
     42 ****        -2.7807   3.5332  -0.6595 LP             1 S1                 0.0000
     43 ****        -1.3773   2.9619  -0.7390 LP             1 S1                 0.0000
     44 ****         0.2408   2.3445  -0.7623 LP             1 S1                 0.0000
     45 ****         3.7358   0.1436   0.6975 LP             1 S1                 0.0000
     46 ****         3.1561  -1.1007   1.5820 LP             1 S1                 0.0000
@<TRIPOS>BOND
    1    1    2 1     
    2    1   20 1     
    3    1   21 1     
    4    1   22 1     
    5    2    6 1     
    6    2    3 1     
    7    3    4 2     
    8    4    5 1     
    9    4   23 1     
   10    5    6 2     
   11    6    7 1     
   12    7    8 am    
   13    7   24 1     
   14    8    9 2     
   15    8   10 am    
   16   10   11 1     
   17   10   25 1     
   18   11   17 1     
   19   11   12 1     
   20   11   26 1     
   21   12   13 1     
   22   12   27 1     
   23   12   28 1     
   24   13   14 1     
   25   13   15 1     
   26   13   16 1     
   27   14   29 1     
   28   14   30 1     
   29   14   31 1     
   30   15   32 1     
   31   15   33 1     
   32   15   34 1     
   33   16   17 1     
   34   17   18 1     
   35   17   19 1     
   36   18   35 1     
   37   18   36 1     
   38   18   37 1     
   39   19   38 1     
   40   19   39 1     
   41   19   40 1     
   42    3   41 1     
   43    5   42 1     
   44    9   43 1     
   45    9   44 1     
   46   16   45 1     
   47   16   46 1     
@<TRIPOS>SUBSTRUCTURE
      1 S1             1
@<TRIPOS>SET
LONE_PAIRS      STATIC     ATOMS    <user>   **** ""
6 41 42 43 44 45 46
DONOR_HYDROGENS      STATIC     ATOMS    <user>   **** ""
2 24 25
ATOM$BLUE        STATIC     ATOMS    COLORGROUP SYSTEM
6 41 42 43 44 45 46
ATOM$RED        STATIC     ATOMS    COLORGROUP SYSTEM
2 24 25
