AV-unprocessed.smi:2027|AV-procd|sdf|8214|dock1
  -GOLD-   2272010473D 1   1.00000     0.00000
 Structure written by MMmdl.
 50 52  0  0  0  0  0  0  0  0  2 V2000
  153.4657  142.5538  161.9575 C   0  0  0  0  0  0  0  0  0  0  0  0
  152.8709  142.2920  160.5849 C   0  0  0  0  0  0  0  0  0  0  0  0
  153.1573  141.0713  159.9335 C   0  0  0  0  0  0  0  0  0  0  0  0
  152.6219  140.7879  158.6580 C   0  0  0  0  0  0  0  0  0  0  0  0
  152.7651  139.6726  157.8505 N   0  0  0  0  0  0  0  0  0  0  0  0
  152.0263  140.0075  156.7969 C   0  0  0  0  0  0  0  0  0  0  0  0
  151.4198  141.2097  156.8258 N   0  0  0  0  0  0  0  0  0  0  0  0
  150.5680  141.7832  155.7994 C   0  0  0  0  0  0  0  0  0  0  0  0
  149.0832  141.4181  155.9910 C   0  0  1  0  0  0  0  0  0  0  0  0
  148.4834  142.3298  156.8927 O   0  0  0  0  0  0  0  0  0  0  0  0
  148.3074  141.4623  154.6619 C   0  0  0  0  0  0  0  0  0  0  0  0
  146.8866  141.8524  154.8662 N   0  3  2  0  0  0  0  0  0  0  0  0
  146.0054  140.6878  155.1130 C   0  0  0  0  0  0  0  0  0  0  0  0
  146.3541  142.7409  153.8034 C   0  0  0  0  0  0  0  0  0  0  0  0
  145.3695  143.7314  154.3663 C   0  0  0  0  0  0  0  0  0  0  0  0
  144.9226  143.8541  155.7135 C   0  0  0  0  0  0  0  0  0  0  0  0
  144.0326  144.8188  155.8745 N   0  0  0  0  0  0  0  0  0  0  0  0
  143.8887  145.3528  154.6443 N   0  0  0  0  0  0  0  0  0  0  0  0
  142.9703  146.4537  154.4466 C   0  0  0  0  0  0  0  0  0  0  0  0
  144.6860  144.7201  153.7153 C   0  0  0  0  0  0  0  0  0  0  0  0
  151.7874  141.7682  158.0458 C   0  0  0  0  0  0  0  0  0  0  0  0
  151.4963  142.9874  158.6834 C   0  0  0  0  0  0  0  0  0  0  0  0
  152.0371  143.2531  159.9588 C   0  0  0  0  0  0  0  0  0  0  0  0
  151.7129  144.5702  160.6414 C   0  0  0  0  0  0  0  0  0  0  0  0
  154.0991  141.7273  162.2811 H   0  0  0  0  0  0  0  0  0  0  0  0
  152.6757  142.6799  162.6982 H   0  0  0  0  0  0  0  0  0  0  0  0
  154.0768  143.4566  161.9442 H   0  0  0  0  0  0  0  0  0  0  0  0
  153.7916  140.3386  160.4104 H   0  0  0  0  0  0  0  0  0  0  0  0
  151.9179  139.3395  155.9550 H   0  0  0  0  0  0  0  0  0  0  0  0
  150.7012  142.8660  155.8021 H   0  0  0  0  0  0  0  0  0  0  0  0
  150.9195  141.4307  154.8289 H   0  0  0  0  0  0  0  0  0  0  0  0
  149.0206  140.4205  156.4269 H   0  0  0  0  0  0  0  0  0  0  0  0
  148.5317  143.1991  156.5240 H   0  0  0  0  0  0  0  0  0  0  0  0
  148.8129  142.1594  153.9934 H   0  0  0  0  0  0  0  0  0  0  0  0
  148.3489  140.4945  154.1600 H   0  0  0  0  0  0  0  0  0  0  0  0
  145.9365  140.0557  154.2266 H   0  0  0  0  0  0  0  0  0  0  0  0
  144.9990  141.0148  155.3768 H   0  0  0  0  0  0  0  0  0  0  0  0
  146.3769  140.0797  155.9376 H   0  0  0  0  0  0  0  0  0  0  0  0
  147.1842  143.2395  153.3006 H   0  0  0  0  0  0  0  0  0  0  0  0
  145.8635  142.1340  153.0412 H   0  0  0  0  0  0  0  0  0  0  0  0
  145.2103  143.2658  156.5725 H   0  0  0  0  0  0  0  0  0  0  0  0
  143.1233  146.8959  153.4617 H   0  0  0  0  0  0  0  0  0  0  0  0
  143.1358  147.2185  155.2063 H   0  0  0  0  0  0  0  0  0  0  0  0
  141.9441  146.0931  154.5187 H   0  0  0  0  0  0  0  0  0  0  0  0
  144.6945  145.0172  152.6767 H   0  0  0  0  0  0  0  0  0  0  0  0
  150.8597  143.7110  158.1965 H   0  0  0  0  0  0  0  0  0  0  0  0
  151.0614  145.1891  160.0238 H   0  0  0  0  0  0  0  0  0  0  0  0
  152.6249  145.1350  160.8357 H   0  0  0  0  0  0  0  0  0  0  0  0
  151.2055  144.3937  161.5902 H   0  0  0  0  0  0  0  0  0  0  0  0
  146.8700  142.4051  155.7118 H   0  0  0  0  0  0  0  0  0  0  0  0
  1  2  1  0  0  0  0
  1 25  1  0  0  0  0
  1 26  1  0  0  0  0
  1 27  1  0  0  0  0
  2 23  1  0  0  0  0
  2  3  2  0  0  0  0
  3  4  1  0  0  0  0
  3 28  1  0  0  0  0
  4 21  2  0  0  0  0
  4  5  1  0  0  0  0
  5  6  2  0  0  0  0
  6  7  1  0  0  0  0
  6 29  1  0  0  0  0
  7  8  1  0  0  0  0
  7 21  1  0  0  0  0
  8  9  1  0  0  0  0
  8 30  1  0  0  0  0
  8 31  1  0  0  0  0
  9 10  1  0  0  0  0
  9 11  1  0  0  0  0
  9 32  1  0  0  0  0
 10 33  1  0  0  0  0
 11 12  1  0  0  0  0
 11 34  1  0  0  0  0
 11 35  1  0  0  0  0
 12 13  1  0  0  0  0
 12 14  1  0  0  0  0
 12 50  1  0  0  0  0
 13 36  1  0  0  0  0
 13 37  1  0  0  0  0
 13 38  1  0  0  0  0
 14 15  1  0  0  0  0
 14 39  1  0  0  0  0
 14 40  1  0  0  0  0
 15 20  2  0  0  0  0
 15 16  1  0  0  0  0
 16 17  2  0  0  0  0
 16 41  1  0  0  0  0
 17 18  1  0  0  0  0
 18 19  1  0  0  0  0
 18 20  1  0  0  0  0
 19 42  1  0  0  0  0
 19 43  1  0  0  0  0
 19 44  1  0  0  0  0
 20 45  1  0  0  0  0
 21 22  1  0  0  0  0
 22 23  2  0  0  0  0
 22 46  1  0  0  0  0
 23 24  1  0  0  0  0
 24 47  1  0  0  0  0
 24 48  1  0  0  0  0
 24 49  1  0  0  0  0
M  CHG  1  12   1
M  END
> <s_m_source_file>
AV-unprocessed.smi

> <i_m_source_file_index>
2027

> <i_lp_mmshare_version>
43012

> <i_f3d_flags>
0

> <s_epik_input>
W0NIM11jKFtjSF0xKWMoW0NIM10pW2NIXWMoYzEyKW4oW2NIXW4yKVtDSDJdW0NASF0oW09IXSlbQ0gyXU4oW0NIM10pW0NIMl1jM1tjSF1ubihbQ0gzXSlbY0hdMw==

> <s_epik_cmdline>
J2VwaWtfcHl0aG9uJywgJy1waCcsICc3LjAnLCAnLXRuJywgJzgnLCAnLW1hJywgJzIwMCcsICctbWV0YWxfYmluZGluZycsICctaW1hZScsICc8aW5maWxlLm1hZT4nLCAnLW9tYWUnLCAnPG91dGZpbGUubWFlPic=

> <r_lp_tautomer_probability>
1

> <r_epik_Ionization_Penalty>
0.646578

> <r_epik_Ionization_Penalty_Charging>
0.559419

> <r_epik_Ionization_Penalty_Neutral>
0.087159

> <r_epik_State_Penalty>
0.661677

> <r_epik_Charging_Adjusted_Penalty>
1.2211

> <i_epik_Tot_Q>
1

> <i_epik_Tot_abs_Q>
1

> <r_epik_Metal_State_Penalty>
0.649174

> <b_epik_Metal_Only>
0

> <s_lp_Force_Field>
OPLS_2005

> <r_lp_Energy>
10.2185

> <b_lp_Chiralities_Consistent>
1

> <s_lp_Variant>
AV-unprocessed.smi:2027-6

> <Gold.Version>
5.8.1

> <Gold.Id.Protein>
6NUR|6NUR_protein|mol2

> <Gold.PLP.Fitness>
55.4606

> <Gold.PLP.PLP>
-52.8017

> <Gold.PLP.part.hbond>
-2.0000

> <Gold.PLP.part.metal>
0.0000

> <Gold.PLP.part.buried>
-8.1572

> <Gold.PLP.part.nonpolar>
-41.7429

> <Gold.PLP.part.repulsive>
0.1318

> <Gold.PLP.ligand.clash>
0.0000

> <Gold.PLP.ligand.torsion>
1.8879

> <Gold.PLP.Chemscore.Hbond>
1.9357

> <Gold.PLP.Chemscore.CHOScore>
0.0000

> <Gold.PLP.Chemscore.Metal>
0.0000

> <Gold.Chemscore.Hbonds>
donor molecule, donor type, donor heavy atom, donor atom, acceptor molecule, acceptor atom, score
      L1  H    10    33       P1  8028  1.00
      P1  H  7997  8010       L1     5  0.80

> <Gold.PLP.Chemscore.Internal.Correction>
0.6275

> <Gold.Rescore>
     Score         DG    S(hbond)    S(metal)    S(lipo)     H(rot)  DE(clash)    DE(int)     intcor
     16.40     -18.86       1.10        0.00     137.86       2.50       0.46       2.01       ----

> <Gold.Chemscore.Fitness>
16.3953

> <Gold.Chemscore.DG>
-18.8598

> <Gold.Chemscore.ZeroCoef>
-5.4800

> <Gold.Chemscore.Hbond>
1.0965

> <Gold.Chemscore.Metal>
0.0000

> <Gold.Chemscore.Lipo>
137.8597

> <Gold.Chemscore.Internal_Hbond>
0.0000

> <Gold.Chemscore.DEClash>
0.4571

> <Gold.Chemscore.DEInternal>
2.0074

> <Gold.Chemscore.Rot>
2.5047

> <Gold.Chemscore.Internal.Correction>
   9.000000E+99

> <Gold.Chemscore.Hbonds>
donor molecule, donor type, donor heavy atom, donor atom, acceptor molecule, acceptor atom, score
      L1  H    10    33       P1  8028  0.74
      P1  H  7997  8010       L1     5  0.04

> <Gold.Chemscore.Hbond.Weighted>
-3.6622

> <Gold.Chemscore.Metal.Weighted>
-0.0000

> <Gold.Chemscore.Lipo.Weighted>
-16.1296

> <Gold.Chemscore.Internal_Hbond.Weighted>
0.0000

> <Gold.Chemscore.DEClash.Weighted>
0.4571

> <Gold.Chemscore.DEInternal.Weighted>
2.0074

> <Gold.Chemscore.Rot.Weighted>
6.4120

> <Gold.Chemscore.Internal.Correction.Weighted>
   9.000000E+99

> <Gold.Protein.RotatedTorsions>
[ 6907 6896 6895 6894 ] final -117.31 input  -60.11 | X-H torsion
[ 7974 7965 7964 7962 ] final  -50.56 input  175.53 | X-H torsion
[ 8008 7997 7996 7995 ] final   26.46 input   59.86 | X-H torsion
[ 10167 10162 10161 10158 ] final -159.71 input  -65.29 | X-H torsion
[ 10718 10713 10712 10709 ] final  -68.85 input   66.30 | X-H torsion
[ 10763 10752 10751 10750 ] final   72.96 input  -60.55 | X-H torsion
[ 11005 11000 10999 10996 ] final -105.39 input  -57.11 | X-H torsion

> <Gold.Protein.ActiveResidues>
 VAL166  LYS551  ARG553  GLY616  TRP617  ASP618  TYR619  PRO620  LYS621  CYS622 
 ASP623  PHE694  ASN695  SER759  ASP760  ASP761  ALA762  ILE779  LEU786  VAL792 
 PHE793  MET794  SER795  GLU796  ALA797  LYS798  CYS799  TRP800  GLU811  SER814 

> <Gold.Protein.RotatedAtoms>
  150.8126  133.8394  159.3175 H   0  0  0  0  0  0  0  0  0  0  0  0  # atno 6907 bound_to 6896
  151.6175  135.1033  160.0104 H   0  0  0  0  0  0  0  0  0  0  0  0  # atno 6908 bound_to 6896
  152.4218  133.7088  159.6523 H   0  0  0  0  0  0  0  0  0  0  0  0  # atno 6909 bound_to 6896
  145.9285  140.7771  142.9612 H   0  0  0  0  0  0  0  0  0  0  0  0  # atno 7974 bound_to 7965
  155.0276  140.3155  155.4770 H   0  0  0  0  0  0  0  0  0  0  0  0  # atno 8008 bound_to 7997
  156.2880  140.2186  156.5338 H   0  0  0  0  0  0  0  0  0  0  0  0  # atno 8009 bound_to 7997
  154.7398  140.0474  157.0789 H   0  0  0  0  0  0  0  0  0  0  0  0  # atno 8010 bound_to 7997
  139.6594  143.9940  152.2215 H   0  0  0  0  0  0  0  0  0  0  0  0  # atno 10167 bound_to 10162
  156.0485  130.4302  150.2061 H   0  0  0  0  0  0  0  0  0  0  0  0  # atno 10718 bound_to 10713
  153.0491  135.5080  154.7822 H   0  0  0  0  0  0  0  0  0  0  0  0  # atno 10763 bound_to 10752
  154.6698  135.2951  154.9759 H   0  0  0  0  0  0  0  0  0  0  0  0  # atno 10764 bound_to 10752
  154.0581  135.6695  153.4861 H   0  0  0  0  0  0  0  0  0  0  0  0  # atno 10765 bound_to 10752
  141.1055  133.8804  157.1728 H   0  0  0  0  0  0  0  0  0  0  0  0  # atno 11005 bound_to 11000
  144.6761  140.2089  143.7379 LP  0  0  0  0  0  0  0  0  0  0  0  0  # atno 17320 bound_to 7965
  145.8457  139.2151  143.1801 LP  0  0  0  0  0  0  0  0  0  0  0  0  # atno 17321 bound_to 7965
  139.9675  144.6516  150.8021 LP  0  0  0  0  0  0  0  0  0  0  0  0  # atno 17342 bound_to 10162
  140.7573  143.3084  151.2905 LP  0  0  0  0  0  0  0  0  0  0  0  0  # atno 17343 bound_to 10162
  157.0147  130.9961  151.3356 LP  0  0  0  0  0  0  0  0  0  0  0  0  # atno 17370 bound_to 10713
  157.5386  130.8105  149.8001 LP  0  0  0  0  0  0  0  0  0  0  0  0  # atno 17371 bound_to 10713
  139.9924  135.0059  157.0006 LP  0  0  0  0  0  0  0  0  0  0  0  0  # atno 17394 bound_to 11000
  140.4912  134.1191  155.7233 LP  0  0  0  0  0  0  0  0  0  0  0  0  # atno 17395 bound_to 11000

$$$$
