AV-unprocessed.smi:828|AV-procd|sdf|3860|dock9
  -GOLD-   22720 1313D 1   1.00000     0.00000
 Structure written by MMmdl.
 35 36  0  0  0  0  0  0  0  0  2 V2000
  151.9281  140.9991  156.8299 C   0  0  0  0  0  0  0  0  0  0  0  0
  151.7445  139.7272  156.0752 C   0  0  0  0  0  0  0  0  0  0  0  0
  152.7687  139.0438  155.5498 N   0  0  0  0  0  0  0  0  0  0  0  0
  152.3520  137.8961  154.8894 N   0  0  0  0  0  0  0  0  0  0  0  0
  151.0208  137.7486  154.9363 C   0  0  0  0  0  0  0  0  0  0  0  0
  150.3254  136.6659  154.3364 N   0  0  0  0  0  0  0  0  0  0  0  0
  150.2073  135.4028  154.7814 C   0  0  0  0  0  0  0  0  0  0  0  0
  150.6748  134.9697  155.8351 O   0  0  0  0  0  0  0  0  0  0  0  0
  149.5058  134.6488  153.9232 N   0  0  0  0  0  0  0  0  0  0  0  0
  149.1987  133.2340  154.1096 C   0  0  0  0  0  0  0  0  0  0  0  0
  148.4306  132.6364  152.9034 C   0  0  2  0  0  0  0  0  0  0  0  0
  147.0063  133.1968  152.7523 C   0  0  0  0  0  0  0  0  0  0  0  0
  146.2321  132.0662  152.0893 C   0  0  0  0  0  0  0  0  0  0  0  0
  146.8596  130.8273  152.7189 C   0  0  0  0  0  0  0  0  0  0  0  0
  148.2934  131.1493  152.8849 N   0  3  2  0  0  0  0  0  0  0  0  0
  148.9523  130.3736  153.9615 C   0  0  0  0  0  0  0  0  0  0  0  0
  150.1606  139.0128  155.7982 S   0  0  0  0  0  0  0  0  0  0  0  0
  152.8584  140.9732  157.3980 H   0  0  0  0  0  0  0  0  0  0  0  0
  151.1012  141.1494  157.5241 H   0  0  0  0  0  0  0  0  0  0  0  0
  151.9622  141.8405  156.1378 H   0  0  0  0  0  0  0  0  0  0  0  0
  149.8722  136.8775  153.4596 H   0  0  0  0  0  0  0  0  0  0  0  0
  149.1559  135.0845  153.0822 H   0  0  0  0  0  0  0  0  0  0  0  0
  150.1306  132.6953  154.2870 H   0  0  0  0  0  0  0  0  0  0  0  0
  148.6052  133.1486  155.0199 H   0  0  0  0  0  0  0  0  0  0  0  0
  148.9805  132.8755  151.9923 H   0  0  0  0  0  0  0  0  0  0  0  0
  146.5737  133.4021  153.7326 H   0  0  0  0  0  0  0  0  0  0  0  0
  146.9766  134.1218  152.1756 H   0  0  0  0  0  0  0  0  0  0  0  0
  145.1568  132.1298  152.2585 H   0  0  0  0  0  0  0  0  0  0  0  0
  146.4088  132.0722  151.0128 H   0  0  0  0  0  0  0  0  0  0  0  0
  146.4060  130.6501  153.6956 H   0  0  0  0  0  0  0  0  0  0  0  0
  146.7166  129.9311  152.1145 H   0  0  0  0  0  0  0  0  0  0  0  0
  148.5478  130.6234  154.9427 H   0  0  0  0  0  0  0  0  0  0  0  0
  150.0286  130.5470  153.9681 H   0  0  0  0  0  0  0  0  0  0  0  0
  148.7973  129.3066  153.7993 H   0  0  0  0  0  0  0  0  0  0  0  0
  148.7379  130.8603  152.0248 H   0  0  0  0  0  0  0  0  0  0  0  0
  1  2  1  0  0  0  0
  1 18  1  0  0  0  0
  1 19  1  0  0  0  0
  1 20  1  0  0  0  0
  2 17  1  0  0  0  0
  2  3  2  0  0  0  0
  3  4  1  0  0  0  0
  4  5  2  0  0  0  0
  5  6  1  0  0  0  0
  5 17  1  0  0  0  0
  6  7  1  0  0  0  0
  6 21  1  0  0  0  0
  7  8  2  0  0  0  0
  7  9  1  0  0  0  0
  9 10  1  0  0  0  0
  9 22  1  0  0  0  0
 10 11  1  0  0  0  0
 10 23  1  0  0  0  0
 10 24  1  0  0  0  0
 11 15  1  0  0  0  0
 11 12  1  0  0  0  0
 11 25  1  0  0  0  0
 12 13  1  0  0  0  0
 12 26  1  0  0  0  0
 12 27  1  0  0  0  0
 13 14  1  0  0  0  0
 13 28  1  0  0  0  0
 13 29  1  0  0  0  0
 14 15  1  0  0  0  0
 14 30  1  0  0  0  0
 14 31  1  0  0  0  0
 15 16  1  0  0  0  0
 15 35  1  0  0  0  0
 16 32  1  0  0  0  0
 16 33  1  0  0  0  0
 16 34  1  0  0  0  0
M  CHG  1  15   1
M  END
> <s_m_source_file>
AV-unprocessed.smi

> <i_m_source_file_index>
828

> <i_lp_mmshare_version>
43012

> <i_f3d_flags>
0

> <s_epik_input>
W0NIM11jMW5uYyhzMSlbTkhdQyg9TylbTkhdW0NIMl1bQ0BASF0yW0NIMl1bQ0gyXVtDSDJdTjJbQ0gzXQ==

> <s_epik_cmdline>
J2VwaWtfcHl0aG9uJywgJy1waCcsICc3LjAnLCAnLXRuJywgJzgnLCAnLW1hJywgJzIwMCcsICctbWV0YWxfYmluZGluZycsICctaW1hZScsICc8aW5maWxlLm1hZT4nLCAnLW9tYWUnLCAnPG91dGZpbGUubWFlPic=

> <r_lp_tautomer_probability>
1

> <r_epik_Ionization_Penalty>
0.00466477

> <r_epik_Ionization_Penalty_Charging>
0.00372199

> <r_epik_Ionization_Penalty_Neutral>
0.000942783

> <r_epik_State_Penalty>
-0

> <r_epik_Charging_Adjusted_Penalty>
0.00372199

> <i_epik_Tot_Q>
1

> <i_epik_Tot_abs_Q>
1

> <r_epik_Metal_State_Penalty>
0.28212

> <b_epik_Metal_Only>
0

> <s_lp_Force_Field>
OPLS_2005

> <r_lp_Energy>
27.2564

> <b_lp_Chiralities_Consistent>
1

> <s_lp_Variant>
AV-unprocessed.smi:828-3

> <Gold.Version>
5.8.1

> <Gold.Id.Protein>
6NUR|6NUR_protein|mol2

> <Gold.PLP.Fitness>
37.1479

> <Gold.PLP.PLP>
-26.7904

> <Gold.PLP.part.hbond>
-6.0371

> <Gold.PLP.part.metal>
0.0000

> <Gold.PLP.part.buried>
-2.5684

> <Gold.PLP.part.nonpolar>
-18.4350

> <Gold.PLP.part.repulsive>
0.2011

> <Gold.PLP.ligand.clash>
0.0000

> <Gold.PLP.ligand.torsion>
0.7636

> <Gold.PLP.Chemscore.Hbond>
3.9605

> <Gold.PLP.Chemscore.CHOScore>
0.0000

> <Gold.PLP.Chemscore.Metal>
0.0000

> <Gold.Chemscore.Hbonds>
donor molecule, donor type, donor heavy atom, donor atom, acceptor molecule, acceptor atom, score
      L1  H     6    21       P1  7948  0.96
      L1  H     9    22       P1  7948  0.70
      L1  H    15    35       P1 10747  1.00
      P1  H  7997  8008       L1     3  1.00
      P1  H 10752 10765       L1     4  0.11

> <Gold.PLP.Chemscore.Internal.Correction>
0.0031

> <Gold.Rescore>
     Score         DG    S(hbond)    S(metal)    S(lipo)     H(rot)  DE(clash)    DE(int)     intcor
     16.09     -16.87       2.79        0.00      46.70       1.33       0.00       0.78       ----

> <Gold.Chemscore.Fitness>
16.0880

> <Gold.Chemscore.DG>
-16.8711

> <Gold.Chemscore.ZeroCoef>
-5.4800

> <Gold.Chemscore.Hbond>
2.7937

> <Gold.Chemscore.Metal>
0.0000

> <Gold.Chemscore.Lipo>
46.6963

> <Gold.Chemscore.Internal_Hbond>
0.0000

> <Gold.Chemscore.DEClash>
0.0038

> <Gold.Chemscore.DEInternal>
0.7793

> <Gold.Chemscore.Rot>
1.3294

> <Gold.Chemscore.Internal.Correction>
   9.000000E+99

> <Gold.Chemscore.Hbonds>
donor molecule, donor type, donor heavy atom, donor atom, acceptor molecule, acceptor atom, score
      L1  H     6    21       P1  7948  0.32
      L1  H     9    22       P1  7948  0.07
      L1  H    15    35       P1 10747  0.77
      P1  H  7997  8008       L1     3  0.37
      P1  H 10752 10765       L1     4  0.03

> <Gold.Chemscore.Hbond.Weighted>
-9.3309

> <Gold.Chemscore.Metal.Weighted>
-0.0000

> <Gold.Chemscore.Lipo.Weighted>
-5.4635

> <Gold.Chemscore.Internal_Hbond.Weighted>
0.0000

> <Gold.Chemscore.DEClash.Weighted>
0.0038

> <Gold.Chemscore.DEInternal.Weighted>
0.7793

> <Gold.Chemscore.Rot.Weighted>
3.4033

> <Gold.Chemscore.Internal.Correction.Weighted>
   9.000000E+99

> <Gold.Protein.RotatedTorsions>
[ 6907 6896 6895 6894 ] final -117.81 input  -60.11 | X-H torsion
[ 7974 7965 7964 7962 ] final  112.69 input  175.53 | X-H torsion
[ 8008 7997 7996 7995 ] final  -28.36 input   59.86 | X-H torsion
[ 10167 10162 10161 10158 ] final  -15.54 input  -65.29 | X-H torsion
[ 10718 10713 10712 10709 ] final  107.65 input   66.30 | X-H torsion
[ 10763 10752 10751 10750 ] final  168.83 input  -60.55 | X-H torsion
[ 11005 11000 10999 10996 ] final -170.17 input  -57.11 | X-H torsion

> <Gold.Protein.ActiveResidues>
 VAL166  LYS551  ARG553  GLY616  TRP617  ASP618  TYR619  PRO620  LYS621  CYS622 
 ASP623  PHE694  ASN695  SER759  ASP760  ASP761  ALA762  ILE779  LEU786  VAL792 
 PHE793  MET794  SER795  GLU796  ALA797  LYS798  CYS799  TRP800  GLU811  SER814 

> <Gold.Protein.RotatedAtoms>
  150.8168  133.8324  159.3156 H   0  0  0  0  0  0  0  0  0  0  0  0  # atno 6907 bound_to 6896
  151.6094  135.1039  160.0087 H   0  0  0  0  0  0  0  0  0  0  0  0  # atno 6908 bound_to 6896
  152.4258  133.7153  159.6559 H   0  0  0  0  0  0  0  0  0  0  0  0  # atno 6909 bound_to 6896
  145.2263  139.2839  143.4191 H   0  0  0  0  0  0  0  0  0  0  0  0  # atno 7974 bound_to 7965
  154.4336  140.1847  156.1077 H   0  0  0  0  0  0  0  0  0  0  0  0  # atno 8008 bound_to 7997
  156.0242  140.3337  155.7045 H   0  0  0  0  0  0  0  0  0  0  0  0  # atno 8009 bound_to 7997
  155.5932  140.0633  157.2744 H   0  0  0  0  0  0  0  0  0  0  0  0  # atno 8010 bound_to 7997
  140.7220  143.5208  150.9636 H   0  0  0  0  0  0  0  0  0  0  0  0  # atno 10167 bound_to 10162
  157.6619  131.0877  150.6188 H   0  0  0  0  0  0  0  0  0  0  0  0  # atno 10718 bound_to 10713
  154.3743  135.2753  155.2248 H   0  0  0  0  0  0  0  0  0  0  0  0  # atno 10763 bound_to 10752
  154.4382  135.5961  153.6115 H   0  0  0  0  0  0  0  0  0  0  0  0  # atno 10764 bound_to 10752
  152.9837  135.6012  154.3978 H   0  0  0  0  0  0  0  0  0  0  0  0  # atno 10765 bound_to 10752
  140.5225  134.5695  157.5052 H   0  0  0  0  0  0  0  0  0  0  0  0  # atno 11005 bound_to 11000
  146.3364  140.2584  142.8601 LP  0  0  0  0  0  0  0  0  0  0  0  0  # atno 17320 bound_to 7965
  144.9718  140.8376  143.5450 LP  0  0  0  0  0  0  0  0  0  0  0  0  # atno 17321 bound_to 7965
  139.8925  143.6936  152.3143 LP  0  0  0  0  0  0  0  0  0  0  0  0  # atno 17342 bound_to 10162
  139.7256  144.7593  151.0884 LP  0  0  0  0  0  0  0  0  0  0  0  0  # atno 17343 bound_to 10162
  156.6491  130.4480  149.5726 LP  0  0  0  0  0  0  0  0  0  0  0  0  # atno 17370 bound_to 10713
  156.2151  130.6703  151.1310 LP  0  0  0  0  0  0  0  0  0  0  0  0  # atno 17371 bound_to 10713
  139.9598  134.7472  156.0261 LP  0  0  0  0  0  0  0  0  0  0  0  0  # atno 17394 bound_to 11000
  141.1326  133.6582  156.3507 LP  0  0  0  0  0  0  0  0  0  0  0  0  # atno 17395 bound_to 11000

$$$$
