AV-unprocessed.smi:2740|AV-procd|sdf|10557|dock2
  -GOLD-   2272015 13D 1   1.00000     0.00000
 Structure written by MMmdl.
 30 31  0  0  0  0  0  0  0  0  2 V2000
  151.6203  144.5629  159.5143 C   0  0  0  0  0  0  0  0  0  0  0  0
  151.7592  143.2352  158.8498 C   0  0  0  0  0  0  0  0  0  0  0  0
  151.0043  142.7321  157.8223 C   0  0  0  0  0  0  0  0  0  0  0  0
  151.3840  141.4503  157.4213 N   0  0  0  0  0  0  0  0  0  0  0  0
  152.4076  140.9552  158.1251 C   0  0  0  0  0  0  0  0  0  0  0  0
  152.9292  139.7378  157.9021 N   0  5  0  0  0  0  0  0  0  0  0  0
  152.2608  138.8469  157.1345 C   0  0  0  0  0  0  0  0  0  0  0  0
  151.8188  137.7550  157.5004 O   0  0  0  0  0  0  0  0  0  0  0  0
  152.0938  139.2440  155.8648 N   0  0  0  0  0  0  0  0  0  0  0  0
  151.4112  138.4892  154.8192 C   0  0  0  0  0  0  0  0  0  0  0  0
  150.1592  139.2246  154.3132 C   0  0  1  0  0  0  0  0  0  0  0  0
  148.8780  138.8396  155.0517 C   0  0  0  0  0  0  0  0  0  0  0  0
  147.9987  140.0753  154.9238 C   0  0  0  0  0  0  0  0  0  0  0  0
  148.9463  141.1574  154.3995 C   0  0  0  0  0  0  0  0  0  0  0  0
  150.2481  140.6173  154.5714 O   0  0  0  0  0  0  0  0  0  0  0  0
  152.9836  142.0961  159.3427 S   0  0  0  0  0  0  0  0  0  0  0  0
  150.6565  144.6425  160.0171 H   0  0  0  0  0  0  0  0  0  0  0  0
  151.6889  145.3698  158.7846 H   0  0  0  0  0  0  0  0  0  0  0  0
  152.4018  144.7158  160.2591 H   0  0  0  0  0  0  0  0  0  0  0  0
  150.1805  143.2149  157.3179 H   0  0  0  0  0  0  0  0  0  0  0  0
  152.4745  140.1420  155.6051 H   0  0  0  0  0  0  0  0  0  0  0  0
  152.0986  138.3025  153.9925 H   0  0  0  0  0  0  0  0  0  0  0  0
  151.1387  137.5123  155.2193 H   0  0  0  0  0  0  0  0  0  0  0  0
  150.0232  139.0680  153.2411 H   0  0  0  0  0  0  0  0  0  0  0  0
  148.4139  137.9439  154.6381 H   0  0  0  0  0  0  0  0  0  0  0  0
  149.0901  138.6513  156.1050 H   0  0  0  0  0  0  0  0  0  0  0  0
  147.1717  139.9151  154.2311 H   0  0  0  0  0  0  0  0  0  0  0  0
  147.5780  140.3480  155.8922 H   0  0  0  0  0  0  0  0  0  0  0  0
  148.7716  141.3387  153.3380 H   0  0  0  0  0  0  0  0  0  0  0  0
  148.8373  142.1042  154.9291 H   0  0  0  0  0  0  0  0  0  0  0  0
  1  2  1  0  0  0  0
  1 17  1  0  0  0  0
  1 18  1  0  0  0  0
  1 19  1  0  0  0  0
  2 16  1  0  0  0  0
  2  3  2  0  0  0  0
  3  4  1  0  0  0  0
  3 20  1  0  0  0  0
  4  5  2  0  0  0  0
  5  6  1  0  0  0  0
  5 16  1  0  0  0  0
  6  7  1  0  0  0  0
  7  8  2  0  0  0  0
  7  9  1  0  0  0  0
  9 10  1  0  0  0  0
  9 21  1  0  0  0  0
 10 11  1  0  0  0  0
 10 22  1  0  0  0  0
 10 23  1  0  0  0  0
 11 15  1  0  0  0  0
 11 12  1  0  0  0  0
 11 24  1  0  0  0  0
 12 13  1  0  0  0  0
 12 25  1  0  0  0  0
 12 26  1  0  0  0  0
 13 14  1  0  0  0  0
 13 27  1  0  0  0  0
 13 28  1  0  0  0  0
 14 15  1  0  0  0  0
 14 29  1  0  0  0  0
 14 30  1  0  0  0  0
M  CHG  1   6  -1
M  END
> <s_m_source_file>
AV-unprocessed.smi

> <i_m_source_file_index>
2740

> <i_lp_mmshare_version>
43012

> <i_f3d_flags>
0

> <s_epik_input>
W0NIM11jMVtjSF1uYyhzMSlbTkhdQyg9TylbTkhdW0NIMl1bQ0BASF0yW0NIMl1bQ0gyXVtDSDJdTzI=

> <s_epik_cmdline>
J2VwaWtfcHl0aG9uJywgJy1waCcsICc3LjAnLCAnLXRuJywgJzgnLCAnLW1hJywgJzIwMCcsICctbWV0YWxfYmluZGluZycsICctaW1hZScsICc8aW5maWxlLm1hZT4nLCAnLW9tYWUnLCAnPG91dGZpbGUubWFlPic=

> <r_lp_tautomer_probability>
0.999

> <r_epik_Ionization_Penalty>
8.54039

> <r_epik_Ionization_Penalty_Charging>
6.77868

> <r_epik_Ionization_Penalty_Neutral>
1.76171

> <r_epik_State_Penalty>
6.77885

> <r_epik_Charging_Adjusted_Penalty>
13.5575

> <i_epik_Tot_Q>
-1

> <i_epik_Tot_abs_Q>
1

> <r_epik_Metal_State_Penalty>
2.69888

> <b_epik_Metal_Only>
1

> <s_lp_Force_Field>
OPLS_2005

> <r_lp_Energy>
13.1724

> <b_lp_Chiralities_Consistent>
1

> <s_lp_Variant>
AV-unprocessed.smi:2740-4

> <Gold.Version>
5.8.1

> <Gold.Id.Protein>
6NUR|6NUR_protein|mol2

> <Gold.PLP.Fitness>
38.9646

> <Gold.PLP.PLP>
-29.1969

> <Gold.PLP.part.hbond>
-2.0000

> <Gold.PLP.part.metal>
0.0000

> <Gold.PLP.part.buried>
-3.7129

> <Gold.PLP.part.nonpolar>
-22.9210

> <Gold.PLP.part.repulsive>
0.2917

> <Gold.PLP.ligand.clash>
0.0000

> <Gold.PLP.ligand.torsion>
1.1024

> <Gold.PLP.Chemscore.Hbond>
2.9760

> <Gold.PLP.Chemscore.CHOScore>
1.0000

> <Gold.PLP.Chemscore.Metal>
0.0000

> <Gold.Chemscore.Hbonds>
donor molecule, donor type, donor heavy atom, donor atom, acceptor molecule, acceptor atom, score
      P1  H  7989  7998       L1    15  0.66
      P1  H  7997  8010       L1     6  2.00
      L1  C     3    20       P1  8028  0.88

> <Gold.PLP.Chemscore.Internal.Correction>
0.0444

> <Gold.Rescore>
     Score         DG    S(hbond)    S(metal)    S(lipo)     H(rot)  DE(clash)    DE(int)     intcor
     14.78     -15.78       1.52        0.00      71.93       1.25       0.05       0.94       ----

> <Gold.Chemscore.Fitness>
14.7840

> <Gold.Chemscore.DG>
-15.7762

> <Gold.Chemscore.ZeroCoef>
-5.4800

> <Gold.Chemscore.Hbond>
1.5222

> <Gold.Chemscore.Metal>
0.0000

> <Gold.Chemscore.Lipo>
71.9268

> <Gold.Chemscore.Internal_Hbond>
0.0000

> <Gold.Chemscore.DEClash>
0.0509

> <Gold.Chemscore.DEInternal>
0.9413

> <Gold.Chemscore.Rot>
1.2514

> <Gold.Chemscore.Internal.Correction>
   9.000000E+99

> <Gold.Chemscore.Hbonds>
donor molecule, donor type, donor heavy atom, donor atom, acceptor molecule, acceptor atom, score
      P1  H  7989  7998       L1    15  0.08
      P1  H  7997  8010       L1     6  0.11

> <Gold.Chemscore.Hbond.Weighted>
-5.0843

> <Gold.Chemscore.Metal.Weighted>
-0.0000

> <Gold.Chemscore.Lipo.Weighted>
-8.4154

> <Gold.Chemscore.Internal_Hbond.Weighted>
0.0000

> <Gold.Chemscore.DEClash.Weighted>
0.0509

> <Gold.Chemscore.DEInternal.Weighted>
0.9413

> <Gold.Chemscore.Rot.Weighted>
3.2036

> <Gold.Chemscore.Internal.Correction.Weighted>
   9.000000E+99

> <Gold.Protein.RotatedTorsions>
[ 6907 6896 6895 6894 ] final  -16.74 input  -60.11 | X-H torsion
[ 7974 7965 7964 7962 ] final -166.58 input  175.53 | X-H torsion
[ 8008 7997 7996 7995 ] final   51.31 input   59.86 | X-H torsion
[ 10167 10162 10161 10158 ] final  -24.48 input  -65.29 | X-H torsion
[ 10718 10713 10712 10709 ] final   52.76 input   66.30 | X-H torsion
[ 10763 10752 10751 10750 ] final -152.05 input  -60.55 | X-H torsion
[ 11005 11000 10999 10996 ] final  -92.99 input  -57.11 | X-H torsion

> <Gold.Protein.ActiveResidues>
 VAL166  LYS551  ARG553  GLY616  TRP617  ASP618  TYR619  PRO620  LYS621  CYS622 
 ASP623  PHE694  ASN695  SER759  ASP760  ASP761  ALA762  ILE779  LEU786  VAL792 
 PHE793  MET794  SER795  GLU796  ALA797  LYS798  CYS799  TRP800  GLU811  SER814 

> <Gold.Protein.RotatedAtoms>
  151.3040  135.0776  159.9248 H   0  0  0  0  0  0  0  0  0  0  0  0  # atno 6907 bound_to 6896
  152.5291  133.9804  159.7814 H   0  0  0  0  0  0  0  0  0  0  0  0  # atno 6908 bound_to 6896
  151.0095  133.5927  159.2715 H   0  0  0  0  0  0  0  0  0  0  0  0  # atno 6909 bound_to 6896
  144.7242  140.2646  143.6260 H   0  0  0  0  0  0  0  0  0  0  0  0  # atno 7974 bound_to 7965
  155.4331  140.3451  155.4282 H   0  0  0  0  0  0  0  0  0  0  0  0  # atno 8008 bound_to 7997
  156.1324  140.1518  156.9076 H   0  0  0  0  0  0  0  0  0  0  0  0  # atno 8009 bound_to 7997
  154.4905  140.0842  156.7563 H   0  0  0  0  0  0  0  0  0  0  0  0  # atno 8010 bound_to 7997
  140.7288  143.4349  151.0744 H   0  0  0  0  0  0  0  0  0  0  0  0  # atno 10167 bound_to 10162
  157.5105  130.8497  149.8429 H   0  0  0  0  0  0  0  0  0  0  0  0  # atno 10718 bound_to 10713
  154.8019  135.3245  154.7528 H   0  0  0  0  0  0  0  0  0  0  0  0  # atno 10763 bound_to 10752
  153.8194  135.6889  153.4833 H   0  0  0  0  0  0  0  0  0  0  0  0  # atno 10764 bound_to 10752
  153.1741  135.4612  154.9885 H   0  0  0  0  0  0  0  0  0  0  0  0  # atno 10765 bound_to 10752
  141.1508  133.7857  157.0097 H   0  0  0  0  0  0  0  0  0  0  0  0  # atno 11005 bound_to 11000
  145.8102  139.2000  143.1997 LP  0  0  0  0  0  0  0  0  0  0  0  0  # atno 17320 bound_to 7965
  146.0602  140.7979  142.9738 LP  0  0  0  0  0  0  0  0  0  0  0  0  # atno 17321 bound_to 7965
  139.8010  143.8083  152.3163 LP  0  0  0  0  0  0  0  0  0  0  0  0  # atno 17342 bound_to 10162
  139.8100  144.7339  150.9710 LP  0  0  0  0  0  0  0  0  0  0  0  0  # atno 17343 bound_to 10162
  156.0286  130.3771  150.1752 LP  0  0  0  0  0  0  0  0  0  0  0  0  # atno 17370 bound_to 10713
  156.9942  130.9902  151.3407 LP  0  0  0  0  0  0  0  0  0  0  0  0  # atno 17371 bound_to 10713
  140.0886  134.9606  157.1739 LP  0  0  0  0  0  0  0  0  0  0  0  0  # atno 17394 bound_to 11000
  140.3477  134.2633  155.7203 LP  0  0  0  0  0  0  0  0  0  0  0  0  # atno 17395 bound_to 11000

$$$$
