AV-unprocessed.smi:1549|AV-procd|sdf|6223|dock2
  -GOLD-   22720 6393D 1   1.00000     0.00000
 Structure written by MMmdl.
 41 42  0  0  0  0  0  0  0  0  1 V2000
  150.9194  138.5652  154.1672 C   0  0  0  0  0  0  0  0  0  0  0  0
  151.0420  137.4698  155.2290 C   0  0  0  0  0  0  0  0  0  0  0  0
  150.3110  136.3281  154.7930 O   0  0  0  0  0  0  0  0  0  0  0  0
  150.6611  135.0859  155.2876 C   0  0  0  0  0  0  0  0  0  0  0  0
  151.6498  135.0147  156.2139 N   0  0  0  0  0  0  0  0  0  0  0  0
  151.9951  133.8022  156.6934 C   0  0  0  0  0  0  0  0  0  0  0  0
  151.3844  132.6059  156.2749 C   0  0  0  0  0  0  0  0  0  0  0  0
  150.3583  132.6773  155.3148 C   0  0  0  0  0  0  0  0  0  0  0  0
  149.9738  133.9444  154.8129 C   0  0  0  0  0  0  0  0  0  0  0  0
  148.9649  134.1291  153.8275 N   0  0  0  0  0  0  0  0  0  0  0  0
  148.0605  133.2435  153.3773 C   0  0  0  0  0  0  0  0  0  0  0  0
  147.9317  132.0884  153.7823 O   0  0  0  0  0  0  0  0  0  0  0  0
  147.2873  133.7838  152.4246 N   0  0  0  0  0  0  0  0  0  0  0  0
  146.2069  133.0952  151.7246 C   0  0  2  0  0  0  0  0  0  0  0  0
  146.5457  132.9320  150.2292 C   0  0  0  0  0  0  0  0  0  0  0  0
  145.3934  132.2657  149.4576 C   0  0  0  0  0  0  0  0  0  0  0  0
  144.0566  133.0065  149.6486 C   0  0  2  0  0  0  0  0  0  0  0  0
  144.0936  134.2525  148.9811 O   0  0  0  0  0  0  0  0  0  0  0  0
  143.7323  133.2155  151.1400 C   0  0  0  0  0  0  0  0  0  0  0  0
  144.8934  133.8787  151.9018 C   0  0  0  0  0  0  0  0  0  0  0  0
  151.4740  139.4567  154.4611 H   0  0  0  0  0  0  0  0  0  0  0  0
  149.8782  138.8525  154.0195 H   0  0  0  0  0  0  0  0  0  0  0  0
  151.3138  138.2273  153.2087 H   0  0  0  0  0  0  0  0  0  0  0  0
  152.0934  137.2156  155.3723 H   0  0  0  0  0  0  0  0  0  0  0  0
  150.6482  137.8354  156.1788 H   0  0  0  0  0  0  0  0  0  0  0  0
  152.7864  133.7846  157.4280 H   0  0  0  0  0  0  0  0  0  0  0  0
  151.6991  131.6546  156.6775 H   0  0  0  0  0  0  0  0  0  0  0  0
  149.9006  131.7617  154.9744 H   0  0  0  0  0  0  0  0  0  0  0  0
  148.8883  135.0672  153.4621 H   0  0  0  0  0  0  0  0  0  0  0  0
  147.4619  134.7417  152.1583 H   0  0  0  0  0  0  0  0  0  0  0  0
  146.0735  132.1061  152.1676 H   0  0  0  0  0  0  0  0  0  0  0  0
  146.7620  133.9073  149.7909 H   0  0  0  0  0  0  0  0  0  0  0  0
  147.4513  132.3360  150.1106 H   0  0  0  0  0  0  0  0  0  0  0  0
  145.6416  132.1982  148.3979 H   0  0  0  0  0  0  0  0  0  0  0  0
  145.2834  131.2389  149.8087 H   0  0  0  0  0  0  0  0  0  0  0  0
  143.2577  132.4241  149.1885 H   0  0  0  0  0  0  0  0  0  0  0  0
  144.8124  134.2431  148.3678 H   0  0  0  0  0  0  0  0  0  0  0  0
  142.8239  133.8090  151.2500 H   0  0  0  0  0  0  0  0  0  0  0  0
  143.5191  132.2476  151.5956 H   0  0  0  0  0  0  0  0  0  0  0  0
  144.6410  133.9499  152.9607 H   0  0  0  0  0  0  0  0  0  0  0  0
  145.0221  134.9025  151.5475 H   0  0  0  0  0  0  0  0  0  0  0  0
  1  2  1  0  0  0  0
  1 21  1  0  0  0  0
  1 22  1  0  0  0  0
  1 23  1  0  0  0  0
  2  3  1  0  0  0  0
  2 24  1  0  0  0  0
  2 25  1  0  0  0  0
  3  4  1  0  0  0  0
  4  9  1  0  0  0  0
  4  5  2  0  0  0  0
  5  6  1  0  0  0  0
  6  7  2  0  0  0  0
  6 26  1  0  0  0  0
  7  8  1  0  0  0  0
  7 27  1  0  0  0  0
  8  9  2  0  0  0  0
  8 28  1  0  0  0  0
  9 10  1  0  0  0  0
 10 11  1  0  0  0  0
 10 29  1  0  0  0  0
 11 12  2  0  0  0  0
 11 13  1  0  0  0  0
 13 14  1  0  0  0  0
 13 30  1  0  0  0  0
 14 20  1  0  0  0  0
 14 15  1  0  0  0  0
 14 31  1  0  0  0  0
 15 16  1  0  0  0  0
 15 32  1  0  0  0  0
 15 33  1  0  0  0  0
 16 17  1  0  0  0  0
 16 34  1  0  0  0  0
 16 35  1  0  0  0  0
 17 18  1  0  0  0  0
 17 19  1  0  0  0  0
 17 36  1  0  0  0  0
 18 37  1  0  0  0  0
 19 20  1  0  0  0  0
 19 38  1  0  0  0  0
 19 39  1  0  0  0  0
 20 40  1  0  0  0  0
 20 41  1  0  0  0  0
M  END
> <s_m_source_file>
AV-unprocessed.smi

> <i_m_source_file_index>
1549

> <i_lp_mmshare_version>
43012

> <i_f3d_flags>
0

> <s_epik_input>
W0NIM11bQ0gyXU9jMW5bY0hdW2NIXVtjSF1jMVtOSF1DKD1PKVtOSF1bQ0BASF0yW0NIMl1bQ0gyXVtDQEBIXShbT0hdKVtDSDJdW0NIMl0y

> <s_epik_cmdline>
J2VwaWtfcHl0aG9uJywgJy1waCcsICc3LjAnLCAnLXRuJywgJzgnLCAnLW1hJywgJzIwMCcsICctbWV0YWxfYmluZGluZycsICctaW1hZScsICc8aW5maWxlLm1hZT4nLCAnLW9tYWUnLCAnPG91dGZpbGUubWFlPic=

> <r_lp_tautomer_probability>
1

> <r_epik_Ionization_Penalty>
0.000120387

> <r_epik_Ionization_Penalty_Charging>
0

> <r_epik_Ionization_Penalty_Neutral>
0.000120387

> <r_epik_State_Penalty>
-0

> <r_epik_Charging_Adjusted_Penalty>
0

> <i_epik_Tot_Q>
0

> <i_epik_Tot_abs_Q>
0

> <r_epik_Metal_State_Penalty>
-0

> <b_epik_Metal_Only>
0

> <s_lp_Force_Field>
OPLS_2005

> <r_lp_Energy>
13.0635

> <b_lp_Chiralities_Consistent>
1

> <s_lp_Variant>
AV-unprocessed.smi:1549-2

> <Gold.Version>
5.8.1

> <Gold.Id.Protein>
6NUR|6NUR_protein|mol2

> <Gold.PLP.Fitness>
46.8831

> <Gold.PLP.PLP>
-36.2143

> <Gold.PLP.part.hbond>
-4.5359

> <Gold.PLP.part.metal>
0.0000

> <Gold.PLP.part.buried>
-2.6323

> <Gold.PLP.part.nonpolar>
-25.6398

> <Gold.PLP.part.repulsive>
0.2806

> <Gold.PLP.ligand.clash>
0.0000

> <Gold.PLP.ligand.torsion>
0.1901

> <Gold.PLP.Chemscore.Hbond>
3.6742

> <Gold.PLP.Chemscore.CHOScore>
0.0000

> <Gold.PLP.Chemscore.Metal>
0.0000

> <Gold.Chemscore.Hbonds>
donor molecule, donor type, donor heavy atom, donor atom, acceptor molecule, acceptor atom, score
      L1  H    10    29       P1  7948  0.91
      L1  H    13    30       P1  7948  0.77
      L1  H    18    37       P1  7921  1.00
      P1  H 10752 10765       L1     5  0.98

> <Gold.PLP.Chemscore.Internal.Correction>
0.0262

> <Gold.Rescore>
     Score         DG    S(hbond)    S(metal)    S(lipo)     H(rot)  DE(clash)    DE(int)     intcor
     16.72     -18.20       2.42        0.00      82.03       1.93       0.08       1.40       ----

> <Gold.Chemscore.Fitness>
16.7181

> <Gold.Chemscore.DG>
-18.1984

> <Gold.Chemscore.ZeroCoef>
-5.4800

> <Gold.Chemscore.Hbond>
2.4150

> <Gold.Chemscore.Metal>
0.0000

> <Gold.Chemscore.Lipo>
82.0295

> <Gold.Chemscore.Internal_Hbond>
0.0000

> <Gold.Chemscore.DEClash>
0.0789

> <Gold.Chemscore.DEInternal>
1.4014

> <Gold.Chemscore.Rot>
1.9318

> <Gold.Chemscore.Internal.Correction>
   9.000000E+99

> <Gold.Chemscore.Hbonds>
donor molecule, donor type, donor heavy atom, donor atom, acceptor molecule, acceptor atom, score
      L1  H    10    29       P1  7948  0.44
      L1  H    13    30       P1  7948  0.63
      L1  H    18    37       P1  7921  0.98
      P1  H 10752 10765       L1     5  0.08

> <Gold.Chemscore.Hbond.Weighted>
-8.0663

> <Gold.Chemscore.Metal.Weighted>
-0.0000

> <Gold.Chemscore.Lipo.Weighted>
-9.5975

> <Gold.Chemscore.Internal_Hbond.Weighted>
0.0000

> <Gold.Chemscore.DEClash.Weighted>
0.0789

> <Gold.Chemscore.DEInternal.Weighted>
1.4014

> <Gold.Chemscore.Rot.Weighted>
4.9454

> <Gold.Chemscore.Internal.Correction.Weighted>
   9.000000E+99

> <Gold.Protein.RotatedTorsions>
[ 6907 6896 6895 6894 ] final  -55.79 input  -60.11 | X-H torsion
[ 7974 7965 7964 7962 ] final  -72.70 input  175.53 | X-H torsion
[ 8008 7997 7996 7995 ] final -134.61 input   59.86 | X-H torsion
[ 10167 10162 10161 10158 ] final   16.95 input  -65.29 | X-H torsion
[ 10718 10713 10712 10709 ] final    5.50 input   66.30 | X-H torsion
[ 10763 10752 10751 10750 ] final -142.79 input  -60.55 | X-H torsion
[ 11005 11000 10999 10996 ] final -150.39 input  -57.11 | X-H torsion

> <Gold.Protein.ActiveResidues>
 VAL166  LYS551  ARG553  GLY616  TRP617  ASP618  TYR619  PRO620  LYS621  CYS622 
 ASP623  PHE694  ASN695  SER759  ASP760  ASP761  ALA762  ILE779  LEU786  VAL792 
 PHE793  MET794  SER795  GLU796  ALA797  LYS798  CYS799  TRP800  GLU811  SER814 

> <Gold.Protein.RotatedAtoms>
  150.8221  134.7434  159.6781 H   0  0  0  0  0  0  0  0  0  0  0  0  # atno 6907 bound_to 6896
  152.4336  134.5727  159.9935 H   0  0  0  0  0  0  0  0  0  0  0  0  # atno 6908 bound_to 6896
  151.5908  133.3329  159.3063 H   0  0  0  0  0  0  0  0  0  0  0  0  # atno 6909 bound_to 6896
  145.6617  140.9250  143.0930 H   0  0  0  0  0  0  0  0  0  0  0  0  # atno 7974 bound_to 7965
  155.3649  140.0485  157.3046 H   0  0  0  0  0  0  0  0  0  0  0  0  # atno 8008 bound_to 7997
  154.5159  140.2208  155.9030 H   0  0  0  0  0  0  0  0  0  0  0  0  # atno 8009 bound_to 7997
  156.1636  140.3111  155.8855 H   0  0  0  0  0  0  0  0  0  0  0  0  # atno 8010 bound_to 7997
  140.5761  143.9069  150.6751 H   0  0  0  0  0  0  0  0  0  0  0  0  # atno 10167 bound_to 10162
  156.9084  130.5747  149.5647 H   0  0  0  0  0  0  0  0  0  0  0  0  # atno 10718 bound_to 10713
  154.8495  135.3486  154.6084 H   0  0  0  0  0  0  0  0  0  0  0  0  # atno 10763 bound_to 10752
  153.6693  135.6986  153.5157 H   0  0  0  0  0  0  0  0  0  0  0  0  # atno 10764 bound_to 10752
  153.2755  135.4279  155.0986 H   0  0  0  0  0  0  0  0  0  0  0  0  # atno 10765 bound_to 10752
  140.7407  134.3517  157.5148 H   0  0  0  0  0  0  0  0  0  0  0  0  # atno 11005 bound_to 11000
  144.7087  139.8457  143.7422 LP  0  0  0  0  0  0  0  0  0  0  0  0  # atno 17320 bound_to 7965
  146.1120  139.4125  143.0282 LP  0  0  0  0  0  0  0  0  0  0  0  0  # atno 17321 bound_to 7965
  140.2557  143.3560  152.1367 LP  0  0  0  0  0  0  0  0  0  0  0  0  # atno 17342 bound_to 10162
  139.5143  144.6946  151.5665 LP  0  0  0  0  0  0  0  0  0  0  0  0  # atno 17343 bound_to 10162
  156.0548  130.5611  150.9067 LP  0  0  0  0  0  0  0  0  0  0  0  0  # atno 17370 bound_to 10713
  157.5983  131.0942  150.9004 LP  0  0  0  0  0  0  0  0  0  0  0  0  # atno 17371 bound_to 10713
  139.8806  134.9079  156.2955 LP  0  0  0  0  0  0  0  0  0  0  0  0  # atno 17394 bound_to 11000
  140.9839  133.7250  156.0712 LP  0  0  0  0  0  0  0  0  0  0  0  0  # atno 17395 bound_to 11000

$$$$
