AV-unprocessed.smi:840|AV-procd|sdf|3912|dock1
  -GOLD-   22720 1373D 1   1.00000     0.00000
 Structure written by MMmdl.
 37 38  0  0  0  0  0  0  0  0  1 V2000
  146.8099  139.4611  151.5689 C   0  0  0  0  0  0  0  0  0  0  0  0
  146.4239  138.4508  152.6620 C   0  0  1  0  0  0  0  0  0  0  0  0
  146.6391  137.1048  152.1336 N   0  0  0  0  0  0  0  0  0  0  0  0
  145.6678  136.2261  151.8430 C   0  0  0  0  0  0  0  0  0  0  0  0
  144.4686  136.4716  151.9797 O   0  0  0  0  0  0  0  0  0  0  0  0
  146.1783  135.0653  151.3961 N   0  0  0  0  0  0  0  0  0  0  0  0
  145.4790  133.9054  150.9708 C   0  0  0  0  0  0  0  0  0  0  0  0
  146.0661  132.8076  150.4798 N   0  0  0  0  0  0  0  0  0  0  0  0
  145.1360  131.8193  150.1478 C   0  0  0  0  0  0  0  0  0  0  0  0
  143.8358  132.1840  150.3942 C   0  0  0  0  0  0  0  0  0  0  0  0
  143.7272  133.7927  151.0578 S   0  0  0  0  0  0  0  0  0  0  0  0
  147.3213  138.6940  153.8853 C   0  0  0  0  0  0  0  0  0  0  0  0
  146.9410  139.4167  154.8079 O   0  0  0  0  0  0  0  0  0  0  0  0
  148.5114  138.0753  153.8776 N   0  0  0  0  0  0  0  0  0  0  0  0
  149.5215  138.1805  154.9267 C   0  0  0  0  0  0  0  0  0  0  0  0
  149.8281  139.6523  155.2695 C   0  0  0  0  0  0  0  0  0  0  0  0
  151.2128  139.9388  154.6887 C   0  0  0  0  0  0  0  0  0  0  0  0
  151.9363  138.5990  154.7772 C   0  0  0  0  0  0  0  0  0  0  0  0
  150.8554  137.5622  154.4647 C   0  0  0  0  0  0  0  0  0  0  0  0
  146.6770  140.4874  151.9136 H   0  0  0  0  0  0  0  0  0  0  0  0
  146.1845  139.3340  150.6848 H   0  0  0  0  0  0  0  0  0  0  0  0
  147.8490  139.3470  151.2558 H   0  0  0  0  0  0  0  0  0  0  0  0
  145.3730  138.5844  152.9275 H   0  0  0  0  0  0  0  0  0  0  0  0
  147.5976  136.8191  151.9981 H   0  0  0  0  0  0  0  0  0  0  0  0
  147.1848  135.0051  151.3509 H   0  0  0  0  0  0  0  0  0  0  0  0
  145.4883  130.8832  149.7403 H   0  0  0  0  0  0  0  0  0  0  0  0
  142.9393  131.6058  150.2265 H   0  0  0  0  0  0  0  0  0  0  0  0
  148.7424  137.5048  153.0772 H   0  0  0  0  0  0  0  0  0  0  0  0
  149.1720  137.6627  155.8220 H   0  0  0  0  0  0  0  0  0  0  0  0
  149.0777  140.3530  154.9003 H   0  0  0  0  0  0  0  0  0  0  0  0
  149.8637  139.7666  156.3537 H   0  0  0  0  0  0  0  0  0  0  0  0
  151.1192  140.2380  153.6438 H   0  0  0  0  0  0  0  0  0  0  0  0
  151.7349  140.7357  155.2191 H   0  0  0  0  0  0  0  0  0  0  0  0
  152.7877  138.5357  154.0990 H   0  0  0  0  0  0  0  0  0  0  0  0
  152.3062  138.4501  155.7925 H   0  0  0  0  0  0  0  0  0  0  0  0
  151.0562  136.6073  154.9517 H   0  0  0  0  0  0  0  0  0  0  0  0
  150.8428  137.3771  153.3890 H   0  0  0  0  0  0  0  0  0  0  0  0
  1  2  1  0  0  0  0
  1 20  1  0  0  0  0
  1 21  1  0  0  0  0
  1 22  1  0  0  0  0
  2  3  1  0  0  0  0
  2 12  1  0  0  0  0
  2 23  1  0  0  0  0
  3  4  1  0  0  0  0
  3 24  1  0  0  0  0
  4  5  2  0  0  0  0
  4  6  1  0  0  0  0
  6  7  1  0  0  0  0
  6 25  1  0  0  0  0
  7 11  1  0  0  0  0
  7  8  2  0  0  0  0
  8  9  1  0  0  0  0
  9 10  2  0  0  0  0
  9 26  1  0  0  0  0
 10 11  1  0  0  0  0
 10 27  1  0  0  0  0
 12 13  2  0  0  0  0
 12 14  1  0  0  0  0
 14 15  1  0  0  0  0
 14 28  1  0  0  0  0
 15 19  1  0  0  0  0
 15 16  1  0  0  0  0
 15 29  1  0  0  0  0
 16 17  1  0  0  0  0
 16 30  1  0  0  0  0
 16 31  1  0  0  0  0
 17 18  1  0  0  0  0
 17 32  1  0  0  0  0
 17 33  1  0  0  0  0
 18 19  1  0  0  0  0
 18 34  1  0  0  0  0
 18 35  1  0  0  0  0
 19 36  1  0  0  0  0
 19 37  1  0  0  0  0
M  END
> <s_m_source_file>
AV-unprocessed.smi

> <i_m_source_file_index>
840

> <i_lp_mmshare_version>
43012

> <i_f3d_flags>
0

> <s_epik_input>
W0NIMl0xW0NIMl1bQ0gyXVtDSDJdW0NIXTFbTkhdQyg9TylbQ0BIXShbQ0gzXSlbTkhdQyg9TylbTkhdYzJuW2NIXVtjSF1zMg==

> <s_epik_cmdline>
J2VwaWtfcHl0aG9uJywgJy1waCcsICc3LjAnLCAnLXRuJywgJzgnLCAnLW1hJywgJzIwMCcsICctbWV0YWxfYmluZGluZycsICctaW1hZScsICc8aW5maWxlLm1hZT4nLCAnLW9tYWUnLCAnPG91dGZpbGUubWFlPic=

> <r_lp_tautomer_probability>
1

> <r_epik_Ionization_Penalty>
0.000138928

> <r_epik_Ionization_Penalty_Charging>
0

> <r_epik_Ionization_Penalty_Neutral>
0.000138928

> <r_epik_State_Penalty>
-0

> <r_epik_Charging_Adjusted_Penalty>
0

> <i_epik_Tot_Q>
0

> <i_epik_Tot_abs_Q>
0

> <r_epik_Metal_State_Penalty>
0.0502858

> <b_epik_Metal_Only>
0

> <s_lp_Force_Field>
OPLS_2005

> <r_lp_Energy>
16.0697

> <b_lp_Chiralities_Consistent>
1

> <s_lp_Variant>
AV-unprocessed.smi:840-2

> <Gold.Version>
5.8.1

> <Gold.Id.Protein>
6NUR|6NUR_protein|mol2

> <Gold.PLP.Fitness>
40.5261

> <Gold.PLP.PLP>
-32.2795

> <Gold.PLP.part.hbond>
-2.8040

> <Gold.PLP.part.metal>
0.0000

> <Gold.PLP.part.buried>
0.1649

> <Gold.PLP.part.nonpolar>
-31.0678

> <Gold.PLP.part.repulsive>
0.6033

> <Gold.PLP.ligand.clash>
0.0000

> <Gold.PLP.ligand.torsion>
0.9061

> <Gold.PLP.Chemscore.Hbond>
2.3650

> <Gold.PLP.Chemscore.CHOScore>
0.9841

> <Gold.PLP.Chemscore.Metal>
0.0000

> <Gold.Chemscore.Hbonds>
donor molecule, donor type, donor heavy atom, donor atom, acceptor molecule, acceptor atom, score
      L1  H     3    24       P1  7948  0.83
      L1  H     6    25       P1  7948  0.55
      L1  H    14    28       P1  7948  1.00
      L1  C    10    27       P1 10952  0.95

> <Gold.PLP.Chemscore.Internal.Correction>
0.0114

> <Gold.Rescore>
     Score         DG    S(hbond)    S(metal)    S(lipo)     H(rot)  DE(clash)    DE(int)     intcor
     14.40     -18.14       2.49        0.00      73.12       1.65       0.20       3.54       ----

> <Gold.Chemscore.Fitness>
14.4049

> <Gold.Chemscore.DG>
-18.1369

> <Gold.Chemscore.ZeroCoef>
-5.4800

> <Gold.Chemscore.Hbond>
2.4921

> <Gold.Chemscore.Metal>
0.0000

> <Gold.Chemscore.Lipo>
73.1187

> <Gold.Chemscore.Internal_Hbond>
0.0000

> <Gold.Chemscore.DEClash>
0.1968

> <Gold.Chemscore.DEInternal>
3.5352

> <Gold.Chemscore.Rot>
1.6490

> <Gold.Chemscore.Internal.Correction>
   9.000000E+99

> <Gold.Chemscore.Hbonds>
donor molecule, donor type, donor heavy atom, donor atom, acceptor molecule, acceptor atom, score
      L1  H     3    24       P1  7948  0.82
      L1  H     6    25       P1  7948  0.38
      L1  H    14    28       P1  7948  1.00

> <Gold.Chemscore.Hbond.Weighted>
-8.3235

> <Gold.Chemscore.Metal.Weighted>
-0.0000

> <Gold.Chemscore.Lipo.Weighted>
-8.5549

> <Gold.Chemscore.Internal_Hbond.Weighted>
0.0000

> <Gold.Chemscore.DEClash.Weighted>
0.1968

> <Gold.Chemscore.DEInternal.Weighted>
3.5352

> <Gold.Chemscore.Rot.Weighted>
4.2215

> <Gold.Chemscore.Internal.Correction.Weighted>
   9.000000E+99

> <Gold.Protein.RotatedTorsions>
[ 6907 6896 6895 6894 ] final  152.37 input  -60.11 | X-H torsion
[ 7974 7965 7964 7962 ] final   68.18 input  175.53 | X-H torsion
[ 8008 7997 7996 7995 ] final  159.27 input   59.86 | X-H torsion
[ 10167 10162 10161 10158 ] final   -1.24 input  -65.29 | X-H torsion
[ 10718 10713 10712 10709 ] final  -32.62 input   66.30 | X-H torsion
[ 10763 10752 10751 10750 ] final -167.19 input  -60.55 | X-H torsion
[ 11005 11000 10999 10996 ] final   56.37 input  -57.11 | X-H torsion

> <Gold.Protein.ActiveResidues>
 VAL166  LYS551  ARG553  GLY616  TRP617  ASP618  TYR619  PRO620  LYS621  CYS622 
 ASP623  PHE694  ASN695  SER759  ASP760  ASP761  ALA762  ILE779  LEU786  VAL792 
 PHE793  MET794  SER795  GLU796  ALA797  LYS798  CYS799  TRP800  GLU811  SER814 

> <Gold.Protein.RotatedAtoms>
  152.0877  133.4184  159.4529 H   0  0  0  0  0  0  0  0  0  0  0  0  # atno 6907 bound_to 6896
  150.6862  134.2909  159.4675 H   0  0  0  0  0  0  0  0  0  0  0  0  # atno 6908 bound_to 6896
  152.0757  134.9504  160.0624 H   0  0  0  0  0  0  0  0  0  0  0  0  # atno 6909 bound_to 6896
  145.8057  139.3006  143.1128 H   0  0  0  0  0  0  0  0  0  0  0  0  # atno 7974 bound_to 7965
  156.2250  140.1836  156.7386 H   0  0  0  0  0  0  0  0  0  0  0  0  # atno 8008 bound_to 7997
  154.5926  140.0648  156.9287 H   0  0  0  0  0  0  0  0  0  0  0  0  # atno 8009 bound_to 7997
  155.2311  140.3315  155.4306 H   0  0  0  0  0  0  0  0  0  0  0  0  # atno 8010 bound_to 7997
  140.6802  143.6798  150.8115 H   0  0  0  0  0  0  0  0  0  0  0  0  # atno 10167 bound_to 10162
  156.3726  130.4342  149.7533 H   0  0  0  0  0  0  0  0  0  0  0  0  # atno 10718 bound_to 10713
  154.6757  135.2946  154.9682 H   0  0  0  0  0  0  0  0  0  0  0  0  # atno 10763 bound_to 10752
  154.0694  135.6620  153.4826 H   0  0  0  0  0  0  0  0  0  0  0  0  # atno 10764 bound_to 10752
  153.0515  135.5171  154.7775 H   0  0  0  0  0  0  0  0  0  0  0  0  # atno 10765 bound_to 10752
  140.0535  134.5704  155.9236 H   0  0  0  0  0  0  0  0  0  0  0  0  # atno 11005 bound_to 11000
  145.9830  140.8666  143.0104 LP  0  0  0  0  0  0  0  0  0  0  0  0  # atno 17320 bound_to 7965
  144.6763  140.2108  143.7377 LP  0  0  0  0  0  0  0  0  0  0  0  0  # atno 17321 bound_to 7965
  140.0497  143.5262  152.2679 LP  0  0  0  0  0  0  0  0  0  0  0  0  # atno 17342 bound_to 10162
  139.6119  144.7610  151.2932 LP  0  0  0  0  0  0  0  0  0  0  0  0  # atno 17343 bound_to 10162
  156.4654  130.7971  151.2991 LP  0  0  0  0  0  0  0  0  0  0  0  0  # atno 17370 bound_to 10713
  157.7485  131.0052  150.3106 LP  0  0  0  0  0  0  0  0  0  0  0  0  # atno 17371 bound_to 10713
  141.1941  133.6581  156.5579 LP  0  0  0  0  0  0  0  0  0  0  0  0  # atno 17394 bound_to 11000
  140.3881  134.7464  157.4704 LP  0  0  0  0  0  0  0  0  0  0  0  0  # atno 17395 bound_to 11000

$$$$
