AV-unprocessed.smi:679|AV-procd|sdf|3322|dock9
  -GOLD-   22720 0293D 1   1.00000     0.00000
 Structure written by MMmdl.
 41 43  0  0  0  0  0  0  0  0  1 V2000
  147.9500  141.2236  153.7842 C   0  0  0  0  0  0  0  0  0  0  0  0
  149.2707  141.4066  154.5350 C   0  0  0  0  0  0  0  0  0  0  0  0
  150.0157  140.2042  154.4460 O   0  0  0  0  0  0  0  0  0  0  0  0
  149.6601  139.2561  155.4400 C   0  0  1  0  0  0  0  0  0  0  0  0
  150.4871  137.9667  155.4255 C   0  0  0  0  0  0  0  0  0  0  0  0
  150.5054  138.0430  156.9568 C   0  0  2  0  0  0  0  0  0  0  0  0
  149.3789  137.3081  157.5343 N   0  0  0  0  0  0  0  0  0  0  0  0
  149.3471  136.8157  158.7810 C   0  0  0  0  0  0  0  0  0  0  0  0
  150.2809  136.9328  159.5757 O   0  0  0  0  0  0  0  0  0  0  0  0
  148.0572  136.0960  159.1870 C   0  0  0  0  0  0  0  0  0  0  0  0
  147.7229  136.3144  160.5834 N   0  0  0  0  0  0  0  0  0  0  0  0
  147.6777  135.4719  161.6178 C   0  0  0  0  0  0  0  0  0  0  0  0
  147.3132  136.0858  162.7331 N   0  0  0  0  0  0  0  0  0  0  0  0
  147.1270  137.3959  162.3244 N   0  0  0  0  0  0  0  0  0  0  0  0
  147.3662  137.5370  161.0496 N   0  0  0  0  0  0  0  0  0  0  0  0
  150.2532  139.5699  156.8352 C   0  0  0  0  0  0  0  0  0  0  0  0
  151.4914  140.4693  156.8745 C   0  0  0  0  0  0  0  0  0  0  0  0
  151.0024  141.9053  157.0905 C   0  0  0  0  0  0  0  0  0  0  0  0
  149.5908  141.7813  157.6725 C   0  0  0  0  0  0  0  0  0  0  0  0
  149.3434  140.2804  157.8358 C   0  0  0  0  0  0  0  0  0  0  0  0
  147.3500  142.1332  153.8225 H   0  0  0  0  0  0  0  0  0  0  0  0
  147.3617  140.4152  154.2190 H   0  0  0  0  0  0  0  0  0  0  0  0
  148.1271  140.9833  152.7357 H   0  0  0  0  0  0  0  0  0  0  0  0
  149.8349  142.2321  154.0984 H   0  0  0  0  0  0  0  0  0  0  0  0
  149.0738  141.6555  155.5786 H   0  0  0  0  0  0  0  0  0  0  0  0
  148.5853  139.0660  155.4831 H   0  0  0  0  0  0  0  0  0  0  0  0
  149.9756  137.1003  155.0041 H   0  0  0  0  0  0  0  0  0  0  0  0
  151.4764  138.1011  154.9852 H   0  0  0  0  0  0  0  0  0  0  0  0
  151.4761  137.7837  157.3830 H   0  0  0  0  0  0  0  0  0  0  0  0
  148.5696  137.1732  156.9460 H   0  0  0  0  0  0  0  0  0  0  0  0
  147.2378  136.4465  158.5576 H   0  0  0  0  0  0  0  0  0  0  0  0
  148.1550  135.0219  159.0232 H   0  0  0  0  0  0  0  0  0  0  0  0
  147.9104  134.4192  161.5541 H   0  0  0  0  0  0  0  0  0  0  0  0
  152.1299  140.1802  157.7105 H   0  0  0  0  0  0  0  0  0  0  0  0
  152.1046  140.3887  155.9761 H   0  0  0  0  0  0  0  0  0  0  0  0
  151.6704  142.4557  157.7536 H   0  0  0  0  0  0  0  0  0  0  0  0
  150.9664  142.4415  156.1412 H   0  0  0  0  0  0  0  0  0  0  0  0
  149.4860  142.3122  158.6191 H   0  0  0  0  0  0  0  0  0  0  0  0
  148.8673  142.2052  156.9751 H   0  0  0  0  0  0  0  0  0  0  0  0
  148.2903  140.0346  157.6954 H   0  0  0  0  0  0  0  0  0  0  0  0
  149.6049  139.9840  158.8524 H   0  0  0  0  0  0  0  0  0  0  0  0
  1  2  1  0  0  0  0
  1 21  1  0  0  0  0
  1 22  1  0  0  0  0
  1 23  1  0  0  0  0
  2  3  1  0  0  0  0
  2 24  1  0  0  0  0
  2 25  1  0  0  0  0
  3  4  1  0  0  0  0
  4 16  1  0  0  0  0
  4  5  1  0  0  0  0
  4 26  1  0  0  0  0
  5  6  1  0  0  0  0
  5 27  1  0  0  0  0
  5 28  1  0  0  0  0
  6  7  1  0  0  0  0
  6 16  1  0  0  0  0
  6 29  1  0  0  0  0
  7  8  1  0  0  0  0
  7 30  1  0  0  0  0
  8  9  2  0  0  0  0
  8 10  1  0  0  0  0
 10 11  1  0  0  0  0
 10 31  1  0  0  0  0
 10 32  1  0  0  0  0
 11 15  1  0  0  0  0
 11 12  1  0  0  0  0
 12 13  2  0  0  0  0
 12 33  1  0  0  0  0
 13 14  1  0  0  0  0
 14 15  2  0  0  0  0
 16 20  1  0  0  0  0
 16 17  1  0  0  0  0
 17 18  1  0  0  0  0
 17 34  1  0  0  0  0
 17 35  1  0  0  0  0
 18 19  1  0  0  0  0
 18 36  1  0  0  0  0
 18 37  1  0  0  0  0
 19 20  1  0  0  0  0
 19 38  1  0  0  0  0
 19 39  1  0  0  0  0
 20 40  1  0  0  0  0
 20 41  1  0  0  0  0
M  END
> <s_m_source_file>
AV-unprocessed.smi

> <i_m_source_file_index>
679

> <i_lp_mmshare_version>
43012

> <i_f3d_flags>
0

> <s_epik_input>
W0NIMl0xW0NIMl1bQ0gyXVtDSDJdQzEyW0NASF0oT1tDSDJdW0NIM10pW0NIMl1bQ0BIXTJbTkhdQyg9TylbQ0gyXW4zW2NIXW5ubjM=

> <s_epik_cmdline>
J2VwaWtfcHl0aG9uJywgJy1waCcsICc3LjAnLCAnLXRuJywgJzgnLCAnLW1hJywgJzIwMCcsICctbWV0YWxfYmluZGluZycsICctaW1hZScsICc8aW5maWxlLm1hZT4nLCAnLW9tYWUnLCAnPG91dGZpbGUubWFlPic=

> <r_lp_tautomer_probability>
1

> <r_epik_Ionization_Penalty>
7.96741e-07

> <r_epik_Ionization_Penalty_Charging>
0

> <r_epik_Ionization_Penalty_Neutral>
7.96741e-07

> <r_epik_State_Penalty>
-0

> <r_epik_Charging_Adjusted_Penalty>
0

> <i_epik_Tot_Q>
0

> <i_epik_Tot_abs_Q>
0

> <r_epik_Metal_State_Penalty>
-0

> <b_epik_Metal_Only>
0

> <s_lp_Force_Field>
OPLS_2005

> <r_lp_Energy>
39.7046

> <b_lp_Chiralities_Consistent>
1

> <s_lp_Variant>
AV-unprocessed.smi:679-4

> <Gold.Version>
5.8.1

> <Gold.Id.Protein>
6NUR|6NUR_protein|mol2

> <Gold.PLP.Fitness>
38.2992

> <Gold.PLP.PLP>
-30.6782

> <Gold.PLP.part.hbond>
-5.7957

> <Gold.PLP.part.metal>
0.0000

> <Gold.PLP.part.buried>
-5.0899

> <Gold.PLP.part.nonpolar>
-20.3312

> <Gold.PLP.part.repulsive>
0.1421

> <Gold.PLP.ligand.clash>
0.0000

> <Gold.PLP.ligand.torsion>
0.8540

> <Gold.PLP.Chemscore.Hbond>
2.9920

> <Gold.PLP.Chemscore.CHOScore>
0.0000

> <Gold.PLP.Chemscore.Metal>
0.0000

> <Gold.Chemscore.Hbonds>
donor molecule, donor type, donor heavy atom, donor atom, acceptor molecule, acceptor atom, score
      P1  H  6896  6908       L1     9  0.96
      P1  H  6934  6947       L1    15  0.88
      P1  H  7989  7998       L1     3  0.94

> <Gold.PLP.Chemscore.Internal.Correction>
0.3530

> <Gold.Rescore>
     Score         DG    S(hbond)    S(metal)    S(lipo)     H(rot)  DE(clash)    DE(int)     intcor
     12.88     -13.76       2.42        0.00      54.40       2.41       0.02       0.86       ----

> <Gold.Chemscore.Fitness>
12.8780

> <Gold.Chemscore.DG>
-13.7551

> <Gold.Chemscore.ZeroCoef>
-5.4800

> <Gold.Chemscore.Hbond>
2.4184

> <Gold.Chemscore.Metal>
0.0000

> <Gold.Chemscore.Lipo>
54.3958

> <Gold.Chemscore.Internal_Hbond>
0.0000

> <Gold.Chemscore.DEClash>
0.0211

> <Gold.Chemscore.DEInternal>
0.8560

> <Gold.Chemscore.Rot>
2.4089

> <Gold.Chemscore.Internal.Correction>
   9.000000E+99

> <Gold.Chemscore.Hbonds>
donor molecule, donor type, donor heavy atom, donor atom, acceptor molecule, acceptor atom, score
      P1  H  6896  6908       L1     9  0.54
      P1  H  6934  6947       L1    15  0.18
      P1  H  7989  7998       L1     3  0.20

> <Gold.Chemscore.Hbond.Weighted>
-8.0776

> <Gold.Chemscore.Metal.Weighted>
-0.0000

> <Gold.Chemscore.Lipo.Weighted>
-6.3643

> <Gold.Chemscore.Internal_Hbond.Weighted>
0.0000

> <Gold.Chemscore.DEClash.Weighted>
0.0211

> <Gold.Chemscore.DEInternal.Weighted>
0.8560

> <Gold.Chemscore.Rot.Weighted>
6.1668

> <Gold.Chemscore.Internal.Correction.Weighted>
   9.000000E+99

> <Gold.Protein.RotatedTorsions>
[ 6907 6896 6895 6894 ] final -149.48 input  -60.11 | X-H torsion
[ 7974 7965 7964 7962 ] final -105.58 input  175.53 | X-H torsion
[ 8008 7997 7996 7995 ] final  142.52 input   59.86 | X-H torsion
[ 10167 10162 10161 10158 ] final  -89.57 input  -65.29 | X-H torsion
[ 10718 10713 10712 10709 ] final  138.07 input   66.30 | X-H torsion
[ 10763 10752 10751 10750 ] final  114.38 input  -60.55 | X-H torsion
[ 11005 11000 10999 10996 ] final -144.09 input  -57.11 | X-H torsion

> <Gold.Protein.ActiveResidues>
 VAL166  LYS551  ARG553  GLY616  TRP617  ASP618  TYR619  PRO620  LYS621  CYS622 
 ASP623  PHE694  ASN695  SER759  ASP760  ASP761  ALA762  ILE779  LEU786  VAL792 
 PHE793  MET794  SER795  GLU796  ALA797  LYS798  CYS799  TRP800  GLU811  SER814 

> <Gold.Protein.RotatedAtoms>
  151.1848  133.4703  159.2594 H   0  0  0  0  0  0  0  0  0  0  0  0  # atno 6907 bound_to 6896
  151.1223  135.0086  159.8554 H   0  0  0  0  0  0  0  0  0  0  0  0  # atno 6908 bound_to 6896
  152.5456  134.1758  159.8668 H   0  0  0  0  0  0  0  0  0  0  0  0  # atno 6909 bound_to 6896
  145.2287  140.9162  143.3217 H   0  0  0  0  0  0  0  0  0  0  0  0  # atno 7974 bound_to 7965
  156.2948  140.2286  156.4741 H   0  0  0  0  0  0  0  0  0  0  0  0  # atno 8008 bound_to 7997
  154.7909  140.0454  157.1221 H   0  0  0  0  0  0  0  0  0  0  0  0  # atno 8009 bound_to 7997
  154.9646  140.3059  155.5018 H   0  0  0  0  0  0  0  0  0  0  0  0  # atno 8010 bound_to 7997
  140.3635  143.2830  151.9586 H   0  0  0  0  0  0  0  0  0  0  0  0  # atno 10167 bound_to 10162
  157.4292  131.1047  151.0268 H   0  0  0  0  0  0  0  0  0  0  0  0  # atno 10718 bound_to 10713
  153.5065  135.3627  155.2565 H   0  0  0  0  0  0  0  0  0  0  0  0  # atno 10763 bound_to 10752
  154.8744  135.4012  154.3418 H   0  0  0  0  0  0  0  0  0  0  0  0  # atno 10764 bound_to 10752
  153.4063  135.7076  153.6456 H   0  0  0  0  0  0  0  0  0  0  0  0  # atno 10765 bound_to 10752
  140.8059  134.2802  157.4960 H   0  0  0  0  0  0  0  0  0  0  0  0  # atno 11005 bound_to 11000
  144.9697  139.3893  143.6315 LP  0  0  0  0  0  0  0  0  0  0  0  0  # atno 17320 bound_to 7965
  146.3358  139.8789  142.8827 LP  0  0  0  0  0  0  0  0  0  0  0  0  # atno 17321 bound_to 7965
  139.4811  144.5971  151.7670 LP  0  0  0  0  0  0  0  0  0  0  0  0  # atno 17342 bound_to 10162
  140.5104  144.1034  150.5993 LP  0  0  0  0  0  0  0  0  0  0  0  0  # atno 17343 bound_to 10162
  157.1171  130.6046  149.5496 LP  0  0  0  0  0  0  0  0  0  0  0  0  # atno 17370 bound_to 10713
  155.9907  130.4959  150.7269 LP  0  0  0  0  0  0  0  0  0  0  0  0  # atno 17371 bound_to 10713
  139.8718  134.9456  156.3914 LP  0  0  0  0  0  0  0  0  0  0  0  0  # atno 17394 bound_to 11000
  140.9247  133.7620  155.9950 LP  0  0  0  0  0  0  0  0  0  0  0  0  # atno 17395 bound_to 11000

$$$$
