AV-unprocessed.smi:1982|AV-procd|sdf|8024|dock7
  -GOLD-   2272010213D 1   1.00000     0.00000
 Structure written by MMmdl.
 36 37  0  0  0  0  0  0  0  0  1 V2000
  152.2823  142.9185  161.7681 C   0  0  0  0  0  0  0  0  0  0  0  0
  152.7802  143.6516  160.5054 C   0  0  2  0  0  0  0  0  0  0  0  0
  152.1228  145.0391  160.3586 C   0  0  0  0  0  0  0  0  0  0  0  0
  150.6505  144.9416  159.9296 C   0  0  0  0  0  0  0  0  0  0  0  0
  150.5051  144.1362  158.6313 C   0  0  0  0  0  0  0  0  0  0  0  0
  151.1440  142.7388  158.7456 C   0  0  1  0  0  0  0  0  0  0  0  0
  151.0302  142.0684  157.4503 N   0  0  0  0  0  0  0  0  0  0  0  0
  150.9164  140.7454  157.2534 C   0  0  0  0  0  0  0  0  0  0  0  0
  150.9086  139.9223  158.1701 O   0  0  0  0  0  0  0  0  0  0  0  0
  150.8002  140.3035  155.7897 C   0  0  0  0  0  0  0  0  0  0  0  0
  151.6948  139.2079  155.4578 N   0  0  0  0  0  0  0  0  0  0  0  0
  151.5197  138.1367  154.6812 C   0  0  0  0  0  0  0  0  0  0  0  0
  152.6038  137.3769  154.6446 N   0  0  0  0  0  0  0  0  0  0  0  0
  153.4903  138.0541  155.4651 N   0  0  0  0  0  0  0  0  0  0  0  0
  152.9565  139.1410  155.9511 N   0  0  0  0  0  0  0  0  0  0  0  0
  152.6269  142.8357  159.1932 C   0  0  2  0  0  0  0  0  0  0  0  0
  153.3270  141.4644  159.2720 C   0  0  0  0  0  0  0  0  0  0  0  0
  151.2284  142.6508  161.7018 H   0  0  0  0  0  0  0  0  0  0  0  0
  152.4059  143.5434  162.6529 H   0  0  0  0  0  0  0  0  0  0  0  0
  152.8450  142.0028  161.9482 H   0  0  0  0  0  0  0  0  0  0  0  0
  153.8465  143.8252  160.6568 H   0  0  0  0  0  0  0  0  0  0  0  0
  152.2027  145.5969  161.2922 H   0  0  0  0  0  0  0  0  0  0  0  0
  152.6714  145.6189  159.6151 H   0  0  0  0  0  0  0  0  0  0  0  0
  150.0594  144.4771  160.7193 H   0  0  0  0  0  0  0  0  0  0  0  0
  150.2396  145.9419  159.7904 H   0  0  0  0  0  0  0  0  0  0  0  0
  149.4488  144.0431  158.3759 H   0  0  0  0  0  0  0  0  0  0  0  0
  150.9713  144.6894  157.8146 H   0  0  0  0  0  0  0  0  0  0  0  0
  150.5898  142.1803  159.5013 H   0  0  0  0  0  0  0  0  0  0  0  0
  151.0296  142.6644  156.6353 H   0  0  0  0  0  0  0  0  0  0  0  0
  149.7727  140.0022  155.5793 H   0  0  0  0  0  0  0  0  0  0  0  0
  151.0309  141.1464  155.1371 H   0  0  0  0  0  0  0  0  0  0  0  0
  150.6074  137.9179  154.1463 H   0  0  0  0  0  0  0  0  0  0  0  0
  153.1549  143.3985  158.4212 H   0  0  0  0  0  0  0  0  0  0  0  0
  152.7886  140.7761  159.9238 H   0  0  0  0  0  0  0  0  0  0  0  0
  154.3435  141.5635  159.6537 H   0  0  0  0  0  0  0  0  0  0  0  0
  153.3981  140.9954  158.2907 H   0  0  0  0  0  0  0  0  0  0  0  0
  1  2  1  0  0  0  0
  1 18  1  0  0  0  0
  1 19  1  0  0  0  0
  1 20  1  0  0  0  0
  2 16  1  0  0  0  0
  2  3  1  0  0  0  0
  2 21  1  0  0  0  0
  3  4  1  0  0  0  0
  3 22  1  0  0  0  0
  3 23  1  0  0  0  0
  4  5  1  0  0  0  0
  4 24  1  0  0  0  0
  4 25  1  0  0  0  0
  5  6  1  0  0  0  0
  5 26  1  0  0  0  0
  5 27  1  0  0  0  0
  6  7  1  0  0  0  0
  6 16  1  0  0  0  0
  6 28  1  0  0  0  0
  7  8  1  0  0  0  0
  7 29  1  0  0  0  0
  8  9  2  0  0  0  0
  8 10  1  0  0  0  0
 10 11  1  0  0  0  0
 10 30  1  0  0  0  0
 10 31  1  0  0  0  0
 11 15  1  0  0  0  0
 11 12  1  0  0  0  0
 12 13  2  0  0  0  0
 12 32  1  0  0  0  0
 13 14  1  0  0  0  0
 14 15  2  0  0  0  0
 16 17  1  0  0  0  0
 16 33  1  0  0  0  0
 17 34  1  0  0  0  0
 17 35  1  0  0  0  0
 17 36  1  0  0  0  0
M  END
> <s_m_source_file>
AV-unprocessed.smi

> <i_m_source_file_index>
1982

> <i_lp_mmshare_version>
43012

> <i_f3d_flags>
0

> <s_epik_input>
W0NIM11bQ0BASF0xW0NIMl1bQ0gyXVtDSDJdW0NASF0oW0NASF0xW0NIM10pW05IXUMoPU8pW0NIMl1uMltjSF1ubm4y

> <s_epik_cmdline>
J2VwaWtfcHl0aG9uJywgJy1waCcsICc3LjAnLCAnLXRuJywgJzgnLCAnLW1hJywgJzIwMCcsICctbWV0YWxfYmluZGluZycsICctaW1hZScsICc8aW5maWxlLm1hZT4nLCAnLW9tYWUnLCAnPG91dGZpbGUubWFlPic=

> <r_lp_tautomer_probability>
1

> <r_epik_Ionization_Penalty>
5.03816e-07

> <r_epik_Ionization_Penalty_Charging>
0

> <r_epik_Ionization_Penalty_Neutral>
5.03816e-07

> <r_epik_State_Penalty>
-0

> <r_epik_Charging_Adjusted_Penalty>
0

> <i_epik_Tot_Q>
0

> <i_epik_Tot_abs_Q>
0

> <r_epik_Metal_State_Penalty>
-0

> <b_epik_Metal_Only>
0

> <s_lp_Force_Field>
OPLS_2005

> <r_lp_Energy>
16.2726

> <b_lp_Chiralities_Consistent>
1

> <s_lp_Variant>
AV-unprocessed.smi:1982-5

> <Gold.Version>
5.8.1

> <Gold.Id.Protein>
6NUR|6NUR_protein|mol2

> <Gold.PLP.Fitness>
43.1773

> <Gold.PLP.PLP>
-40.4392

> <Gold.PLP.part.hbond>
-3.5290

> <Gold.PLP.part.metal>
0.0000

> <Gold.PLP.part.buried>
-7.6510

> <Gold.PLP.part.nonpolar>
-30.0755

> <Gold.PLP.part.repulsive>
0.1178

> <Gold.PLP.ligand.clash>
0.0000

> <Gold.PLP.ligand.torsion>
0.8046

> <Gold.PLP.Chemscore.Hbond>
1.4480

> <Gold.PLP.Chemscore.CHOScore>
0.0000

> <Gold.PLP.Chemscore.Metal>
0.0000

> <Gold.Chemscore.Hbonds>
donor molecule, donor type, donor heavy atom, donor atom, acceptor molecule, acceptor atom, score
      P1  H  7997  8010       L1    15  1.00
      P1  H 10752 10765       L1    13  0.51

> <Gold.PLP.Chemscore.Internal.Correction>
0.0033

> <Gold.Rescore>
     Score         DG    S(hbond)    S(metal)    S(lipo)     H(rot)  DE(clash)    DE(int)     intcor
     14.84     -15.49       1.28        0.00      90.71       1.91       0.06       0.59       ----

> <Gold.Chemscore.Fitness>
14.8380

> <Gold.Chemscore.DG>
-15.4853

> <Gold.Chemscore.ZeroCoef>
-5.4800

> <Gold.Chemscore.Hbond>
1.2788

> <Gold.Chemscore.Metal>
0.0000

> <Gold.Chemscore.Lipo>
90.7097

> <Gold.Chemscore.Internal_Hbond>
0.0000

> <Gold.Chemscore.DEClash>
0.0575

> <Gold.Chemscore.DEInternal>
0.5899

> <Gold.Chemscore.Rot>
1.9058

> <Gold.Chemscore.Internal.Correction>
   9.000000E+99

> <Gold.Chemscore.Hbonds>
donor molecule, donor type, donor heavy atom, donor atom, acceptor molecule, acceptor atom, score
      P1  H  7997  8010       L1    15  0.40
      P1  H 10752 10765       L1    13  0.48

> <Gold.Chemscore.Hbond.Weighted>
-4.2711

> <Gold.Chemscore.Metal.Weighted>
-0.0000

> <Gold.Chemscore.Lipo.Weighted>
-10.6130

> <Gold.Chemscore.Internal_Hbond.Weighted>
0.0000

> <Gold.Chemscore.DEClash.Weighted>
0.0575

> <Gold.Chemscore.DEInternal.Weighted>
0.5899

> <Gold.Chemscore.Rot.Weighted>
4.8788

> <Gold.Chemscore.Internal.Correction.Weighted>
   9.000000E+99

> <Gold.Protein.RotatedTorsions>
[ 6907 6896 6895 6894 ] final  132.44 input  -60.11 | X-H torsion
[ 7974 7965 7964 7962 ] final  132.60 input  175.53 | X-H torsion
[ 8008 7997 7996 7995 ] final   76.08 input   59.86 | X-H torsion
[ 10167 10162 10161 10158 ] final  -41.91 input  -65.29 | X-H torsion
[ 10718 10713 10712 10709 ] final -149.98 input   66.30 | X-H torsion
[ 10763 10752 10751 10750 ] final  150.24 input  -60.55 | X-H torsion
[ 11005 11000 10999 10996 ] final   76.82 input  -57.11 | X-H torsion

> <Gold.Protein.ActiveResidues>
 VAL166  LYS551  ARG553  GLY616  TRP617  ASP618  TYR619  PRO620  LYS621  CYS622 
 ASP623  PHE694  ASN695  SER759  ASP760  ASP761  ALA762  ILE779  LEU786  VAL792 
 PHE793  MET794  SER795  GLU796  ALA797  LYS798  CYS799  TRP800  GLU811  SER814 

> <Gold.Protein.RotatedAtoms>
  152.3323  133.5972  159.5818 H   0  0  0  0  0  0  0  0  0  0  0  0  # atno 6907 bound_to 6896
  150.7430  133.9849  159.3597 H   0  0  0  0  0  0  0  0  0  0  0  0  # atno 6908 bound_to 6896
  151.7722  135.0784  160.0412 H   0  0  0  0  0  0  0  0  0  0  0  0  # atno 6909 bound_to 6896
  144.9952  139.4366  143.5319 H   0  0  0  0  0  0  0  0  0  0  0  0  # atno 7974 bound_to 7965
  155.8222  140.3469  155.5521 H   0  0  0  0  0  0  0  0  0  0  0  0  # atno 8008 bound_to 7997
  155.8330  140.0930  157.1801 H   0  0  0  0  0  0  0  0  0  0  0  0  # atno 8009 bound_to 7997
  154.4004  140.1408  156.3624 H   0  0  0  0  0  0  0  0  0  0  0  0  # atno 8010 bound_to 7997
  140.6987  143.3067  151.3134 H   0  0  0  0  0  0  0  0  0  0  0  0  # atno 10167 bound_to 10162
  156.4402  130.8118  151.2347 H   0  0  0  0  0  0  0  0  0  0  0  0  # atno 10718 bound_to 10713
  154.0843  135.2857  155.3284 H   0  0  0  0  0  0  0  0  0  0  0  0  # atno 10763 bound_to 10752
  154.6663  135.5316  153.8084 H   0  0  0  0  0  0  0  0  0  0  0  0  # atno 10764 bound_to 10752
  153.0437  135.6546  154.1016 H   0  0  0  0  0  0  0  0  0  0  0  0  # atno 10765 bound_to 10752
  139.9281  134.7632  156.1443 H   0  0  0  0  0  0  0  0  0  0  0  0  # atno 11005 bound_to 11000
  146.3440  139.9308  142.8754 LP  0  0  0  0  0  0  0  0  0  0  0  0  # atno 17320 bound_to 7965
  145.2230  140.9942  143.4035 LP  0  0  0  0  0  0  0  0  0  0  0  0  # atno 17321 bound_to 7965
  139.6476  144.0423  152.2602 LP  0  0  0  0  0  0  0  0  0  0  0  0  # atno 17342 bound_to 10162
  139.9948  144.6335  150.7782 LP  0  0  0  0  0  0  0  0  0  0  0  0  # atno 17343 bound_to 10162
  157.7506  131.0170  150.3569 LP  0  0  0  0  0  0  0  0  0  0  0  0  # atno 17370 bound_to 10713
  156.3925  130.3900  149.7019 LP  0  0  0  0  0  0  0  0  0  0  0  0  # atno 17371 bound_to 10713
  141.0853  133.6737  156.2422 LP  0  0  0  0  0  0  0  0  0  0  0  0  # atno 17394 bound_to 11000
  140.6278  134.5295  157.5556 LP  0  0  0  0  0  0  0  0  0  0  0  0  # atno 17395 bound_to 11000

$$$$
