AV-unprocessed.smi:1261|AV-procd|sdf|5304|dock5
  -GOLD-   22720 4423D 1   1.00000     0.00000
 Structure written by MMmdl.
 49 50  0  0  0  0  0  0  0  0  3 V2000
  145.5491  128.4459  152.1234 C   0  0  0  0  0  0  0  0  0  0  0  0
  146.1481  129.8278  151.8260 C   0  0  1  0  0  0  0  0  0  0  0  0
  145.0545  130.8422  151.4453 C   0  0  0  0  0  0  0  0  0  0  0  0
  145.6367  132.2486  151.2120 C   0  0  2  0  0  0  0  0  0  0  0  0
  146.3948  132.3701  149.8786 C   0  0  0  0  0  0  0  0  0  0  0  0
  146.4966  132.6856  152.4149 C   0  0  0  0  0  0  0  0  0  0  0  0
  147.5530  131.6885  152.7303 N   0  3  1  0  0  0  0  0  0  0  0  0
  148.4767  132.1683  153.7898 C   0  0  0  0  0  0  0  0  0  0  0  0
  149.1894  133.4758  153.4041 C   0  0  0  0  0  0  0  0  0  0  0  0
  149.5093  134.3475  154.6290 C   0  0  0  0  0  0  0  0  0  0  0  0
  149.8149  135.7195  154.2449 N   0  0  0  0  0  0  0  0  0  0  0  0
  150.2777  136.6680  155.0734 C   0  0  0  0  0  0  0  0  0  0  0  0
  150.5235  136.4676  156.2632 O   0  0  0  0  0  0  0  0  0  0  0  0
  150.5150  138.0502  154.4558 C   0  0  0  0  0  0  0  0  0  0  0  0
  150.5610  139.1030  155.4780 N   0  0  0  0  0  0  0  0  0  0  0  0
  149.3152  139.2422  156.2278 N   0  5  0  0  0  0  0  0  0  0  0  0
  149.2419  140.1624  157.2256 C   0  0  0  0  0  0  0  0  0  0  0  0
  148.2328  140.3266  157.9076 O   0  0  0  0  0  0  0  0  0  0  0  0
  150.4130  140.9826  157.4874 C   0  0  0  0  0  0  0  0  0  0  0  0
  151.5459  140.8404  156.7714 C   0  0  0  0  0  0  0  0  0  0  0  0
  151.6728  139.8609  155.6989 C   0  0  0  0  0  0  0  0  0  0  0  0
  152.7060  139.7247  155.0438 O   0  0  0  0  0  0  0  0  0  0  0  0
  146.9707  130.3510  153.0187 C   0  0  0  0  0  0  0  0  0  0  0  0
  144.8622  128.4842  152.9695 H   0  0  0  0  0  0  0  0  0  0  0  0
  146.3293  127.7223  152.3614 H   0  0  0  0  0  0  0  0  0  0  0  0
  144.9977  128.0632  151.2641 H   0  0  0  0  0  0  0  0  0  0  0  0
  146.8213  129.7108  150.9759 H   0  0  0  0  0  0  0  0  0  0  0  0
  144.5152  130.5053  150.5591 H   0  0  0  0  0  0  0  0  0  0  0  0
  144.3171  130.8924  152.2479 H   0  0  0  0  0  0  0  0  0  0  0  0
  144.7948  132.9390  151.1464 H   0  0  0  0  0  0  0  0  0  0  0  0
  147.2827  131.7387  149.8541 H   0  0  0  0  0  0  0  0  0  0  0  0
  146.7173  133.3974  149.7062 H   0  0  0  0  0  0  0  0  0  0  0  0
  145.7603  132.0834  149.0395 H   0  0  0  0  0  0  0  0  0  0  0  0
  146.9474  133.6562  152.2037 H   0  0  0  0  0  0  0  0  0  0  0  0
  145.8638  132.8214  153.2934 H   0  0  0  0  0  0  0  0  0  0  0  0
  147.9064  132.3552  154.7007 H   0  0  0  0  0  0  0  0  0  0  0  0
  149.2006  131.3893  154.0339 H   0  0  0  0  0  0  0  0  0  0  0  0
  150.1165  133.2565  152.8750 H   0  0  0  0  0  0  0  0  0  0  0  0
  148.5641  134.0419  152.7126 H   0  0  0  0  0  0  0  0  0  0  0  0
  148.6549  134.3701  155.3057 H   0  0  0  0  0  0  0  0  0  0  0  0
  150.3410  133.9244  155.1946 H   0  0  0  0  0  0  0  0  0  0  0  0
  149.6307  135.9836  153.2874 H   0  0  0  0  0  0  0  0  0  0  0  0
  151.4453  138.0318  153.8855 H   0  0  0  0  0  0  0  0  0  0  0  0
  149.7332  138.2609  153.7235 H   0  0  0  0  0  0  0  0  0  0  0  0
  150.3737  141.7233  158.2723 H   0  0  0  0  0  0  0  0  0  0  0  0
  152.3912  141.4721  157.0002 H   0  0  0  0  0  0  0  0  0  0  0  0
  146.3465  130.4122  153.9118 H   0  0  0  0  0  0  0  0  0  0  0  0
  147.7619  129.6353  153.2381 H   0  0  0  0  0  0  0  0  0  0  0  0
  148.1083  131.5935  151.8920 H   0  0  0  0  0  0  0  0  0  0  0  0
  1  2  1  0  0  0  0
  1 24  1  0  0  0  0
  1 25  1  0  0  0  0
  1 26  1  0  0  0  0
  2 23  1  0  0  0  0
  2  3  1  0  0  0  0
  2 27  1  0  0  0  0
  3  4  1  0  0  0  0
  3 28  1  0  0  0  0
  3 29  1  0  0  0  0
  4  5  1  0  0  0  0
  4  6  1  0  0  0  0
  4 30  1  0  0  0  0
  5 31  1  0  0  0  0
  5 32  1  0  0  0  0
  5 33  1  0  0  0  0
  6  7  1  0  0  0  0
  6 34  1  0  0  0  0
  6 35  1  0  0  0  0
  7  8  1  0  0  0  0
  7 23  1  0  0  0  0
  7 49  1  0  0  0  0
  8  9  1  0  0  0  0
  8 36  1  0  0  0  0
  8 37  1  0  0  0  0
  9 10  1  0  0  0  0
  9 38  1  0  0  0  0
  9 39  1  0  0  0  0
 10 11  1  0  0  0  0
 10 40  1  0  0  0  0
 10 41  1  0  0  0  0
 11 12  1  0  0  0  0
 11 42  1  0  0  0  0
 12 13  2  0  0  0  0
 12 14  1  0  0  0  0
 14 43  1  0  0  0  0
 14 44  1  0  0  0  0
 14 15  1  0  0  0  0
 15 16  1  0  0  0  0
 15 21  1  0  0  0  0
 16 17  1  0  0  0  0
 17 18  2  0  0  0  0
 17 19  1  0  0  0  0
 19 45  1  0  0  0  0
 19 20  2  0  0  0  0
 20 46  1  0  0  0  0
 20 21  1  0  0  0  0
 21 22  2  0  0  0  0
 23 47  1  0  0  0  0
 23 48  1  0  0  0  0
M  CHG  1   7   1
M  CHG  1  16  -1
M  END
> <s_m_source_file>
AV-unprocessed.smi

> <i_m_source_file_index>
1261

> <i_lp_mmshare_version>
43012

> <i_f3d_flags>
0

> <s_epik_input>
W0NIM11bQ0BASF0xW0NIMl1bQ0BASF0oW0NIM10pW0NIMl1OKFtDSDJdMSlbQ0gyXVtDSDJdW0NIMl1bTkhdQyg9TylbQ0gyXW4yW25IXWMoPU8pW2NIXVtjSF1jMj1P

> <s_epik_cmdline>
J2VwaWtfcHl0aG9uJywgJy1waCcsICc3LjAnLCAnLXRuJywgJzgnLCAnLW1hJywgJzIwMCcsICctbWV0YWxfYmluZGluZycsICctaW1hZScsICc8aW5maWxlLm1hZT4nLCAnLW9tYWUnLCAnPG91dGZpbGUubWFlPic=

> <r_lp_tautomer_probability>
1

> <r_epik_Ionization_Penalty>
0.0955723

> <r_epik_Ionization_Penalty_Charging>
0.0955723

> <r_epik_Ionization_Penalty_Neutral>
2.68632e-08

> <r_epik_State_Penalty>
0.0334406

> <r_epik_Charging_Adjusted_Penalty>
0.129013

> <i_epik_Tot_Q>
0

> <i_epik_Tot_abs_Q>
2

> <r_epik_Metal_State_Penalty>
0.0334406

> <b_epik_Metal_Only>
0

> <s_lp_Force_Field>
OPLS_2005

> <r_lp_Energy>
33.6406

> <b_lp_Chiralities_Consistent>
1

> <s_lp_Variant>
AV-unprocessed.smi:1261-4

> <Gold.Version>
5.8.1

> <Gold.Id.Protein>
6NUR|6NUR_protein|mol2

> <Gold.PLP.Fitness>
49.2772

> <Gold.PLP.PLP>
-41.1692

> <Gold.PLP.part.hbond>
-5.7199

> <Gold.PLP.part.metal>
0.0000

> <Gold.PLP.part.buried>
-1.8347

> <Gold.PLP.part.nonpolar>
-33.5304

> <Gold.PLP.part.repulsive>
0.0952

> <Gold.PLP.ligand.clash>
0.0000

> <Gold.PLP.ligand.torsion>
0.5927

> <Gold.PLP.Chemscore.Hbond>
3.0706

> <Gold.PLP.Chemscore.CHOScore>
0.0000

> <Gold.PLP.Chemscore.Metal>
0.0000

> <Gold.Chemscore.Hbonds>
donor molecule, donor type, donor heavy atom, donor atom, acceptor molecule, acceptor atom, score
      L1  H     7    49       P1 10747  1.00
      L1  H    11    42       P1  7948  0.85
      P1  H  7989  7998       L1    22  0.11
      P1  H  7997  8010       L1    22  1.00

> <Gold.PLP.Chemscore.Internal.Correction>
0.0817

> <Gold.Rescore>
     Score         DG    S(hbond)    S(metal)    S(lipo)     H(rot)  DE(clash)    DE(int)     intcor
     16.88     -18.41       2.50        0.00      93.60       2.49       0.79       0.73       ----

> <Gold.Chemscore.Fitness>
16.8824

> <Gold.Chemscore.DG>
-18.4052

> <Gold.Chemscore.ZeroCoef>
-5.4800

> <Gold.Chemscore.Hbond>
2.5025

> <Gold.Chemscore.Metal>
0.0000

> <Gold.Chemscore.Lipo>
93.5969

> <Gold.Chemscore.Internal_Hbond>
0.0000

> <Gold.Chemscore.DEClash>
0.7893

> <Gold.Chemscore.DEInternal>
0.7335

> <Gold.Chemscore.Rot>
2.4938

> <Gold.Chemscore.Internal.Correction>
   9.000000E+99

> <Gold.Chemscore.Hbonds>
donor molecule, donor type, donor heavy atom, donor atom, acceptor molecule, acceptor atom, score
      L1  H     7    49       P1 10747  0.98
      L1  H    11    42       P1  7948  0.14
      P1  H  7997  8010       L1    22  0.91

> <Gold.Chemscore.Hbond.Weighted>
-8.3584

> <Gold.Chemscore.Metal.Weighted>
-0.0000

> <Gold.Chemscore.Lipo.Weighted>
-10.9508

> <Gold.Chemscore.Internal_Hbond.Weighted>
0.0000

> <Gold.Chemscore.DEClash.Weighted>
0.7893

> <Gold.Chemscore.DEInternal.Weighted>
0.7335

> <Gold.Chemscore.Rot.Weighted>
6.3840

> <Gold.Chemscore.Internal.Correction.Weighted>
   9.000000E+99

> <Gold.Protein.RotatedTorsions>
[ 6907 6896 6895 6894 ] final  148.47 input  -60.11 | X-H torsion
[ 7974 7965 7964 7962 ] final -102.75 input  175.53 | X-H torsion
[ 8008 7997 7996 7995 ] final   99.69 input   59.86 | X-H torsion
[ 10167 10162 10161 10158 ] final  166.84 input  -65.29 | X-H torsion
[ 10718 10713 10712 10709 ] final  -67.44 input   66.30 | X-H torsion
[ 10763 10752 10751 10750 ] final   45.87 input  -60.55 | X-H torsion
[ 11005 11000 10999 10996 ] final   67.03 input  -57.11 | X-H torsion

> <Gold.Protein.ActiveResidues>
 VAL166  LYS551  ARG553  GLY616  TRP617  ASP618  TYR619  PRO620  LYS621  CYS622 
 ASP623  PHE694  ASN695  SER759  ASP760  ASP761  ALA762  ILE779  LEU786  VAL792 
 PHE793  MET794  SER795  GLU796  ALA797  LYS798  CYS799  TRP800  GLU811  SER814 

> <Gold.Protein.RotatedAtoms>
  152.1410  133.4464  159.4766 H   0  0  0  0  0  0  0  0  0  0  0  0  # atno 6907 bound_to 6896
  150.6886  134.2305  159.4441 H   0  0  0  0  0  0  0  0  0  0  0  0  # atno 6908 bound_to 6896
  152.0195  134.9830  160.0621 H   0  0  0  0  0  0  0  0  0  0  0  0  # atno 6909 bound_to 6896
  145.2647  140.9280  143.3021 H   0  0  0  0  0  0  0  0  0  0  0  0  # atno 7974 bound_to 7965
  156.1130  140.3225  155.8099 H   0  0  0  0  0  0  0  0  0  0  0  0  # atno 8008 bound_to 7997
  155.4639  140.0541  157.3005 H   0  0  0  0  0  0  0  0  0  0  0  0  # atno 8009 bound_to 7997
  154.4773  140.2038  155.9861 H   0  0  0  0  0  0  0  0  0  0  0  0  # atno 8010 bound_to 7997
  139.4933  144.3985  151.9437 H   0  0  0  0  0  0  0  0  0  0  0  0  # atno 10167 bound_to 10162
  156.0557  130.4278  150.1855 H   0  0  0  0  0  0  0  0  0  0  0  0  # atno 10718 bound_to 10713
  152.9818  135.6026  154.3507 H   0  0  0  0  0  0  0  0  0  0  0  0  # atno 10763 bound_to 10752
  154.3197  135.2770  155.2527 H   0  0  0  0  0  0  0  0  0  0  0  0  # atno 10764 bound_to 10752
  154.4699  135.5944  153.6370 H   0  0  0  0  0  0  0  0  0  0  0  0  # atno 10765 bound_to 10752
  139.9796  134.6766  156.0288 H   0  0  0  0  0  0  0  0  0  0  0  0  # atno 11005 bound_to 11000
  144.9387  139.4213  143.6459 LP  0  0  0  0  0  0  0  0  0  0  0  0  # atno 17320 bound_to 7965
  146.3265  139.8336  142.8903 LP  0  0  0  0  0  0  0  0  0  0  0  0  # atno 17321 bound_to 7965
  140.3424  144.3188  150.5965 LP  0  0  0  0  0  0  0  0  0  0  0  0  # atno 17342 bound_to 10162
  140.5555  143.2199  151.7855 LP  0  0  0  0  0  0  0  0  0  0  0  0  # atno 17343 bound_to 10162
  156.9932  130.9899  151.3409 LP  0  0  0  0  0  0  0  0  0  0  0  0  # atno 17370 bound_to 10713
  157.5525  130.8192  149.8163 LP  0  0  0  0  0  0  0  0  0  0  0  0  # atno 17371 bound_to 10713
  141.1469  133.6554  156.3895 LP  0  0  0  0  0  0  0  0  0  0  0  0  # atno 17394 bound_to 11000
  140.5124  134.6382  157.5289 LP  0  0  0  0  0  0  0  0  0  0  0  0  # atno 17395 bound_to 11000

$$$$
