AV-unprocessed.smi:1701|AV-procd|sdf|6833|dock6
  -GOLD-   22720 8 13D 1   1.00000     0.00000
 Structure written by MMmdl.
 54 56  0  0  0  0  0  0  0  0  2 V2000
  152.2655  142.2398  158.9424 C   0  0  0  0  0  0  0  0  0  0  0  0
  152.0433  140.9617  158.1185 C   0  0  0  0  0  0  0  0  0  0  0  0
  151.2418  141.1894  156.9167 N   0  0  0  0  0  0  0  0  0  0  0  0
  150.3493  142.3505  156.9195 C   0  0  0  0  0  0  0  0  0  0  0  0
  149.0603  142.1173  157.7237 C   0  0  0  0  0  0  0  0  0  0  0  0
  150.8093  140.0087  156.2749 C   0  0  0  0  0  0  0  0  0  0  0  0
  150.2703  138.9504  157.0406 C   0  0  0  0  0  0  0  0  0  0  0  0
  149.8299  137.7868  156.3837 C   0  0  0  0  0  0  0  0  0  0  0  0
  149.9363  137.7026  154.9819 C   0  0  0  0  0  0  0  0  0  0  0  0
  149.4617  136.5175  154.3570 N   0  0  0  0  0  0  0  0  0  0  0  0
  148.8809  135.4329  154.9070 C   0  0  0  0  0  0  0  0  0  0  0  0
  148.5897  135.3155  156.0943 O   0  0  0  0  0  0  0  0  0  0  0  0
  148.6274  134.4418  154.0326 N   0  0  0  0  0  0  0  0  0  0  0  0
  148.0107  133.1353  154.2833 C   0  0  2  0  0  0  0  0  0  0  0  0
  149.0395  131.9882  154.3027 C   0  0  0  0  0  0  0  0  0  0  0  0
  148.3490  130.8335  153.5708 C   0  0  0  0  0  0  0  0  0  0  0  0
  147.5292  131.5247  152.5695 N   0  3  1  0  0  0  0  0  0  0  0  0
  146.5218  130.7455  151.8217 C   0  0  0  0  0  0  0  0  0  0  0  0
  145.9383  131.6444  150.7105 C   0  0  0  0  0  0  0  0  0  0  0  0
  145.4242  132.9946  151.2597 C   0  0  0  0  0  0  0  0  0  0  0  0
  146.4792  133.6964  152.1422 C   0  0  0  0  0  0  0  0  0  0  0  0
  146.9598  132.7142  153.2263 C   0  0  2  0  0  0  0  0  0  0  0  0
  150.4803  138.8170  154.2987 C   0  0  0  0  0  0  0  0  0  0  0  0
  150.9048  139.9344  154.9254 N   0  0  0  0  0  0  0  0  0  0  0  0
  152.8736  142.0288  159.8220 H   0  0  0  0  0  0  0  0  0  0  0  0
  151.3214  142.6610  159.2887 H   0  0  0  0  0  0  0  0  0  0  0  0
  152.7809  143.0047  158.3610 H   0  0  0  0  0  0  0  0  0  0  0  0
  153.0089  140.5547  157.8169 H   0  0  0  0  0  0  0  0  0  0  0  0
  151.5856  140.1968  158.7455 H   0  0  0  0  0  0  0  0  0  0  0  0
  150.8779  143.2244  157.3020 H   0  0  0  0  0  0  0  0  0  0  0  0
  150.0802  142.5880  155.8898 H   0  0  0  0  0  0  0  0  0  0  0  0
  148.4064  142.9869  157.6588 H   0  0  0  0  0  0  0  0  0  0  0  0
  149.2614  141.9394  158.7798 H   0  0  0  0  0  0  0  0  0  0  0  0
  148.5084  141.2594  157.3392 H   0  0  0  0  0  0  0  0  0  0  0  0
  150.2009  139.0184  158.1163 H   0  0  0  0  0  0  0  0  0  0  0  0
  149.4158  136.9684  156.9548 H   0  0  0  0  0  0  0  0  0  0  0  0
  149.5737  136.4920  153.3546 H   0  0  0  0  0  0  0  0  0  0  0  0
  148.9212  134.6090  153.0808 H   0  0  0  0  0  0  0  0  0  0  0  0
  147.5281  133.1470  155.2625 H   0  0  0  0  0  0  0  0  0  0  0  0
  149.9373  132.2747  153.7522 H   0  0  0  0  0  0  0  0  0  0  0  0
  149.3473  131.7158  155.3129 H   0  0  0  0  0  0  0  0  0  0  0  0
  149.0570  130.1420  153.1128 H   0  0  0  0  0  0  0  0  0  0  0  0
  147.7069  130.2738  154.2528 H   0  0  0  0  0  0  0  0  0  0  0  0
  146.9884  129.8619  151.3852 H   0  0  0  0  0  0  0  0  0  0  0  0
  145.7367  130.3992  152.4960 H   0  0  0  0  0  0  0  0  0  0  0  0
  146.7111  131.8367  149.9649 H   0  0  0  0  0  0  0  0  0  0  0  0
  145.1350  131.1222  150.1898 H   0  0  0  0  0  0  0  0  0  0  0  0
  145.1315  133.6467  150.4361 H   0  0  0  0  0  0  0  0  0  0  0  0
  144.5225  132.8206  151.8483 H   0  0  0  0  0  0  0  0  0  0  0  0
  147.3186  134.0292  151.5300 H   0  0  0  0  0  0  0  0  0  0  0  0
  146.0408  134.5864  152.5932 H   0  0  0  0  0  0  0  0  0  0  0  0
  146.0816  132.3876  153.7879 H   0  0  0  0  0  0  0  0  0  0  0  0
  150.5727  138.8490  153.2253 H   0  0  0  0  0  0  0  0  0  0  0  0
  148.1843  131.8744  151.8849 H   0  0  0  0  0  0  0  0  0  0  0  0
  1  2  1  0  0  0  0
  1 25  1  0  0  0  0
  1 26  1  0  0  0  0
  1 27  1  0  0  0  0
  2  3  1  0  0  0  0
  2 28  1  0  0  0  0
  2 29  1  0  0  0  0
  3  4  1  0  0  0  0
  3  6  1  0  0  0  0
  4  5  1  0  0  0  0
  4 30  1  0  0  0  0
  4 31  1  0  0  0  0
  5 32  1  0  0  0  0
  5 33  1  0  0  0  0
  5 34  1  0  0  0  0
  6 24  1  0  0  0  0
  6  7  2  0  0  0  0
  7  8  1  0  0  0  0
  7 35  1  0  0  0  0
  8  9  2  0  0  0  0
  8 36  1  0  0  0  0
  9 10  1  0  0  0  0
  9 23  1  0  0  0  0
 10 11  1  0  0  0  0
 10 37  1  0  0  0  0
 11 12  2  0  0  0  0
 11 13  1  0  0  0  0
 13 14  1  0  0  0  0
 13 38  1  0  0  0  0
 14 22  1  0  0  0  0
 14 15  1  0  0  0  0
 14 39  1  0  0  0  0
 15 16  1  0  0  0  0
 15 40  1  0  0  0  0
 15 41  1  0  0  0  0
 16 17  1  0  0  0  0
 16 42  1  0  0  0  0
 16 43  1  0  0  0  0
 17 22  1  0  0  0  0
 17 18  1  0  0  0  0
 17 54  1  0  0  0  0
 18 19  1  0  0  0  0
 18 44  1  0  0  0  0
 18 45  1  0  0  0  0
 19 20  1  0  0  0  0
 19 46  1  0  0  0  0
 19 47  1  0  0  0  0
 20 21  1  0  0  0  0
 20 48  1  0  0  0  0
 20 49  1  0  0  0  0
 21 22  1  0  0  0  0
 21 50  1  0  0  0  0
 21 51  1  0  0  0  0
 22 52  1  0  0  0  0
 23 24  2  0  0  0  0
 23 53  1  0  0  0  0
M  CHG  1  17   1
M  END
> <s_m_source_file>
AV-unprocessed.smi

> <i_m_source_file_index>
1701

> <i_lp_mmshare_version>
43012

> <i_f3d_flags>
0

> <s_epik_input>
W0NIM11bQ0gyXU4oW0NIMl1bQ0gzXSljMVtjSF1bY0hdYyhbY0hdbjEpW05IXUMoPU8pW05IXVtDQEhdKFtDSDJdW0NIMl0yKVtDQEBIXShOMjMpW0NIMl1bQ0gyXVtDSDJdW0NIMl0z

> <s_epik_cmdline>
J2VwaWtfcHl0aG9uJywgJy1waCcsICc3LjAnLCAnLXRuJywgJzgnLCAnLW1hJywgJzIwMCcsICctbWV0YWxfYmluZGluZycsICctaW1hZScsICc8aW5maWxlLm1hZT4nLCAnLW9tYWUnLCAnPG91dGZpbGUubWFlPic=

> <r_lp_tautomer_probability>
1

> <r_epik_Ionization_Penalty>
0.56662

> <r_epik_Ionization_Penalty_Charging>
0.000974069

> <r_epik_Ionization_Penalty_Neutral>
0.565646

> <r_epik_State_Penalty>
2.0247

> <r_epik_Charging_Adjusted_Penalty>
2.02568

> <i_epik_Tot_Q>
1

> <i_epik_Tot_abs_Q>
1

> <r_epik_Metal_State_Penalty>
1.51504

> <b_epik_Metal_Only>
0

> <s_lp_Force_Field>
OPLS_2005

> <r_lp_Energy>
60.4427

> <b_lp_Chiralities_Consistent>
1

> <s_lp_Variant>
AV-unprocessed.smi:1701-13

> <Gold.Version>
5.8.1

> <Gold.Id.Protein>
6NUR|6NUR_protein|mol2

> <Gold.PLP.Fitness>
45.6195

> <Gold.PLP.PLP>
-34.6934

> <Gold.PLP.part.hbond>
-4.0000

> <Gold.PLP.part.metal>
0.0000

> <Gold.PLP.part.buried>
-3.8844

> <Gold.PLP.part.nonpolar>
-26.8925

> <Gold.PLP.part.repulsive>
0.1224

> <Gold.PLP.ligand.clash>
0.0000

> <Gold.PLP.ligand.torsion>
1.0527

> <Gold.PLP.Chemscore.Hbond>
3.0531

> <Gold.PLP.Chemscore.CHOScore>
0.9980

> <Gold.PLP.Chemscore.Metal>
0.0000

> <Gold.Chemscore.Hbonds>
donor molecule, donor type, donor heavy atom, donor atom, acceptor molecule, acceptor atom, score
      L1  H    10    37       P1  7948  1.00
      L1  H    13    38       P1  7948  0.52
      L1  H    17    54       P1 10747  0.53
      P1  H  7989  7998       L1    24  1.00
      L1  C    23    53       P1  7957  0.95

> <Gold.PLP.Chemscore.Internal.Correction>
0.8782

> <Gold.Rescore>
     Score         DG    S(hbond)    S(metal)    S(lipo)     H(rot)  DE(clash)    DE(int)     intcor
     17.68     -20.23       2.31        0.00      91.68       1.44       0.01       2.54       ----

> <Gold.Chemscore.Fitness>
17.6776

> <Gold.Chemscore.DG>
-20.2260

> <Gold.Chemscore.ZeroCoef>
-5.4800

> <Gold.Chemscore.Hbond>
2.3074

> <Gold.Chemscore.Metal>
0.0000

> <Gold.Chemscore.Lipo>
91.6823

> <Gold.Chemscore.Internal_Hbond>
0.0000

> <Gold.Chemscore.DEClash>
0.0095

> <Gold.Chemscore.DEInternal>
2.5390

> <Gold.Chemscore.Rot>
1.4404

> <Gold.Chemscore.Internal.Correction>
   9.000000E+99

> <Gold.Chemscore.Hbonds>
donor molecule, donor type, donor heavy atom, donor atom, acceptor molecule, acceptor atom, score
      L1  H    10    37       P1  7948  0.52
      L1  H    13    38       P1  7948  0.05
      L1  H    17    54       P1 10747  0.50
      P1  H  7989  7998       L1    24  0.30

> <Gold.Chemscore.Hbond.Weighted>
-7.7067

> <Gold.Chemscore.Metal.Weighted>
-0.0000

> <Gold.Chemscore.Lipo.Weighted>
-10.7268

> <Gold.Chemscore.Internal_Hbond.Weighted>
0.0000

> <Gold.Chemscore.DEClash.Weighted>
0.0095

> <Gold.Chemscore.DEInternal.Weighted>
2.5390

> <Gold.Chemscore.Rot.Weighted>
3.6875

> <Gold.Chemscore.Internal.Correction.Weighted>
   9.000000E+99

> <Gold.Protein.RotatedTorsions>
[ 6907 6896 6895 6894 ] final   74.68 input  -60.11 | X-H torsion
[ 7974 7965 7964 7962 ] final  161.64 input  175.53 | X-H torsion
[ 8008 7997 7996 7995 ] final  -86.37 input   59.86 | X-H torsion
[ 10167 10162 10161 10158 ] final -124.87 input  -65.29 | X-H torsion
[ 10718 10713 10712 10709 ] final  -62.24 input   66.30 | X-H torsion
[ 10763 10752 10751 10750 ] final  124.00 input  -60.55 | X-H torsion
[ 11005 11000 10999 10996 ] final  -36.84 input  -57.11 | X-H torsion

> <Gold.Protein.ActiveResidues>
 VAL166  LYS551  ARG553  GLY616  TRP617  ASP618  TYR619  PRO620  LYS621  CYS622 
 ASP623  PHE694  ASN695  SER759  ASP760  ASP761  ALA762  ILE779  LEU786  VAL792 
 PHE793  MET794  SER795  GLU796  ALA797  LYS798  CYS799  TRP800  GLU811  SER814 

> <Gold.Protein.RotatedAtoms>
  152.4988  134.4235  159.9488 H   0  0  0  0  0  0  0  0  0  0  0  0  # atno 6907 bound_to 6896
  151.4209  133.3692  159.2764 H   0  0  0  0  0  0  0  0  0  0  0  0  # atno 6908 bound_to 6896
  150.9223  134.8663  159.7556 H   0  0  0  0  0  0  0  0  0  0  0  0  # atno 6909 bound_to 6896
  144.7676  139.7926  143.6309 H   0  0  0  0  0  0  0  0  0  0  0  0  # atno 7974 bound_to 7965
  154.6511  140.0579  156.9956 H   0  0  0  0  0  0  0  0  0  0  0  0  # atno 8008 bound_to 7997
  155.1370  140.3262  155.4442 H   0  0  0  0  0  0  0  0  0  0  0  0  # atno 8009 bound_to 7997
  156.2576  140.1971  156.6487 H   0  0  0  0  0  0  0  0  0  0  0  0  # atno 8010 bound_to 7997
  139.9882  143.5669  152.2352 H   0  0  0  0  0  0  0  0  0  0  0  0  # atno 10167 bound_to 10162
  156.0868  130.4207  150.1107 H   0  0  0  0  0  0  0  0  0  0  0  0  # atno 10718 bound_to 10713
  153.6544  135.3357  155.3109 H   0  0  0  0  0  0  0  0  0  0  0  0  # atno 10763 bound_to 10752
  154.8530  135.4348  154.1870 H   0  0  0  0  0  0  0  0  0  0  0  0  # atno 10764 bound_to 10752
  153.2821  135.7010  153.7450 H   0  0  0  0  0  0  0  0  0  0  0  0  # atno 10765 bound_to 10752
  140.9906  133.7007  156.1843 H   0  0  0  0  0  0  0  0  0  0  0  0  # atno 11005 bound_to 11000
  146.1796  139.4982  142.9875 LP  0  0  0  0  0  0  0  0  0  0  0  0  # atno 17320 bound_to 7965
  145.6423  141.0281  143.1805 LP  0  0  0  0  0  0  0  0  0  0  0  0  # atno 17321 bound_to 7965
  139.6359  144.7650  151.2438 LP  0  0  0  0  0  0  0  0  0  0  0  0  # atno 17342 bound_to 10162
  140.7464  143.6398  150.8345 LP  0  0  0  0  0  0  0  0  0  0  0  0  # atno 17343 bound_to 10162
  156.9126  130.9657  151.3560 LP  0  0  0  0  0  0  0  0  0  0  0  0  # atno 17370 bound_to 10713
  157.6005  130.8509  149.8795 LP  0  0  0  0  0  0  0  0  0  0  0  0  # atno 17371 bound_to 10713
  140.7046  134.4528  157.5585 LP  0  0  0  0  0  0  0  0  0  0  0  0  # atno 17394 bound_to 11000
  139.8990  134.8600  156.1976 LP  0  0  0  0  0  0  0  0  0  0  0  0  # atno 17395 bound_to 11000

$$$$
