AV-unprocessed.smi:114|AV-procd|sdf|1112|dock3
  -GOLD-   2262018233D 1   1.00000     0.00000
 Structure written by MMmdl.
 32 34  0  0  0  0  0  0  0  0  1 V2000
  146.1074  129.2149  151.6907 N   0  0  0  0  0  0  0  0  0  0  0  0
  146.1283  130.5398  151.8934 C   0  0  0  0  0  0  0  0  0  0  0  0
  147.1114  131.0595  152.6655 N   0  0  0  0  0  0  0  0  0  0  0  0
  147.1700  132.3784  152.8903 C   0  0  0  0  0  0  0  0  0  0  0  0
  148.1861  132.8103  153.6736 F   0  0  0  0  0  0  0  0  0  0  0  0
  146.3371  133.3182  152.4286 N   0  0  0  0  0  0  0  0  0  0  0  0
  145.3443  132.7955  151.6521 C   0  0  0  0  0  0  0  0  0  0  0  0
  145.1711  131.4223  151.3362 C   0  0  0  0  0  0  0  0  0  0  0  0
  144.0600  131.2623  150.5195 N   0  0  0  0  0  0  0  0  0  0  0  0
  143.6078  132.4782  150.3615 C   0  0  0  0  0  0  0  0  0  0  0  0
  144.3171  133.4620  151.0209 N   0  0  0  0  0  0  0  0  0  0  0  0
  144.0959  134.9434  151.0489 C   0  0  1  0  0  0  0  0  0  0  0  0
  143.8769  135.3267  152.3734 O   0  0  0  0  0  0  0  0  0  0  0  0
  145.1019  135.7734  152.9448 C   0  0  2  0  0  0  0  0  0  0  0  0
  144.8594  136.5756  154.2350 C   0  0  0  0  0  0  0  0  0  0  0  0
  143.9502  137.6261  153.9847 O   0  0  0  0  0  0  0  0  0  0  0  0
  145.7204  136.5542  151.7795 C   0  0  2  0  0  0  0  0  0  0  0  0
  145.1526  137.8516  151.6949 O   0  0  0  0  0  0  0  0  0  0  0  0
  145.3679  135.6761  150.5789 C   0  0  2  0  0  0  0  0  0  0  0  0
  145.1807  136.4222  149.3907 O   0  0  0  0  0  0  0  0  0  0  0  0
  143.2115  135.1076  150.4319 H   0  0  0  0  0  0  0  0  0  0  0  0
  145.7390  134.9121  153.1550 H   0  0  0  0  0  0  0  0  0  0  0  0
  146.7994  136.6629  151.8923 H   0  0  0  0  0  0  0  0  0  0  0  0
  146.1676  134.9512  150.4172 H   0  0  0  0  0  0  0  0  0  0  0  0
  145.3836  128.8061  151.1168 H   0  0  0  0  0  0  0  0  0  0  0  0
  146.8145  128.6283  152.1098 H   0  0  0  0  0  0  0  0  0  0  0  0
  142.7388  132.6849  149.7535 H   0  0  0  0  0  0  0  0  0  0  0  0
  144.4163  135.9346  154.9978 H   0  0  0  0  0  0  0  0  0  0  0  0
  145.7910  136.9713  154.6409 H   0  0  0  0  0  0  0  0  0  0  0  0
  143.3533  137.3511  153.3056 H   0  0  0  0  0  0  0  0  0  0  0  0
  144.8638  137.9911  150.8058 H   0  0  0  0  0  0  0  0  0  0  0  0
  145.4818  135.9016  148.6613 H   0  0  0  0  0  0  0  0  0  0  0  0
  1  2  1  0  0  0  0
  1 25  1  0  0  0  0
  1 26  1  0  0  0  0
  2  8  1  0  0  0  0
  2  3  2  0  0  0  0
  3  4  1  0  0  0  0
  4  5  1  0  0  0  0
  4  6  2  0  0  0  0
  6  7  1  0  0  0  0
  7 11  1  0  0  0  0
  7  8  2  0  0  0  0
  8  9  1  0  0  0  0
  9 10  2  0  0  0  0
 10 11  1  0  0  0  0
 10 27  1  0  0  0  0
 11 12  1  0  0  0  0
 12 21  1  0  0  0  0
 12 19  1  0  0  0  0
 12 13  1  0  0  0  0
 13 14  1  0  0  0  0
 14 22  1  0  0  0  0
 14 15  1  0  0  0  0
 14 17  1  0  0  0  0
 15 16  1  0  0  0  0
 15 28  1  0  0  0  0
 15 29  1  0  0  0  0
 16 30  1  0  0  0  0
 17 23  1  0  0  0  0
 17 18  1  0  0  0  0
 17 19  1  0  0  0  0
 18 31  1  0  0  0  0
 19 24  1  0  0  0  0
 19 20  1  0  0  0  0
 20 32  1  0  0  0  0
M  END
> <s_m_source_file>
AV-unprocessed.smi

> <i_m_source_file_index>
114

> <i_lp_mmshare_version>
43012

> <i_f3d_flags>
0

> <s_epik_input>
RmMobjEpbmMoW05IMl0pYyhjMTIpbltjSF1uMltDQEBIXTNPW0NASF0oW0NIMl1bT0hdKVtDQEBIXShbT0hdKVtDQEBIXTNbT0hd

> <s_epik_cmdline>
J2VwaWtfcHl0aG9uJywgJy1waCcsICc3LjAnLCAnLXRuJywgJzgnLCAnLW1hJywgJzIwMCcsICctbWV0YWxfYmluZGluZycsICctaW1hZScsICc8aW5maWxlLm1hZT4nLCAnLW9tYWUnLCAnPG91dGZpbGUubWFlPic=

> <r_lp_tautomer_probability>
1

> <r_epik_Ionization_Penalty>
1.13199e-05

> <r_epik_Ionization_Penalty_Charging>
0

> <r_epik_Ionization_Penalty_Neutral>
1.13199e-05

> <r_epik_State_Penalty>
-0

> <r_epik_Charging_Adjusted_Penalty>
0

> <i_epik_Tot_Q>
0

> <i_epik_Tot_abs_Q>
0

> <r_epik_Metal_State_Penalty>
-0

> <b_epik_Metal_Only>
0

> <s_epik_Chemistry_Notes>
This compound contains an acetal/aminal-like group ( X-CH(R)-Y where X, Y are N, S, or O) that may be acid/base labile, releasing an aldehyde.

> <s_lp_Force_Field>
OPLS_2005

> <r_lp_Energy>
39.4962

> <b_lp_Chiralities_Consistent>
1

> <s_lp_Variant>
AV-unprocessed.smi:114-6

> <Gold.Version>
5.8.1

> <Gold.Id.Protein>
6NUR|6NUR_protein|mol2

> <Gold.PLP.Fitness>
41.5761

> <Gold.PLP.PLP>
-31.7803

> <Gold.PLP.part.hbond>
-4.8217

> <Gold.PLP.part.metal>
0.0000

> <Gold.PLP.part.buried>
-6.6366

> <Gold.PLP.part.nonpolar>
-22.7082

> <Gold.PLP.part.repulsive>
1.0854

> <Gold.PLP.ligand.clash>
0.0000

> <Gold.PLP.ligand.torsion>
0.0324

> <Gold.PLP.Chemscore.Hbond>
2.2790

> <Gold.PLP.Chemscore.CHOScore>
1.0000

> <Gold.PLP.Chemscore.Metal>
0.0000

> <Gold.Chemscore.Hbonds>
donor molecule, donor type, donor heavy atom, donor atom, acceptor molecule, acceptor atom, score
      L1  H    18    31       P1 10171  0.99
      L1  H    20    32       P1  7921  1.00
      P1  H 10785 10796       L1     9  0.26
      L1  C    10    27       P1 10186  1.00

> <Gold.PLP.Chemscore.Internal.Correction>
0.0236

> <Gold.Rescore>
     Score         DG    S(hbond)    S(metal)    S(lipo)     H(rot)  DE(clash)    DE(int)     intcor
      4.68      -6.15       2.36        0.00      26.34       4.03       0.02       1.45       ----

> <Gold.Chemscore.Fitness>
4.6790

> <Gold.Chemscore.DG>
-6.1493

> <Gold.Chemscore.ZeroCoef>
-5.4800

> <Gold.Chemscore.Hbond>
2.3647

> <Gold.Chemscore.Metal>
0.0000

> <Gold.Chemscore.Lipo>
26.3442

> <Gold.Chemscore.Internal_Hbond>
0.0000

> <Gold.Chemscore.DEClash>
0.0185

> <Gold.Chemscore.DEInternal>
1.4518

> <Gold.Chemscore.Rot>
4.0277

> <Gold.Chemscore.Internal.Correction>
   9.000000E+99

> <Gold.Chemscore.Hbonds>
donor molecule, donor type, donor heavy atom, donor atom, acceptor molecule, acceptor atom, score
      L1  H    18    31       P1 10171  0.88
      L1  H    20    32       P1  7921  0.99
      P1  H 10785 10796       L1     9  0.13

> <Gold.Chemscore.Hbond.Weighted>
-7.8980

> <Gold.Chemscore.Metal.Weighted>
-0.0000

> <Gold.Chemscore.Lipo.Weighted>
-3.0823

> <Gold.Chemscore.Internal_Hbond.Weighted>
0.0000

> <Gold.Chemscore.DEClash.Weighted>
0.0185

> <Gold.Chemscore.DEInternal.Weighted>
1.4518

> <Gold.Chemscore.Rot.Weighted>
10.3110

> <Gold.Chemscore.Internal.Correction.Weighted>
   9.000000E+99

> <Gold.Protein.RotatedTorsions>
[ 6907 6896 6895 6894 ] final   64.74 input  -60.11 | X-H torsion
[ 7974 7965 7964 7962 ] final -123.88 input  175.53 | X-H torsion
[ 8008 7997 7996 7995 ] final   14.86 input   59.86 | X-H torsion
[ 10167 10162 10161 10158 ] final  -97.69 input  -65.29 | X-H torsion
[ 10718 10713 10712 10709 ] final   55.79 input   66.30 | X-H torsion
[ 10763 10752 10751 10750 ] final -140.06 input  -60.55 | X-H torsion
[ 11005 11000 10999 10996 ] final  126.29 input  -57.11 | X-H torsion

> <Gold.Protein.ActiveResidues>
 VAL166  LYS551  ARG553  GLY616  TRP617  ASP618  TYR619  PRO620  LYS621  CYS622 
 ASP623  PHE694  ASN695  SER759  ASP760  ASP761  ALA762  ILE779  LEU786  VAL792 
 PHE793  MET794  SER795  GLU796  ALA797  LYS798  CYS799  TRP800  GLU811  SER814 

> <Gold.Protein.RotatedAtoms>
  152.4354  134.5696  159.9917 H   0  0  0  0  0  0  0  0  0  0  0  0  # atno 6907 bound_to 6896
  151.5807  133.3372  159.3016 H   0  0  0  0  0  0  0  0  0  0  0  0  # atno 6908 bound_to 6896
  150.8252  134.7515  159.6871 H   0  0  0  0  0  0  0  0  0  0  0  0  # atno 6909 bound_to 6896
  145.0140  140.7931  143.4421 H   0  0  0  0  0  0  0  0  0  0  0  0  # atno 7974 bound_to 7965
  154.8544  140.2934  155.5578 H   0  0  0  0  0  0  0  0  0  0  0  0  # atno 8008 bound_to 7997
  156.3017  140.2490  156.3440 H   0  0  0  0  0  0  0  0  0  0  0  0  # atno 8009 bound_to 7997
  154.8986  140.0392  157.1869 H   0  0  0  0  0  0  0  0  0  0  0  0  # atno 8010 bound_to 7997
  140.2808  143.3283  152.0443 H   0  0  0  0  0  0  0  0  0  0  0  0  # atno 10167 bound_to 10162
  157.5375  130.8674  149.8774 H   0  0  0  0  0  0  0  0  0  0  0  0  # atno 10718 bound_to 10713
  154.8590  135.3564  154.5646 H   0  0  0  0  0  0  0  0  0  0  0  0  # atno 10763 bound_to 10752
  153.6260  135.7004  153.5297 H   0  0  0  0  0  0  0  0  0  0  0  0  # atno 10764 bound_to 10752
  153.3089  135.4184  155.1278 H   0  0  0  0  0  0  0  0  0  0  0  0  # atno 10765 bound_to 10752
  139.9449  134.9631  156.8686 H   0  0  0  0  0  0  0  0  0  0  0  0  # atno 11005 bound_to 11000
  145.1984  139.2264  143.5206 LP  0  0  0  0  0  0  0  0  0  0  0  0  # atno 17320 bound_to 7965
  146.3475  140.1796  142.8589 LP  0  0  0  0  0  0  0  0  0  0  0  0  # atno 17321 bound_to 7965
  139.4963  144.6593  151.6501 LP  0  0  0  0  0  0  0  0  0  0  0  0  # atno 17342 bound_to 10162
  140.5813  143.9940  150.6270 LP  0  0  0  0  0  0  0  0  0  0  0  0  # atno 17343 bound_to 10162
  156.0470  130.3726  150.1293 LP  0  0  0  0  0  0  0  0  0  0  0  0  # atno 17370 bound_to 10713
  156.9475  130.9764  151.3504 LP  0  0  0  0  0  0  0  0  0  0  0  0  # atno 17371 bound_to 10713
  140.5860  134.0307  155.7481 LP  0  0  0  0  0  0  0  0  0  0  0  0  # atno 17394 bound_to 11000
  141.1096  133.9638  157.2934 LP  0  0  0  0  0  0  0  0  0  0  0  0  # atno 17395 bound_to 11000

$$$$
