AV-unprocessed.smi:45|AV-procd|sdf|415|dock2
  -GOLD-   2262016283D 1   1.00000     0.00000
 Structure written by MMmdl.
 60 63  0  0  0  0  0  0  0  0  3 V2000
  150.1570  142.1144  156.2186 C   0  0  0  0  0  0  0  0  0  0  0  0
  150.3883  140.8963  155.5263 O   0  0  0  0  0  0  0  0  0  0  0  0
  149.3532  140.3562  154.7914 C   0  0  0  0  0  0  0  0  0  0  0  0
  148.1450  141.0428  154.5076 C   0  0  0  0  0  0  0  0  0  0  0  0
  147.1327  140.4261  153.7476 C   0  0  0  0  0  0  0  0  0  0  0  0
  147.3087  139.1165  153.2587 C   0  0  0  0  0  0  0  0  0  0  0  0
  146.2192  138.4553  152.4388 C   0  0  0  0  0  0  0  0  0  0  0  0
  145.0252  138.1539  153.2147 N   0  0  0  0  0  0  0  0  0  0  0  0
  144.6360  136.8298  153.4814 C   0  0  0  0  0  0  0  0  0  0  0  0
  144.8116  135.9121  152.5035 N   0  0  0  0  0  0  0  0  0  0  0  0
  144.4713  134.6319  152.7025 C   0  0  0  0  0  0  0  0  0  0  0  0
  144.6722  133.7051  151.6805 N   0  0  0  0  0  0  0  0  0  0  0  0
  144.2915  133.9997  150.3034 C   0  0  0  0  0  0  0  0  0  0  0  0
  143.8645  132.6670  149.6904 C   0  0  0  0  0  0  0  0  0  0  0  0
  144.6944  131.6536  150.4674 C   0  0  0  0  0  0  0  0  0  0  0  0
  144.7667  132.2572  151.8778 C   0  0  1  0  0  0  0  0  0  0  0  0
  146.0368  131.8266  152.6420 C   0  0  0  0  0  0  0  0  0  0  0  0
  147.1840  132.3501  152.0067 O   0  0  0  0  0  0  0  0  0  0  0  0
  143.9517  134.2083  153.8651 N   0  3  0  0  0  0  0  0  0  0  0  0
  143.7557  135.0865  154.8783 C   0  0  0  0  0  0  0  0  0  0  0  0
  144.0947  136.4500  154.7347 C   0  0  0  0  0  0  0  0  0  0  0  0
  143.8443  137.4258  155.8567 C   0  0  0  0  0  0  0  0  0  0  0  0
  144.4100  138.5239  155.8201 O   0  0  0  0  0  0  0  0  0  0  0  0
  143.0053  136.9088  156.7970 N   0  5  0  0  0  0  0  0  0  0  0  0
  141.5919  137.2692  156.9232 C   0  0  0  0  0  0  0  0  0  0  0  0
  140.8956  137.3813  155.5714 C   0  0  0  0  0  0  0  0  0  0  0  0
  141.3711  138.2996  154.7206 N   0  0  0  0  0  0  0  0  0  0  0  0
  140.7513  138.4080  153.5253 C   0  0  0  0  0  0  0  0  0  0  0  0
  139.6535  137.5937  153.1819 C   0  0  0  0  0  0  0  0  0  0  0  0
  139.2404  136.6627  154.1559 C   0  0  0  0  0  0  0  0  0  0  0  0
  139.8639  136.5577  155.3496 N   0  0  0  0  0  0  0  0  0  0  0  0
  148.5051  138.4275  153.5375 C   0  0  0  0  0  0  0  0  0  0  0  0
  149.5185  139.0421  154.2990 C   0  0  0  0  0  0  0  0  0  0  0  0
  150.9729  138.1683  154.6239 Cl  0  0  0  0  0  0  0  0  0  0  0  0
  143.8826  131.9484  152.4383 H   0  0  0  0  0  0  0  0  0  0  0  0
  151.0687  142.4117  156.7367 H   0  0  0  0  0  0  0  0  0  0  0  0
  149.3728  142.0043  156.9687 H   0  0  0  0  0  0  0  0  0  0  0  0
  149.8914  142.9194  155.5320 H   0  0  0  0  0  0  0  0  0  0  0  0
  147.9684  142.0466  154.8628 H   0  0  0  0  0  0  0  0  0  0  0  0
  146.2180  140.9624  153.5404 H   0  0  0  0  0  0  0  0  0  0  0  0
  145.9561  139.1205  151.6153 H   0  0  0  0  0  0  0  0  0  0  0  0
  146.6029  137.5347  151.9970 H   0  0  0  0  0  0  0  0  0  0  0  0
  144.4890  138.9167  153.6046 H   0  0  0  0  0  0  0  0  0  0  0  0
  143.4856  134.7322  150.2421 H   0  0  0  0  0  0  0  0  0  0  0  0
  145.1591  134.4041  149.7812 H   0  0  0  0  0  0  0  0  0  0  0  0
  142.8037  132.4950  149.8789 H   0  0  0  0  0  0  0  0  0  0  0  0
  144.0289  132.6213  148.6135 H   0  0  0  0  0  0  0  0  0  0  0  0
  144.2602  130.6533  150.4578 H   0  0  0  0  0  0  0  0  0  0  0  0
  145.6903  131.5900  150.0259 H   0  0  0  0  0  0  0  0  0  0  0  0
  146.0062  132.1753  153.6750 H   0  0  0  0  0  0  0  0  0  0  0  0
  146.1408  130.7429  152.6750 H   0  0  0  0  0  0  0  0  0  0  0  0
  147.6389  131.6436  151.5736 H   0  0  0  0  0  0  0  0  0  0  0  0
  143.3255  134.6664  155.7763 H   0  0  0  0  0  0  0  0  0  0  0  0
  141.0551  136.5248  157.5127 H   0  0  0  0  0  0  0  0  0  0  0  0
  141.4570  138.2032  157.4720 H   0  0  0  0  0  0  0  0  0  0  0  0
  141.1343  139.1482  152.8385 H   0  0  0  0  0  0  0  0  0  0  0  0
  139.1572  137.6782  152.2267 H   0  0  0  0  0  0  0  0  0  0  0  0
  138.4079  135.9988  153.9763 H   0  0  0  0  0  0  0  0  0  0  0  0
  148.6495  137.4224  153.1690 H   0  0  0  0  0  0  0  0  0  0  0  0
  143.6991  133.2292  153.9982 H   0  0  0  0  0  0  0  0  0  0  0  0
  1  2  1  0  0  0  0
  1 36  1  0  0  0  0
  1 37  1  0  0  0  0
  1 38  1  0  0  0  0
  2  3  1  0  0  0  0
  3 33  1  0  0  0  0
  3  4  2  0  0  0  0
  4  5  1  0  0  0  0
  4 39  1  0  0  0  0
  5  6  2  0  0  0  0
  5 40  1  0  0  0  0
  6  7  1  0  0  0  0
  6 32  1  0  0  0  0
  7  8  1  0  0  0  0
  7 41  1  0  0  0  0
  7 42  1  0  0  0  0
  8  9  1  0  0  0  0
  8 43  1  0  0  0  0
  9 21  1  0  0  0  0
  9 10  2  0  0  0  0
 10 11  1  0  0  0  0
 11 12  1  0  0  0  0
 11 19  2  0  0  0  0
 12 16  1  0  0  0  0
 12 13  1  0  0  0  0
 13 14  1  0  0  0  0
 13 44  1  0  0  0  0
 13 45  1  0  0  0  0
 14 15  1  0  0  0  0
 14 46  1  0  0  0  0
 14 47  1  0  0  0  0
 15 16  1  0  0  0  0
 15 48  1  0  0  0  0
 15 49  1  0  0  0  0
 16 35  1  0  0  0  0
 16 17  1  0  0  0  0
 17 18  1  0  0  0  0
 17 50  1  0  0  0  0
 17 51  1  0  0  0  0
 18 52  1  0  0  0  0
 19 20  1  0  0  0  0
 19 60  1  0  0  0  0
 20 21  2  0  0  0  0
 20 53  1  0  0  0  0
 21 22  1  0  0  0  0
 22 23  2  0  0  0  0
 22 24  1  0  0  0  0
 24 25  1  0  0  0  0
 25 26  1  0  0  0  0
 25 54  1  0  0  0  0
 25 55  1  0  0  0  0
 26 31  1  0  0  0  0
 26 27  2  0  0  0  0
 27 28  1  0  0  0  0
 28 29  2  0  0  0  0
 28 56  1  0  0  0  0
 29 30  1  0  0  0  0
 29 57  1  0  0  0  0
 30 31  2  0  0  0  0
 30 58  1  0  0  0  0
 32 33  2  0  0  0  0
 32 59  1  0  0  0  0
 33 34  1  0  0  0  0
M  CHG  1  19   1
M  CHG  1  24  -1
M  END
> <s_m_source_file>
AV-unprocessed.smi

> <i_m_source_file_index>
45

> <i_lp_mmshare_version>
43012

> <i_f3d_flags>
0

> <s_epik_input>
W0NIM11PYzFbY0hdW2NIXWMoW2NIXWMxQ2wpW0NIMl1bTkhdYzJuYyhOM1tDSDJdW0NIMl1bQ0gyXVtDQEhdM1tDSDJdW09IXSluW2NIXWMyQyg9TylbTkhdW0NIMl1jNG5bY0hdW2NIXVtjSF1uNA==

> <s_epik_cmdline>
J2VwaWtfcHl0aG9uJywgJy1waCcsICc3LjAnLCAnLXRuJywgJzgnLCAnLW1hJywgJzIwMCcsICctbWV0YWxfYmluZGluZycsICctaW1hZScsICc8aW5maWxlLm1hZT4nLCAnLW9tYWUnLCAnPG91dGZpbGUubWFlPic=

> <r_lp_tautomer_probability>
0.575011

> <r_epik_Ionization_Penalty>
6.73124

> <r_epik_Ionization_Penalty_Charging>
6.73106

> <r_epik_Ionization_Penalty_Neutral>
0.000179426

> <r_epik_State_Penalty>
8.26145

> <r_epik_Charging_Adjusted_Penalty>
14.9925

> <i_epik_Tot_Q>
0

> <i_epik_Tot_abs_Q>
2

> <r_epik_Metal_State_Penalty>
4.22532

> <b_epik_Metal_Only>
1

> <s_epik_Chemistry_Notes>
This compound contains an electron-poor aromatic ring that is susceptible to covalent hydrolysis at low pH, typically resulting in measured values for nitrogen ring protonation that are around two units higher than predicted values.

> <s_lp_Force_Field>
OPLS_2005

> <r_lp_Energy>
44.6193

> <b_lp_Chiralities_Consistent>
1

> <s_lp_Variant>
AV-unprocessed.smi:45-9

> <Gold.Version>
5.8.1

> <Gold.Id.Protein>
6NUR|6NUR_protein|mol2

> <Gold.PLP.Fitness>
66.0497

> <Gold.PLP.PLP>
-48.8193

> <Gold.PLP.part.hbond>
-5.0000

> <Gold.PLP.part.metal>
0.0000

> <Gold.PLP.part.buried>
0.4602

> <Gold.PLP.part.nonpolar>
-44.6667

> <Gold.PLP.part.repulsive>
0.3630

> <Gold.PLP.ligand.clash>
0.0000

> <Gold.PLP.ligand.torsion>
1.9324

> <Gold.PLP.Chemscore.Hbond>
4.7057

> <Gold.PLP.Chemscore.CHOScore>
1.9258

> <Gold.PLP.Chemscore.Metal>
0.0000

> <Gold.Chemscore.Hbonds>
donor molecule, donor type, donor heavy atom, donor atom, acceptor molecule, acceptor atom, score
      L1  H     8    43       P1 10175  0.42
      L1  H    18    52       P1 10747  1.00
      L1  H    19    60       P1 10957  2.00
      P1  H  7989  7998       L1     2  0.04
      P1  H 11000 11005       L1    31  1.00
      L1  C    28    56       P1 10160  1.00
      L1  C    28    56       P1 10175  0.35

> <Gold.PLP.Chemscore.Internal.Correction>
1.2005

> <Gold.Rescore>
     Score         DG    S(hbond)    S(metal)    S(lipo)     H(rot)  DE(clash)    DE(int)     intcor
     18.46     -23.61       3.25        0.00     125.57       2.90       0.44       4.71       ----

> <Gold.Chemscore.Fitness>
18.4611

> <Gold.Chemscore.DG>
-23.6110

> <Gold.Chemscore.ZeroCoef>
-5.4800

> <Gold.Chemscore.Hbond>
3.2515

> <Gold.Chemscore.Metal>
0.0000

> <Gold.Chemscore.Lipo>
125.5716

> <Gold.Chemscore.Internal_Hbond>
0.0000

> <Gold.Chemscore.DEClash>
0.4374

> <Gold.Chemscore.DEInternal>
4.7126

> <Gold.Chemscore.Rot>
2.8988

> <Gold.Chemscore.Internal.Correction>
   9.000000E+99

> <Gold.Chemscore.Hbonds>
donor molecule, donor type, donor heavy atom, donor atom, acceptor molecule, acceptor atom, score
      L1  H     8    43       P1 10175  0.41
      L1  H    18    52       P1 10747  0.91
      L1  H    19    60       P1 10957  0.97
      P1  H 11000 11005       L1    31  0.90

> <Gold.Chemscore.Hbond.Weighted>
-10.8600

> <Gold.Chemscore.Metal.Weighted>
-0.0000

> <Gold.Chemscore.Lipo.Weighted>
-14.6919

> <Gold.Chemscore.Internal_Hbond.Weighted>
0.0000

> <Gold.Chemscore.DEClash.Weighted>
0.4374

> <Gold.Chemscore.DEInternal.Weighted>
4.7126

> <Gold.Chemscore.Rot.Weighted>
7.4209

> <Gold.Chemscore.Internal.Correction.Weighted>
   9.000000E+99

> <Gold.Protein.RotatedTorsions>
[ 6907 6896 6895 6894 ] final   16.98 input  -60.11 | X-H torsion
[ 7974 7965 7964 7962 ] final  -48.36 input  175.53 | X-H torsion
[ 8008 7997 7996 7995 ] final  166.64 input   59.86 | X-H torsion
[ 10167 10162 10161 10158 ] final -160.33 input  -65.29 | X-H torsion
[ 10718 10713 10712 10709 ] final   15.62 input   66.30 | X-H torsion
[ 10763 10752 10751 10750 ] final  -52.54 input  -60.55 | X-H torsion
[ 11005 11000 10999 10996 ] final   86.69 input  -57.11 | X-H torsion

> <Gold.Protein.ActiveResidues>
 VAL166  LYS551  ARG553  GLY616  TRP617  ASP618  TYR619  PRO620  LYS621  CYS622 
 ASP623  PHE694  ASN695  SER759  ASP760  ASP761  ALA762  ILE779  LEU786  VAL792 
 PHE793  MET794  SER795  GLU796  ALA797  LYS798  CYS799  TRP800  GLU811  SER814 

> <Gold.Protein.RotatedAtoms>
  151.8424  135.0586  160.0449 H   0  0  0  0  0  0  0  0  0  0  0  0  # atno 6907 bound_to 6896
  152.2799  133.5456  159.5499 H   0  0  0  0  0  0  0  0  0  0  0  0  # atno 6908 bound_to 6896
  150.7185  134.0495  159.3835 H   0  0  0  0  0  0  0  0  0  0  0  0  # atno 6909 bound_to 6896
  145.9520  140.7563  142.9500 H   0  0  0  0  0  0  0  0  0  0  0  0  # atno 7974 bound_to 7965
  156.1701  140.1638  156.8461 H   0  0  0  0  0  0  0  0  0  0  0  0  # atno 8008 bound_to 7997
  154.5248  140.0770  156.8273 H   0  0  0  0  0  0  0  0  0  0  0  0  # atno 8009 bound_to 7997
  155.3529  140.3391  155.4242 H   0  0  0  0  0  0  0  0  0  0  0  0  # atno 8010 bound_to 7997
  139.6547  144.0019  152.2186 H   0  0  0  0  0  0  0  0  0  0  0  0  # atno 10167 bound_to 10162
  157.0562  130.6290  149.5777 H   0  0  0  0  0  0  0  0  0  0  0  0  # atno 10718 bound_to 10713
  154.1443  135.6500  153.4949 H   0  0  0  0  0  0  0  0  0  0  0  0  # atno 10763 bound_to 10752
  153.0156  135.5323  154.6873 H   0  0  0  0  0  0  0  0  0  0  0  0  # atno 10764 bound_to 10752
  154.6143  135.2957  155.0368 H   0  0  0  0  0  0  0  0  0  0  0  0  # atno 10765 bound_to 10752
  139.8938  134.8372  156.2756 H   0  0  0  0  0  0  0  0  0  0  0  0  # atno 11005 bound_to 11000
  144.6797  140.2450  143.7339 LP  0  0  0  0  0  0  0  0  0  0  0  0  # atno 17320 bound_to 7965
  145.8158  139.2022  143.1966 LP  0  0  0  0  0  0  0  0  0  0  0  0  # atno 17321 bound_to 7965
  139.9743  144.6472  150.7960 LP  0  0  0  0  0  0  0  0  0  0  0  0  # atno 17342 bound_to 10162
  140.7554  143.3045  151.2996 LP  0  0  0  0  0  0  0  0  0  0  0  0  # atno 17343 bound_to 10162
  155.9992  130.5068  150.7600 LP  0  0  0  0  0  0  0  0  0  0  0  0  # atno 17370 bound_to 10713
  157.4991  131.0917  151.0336 LP  0  0  0  0  0  0  0  0  0  0  0  0  # atno 17371 bound_to 10713
  141.0072  133.7116  156.1054 LP  0  0  0  0  0  0  0  0  0  0  0  0  # atno 17394 bound_to 11000
  140.7417  134.4143  157.5554 LP  0  0  0  0  0  0  0  0  0  0  0  0  # atno 17395 bound_to 11000

$$$$
