#       Name:                AV-unprocessed.smi:1464
#       Creating user name   scv26
#       Creation time:       Fri Mar 27 06:02:33 2020


#       File generated by GOLD software.
#

@<TRIPOS>MOLECULE
AV-unprocessed.smi:1464
    48    49     1
SMALL
NO_CHARGES


@<TRIPOS>ATOM
      1 ****        -3.5554  -2.9100   0.2612 C.3            1 S1                 0.0000
      2 ****        -2.5336  -1.8920   0.7991 C.3            1 S1                 0.0000
      3 ****        -2.7913  -1.6381   2.2990 C.3            1 S1                 0.0000
      4 ****        -1.7922  -0.6392   2.8981 C.3            1 S1                 0.0000
      5 ****        -1.8069   0.6852   2.1213 C.3            1 S1                 0.0000
      6 ****        -1.5454   0.4728   0.6190 C.3            1 S1                 0.0000
      7 ****        -0.1521   0.0716   0.4099 N.am           1 S1                 0.0000
      8 ****         0.7341   0.6695  -0.4013 C.2            1 S1                 0.0000
      9 ****         0.4637   1.6471  -1.1003 O.2            1 S1                 0.0000
     10 ****         2.1341   0.0392  -0.4379 C.3            1 S1                 0.0000
     11 ****         3.1754   0.9560  -0.9232 N.am           1 S1                 0.0000
     12 ****         3.5247   0.7647  -2.2516 N.2            1 S1                 0.0000
     13 ****         4.4180   1.5183  -2.7982 C.2            1 S1                 0.0000
     14 ****         4.7318   1.2972  -4.1169 O.3            1 S1                 0.0000
     15 ****         5.0741   2.5668  -2.0479 C.2            1 S1                 0.0000
     16 ****         4.7310   2.7418  -0.7529 C.2            1 S1                 0.0000
     17 ****         3.7217   1.9046  -0.1017 C.2            1 S1                 0.0000
     18 ****         3.3919   2.0398   1.0765 O.2            1 S1                 0.0000
     19 ****        -2.5368  -0.5537   0.0083 C.3            1 S1                 0.0000
     20 ****        -2.2936  -0.7424  -1.5030 C.3            1 S1                 0.0000
     21 ****         5.3909   1.9395  -4.3300 H              1 S1                 0.0000
     22 ****        -4.5640  -2.4957   0.2560 H              1 S1                 0.0000
     23 ****        -3.5709  -3.8103   0.8762 H              1 S1                 0.0000
     24 ****        -3.3156  -3.2252  -0.7539 H              1 S1                 0.0000
     25 ****        -1.5455  -2.3445   0.7035 H              1 S1                 0.0000
     26 ****        -3.8053  -1.2605   2.4381 H              1 S1                 0.0000
     27 ****        -2.7362  -2.5767   2.8515 H              1 S1                 0.0000
     28 ****        -2.0344  -0.4559   3.9453 H              1 S1                 0.0000
     29 ****        -0.7897  -1.0685   2.8859 H              1 S1                 0.0000
     30 ****        -2.7780   1.1643   2.2519 H              1 S1                 0.0000
     31 ****        -1.0711   1.3734   2.5397 H              1 S1                 0.0000
     32 ****        -1.7189   1.4333   0.1309 H              1 S1                 0.0000
     33 ****         0.1650  -0.7301   0.9355 H              1 S1                 0.0000
     34 ****         2.3958  -0.3268   0.5570 H              1 S1                 0.0000
     35 ****         2.0866  -0.8480  -1.0719 H              1 S1                 0.0000
     36 ****         5.8196   3.1902  -2.5194 H              1 S1                 0.0000
     37 ****         5.2125   3.5210  -0.1803 H              1 S1                 0.0000
     38 ****        -3.5336  -0.1215   0.1096 H              1 S1                 0.0000
     39 ****        -1.3748  -1.2962  -1.6972 H              1 S1                 0.0000
     40 ****        -2.2138   0.2206  -2.0083 H              1 S1                 0.0000
     41 ****        -3.1130  -1.2813  -1.9782 H              1 S1                 0.0000
     42 ****        -0.4574   2.0359  -1.0814 LP             1 S1                 0.0000
     43 ****         1.1654   2.0519  -1.6866 LP             1 S1                 0.0000
     44 ****         3.0844   0.0429  -2.7856 LP             1 S1                 0.0000
     45 ****         3.9243   1.4202  -4.6938 LP             1 S1                 0.0000
     46 ****         5.0919   0.3725  -4.2403 LP             1 S1                 0.0000
     47 ****         2.6958   1.4411   1.4727 LP             1 S1                 0.0000
     48 ****         3.8202   2.7483   1.6375 LP             1 S1                 0.0000
@<TRIPOS>BOND
    1    1    2 1     
    2    1   22 1     
    3    1   23 1     
    4    1   24 1     
    5    2   19 1     
    6    2    3 1     
    7    2   25 1     
    8    3    4 1     
    9    3   26 1     
   10    3   27 1     
   11    4    5 1     
   12    4   28 1     
   13    4   29 1     
   14    5    6 1     
   15    5   30 1     
   16    5   31 1     
   17    6    7 1     
   18    6   19 1     
   19    6   32 1     
   20    7    8 am    
   21    7   33 1     
   22    8    9 2     
   23    8   10 1     
   24   10   34 1     
   25   10   35 1     
   26   10   11 1     
   27   11   12 1     
   28   11   17 am    
   29   12   13 2     
   30   13   14 1     
   31   13   15 1     
   32   14   21 1     
   33   15   36 1     
   34   15   16 2     
   35   16   37 1     
   36   16   17 1     
   37   17   18 2     
   38   19   20 1     
   39   19   38 1     
   40   20   39 1     
   41   20   40 1     
   42   20   41 1     
   43    9   42 1     
   44    9   43 1     
   45   12   44 1     
   46   14   45 1     
   47   14   46 1     
   48   18   47 1     
   49   18   48 1     
@<TRIPOS>SUBSTRUCTURE
      1 S1             1
@<TRIPOS>SET
LONE_PAIRS      STATIC     ATOMS    <user>   **** ""
7 42 43 44 45 46 47 48
DONOR_HYDROGENS      STATIC     ATOMS    <user>   **** ""
2 33 21
ATOM$BLUE        STATIC     ATOMS    COLORGROUP SYSTEM
7 42 43 44 45 46 47 48
ATOM$RED        STATIC     ATOMS    COLORGROUP SYSTEM
2 33 21
