AV-unprocessed.smi:72|AV-procd|sdf|668|dock8
  -GOLD-   2262016573D 1   1.00000     0.00000
 Structure written by MMmdl.
 29 30  0  0  0  0  0  0  0  0  1 V2000
  153.0741  137.2212  156.0872 N   0  0  0  0  0  0  0  0  0  0  0  0
  152.2431  138.1332  155.7269 C   0  0  0  0  0  0  0  0  0  0  0  0
  151.5289  138.1480  154.5195 N   0  0  0  0  0  0  0  0  0  0  0  0
  150.7210  139.1359  154.2848 C   0  0  0  0  0  0  0  0  0  0  0  0
  150.5289  140.2236  155.2345 N   0  0  0  0  0  0  0  0  0  0  0  0
  149.5866  141.3846  154.9664 C   0  0  1  0  0  0  0  0  0  0  0  0
  149.0490  141.2797  153.6794 O   0  0  0  0  0  0  0  0  0  0  0  0
  147.6776  140.9008  153.7500 C   0  0  2  0  0  0  0  0  0  0  0  0
  146.9275  141.2848  152.4630 C   0  0  0  0  0  0  0  0  0  0  0  0
  147.0365  140.2455  151.5140 O   0  0  0  0  0  0  0  0  0  0  0  0
  147.1986  141.5938  155.0310 C   0  0  2  0  0  0  0  0  0  0  0  0
  146.9105  142.9604  154.7960 O   0  0  0  0  0  0  0  0  0  0  0  0
  148.3989  141.4565  155.9589 C   0  0  1  0  0  0  0  0  0  0  0  0
  148.2490  140.2990  156.7631 O   0  0  0  0  0  0  0  0  0  0  0  0
  151.2429  140.2216  156.4575 C   0  0  0  0  0  0  0  0  0  0  0  0
  151.1105  141.1107  157.2984 O   0  0  0  0  0  0  0  0  0  0  0  0
  152.0729  139.1739  156.6496 N   0  0  0  0  0  0  0  0  0  0  0  0
  150.2142  142.2774  154.9857 H   0  0  0  0  0  0  0  0  0  0  0  0
  147.6117  139.8232  153.9103 H   0  0  0  0  0  0  0  0  0  0  0  0
  146.2993  141.1262  155.4346 H   0  0  0  0  0  0  0  0  0  0  0  0
  148.5178  142.3188  156.6164 H   0  0  0  0  0  0  0  0  0  0  0  0
  153.4601  137.4324  156.9956 H   0  0  0  0  0  0  0  0  0  0  0  0
  150.1424  139.2069  153.3643 H   0  0  0  0  0  0  0  0  0  0  0  0
  145.8669  141.4245  152.6733 H   0  0  0  0  0  0  0  0  0  0  0  0
  147.3045  142.2189  152.0454 H   0  0  0  0  0  0  0  0  0  0  0  0
  147.9491  140.0200  151.4177 H   0  0  0  0  0  0  0  0  0  0  0  0
  147.6399  143.4782  155.0999 H   0  0  0  0  0  0  0  0  0  0  0  0
  147.5042  139.8110  156.4465 H   0  0  0  0  0  0  0  0  0  0  0  0
  152.5941  139.1457  157.5135 H   0  0  0  0  0  0  0  0  0  0  0  0
  1  2  2  0  0  0  0
  1 22  1  0  0  0  0
  2 17  1  0  0  0  0
  2  3  1  0  0  0  0
  3  4  2  0  0  0  0
  4  5  1  0  0  0  0
  4 23  1  0  0  0  0
  5  6  1  0  0  0  0
  5 15  1  0  0  0  0
  6 18  1  0  0  0  0
  6 13  1  0  0  0  0
  6  7  1  0  0  0  0
  7  8  1  0  0  0  0
  8 19  1  0  0  0  0
  8  9  1  0  0  0  0
  8 11  1  0  0  0  0
  9 10  1  0  0  0  0
  9 24  1  0  0  0  0
  9 25  1  0  0  0  0
 10 26  1  0  0  0  0
 11 20  1  0  0  0  0
 11 12  1  0  0  0  0
 11 13  1  0  0  0  0
 12 27  1  0  0  0  0
 13 21  1  0  0  0  0
 13 14  1  0  0  0  0
 14 28  1  0  0  0  0
 15 16  2  0  0  0  0
 15 17  1  0  0  0  0
 17 29  1  0  0  0  0
M  END
> <s_m_source_file>
AV-unprocessed.smi

> <i_m_source_file_index>
72

> <i_lp_mmshare_version>
43012

> <i_f3d_flags>
0

> <s_epik_input>
W05IMl1jMW5bY0hdbihjKD1PKW4xKVtDQEBIXTJPW0NASF0oW0NIMl1bT0hdKVtDQEBIXShbT0hdKVtDQEhdMltPSF0=

> <s_epik_cmdline>
J2VwaWtfcHl0aG9uJywgJy1waCcsICc3LjAnLCAnLXRuJywgJzgnLCAnLW1hJywgJzIwMCcsICctbWV0YWxfYmluZGluZycsICctaW1hZScsICc8aW5maWxlLm1hZT4nLCAnLW9tYWUnLCAnPG91dGZpbGUubWFlPic=

> <r_lp_tautomer_probability>
7.17554e-07

> <r_epik_Ionization_Penalty>
0.0066451

> <r_epik_Ionization_Penalty_Charging>
0.00663793

> <r_epik_Ionization_Penalty_Neutral>
7.17052e-06

> <r_epik_State_Penalty>
0.419231

> <r_epik_Charging_Adjusted_Penalty>
0.425868

> <i_epik_Tot_Q>
0

> <i_epik_Tot_abs_Q>
0

> <r_epik_Metal_State_Penalty>
1.44144

> <b_epik_Metal_Only>
0

> <s_epik_Chemistry_Notes>
This compound contains an acetal/aminal-like group ( X-CH(R)-Y where X, Y are N, S, or O) that may be acid/base labile, releasing an aldehyde.

> <s_lp_Force_Field>
OPLS_2005

> <r_lp_Energy>
43.5158

> <b_lp_Chiralities_Consistent>
1

> <s_lp_Variant>
AV-unprocessed.smi:72-6

> <Gold.Version>
5.8.1

> <Gold.Id.Protein>
6NUR|6NUR_protein|mol2

> <Gold.PLP.Fitness>
36.1093

> <Gold.PLP.PLP>
-23.1378

> <Gold.PLP.part.hbond>
-4.6325

> <Gold.PLP.part.metal>
0.0000

> <Gold.PLP.part.buried>
-2.9929

> <Gold.PLP.part.nonpolar>
-17.3164

> <Gold.PLP.part.repulsive>
2.3705

> <Gold.PLP.ligand.clash>
0.0000

> <Gold.PLP.ligand.torsion>
0.3352

> <Gold.PLP.Chemscore.Hbond>
3.5277

> <Gold.PLP.Chemscore.CHOScore>
0.9959

> <Gold.PLP.Chemscore.Metal>
0.0000

> <Gold.Chemscore.Hbonds>
donor molecule, donor type, donor heavy atom, donor atom, acceptor molecule, acceptor atom, score
      L1  H    10    26       P1  7957  1.00
      L1  H    12    27       P1  8028  0.95
      P1  H  8011  8017       L1     7  0.88
      P1  H 10752 10764       L1     1  0.59
      L1  C     4    23       P1  7957  1.00

> <Gold.PLP.Chemscore.Internal.Correction>
0.0709

> <Gold.Rescore>
     Score         DG    S(hbond)    S(metal)    S(lipo)     H(rot)  DE(clash)    DE(int)     intcor
      5.37      -8.78       3.18        0.00      26.17       4.06       3.04       0.37       ----

> <Gold.Chemscore.Fitness>
5.3729

> <Gold.Chemscore.DG>
-8.7785

> <Gold.Chemscore.ZeroCoef>
-5.4800

> <Gold.Chemscore.Hbond>
3.1828

> <Gold.Chemscore.Metal>
0.0000

> <Gold.Chemscore.Lipo>
26.1668

> <Gold.Chemscore.Internal_Hbond>
0.0000

> <Gold.Chemscore.DEClash>
3.0363

> <Gold.Chemscore.DEInternal>
0.3692

> <Gold.Chemscore.Rot>
4.0600

> <Gold.Chemscore.Internal.Correction>
   9.000000E+99

> <Gold.Chemscore.Hbonds>
donor molecule, donor type, donor heavy atom, donor atom, acceptor molecule, acceptor atom, score
      L1  H    10    26       P1  7957  0.99
      L1  H    12    27       P1  8028  0.22
      P1  H  8011  8017       L1     7  0.81
      P1  H 10752 10764       L1     1  0.58

> <Gold.Chemscore.Hbond.Weighted>
-10.6306

> <Gold.Chemscore.Metal.Weighted>
-0.0000

> <Gold.Chemscore.Lipo.Weighted>
-3.0615

> <Gold.Chemscore.Internal_Hbond.Weighted>
0.0000

> <Gold.Chemscore.DEClash.Weighted>
3.0363

> <Gold.Chemscore.DEInternal.Weighted>
0.3692

> <Gold.Chemscore.Rot.Weighted>
10.3936

> <Gold.Chemscore.Internal.Correction.Weighted>
   9.000000E+99

> <Gold.Protein.RotatedTorsions>
[ 6907 6896 6895 6894 ] final   23.83 input  -60.11 | X-H torsion
[ 7974 7965 7964 7962 ] final -168.84 input  175.53 | X-H torsion
[ 8008 7997 7996 7995 ] final   31.03 input   59.86 | X-H torsion
[ 10167 10162 10161 10158 ] final    9.26 input  -65.29 | X-H torsion
[ 10718 10713 10712 10709 ] final  -10.44 input   66.30 | X-H torsion
[ 10763 10752 10751 10750 ] final  -16.19 input  -60.55 | X-H torsion
[ 11005 11000 10999 10996 ] final  -53.78 input  -57.11 | X-H torsion

> <Gold.Protein.ActiveResidues>
 VAL166  LYS551  ARG553  GLY616  TRP617  ASP618  TYR619  PRO620  LYS621  CYS622 
 ASP623  PHE694  ASN695  SER759  ASP760  ASP761  ALA762  ILE779  LEU786  VAL792 
 PHE793  MET794  SER795  GLU796  ALA797  LYS798  CYS799  TRP800  GLU811  SER814 

> <Gold.Protein.RotatedAtoms>
  151.9484  135.0181  160.0540 H   0  0  0  0  0  0  0  0  0  0  0  0  # atno 6907 bound_to 6896
  152.1975  133.4812  159.5049 H   0  0  0  0  0  0  0  0  0  0  0  0  # atno 6908 bound_to 6896
  150.6947  134.1550  159.4197 H   0  0  0  0  0  0  0  0  0  0  0  0  # atno 6909 bound_to 6896
  144.7196  140.2310  143.6304 H   0  0  0  0  0  0  0  0  0  0  0  0  # atno 7974 bound_to 7965
  155.0999  140.3228  155.4550 H   0  0  0  0  0  0  0  0  0  0  0  0  # atno 8008 bound_to 7997
  156.2720  140.2063  156.6072 H   0  0  0  0  0  0  0  0  0  0  0  0  # atno 8009 bound_to 7997
  154.6837  140.0523  157.0280 H   0  0  0  0  0  0  0  0  0  0  0  0  # atno 8010 bound_to 7997
  140.6266  143.8088  150.7241 H   0  0  0  0  0  0  0  0  0  0  0  0  # atno 10167 bound_to 10162
  156.6735  130.5016  149.5993 H   0  0  0  0  0  0  0  0  0  0  0  0  # atno 10718 bound_to 10713
  153.5548  135.7011  153.5574 H   0  0  0  0  0  0  0  0  0  0  0  0  # atno 10763 bound_to 10752
  153.3482  135.4002  155.1625 H   0  0  0  0  0  0  0  0  0  0  0  0  # atno 10764 bound_to 10752
  154.8656  135.3759  154.5062 H   0  0  0  0  0  0  0  0  0  0  0  0  # atno 10765 bound_to 10752
  141.0993  133.6620  156.4222 H   0  0  0  0  0  0  0  0  0  0  0  0  # atno 11005 bound_to 11000
  145.8410  139.2130  143.1827 LP  0  0  0  0  0  0  0  0  0  0  0  0  # atno 17320 bound_to 7965
  146.0346  140.8225  142.9859 LP  0  0  0  0  0  0  0  0  0  0  0  0  # atno 17321 bound_to 7965
  140.1690  143.4211  152.2014 LP  0  0  0  0  0  0  0  0  0  0  0  0  # atno 17342 bound_to 10162
  139.5485  144.7318  151.4507 LP  0  0  0  0  0  0  0  0  0  0  0  0  # atno 17343 bound_to 10162
  156.1921  130.6566  151.1073 LP  0  0  0  0  0  0  0  0  0  0  0  0  # atno 17370 bound_to 10713
  157.7069  131.0752  150.6636 LP  0  0  0  0  0  0  0  0  0  0  0  0  # atno 17371 bound_to 10713
  140.5062  134.6438  157.5267 LP  0  0  0  0  0  0  0  0  0  0  0  0  # atno 17394 bound_to 11000
  139.9839  134.7093  155.9809 LP  0  0  0  0  0  0  0  0  0  0  0  0  # atno 17395 bound_to 11000

$$$$
