AV-unprocessed.smi:3303|AV-procd|sdf|12659|dock1
  -GOLD-   2272018593D 1   1.00000     0.00000
 Structure written by MMmdl.
 45 46  0  0  0  0  0  0  0  0  3 V2000
  151.4920  139.6150  155.9060 C   0  0  0  0  0  0  0  0  0  0  0  0
  150.0714  139.6483  155.3154 C   0  0  2  0  0  0  0  0  0  0  0  0
  149.9739  138.6654  154.1246 C   0  0  0  0  0  0  0  0  0  0  0  0
  148.6300  138.6654  153.4912 N   0  3  1  0  0  0  0  0  0  0  0  0
  147.6094  137.9507  154.2998 C   0  0  0  0  0  0  0  0  0  0  0  0
  148.2446  140.0298  153.0291 C   0  0  1  0  0  0  0  0  0  0  0  0
  146.9072  140.0506  152.2688 C   0  0  0  0  0  0  0  0  0  0  0  0
  148.2777  141.0433  154.1912 C   0  0  0  0  0  0  0  0  0  0  0  0
  149.6549  141.0735  154.8799 C   0  0  1  0  0  0  0  0  0  0  0  0
  149.6060  141.9904  156.0420 N   0  3  0  0  0  0  0  0  0  0  0  0
  150.9192  142.4988  156.4866 C   0  0  0  0  0  0  0  0  0  0  0  0
  151.2941  141.9265  157.8603 C   0  0  0  0  0  0  0  0  0  0  0  0
  151.5014  143.0133  158.8974 C   0  0  0  0  0  0  0  0  0  0  0  0
  151.5805  144.3696  158.5156 C   0  0  0  0  0  0  0  0  0  0  0  0
  151.7681  145.3388  159.5201 C   0  0  0  0  0  0  0  0  0  0  0  0
  151.8673  144.9163  160.8597 C   0  0  0  0  0  0  0  0  0  0  0  0
  151.7737  143.5379  161.1370 C   0  0  0  0  0  0  0  0  0  0  0  0
  151.5922  142.6004  160.1813 N   0  0  0  0  0  0  0  0  0  0  0  0
  152.2305  139.9668  155.1848 H   0  0  0  0  0  0  0  0  0  0  0  0
  151.7709  138.6017  156.1970 H   0  0  0  0  0  0  0  0  0  0  0  0
  151.5734  140.2387  156.7964 H   0  0  0  0  0  0  0  0  0  0  0  0
  149.3864  139.3111  156.0948 H   0  0  0  0  0  0  0  0  0  0  0  0
  150.7088  138.9361  153.3646 H   0  0  0  0  0  0  0  0  0  0  0  0
  150.2290  137.6532  154.4415 H   0  0  0  0  0  0  0  0  0  0  0  0
  147.3456  138.4969  155.2049 H   0  0  0  0  0  0  0  0  0  0  0  0
  147.9791  136.9690  154.5976 H   0  0  0  0  0  0  0  0  0  0  0  0
  146.6982  137.7810  153.7269 H   0  0  0  0  0  0  0  0  0  0  0  0
  149.0085  140.3318  152.3104 H   0  0  0  0  0  0  0  0  0  0  0  0
  146.7389  141.0261  151.8116 H   0  0  0  0  0  0  0  0  0  0  0  0
  146.0592  139.8537  152.9253 H   0  0  0  0  0  0  0  0  0  0  0  0
  146.8959  139.3097  151.4686 H   0  0  0  0  0  0  0  0  0  0  0  0
  148.0409  142.0387  153.8128 H   0  0  0  0  0  0  0  0  0  0  0  0
  147.4998  140.8054  154.9180 H   0  0  0  0  0  0  0  0  0  0  0  0
  150.3850  141.4404  154.1554 H   0  0  0  0  0  0  0  0  0  0  0  0
  149.0254  142.7821  155.8033 H   0  0  0  0  0  0  0  0  0  0  0  0
  151.6791  142.2264  155.7528 H   0  0  0  0  0  0  0  0  0  0  0  0
  150.8838  143.5884  156.5284 H   0  0  0  0  0  0  0  0  0  0  0  0
  150.5133  141.2496  158.2107 H   0  0  0  0  0  0  0  0  0  0  0  0
  152.2042  141.3303  157.7806 H   0  0  0  0  0  0  0  0  0  0  0  0
  151.5001  144.6640  157.4794 H   0  0  0  0  0  0  0  0  0  0  0  0
  151.8335  146.3870  159.2682 H   0  0  0  0  0  0  0  0  0  0  0  0
  152.0119  145.6314  161.6560 H   0  0  0  0  0  0  0  0  0  0  0  0
  151.8449  143.1790  162.1530 H   0  0  0  0  0  0  0  0  0  0  0  0
  149.1766  141.5018  156.8149 H   0  0  0  0  0  0  0  0  0  0  0  0
  148.7279  138.1100  152.6527 H   0  0  0  0  0  0  0  0  0  0  0  0
  1  2  1  0  0  0  0
  1 19  1  0  0  0  0
  1 20  1  0  0  0  0
  1 21  1  0  0  0  0
  2  9  1  0  0  0  0
  2  3  1  0  0  0  0
  2 22  1  0  0  0  0
  3  4  1  0  0  0  0
  3 23  1  0  0  0  0
  3 24  1  0  0  0  0
  4  5  1  0  0  0  0
  4  6  1  0  0  0  0
  4 45  1  0  0  0  0
  5 25  1  0  0  0  0
  5 26  1  0  0  0  0
  5 27  1  0  0  0  0
  6  7  1  0  0  0  0
  6  8  1  0  0  0  0
  6 28  1  0  0  0  0
  7 29  1  0  0  0  0
  7 30  1  0  0  0  0
  7 31  1  0  0  0  0
  8  9  1  0  0  0  0
  8 32  1  0  0  0  0
  8 33  1  0  0  0  0
  9 10  1  0  0  0  0
  9 34  1  0  0  0  0
 10 11  1  0  0  0  0
 10 35  1  0  0  0  0
 10 44  1  0  0  0  0
 11 12  1  0  0  0  0
 11 36  1  0  0  0  0
 11 37  1  0  0  0  0
 12 13  1  0  0  0  0
 12 38  1  0  0  0  0
 12 39  1  0  0  0  0
 13 18  1  0  0  0  0
 13 14  2  0  0  0  0
 14 15  1  0  0  0  0
 14 40  1  0  0  0  0
 15 16  2  0  0  0  0
 15 41  1  0  0  0  0
 16 17  1  0  0  0  0
 16 42  1  0  0  0  0
 17 18  2  0  0  0  0
 17 43  1  0  0  0  0
M  CHG  1   4   1
M  CHG  1  10   1
M  END
> <s_m_source_file>
AV-unprocessed.smi

> <i_m_source_file_index>
3303

> <i_lp_mmshare_version>
43012

> <i_f3d_flags>
0

> <s_epik_input>
W0NIM11bQ0BASF0xW0NIMl1OKFtDSDNdKVtDQEBIXShbQ0gzXSlbQ0gyXVtDQEhdMVtOSF1bQ0gyXVtDSDJdYzJbY0hdW2NIXVtjSF1bY0hdbjI=

> <s_epik_cmdline>
J2VwaWtfcHl0aG9uJywgJy1waCcsICc3LjAnLCAnLXRuJywgJzgnLCAnLW1hJywgJzIwMCcsICctbWV0YWxfYmluZGluZycsICctaW1hZScsICc8aW5maWxlLm1hZT4nLCAnLW9tYWUnLCAnPG91dGZpbGUubWFlPic=

> <r_epik_Ionization_Penalty>
0.0769462

> <r_epik_Ionization_Penalty_Charging>
0.0759813

> <r_epik_Ionization_Penalty_Neutral>
0.000964829

> <r_epik_State_Penalty>
0.0654373

> <r_epik_Charging_Adjusted_Penalty>
0.141419

> <i_epik_Tot_Q>
2

> <i_epik_Tot_abs_Q>
2

> <r_epik_Metal_State_Penalty>
0.0656439

> <b_epik_Metal_Only>
0

> <s_lp_Force_Field>
OPLS_2005

> <r_lp_Energy>
31.8581

> <b_lp_Chiralities_Consistent>
1

> <s_lp_Variant>
AV-unprocessed.smi:3303-3

> <Gold.Version>
5.8.1

> <Gold.Id.Protein>
6NUR|6NUR_protein|mol2

> <Gold.PLP.Fitness>
49.5324

> <Gold.PLP.PLP>
-39.7983

> <Gold.PLP.part.hbond>
-3.1804

> <Gold.PLP.part.metal>
0.0000

> <Gold.PLP.part.buried>
3.7153

> <Gold.PLP.part.nonpolar>
-40.6735

> <Gold.PLP.part.repulsive>
0.1679

> <Gold.PLP.ligand.clash>
0.1021

> <Gold.PLP.ligand.torsion>
1.0455

> <Gold.PLP.Chemscore.Hbond>
3.9680

> <Gold.PLP.Chemscore.CHOScore>
0.0000

> <Gold.PLP.Chemscore.Metal>
0.0000

> <Gold.Chemscore.Hbonds>
donor molecule, donor type, donor heavy atom, donor atom, acceptor molecule, acceptor atom, score
      L1  H     4    45       P1  7948  1.92
      L1  H    10    35       P1  8028  1.89

> <Gold.PLP.Chemscore.Internal.Correction>
0.0232

> <Gold.Rescore>
     Score         DG    S(hbond)    S(metal)    S(lipo)     H(rot)  DE(clash)    DE(int)     intcor
     19.16     -23.15       1.84        0.00     128.69       1.37       2.00       2.00       ----

> <Gold.Chemscore.Fitness>
19.1592

> <Gold.Chemscore.DG>
-23.1523

> <Gold.Chemscore.ZeroCoef>
-5.4800

> <Gold.Chemscore.Hbond>
1.8367

> <Gold.Chemscore.Metal>
0.0000

> <Gold.Chemscore.Lipo>
128.6856

> <Gold.Chemscore.Internal_Hbond>
0.0000

> <Gold.Chemscore.DEClash>
1.9968

> <Gold.Chemscore.DEInternal>
1.9963

> <Gold.Chemscore.Rot>
1.3744

> <Gold.Chemscore.Internal.Correction>
   9.000000E+99

> <Gold.Chemscore.Hbonds>
donor molecule, donor type, donor heavy atom, donor atom, acceptor molecule, acceptor atom, score
      L1  H     4    45       P1  7948  0.87
      L1  H    10    35       P1  8028  0.91

> <Gold.Chemscore.Hbond.Weighted>
-6.1345

> <Gold.Chemscore.Metal.Weighted>
-0.0000

> <Gold.Chemscore.Lipo.Weighted>
-15.0562

> <Gold.Chemscore.Internal_Hbond.Weighted>
0.0000

> <Gold.Chemscore.DEClash.Weighted>
1.9968

> <Gold.Chemscore.DEInternal.Weighted>
1.9963

> <Gold.Chemscore.Rot.Weighted>
3.5185

> <Gold.Chemscore.Internal.Correction.Weighted>
   9.000000E+99

> <Gold.Protein.RotatedTorsions>
[ 6907 6896 6895 6894 ] final -151.23 input  -60.11 | X-H torsion
[ 7974 7965 7964 7962 ] final  -63.83 input  175.53 | X-H torsion
[ 8008 7997 7996 7995 ] final  -90.30 input   59.86 | X-H torsion
[ 10167 10162 10161 10158 ] final -169.24 input  -65.29 | X-H torsion
[ 10718 10713 10712 10709 ] final   45.23 input   66.30 | X-H torsion
[ 10763 10752 10751 10750 ] final   90.95 input  -60.55 | X-H torsion
[ 11005 11000 10999 10996 ] final  123.13 input  -57.11 | X-H torsion

> <Gold.Protein.ActiveResidues>
 VAL166  LYS551  ARG553  GLY616  TRP617  ASP618  TYR619  PRO620  LYS621  CYS622 
 ASP623  PHE694  ASN695  SER759  ASP760  ASP761  ALA762  ILE779  LEU786  VAL792 
 PHE793  MET794  SER795  GLU796  ALA797  LYS798  CYS799  TRP800  GLU811  SER814 

> <Gold.Protein.RotatedAtoms>
  151.2101  133.4561  159.2597 H   0  0  0  0  0  0  0  0  0  0  0  0  # atno 6907 bound_to 6896
  151.0985  134.9958  159.8447 H   0  0  0  0  0  0  0  0  0  0  0  0  # atno 6908 bound_to 6896
  152.5441  134.2029  159.8772 H   0  0  0  0  0  0  0  0  0  0  0  0  # atno 6909 bound_to 6896
  145.7742  140.8797  143.0364 H   0  0  0  0  0  0  0  0  0  0  0  0  # atno 7974 bound_to 7965
  154.6969  140.0532  157.0419 H   0  0  0  0  0  0  0  0  0  0  0  0  # atno 8008 bound_to 7997
  155.0739  140.3202  155.4603 H   0  0  0  0  0  0  0  0  0  0  0  0  # atno 8009 bound_to 7997
  156.2747  140.2077  156.5866 H   0  0  0  0  0  0  0  0  0  0  0  0  # atno 8010 bound_to 7997
  139.5935  144.1162  152.1662 H   0  0  0  0  0  0  0  0  0  0  0  0  # atno 10167 bound_to 10162
  157.4353  130.8049  149.7642 H   0  0  0  0  0  0  0  0  0  0  0  0  # atno 10718 bound_to 10713
  153.2030  135.4415  155.0289 H   0  0  0  0  0  0  0  0  0  0  0  0  # atno 10763 bound_to 10752
  154.8157  135.3314  154.7184 H   0  0  0  0  0  0  0  0  0  0  0  0  # atno 10764 bound_to 10752
  153.7627  135.6990  153.4978 H   0  0  0  0  0  0  0  0  0  0  0  0  # atno 10765 bound_to 10752
  139.9299  134.9641  156.8214 H   0  0  0  0  0  0  0  0  0  0  0  0  # atno 11005 bound_to 11000
  144.6807  139.9898  143.7484 LP  0  0  0  0  0  0  0  0  0  0  0  0  # atno 17320 bound_to 7965
  146.0139  139.3193  143.0853 LP  0  0  0  0  0  0  0  0  0  0  0  0  # atno 17321 bound_to 7965
  140.0742  144.5754  150.7169 LP  0  0  0  0  0  0  0  0  0  0  0  0  # atno 17342 bound_to 10162
  140.7193  143.2573  151.4332 LP  0  0  0  0  0  0  0  0  0  0  0  0  # atno 17343 bound_to 10162
  155.9928  130.3928  150.2926 LP  0  0  0  0  0  0  0  0  0  0  0  0  # atno 17370 bound_to 10713
  157.1086  131.0215  151.3057 LP  0  0  0  0  0  0  0  0  0  0  0  0  # atno 17371 bound_to 10713
  140.6231  133.9975  155.7627 LP  0  0  0  0  0  0  0  0  0  0  0  0  # atno 17394 bound_to 11000
  141.0881  133.9959  157.3281 LP  0  0  0  0  0  0  0  0  0  0  0  0  # atno 17395 bound_to 11000

$$$$
