AV-unprocessed.smi:1786|AV-procd|sdf|7204|dock8
  -GOLD-   22720 8443D 1   1.00000     0.00000
 Structure written by MMmdl.
 44 45  0  0  0  0  0  0  0  0  2 V2000
  144.1407  134.8547  153.4227 C   0  0  0  0  0  0  0  0  0  0  0  0
  145.3279  135.3347  152.5593 C   0  0  2  0  0  0  0  0  0  0  0  0
  145.2916  134.7477  151.1323 C   0  0  0  0  0  0  0  0  0  0  0  0
  145.6685  133.2589  151.1103 C   0  0  0  0  0  0  0  0  0  0  0  0
  147.0251  133.0494  151.7938 C   0  0  0  0  0  0  0  0  0  0  0  0
  147.0316  133.6443  153.2115 C   0  0  0  0  0  0  0  0  0  0  0  0
  146.6593  135.0858  153.1891 N   0  3  2  0  0  0  0  0  0  0  0  0
  146.8371  135.7633  154.4987 C   0  0  0  0  0  0  0  0  0  0  0  0
  148.2612  135.5845  155.0568 C   0  0  0  0  0  0  0  0  0  0  0  0
  149.1560  136.6284  154.5738 N   0  0  0  0  0  0  0  0  0  0  0  0
  150.4837  136.6636  154.7819 C   0  0  0  0  0  0  0  0  0  0  0  0
  151.0759  135.7945  155.4208 O   0  0  0  0  0  0  0  0  0  0  0  0
  151.2873  137.8422  154.2047 C   0  0  0  0  0  0  0  0  0  0  0  0
  150.8518  139.1764  154.6555 N   0  0  0  0  0  0  0  0  0  0  0  0
  149.6486  139.6710  154.1140 C   0  0  0  0  0  0  0  0  0  0  0  0
  149.1579  140.8732  154.4541 C   0  0  0  0  0  0  0  0  0  0  0  0
  149.8974  141.6673  155.4064 C   0  0  0  0  0  0  0  0  0  0  0  0
  151.0515  141.2055  155.9276 C   0  0  0  0  0  0  0  0  0  0  0  0
  151.5956  139.8952  155.5526 C   0  0  0  0  0  0  0  0  0  0  0  0
  152.6580  139.4729  156.0091 O   0  0  0  0  0  0  0  0  0  0  0  0
  143.1936  135.0802  152.9318 H   0  0  0  0  0  0  0  0  0  0  0  0
  144.1189  135.3501  154.3932 H   0  0  0  0  0  0  0  0  0  0  0  0
  144.1631  133.7801  153.6011 H   0  0  0  0  0  0  0  0  0  0  0  0
  145.2247  136.4155  152.4527 H   0  0  0  0  0  0  0  0  0  0  0  0
  144.3062  134.8916  150.6876 H   0  0  0  0  0  0  0  0  0  0  0  0
  145.9905  135.2986  150.5013 H   0  0  0  0  0  0  0  0  0  0  0  0
  144.9030  132.6690  151.6154 H   0  0  0  0  0  0  0  0  0  0  0  0
  145.7072  132.8972  150.0823 H   0  0  0  0  0  0  0  0  0  0  0  0
  147.2614  131.9857  151.8346 H   0  0  0  0  0  0  0  0  0  0  0  0
  147.8102  133.5173  151.1985 H   0  0  0  0  0  0  0  0  0  0  0  0
  146.3517  133.0901  153.8592 H   0  0  0  0  0  0  0  0  0  0  0  0
  148.0270  133.5196  153.6365 H   0  0  0  0  0  0  0  0  0  0  0  0
  146.6545  136.8327  154.3826 H   0  0  0  0  0  0  0  0  0  0  0  0
  146.0899  135.3972  155.2045 H   0  0  0  0  0  0  0  0  0  0  0  0
  148.2684  135.5813  156.1473 H   0  0  0  0  0  0  0  0  0  0  0  0
  148.6649  134.6218  154.7423 H   0  0  0  0  0  0  0  0  0  0  0  0
  148.7405  137.3764  154.0371 H   0  0  0  0  0  0  0  0  0  0  0  0
  152.3367  137.6892  154.4604 H   0  0  0  0  0  0  0  0  0  0  0  0
  151.2556  137.7799  153.1155 H   0  0  0  0  0  0  0  0  0  0  0  0
  149.1594  139.0169  153.4067 H   0  0  0  0  0  0  0  0  0  0  0  0
  148.2351  141.2371  154.0265 H   0  0  0  0  0  0  0  0  0  0  0  0
  149.5226  142.6358  155.7033 H   0  0  0  0  0  0  0  0  0  0  0  0
  151.5905  141.8134  156.6395 H   0  0  0  0  0  0  0  0  0  0  0  0
  147.3226  135.5288  152.5696 H   0  0  0  0  0  0  0  0  0  0  0  0
  1  2  1  0  0  0  0
  1 21  1  0  0  0  0
  1 22  1  0  0  0  0
  1 23  1  0  0  0  0
  2  7  1  0  0  0  0
  2  3  1  0  0  0  0
  2 24  1  0  0  0  0
  3  4  1  0  0  0  0
  3 25  1  0  0  0  0
  3 26  1  0  0  0  0
  4  5  1  0  0  0  0
  4 27  1  0  0  0  0
  4 28  1  0  0  0  0
  5  6  1  0  0  0  0
  5 29  1  0  0  0  0
  5 30  1  0  0  0  0
  6  7  1  0  0  0  0
  6 31  1  0  0  0  0
  6 32  1  0  0  0  0
  7  8  1  0  0  0  0
  7 44  1  0  0  0  0
  8  9  1  0  0  0  0
  8 33  1  0  0  0  0
  8 34  1  0  0  0  0
  9 10  1  0  0  0  0
  9 35  1  0  0  0  0
  9 36  1  0  0  0  0
 10 11  1  0  0  0  0
 10 37  1  0  0  0  0
 11 12  2  0  0  0  0
 11 13  1  0  0  0  0
 13 14  1  0  0  0  0
 13 38  1  0  0  0  0
 13 39  1  0  0  0  0
 14 19  1  0  0  0  0
 14 15  1  0  0  0  0
 15 16  2  0  0  0  0
 15 40  1  0  0  0  0
 16 17  1  0  0  0  0
 16 41  1  0  0  0  0
 17 18  2  0  0  0  0
 17 42  1  0  0  0  0
 18 19  1  0  0  0  0
 18 43  1  0  0  0  0
 19 20  2  0  0  0  0
M  CHG  1   7   1
M  END
> <s_m_source_file>
AV-unprocessed.smi

> <i_m_source_file_index>
1786

> <i_lp_mmshare_version>
43012

> <i_f3d_flags>
0

> <s_epik_input>
W0NIM11bQ0BASF0xW0NIMl1bQ0gyXVtDSDJdW0NIMl1OMVtDSDJdW0NIMl1bTkhdQyg9TylbQ0gyXW4yW2NIXVtjSF1bY0hdW2NIXWMyPU8=

> <s_epik_cmdline>
J2VwaWtfcHl0aG9uJywgJy1waCcsICc3LjAnLCAnLXRuJywgJzgnLCAnLW1hJywgJzIwMCcsICctbWV0YWxfYmluZGluZycsICctaW1hZScsICc8aW5maWxlLm1hZT4nLCAnLW9tYWUnLCAnPG91dGZpbGUubWFlPic=

> <r_lp_tautomer_probability>
1

> <r_epik_Ionization_Penalty>
0.00237247

> <r_epik_Ionization_Penalty_Charging>
0.00237238

> <r_epik_Ionization_Penalty_Neutral>
8.2065e-08

> <r_epik_State_Penalty>
0.00163922

> <r_epik_Charging_Adjusted_Penalty>
0.0040116

> <i_epik_Tot_Q>
1

> <i_epik_Tot_abs_Q>
1

> <r_epik_Metal_State_Penalty>
-0

> <b_epik_Metal_Only>
0

> <s_lp_Force_Field>
OPLS_2005

> <r_lp_Energy>
28.5406

> <b_lp_Chiralities_Consistent>
1

> <s_lp_Variant>
AV-unprocessed.smi:1786-3

> <Gold.Version>
5.8.1

> <Gold.Id.Protein>
6NUR|6NUR_protein|mol2

> <Gold.PLP.Fitness>
51.4116

> <Gold.PLP.PLP>
-38.1609

> <Gold.PLP.part.hbond>
-4.0000

> <Gold.PLP.part.metal>
0.0000

> <Gold.PLP.part.buried>
-1.6386

> <Gold.PLP.part.nonpolar>
-31.4041

> <Gold.PLP.part.repulsive>
0.1008

> <Gold.PLP.ligand.clash>
0.0000

> <Gold.PLP.ligand.torsion>
0.3725

> <Gold.PLP.Chemscore.Hbond>
4.0000

> <Gold.PLP.Chemscore.CHOScore>
0.6407

> <Gold.PLP.Chemscore.Metal>
0.0000

> <Gold.Chemscore.Hbonds>
donor molecule, donor type, donor heavy atom, donor atom, acceptor molecule, acceptor atom, score
      L1  H     7    44       P1  7948  2.00
      P1  H  7997  8008       L1    20  1.00
      P1  H 10752 10765       L1    12  1.00
      L1  C    15    40       P1  7957  0.51

> <Gold.PLP.Chemscore.Internal.Correction>
0.0737

> <Gold.Rescore>
     Score         DG    S(hbond)    S(metal)    S(lipo)     H(rot)  DE(clash)    DE(int)     intcor
     18.11     -18.62       2.92        0.00      69.68       1.86       0.03       0.47       ----

> <Gold.Chemscore.Fitness>
18.1120

> <Gold.Chemscore.DG>
-18.6160

> <Gold.Chemscore.ZeroCoef>
-5.4800

> <Gold.Chemscore.Hbond>
2.9165

> <Gold.Chemscore.Metal>
0.0000

> <Gold.Chemscore.Lipo>
69.6825

> <Gold.Chemscore.Internal_Hbond>
0.0000

> <Gold.Chemscore.DEClash>
0.0313

> <Gold.Chemscore.DEInternal>
0.4727

> <Gold.Chemscore.Rot>
1.8586

> <Gold.Chemscore.Internal.Correction>
   9.000000E+99

> <Gold.Chemscore.Hbonds>
donor molecule, donor type, donor heavy atom, donor atom, acceptor molecule, acceptor atom, score
      L1  H     7    44       P1  7948  1.00
      P1  H  7997  8008       L1    20  0.99
      P1  H 10752 10765       L1    12  0.80

> <Gold.Chemscore.Hbond.Weighted>
-9.7412

> <Gold.Chemscore.Metal.Weighted>
-0.0000

> <Gold.Chemscore.Lipo.Weighted>
-8.1528

> <Gold.Chemscore.Internal_Hbond.Weighted>
0.0000

> <Gold.Chemscore.DEClash.Weighted>
0.0313

> <Gold.Chemscore.DEInternal.Weighted>
0.4727

> <Gold.Chemscore.Rot.Weighted>
4.7581

> <Gold.Chemscore.Internal.Correction.Weighted>
   9.000000E+99

> <Gold.Protein.RotatedTorsions>
[ 6907 6896 6895 6894 ] final   -0.48 input  -60.11 | X-H torsion
[ 7974 7965 7964 7962 ] final -100.52 input  175.53 | X-H torsion
[ 8008 7997 7996 7995 ] final  -53.04 input   59.86 | X-H torsion
[ 10167 10162 10161 10158 ] final   79.96 input  -65.29 | X-H torsion
[ 10718 10713 10712 10709 ] final   73.30 input   66.30 | X-H torsion
[ 10763 10752 10751 10750 ] final -166.00 input  -60.55 | X-H torsion
[ 11005 11000 10999 10996 ] final   40.00 input  -57.11 | X-H torsion

> <Gold.Protein.ActiveResidues>
 VAL166  LYS551  ARG553  GLY616  TRP617  ASP618  TYR619  PRO620  LYS621  CYS622 
 ASP623  PHE694  ASN695  SER759  ASP760  ASP761  ALA762  ILE779  LEU786  VAL792 
 PHE793  MET794  SER795  GLU796  ALA797  LYS798  CYS799  TRP800  GLU811  SER814 

> <Gold.Protein.RotatedAtoms>
  151.5616  135.1065  159.9973 H   0  0  0  0  0  0  0  0  0  0  0  0  # atno 6907 bound_to 6896
  152.4444  133.7504  159.6701 H   0  0  0  0  0  0  0  0  0  0  0  0  # atno 6908 bound_to 6896
  150.8356  133.7951  159.3105 H   0  0  0  0  0  0  0  0  0  0  0  0  # atno 6909 bound_to 6896
  145.2934  140.9359  143.2864 H   0  0  0  0  0  0  0  0  0  0  0  0  # atno 7974 bound_to 7965
  154.4122  140.1209  156.5090 H   0  0  0  0  0  0  0  0  0  0  0  0  # atno 8008 bound_to 7997
  155.6818  140.3496  155.4839 H   0  0  0  0  0  0  0  0  0  0  0  0  # atno 8009 bound_to 7997
  155.9544  140.1111  157.0939 H   0  0  0  0  0  0  0  0  0  0  0  0  # atno 8010 bound_to 7997
  139.9548  144.6001  150.8127 H   0  0  0  0  0  0  0  0  0  0  0  0  # atno 10167 bound_to 10162
  157.6541  130.9622  150.1050 H   0  0  0  0  0  0  0  0  0  0  0  0  # atno 10718 bound_to 10713
  154.6876  135.2965  154.9525 H   0  0  0  0  0  0  0  0  0  0  0  0  # atno 10763 bound_to 10752
  154.0498  135.6646  153.4803 H   0  0  0  0  0  0  0  0  0  0  0  0  # atno 10764 bound_to 10752
  153.0590  135.5127  154.7952 H   0  0  0  0  0  0  0  0  0  0  0  0  # atno 10765 bound_to 10752
  140.1974  134.3913  155.8114 H   0  0  0  0  0  0  0  0  0  0  0  0  # atno 11005 bound_to 11000
  144.9153  139.4478  143.6567 LP  0  0  0  0  0  0  0  0  0  0  0  0  # atno 17320 bound_to 7965
  146.3177  139.7984  142.8970 LP  0  0  0  0  0  0  0  0  0  0  0  0  # atno 17321 bound_to 7965
  140.7571  143.3080  151.2913 LP  0  0  0  0  0  0  0  0  0  0  0  0  # atno 17342 bound_to 10162
  139.6600  144.0207  152.2686 LP  0  0  0  0  0  0  0  0  0  0  0  0  # atno 17343 bound_to 10162
  156.1962  130.3657  149.8846 LP  0  0  0  0  0  0  0  0  0  0  0  0  # atno 17370 bound_to 10713
  156.6761  130.8840  151.3569 LP  0  0  0  0  0  0  0  0  0  0  0  0  # atno 17371 bound_to 10713
  141.2227  133.7076  156.8199 LP  0  0  0  0  0  0  0  0  0  0  0  0  # atno 17394 bound_to 11000
  140.2092  134.8840  157.3256 LP  0  0  0  0  0  0  0  0  0  0  0  0  # atno 17395 bound_to 11000

$$$$
