#       Name:                AV-unprocessed.smi:11
#       Creating user name   scv26
#       Creation time:       Thu Mar 26 15:17:57 2020


#       File generated by GOLD software.
#

@<TRIPOS>MOLECULE
AV-unprocessed.smi:11
    38    40     1
SMALL
NO_CHARGES


@<TRIPOS>ATOM
      1 ****        -3.1318   1.3007  -0.7546 C.3            1 S1                 0.0000
      2 ****        -2.3761   0.0050  -1.0905 C.3            1 S1                 0.0000
      3 ****        -1.1634   0.1781  -2.0386 C.3            1 S1                 0.0000
      4 ****        -1.6165   0.7011  -3.2721 O.3            1 S1                 0.0000
      5 ****        -0.4290  -1.1460  -2.2709 C.3            1 S1                 0.0000
      6 ****         0.5574  -1.2306  -1.1013 C.3            1 S1                 0.0000
      7 ****         0.7941   0.1412  -0.6600 N.3            1 S1                 0.0000
      8 ****         0.8776   0.3167   0.7379 C.2            1 S1                 0.0000
      9 ****         0.0280   1.1726   1.3616 N.2            1 S1                 0.0000
     10 ****         0.1305   1.2930   2.7100 C.2            1 S1                 0.0000
     11 ****         0.9934   0.6571   3.5410 N.pl3          1 S1                 0.0000
     12 ****         1.8616  -0.2045   2.9324 C.2            1 S1                 0.0000
     13 ****         2.8106  -0.9455   3.4956 N.2            1 S1                 0.0000
     14 ****         3.4082  -1.6156   2.4950 C.2            1 S1                 0.0000
     15 ****         2.8467  -1.3230   1.1927 C.2            1 S1                 0.0000
     16 ****         1.8201  -0.3904   1.5305 C.2            1 S1                 0.0000
     17 ****        -0.0332   1.0416  -1.4611 C.3            1 S1                 0.0000
     18 ****        -3.9900   1.0873  -0.1175 H              1 S1                 0.0000
     19 ****        -3.5058   1.7916  -1.6531 H              1 S1                 0.0000
     20 ****        -2.5017   2.0102  -0.2196 H              1 S1                 0.0000
     21 ****        -2.0519  -0.4563  -0.1570 H              1 S1                 0.0000
     22 ****        -3.0795  -0.6987  -1.5375 H              1 S1                 0.0000
     23 ****        -0.8720   0.8034  -3.8451 H              1 S1                 0.0000
     24 ****        -1.0932  -2.0090  -2.3298 H              1 S1                 0.0000
     25 ****         0.1358  -1.1035  -3.2037 H              1 S1                 0.0000
     26 ****         0.1244  -1.8204  -0.2916 H              1 S1                 0.0000
     27 ****         1.4865  -1.7115  -1.4070 H              1 S1                 0.0000
     28 ****        -0.5601   1.9792   3.1775 H              1 S1                 0.0000
     29 ****         4.2289  -2.2955   2.6871 H              1 S1                 0.0000
     30 ****         3.1356  -1.7098   0.2239 H              1 S1                 0.0000
     31 ****         0.6006   1.4110  -2.2685 H              1 S1                 0.0000
     32 ****        -0.3961   1.9247  -0.9380 H              1 S1                 0.0000
     33 ****         0.9596   0.8456   4.5328 H              1 S1                 0.0000
     34 ****        -2.0520   1.5888  -3.1228 LP             1 S1                 0.0000
     35 ****        -2.2754   0.0717  -3.6840 LP             1 S1                 0.0000
     36 ****         1.7338   0.4209  -0.8571 LP             1 S1                 0.0000
     37 ****        -0.6499   1.6963   0.8456 LP             1 S1                 0.0000
     38 ****         3.0351  -0.9947   4.4688 LP             1 S1                 0.0000
@<TRIPOS>BOND
    1    1    2 1     
    2    1   18 1     
    3    1   19 1     
    4    1   20 1     
    5    2    3 1     
    6    2   21 1     
    7    2   22 1     
    8    3   17 1     
    9    3    4 1     
   10    3    5 1     
   11    4   23 1     
   12    5    6 1     
   13    5   24 1     
   14    5   25 1     
   15    6    7 1     
   16    6   26 1     
   17    6   27 1     
   18    7    8 1     
   19    7   17 1     
   20    8   16 2     
   21    8    9 1     
   22    9   10 2     
   23   10   11 1     
   24   10   28 1     
   25   11   12 1     
   26   11   33 1     
   27   12   16 1     
   28   12   13 2     
   29   13   14 1     
   30   14   15 2     
   31   14   29 1     
   32   15   16 1     
   33   15   30 1     
   34   17   31 1     
   35   17   32 1     
   36    4   34 1     
   37    4   35 1     
   38    7   36 1     
   39    9   37 1     
   40   13   38 1     
@<TRIPOS>SUBSTRUCTURE
      1 S1             1
@<TRIPOS>SET
LONE_PAIRS      STATIC     ATOMS    <user>   **** ""
5 34 35 36 37 38
DONOR_HYDROGENS      STATIC     ATOMS    <user>   **** ""
2 23 33
ATOM$BLUE        STATIC     ATOMS    COLORGROUP SYSTEM
5 34 35 36 37 38
ATOM$RED        STATIC     ATOMS    COLORGROUP SYSTEM
2 23 33
