AV-unprocessed.smi:2693|AV-procd|sdf|10397|dock10
  -GOLD-   2272014433D 1   1.00000     0.00000
 Structure written by MMmdl.
 45 47  0  0  0  0  0  0  0  0  1 V2000
  151.5105  140.8440  158.4389 C   0  0  0  0  0  0  0  0  0  0  0  0
  150.9872  141.1396  157.1086 N   0  0  0  0  0  0  0  0  0  0  0  0
  151.1374  142.5045  156.6123 C   0  0  0  0  0  0  0  0  0  0  0  0
  150.3612  140.1537  156.3402 C   0  0  0  0  0  0  0  0  0  0  0  0
  149.6264  139.2401  156.9882 N   0  0  0  0  0  0  0  0  0  0  0  0
  149.0185  138.2879  156.2500 C   0  0  0  0  0  0  0  0  0  0  0  0
  149.1464  138.2347  154.8477 C   0  0  0  0  0  0  0  0  0  0  0  0
  148.4638  137.2158  154.1313 N   0  0  0  0  0  0  0  0  0  0  0  0
  147.2531  136.6899  154.3812 C   0  0  0  0  0  0  0  0  0  0  0  0
  146.4918  137.0481  155.2790 O   0  0  0  0  0  0  0  0  0  0  0  0
  146.9541  135.7258  153.5012 N   0  0  0  0  0  0  0  0  0  0  0  0
  145.6941  134.9750  153.4864 C   0  0  2  0  0  0  0  0  0  0  0  0
  145.9109  133.4600  153.5062 C   0  0  2  0  0  0  0  0  0  0  0  0
  147.0315  132.5488  153.8552 C   0  0  0  0  0  0  0  0  0  0  0  0
  146.8467  131.5559  152.6755 C   0  0  0  0  0  0  0  0  0  0  0  0
  145.8889  132.1747  151.7781 O   0  0  0  0  0  0  0  0  0  0  0  0
  146.0583  133.5604  152.0019 C   0  0  1  0  0  0  0  0  0  0  0  0
  145.0610  134.7393  152.0576 C   0  0  0  0  0  0  0  0  0  0  0  0
  143.5617  134.3953  151.9989 C   0  0  0  0  0  0  0  0  0  0  0  0
  145.2782  135.8358  151.0087 C   0  0  0  0  0  0  0  0  0  0  0  0
  149.9382  139.2519  154.2635 C   0  0  0  0  0  0  0  0  0  0  0  0
  150.5391  140.2002  155.0134 N   0  0  0  0  0  0  0  0  0  0  0  0
  150.6954  140.5977  159.1197 H   0  0  0  0  0  0  0  0  0  0  0  0
  152.0546  141.6897  158.8592 H   0  0  0  0  0  0  0  0  0  0  0  0
  152.1964  139.9973  158.4012 H   0  0  0  0  0  0  0  0  0  0  0  0
  150.1720  142.9096  156.3075 H   0  0  0  0  0  0  0  0  0  0  0  0
  151.8059  142.5228  155.7513 H   0  0  0  0  0  0  0  0  0  0  0  0
  151.5482  143.1702  157.3713 H   0  0  0  0  0  0  0  0  0  0  0  0
  148.4263  137.5613  156.7866 H   0  0  0  0  0  0  0  0  0  0  0  0
  148.9369  136.8734  153.3077 H   0  0  0  0  0  0  0  0  0  0  0  0
  147.6332  135.4961  152.7908 H   0  0  0  0  0  0  0  0  0  0  0  0
  144.9698  135.3074  154.2321 H   0  0  0  0  0  0  0  0  0  0  0  0
  144.9739  132.9859  153.8086 H   0  0  0  0  0  0  0  0  0  0  0  0
  147.9992  133.0507  153.8208 H   0  0  0  0  0  0  0  0  0  0  0  0
  146.9065  132.0738  154.8285 H   0  0  0  0  0  0  0  0  0  0  0  0
  147.7932  131.3839  152.1613 H   0  0  0  0  0  0  0  0  0  0  0  0
  146.4631  130.5919  153.0105 H   0  0  0  0  0  0  0  0  0  0  0  0
  147.0521  133.8792  151.6706 H   0  0  0  0  0  0  0  0  0  0  0  0
  143.2876  133.9917  151.0237 H   0  0  0  0  0  0  0  0  0  0  0  0
  142.9469  135.2801  152.1681 H   0  0  0  0  0  0  0  0  0  0  0  0
  143.2539  133.6587  152.7389 H   0  0  0  0  0  0  0  0  0  0  0  0
  144.9002  135.5365  150.0305 H   0  0  0  0  0  0  0  0  0  0  0  0
  146.3338  136.0732  150.8764 H   0  0  0  0  0  0  0  0  0  0  0  0
  144.7726  136.7601  151.2895 H   0  0  0  0  0  0  0  0  0  0  0  0
  150.0873  139.3391  153.1989 H   0  0  0  0  0  0  0  0  0  0  0  0
  1  2  1  0  0  0  0
  1 23  1  0  0  0  0
  1 24  1  0  0  0  0
  1 25  1  0  0  0  0
  2  3  1  0  0  0  0
  2  4  1  0  0  0  0
  3 26  1  0  0  0  0
  3 27  1  0  0  0  0
  3 28  1  0  0  0  0
  4 22  1  0  0  0  0
  4  5  2  0  0  0  0
  5  6  1  0  0  0  0
  6  7  2  0  0  0  0
  6 29  1  0  0  0  0
  7  8  1  0  0  0  0
  7 21  1  0  0  0  0
  8  9  1  0  0  0  0
  8 30  1  0  0  0  0
  9 10  2  0  0  0  0
  9 11  1  0  0  0  0
 11 12  1  0  0  0  0
 11 31  1  0  0  0  0
 12 18  1  0  0  0  0
 12 13  1  0  0  0  0
 12 32  1  0  0  0  0
 13 17  1  0  0  0  0
 13 14  1  0  0  0  0
 13 33  1  0  0  0  0
 14 15  1  0  0  0  0
 14 34  1  0  0  0  0
 14 35  1  0  0  0  0
 15 16  1  0  0  0  0
 15 36  1  0  0  0  0
 15 37  1  0  0  0  0
 16 17  1  0  0  0  0
 17 18  1  0  0  0  0
 17 38  1  0  0  0  0
 18 19  1  0  0  0  0
 18 20  1  0  0  0  0
 19 39  1  0  0  0  0
 19 40  1  0  0  0  0
 19 41  1  0  0  0  0
 20 42  1  0  0  0  0
 20 43  1  0  0  0  0
 20 44  1  0  0  0  0
 21 22  2  0  0  0  0
 21 45  1  0  0  0  0
M  END
> <s_m_source_file>
AV-unprocessed.smi

> <i_m_source_file_index>
2693

> <i_lp_mmshare_version>
43012

> <i_f3d_flags>
0

> <s_epik_input>
W0NIM11OKFtDSDNdKWMxbltjSF1jKFtjSF1uMSlbTkhdQyg9TylbTkhdW0NASF0yQyhbQ0gzXSkoW0NIM10pW0NAQEhdKFtDQEhdMjMpT1tDSDJdW0NIMl0z

> <s_epik_cmdline>
J2VwaWtfcHl0aG9uJywgJy1waCcsICc3LjAnLCAnLXRuJywgJzgnLCAnLW1hJywgJzIwMCcsICctbWV0YWxfYmluZGluZycsICctaW1hZScsICc8aW5maWxlLm1hZT4nLCAnLW9tYWUnLCAnPG91dGZpbGUubWFlPic=

> <r_lp_tautomer_probability>
1

> <r_epik_Ionization_Penalty>
0.00031779

> <r_epik_Ionization_Penalty_Charging>
0

> <r_epik_Ionization_Penalty_Neutral>
0.00031779

> <r_epik_State_Penalty>
-0

> <r_epik_Charging_Adjusted_Penalty>
0

> <i_epik_Tot_Q>
0

> <i_epik_Tot_abs_Q>
0

> <r_epik_Metal_State_Penalty>
-0

> <b_epik_Metal_Only>
0

> <s_lp_Force_Field>
OPLS_2005

> <r_lp_Energy>
57.3168

> <b_lp_Chiralities_Consistent>
1

> <s_lp_Variant>
AV-unprocessed.smi:2693-1

> <Gold.Version>
5.8.1

> <Gold.Id.Protein>
6NUR|6NUR_protein|mol2

> <Gold.PLP.Fitness>
35.6166

> <Gold.PLP.PLP>
-26.5256

> <Gold.PLP.part.hbond>
-2.9408

> <Gold.PLP.part.metal>
0.0000

> <Gold.PLP.part.buried>
-3.7899

> <Gold.PLP.part.nonpolar>
-20.1860

> <Gold.PLP.part.repulsive>
0.2066

> <Gold.PLP.ligand.clash>
0.0000

> <Gold.PLP.ligand.torsion>
0.9074

> <Gold.PLP.Chemscore.Hbond>
2.5480

> <Gold.PLP.Chemscore.CHOScore>
1.0000

> <Gold.PLP.Chemscore.Metal>
0.0000

> <Gold.Chemscore.Hbonds>
donor molecule, donor type, donor heavy atom, donor atom, acceptor molecule, acceptor atom, score
      L1  H     8    30       P1  7948  1.00
      L1  H    11    31       P1  7948  0.85
      P1  H  7989  7998       L1    22  0.65
      L1  C    21    45       P1  7957  1.00

> <Gold.PLP.Chemscore.Internal.Correction>
0.2618

> <Gold.Rescore>
     Score         DG    S(hbond)    S(metal)    S(lipo)     H(rot)  DE(clash)    DE(int)     intcor
     14.55     -16.56       1.86        0.00      63.39       1.00       0.10       1.92       ----

> <Gold.Chemscore.Fitness>
14.5462

> <Gold.Chemscore.DG>
-16.5640

> <Gold.Chemscore.ZeroCoef>
-5.4800

> <Gold.Chemscore.Hbond>
1.8645

> <Gold.Chemscore.Metal>
0.0000

> <Gold.Chemscore.Lipo>
63.3899

> <Gold.Chemscore.Internal_Hbond>
0.0000

> <Gold.Chemscore.DEClash>
0.0993

> <Gold.Chemscore.DEInternal>
1.9185

> <Gold.Chemscore.Rot>
1.0000

> <Gold.Chemscore.Internal.Correction>
   9.000000E+99

> <Gold.Chemscore.Hbonds>
donor molecule, donor type, donor heavy atom, donor atom, acceptor molecule, acceptor atom, score
      L1  H     8    30       P1  7948  0.94
      L1  H    11    31       P1  7948  0.83
      P1  H  7989  7998       L1    22  0.05

> <Gold.Chemscore.Hbond.Weighted>
-6.2274

> <Gold.Chemscore.Metal.Weighted>
-0.0000

> <Gold.Chemscore.Lipo.Weighted>
-7.4166

> <Gold.Chemscore.Internal_Hbond.Weighted>
0.0000

> <Gold.Chemscore.DEClash.Weighted>
0.0993

> <Gold.Chemscore.DEInternal.Weighted>
1.9185

> <Gold.Chemscore.Rot.Weighted>
2.5600

> <Gold.Chemscore.Internal.Correction.Weighted>
   9.000000E+99

> <Gold.Protein.RotatedTorsions>
[ 6907 6896 6895 6894 ] final  -54.80 input  -60.11 | X-H torsion
[ 7974 7965 7964 7962 ] final -120.73 input  175.53 | X-H torsion
[ 8008 7997 7996 7995 ] final  -22.96 input   59.86 | X-H torsion
[ 10167 10162 10161 10158 ] final  -19.51 input  -65.29 | X-H torsion
[ 10718 10713 10712 10709 ] final    1.90 input   66.30 | X-H torsion
[ 10763 10752 10751 10750 ] final -137.66 input  -60.55 | X-H torsion
[ 11005 11000 10999 10996 ] final  170.48 input  -57.11 | X-H torsion

> <Gold.Protein.ActiveResidues>
 VAL166  LYS551  ARG553  GLY616  TRP617  ASP618  TYR619  PRO620  LYS621  CYS622 
 ASP623  PHE694  ASN695  SER759  ASP760  ASP761  ALA762  ILE779  LEU786  VAL792 
 PHE793  MET794  SER795  GLU796  ALA797  LYS798  CYS799  TRP800  GLU811  SER814 

> <Gold.Protein.RotatedAtoms>
  150.8306  134.7558  159.6850 H   0  0  0  0  0  0  0  0  0  0  0  0  # atno 6907 bound_to 6896
  152.4411  134.5585  159.9897 H   0  0  0  0  0  0  0  0  0  0  0  0  # atno 6908 bound_to 6896
  151.5747  133.3348  159.3032 H   0  0  0  0  0  0  0  0  0  0  0  0  # atno 6909 bound_to 6896
  145.0481  140.8197  143.4226 H   0  0  0  0  0  0  0  0  0  0  0  0  # atno 7974 bound_to 7965
  154.4613  140.1993  156.0237 H   0  0  0  0  0  0  0  0  0  0  0  0  # atno 8008 bound_to 7997
  156.0845  140.3267  155.7708 H   0  0  0  0  0  0  0  0  0  0  0  0  # atno 8009 bound_to 7997
  155.5057  140.0557  157.2922 H   0  0  0  0  0  0  0  0  0  0  0  0  # atno 8010 bound_to 7997
  140.7269  143.4811  151.0116 H   0  0  0  0  0  0  0  0  0  0  0  0  # atno 10167 bound_to 10162
  156.8550  130.5567  149.5667 H   0  0  0  0  0  0  0  0  0  0  0  0  # atno 10718 bound_to 10713
  154.8656  135.3635  154.5259 H   0  0  0  0  0  0  0  0  0  0  0  0  # atno 10763 bound_to 10752
  153.5887  135.7016  153.5437 H   0  0  0  0  0  0  0  0  0  0  0  0  # atno 10764 bound_to 10752
  153.3392  135.4102  155.1520 H   0  0  0  0  0  0  0  0  0  0  0  0  # atno 10765 bound_to 10752
  140.3088  134.7534  157.3975 H   0  0  0  0  0  0  0  0  0  0  0  0  # atno 11005 bound_to 11000
  145.1562  139.2485  143.5415 LP  0  0  0  0  0  0  0  0  0  0  0  0  # atno 17320 bound_to 7965
  146.3515  140.1277  142.8598 LP  0  0  0  0  0  0  0  0  0  0  0  0  # atno 17321 bound_to 7965
  139.8510  143.7438  152.3178 LP  0  0  0  0  0  0  0  0  0  0  0  0  # atno 17342 bound_to 10162
  139.7620  144.7503  151.0349 LP  0  0  0  0  0  0  0  0  0  0  0  0  # atno 17343 bound_to 10162
  156.0807  130.5818  150.9558 LP  0  0  0  0  0  0  0  0  0  0  0  0  # atno 17370 bound_to 10713
  157.6282  131.0923  150.8493 LP  0  0  0  0  0  0  0  0  0  0  0  0  # atno 17371 bound_to 10713
  140.1043  134.5430  155.8323 LP  0  0  0  0  0  0  0  0  0  0  0  0  # atno 17394 bound_to 11000
  141.2112  133.6704  156.6569 LP  0  0  0  0  0  0  0  0  0  0  0  0  # atno 17395 bound_to 11000

$$$$
