AV-unprocessed.smi:973|AV-procd|sdf|4299|dock6
  -GOLD-   22720 2203D 1   1.00000     0.00000
 Structure written by MMmdl.
 41 42  0  0  0  0  0  0  0  0  1 V2000
  148.5276  138.0520  152.6561 C   0  0  0  0  0  0  0  0  0  0  0  0
  148.8253  138.5013  154.0186 N   0  0  0  0  0  0  0  0  0  0  0  0
  148.5504  137.6117  155.0711 C   0  0  0  0  0  0  0  0  0  0  0  0
  148.7883  137.9389  156.3487 C   0  0  0  0  0  0  0  0  0  0  0  0
  149.3400  139.2421  156.6322 C   0  0  0  0  0  0  0  0  0  0  0  0
  149.6033  140.1203  155.6319 C   0  0  0  0  0  0  0  0  0  0  0  0
  150.1473  141.4029  155.8206 N   0  0  0  0  0  0  0  0  0  0  0  0
  151.2297  141.7720  156.5305 C   0  0  0  0  0  0  0  0  0  0  0  0
  151.9480  141.0227  157.1923 O   0  0  0  0  0  0  0  0  0  0  0  0
  151.4270  143.0956  156.4484 N   0  0  0  0  0  0  0  0  0  0  0  0
  152.4879  143.8296  157.1284 C   0  0  0  0  0  0  0  0  0  0  0  0
  152.0178  144.3839  158.4847 C   0  0  0  0  0  0  0  0  0  0  0  0
  152.4035  143.4861  159.6488 C   0  0  0  0  0  0  0  0  0  0  0  0
  152.0454  143.7691  160.9164 C   0  0  0  0  0  0  0  0  0  0  0  0
  152.4190  142.9198  162.1188 C   0  0  0  0  0  0  0  0  0  0  0  0
  153.5273  141.9033  161.7967 C   0  0  0  0  0  0  0  0  0  0  0  0
  153.2762  141.2216  160.4462 C   0  0  0  0  0  0  0  0  0  0  0  0
  153.2240  142.2488  159.3009 C   0  0  0  0  0  0  0  0  0  0  0  0
  149.3474  139.7467  154.2271 C   0  0  0  0  0  0  0  0  0  0  0  0
  149.5838  140.5055  153.2837 O   0  0  0  0  0  0  0  0  0  0  0  0
  148.1383  137.0340  152.6233 H   0  0  0  0  0  0  0  0  0  0  0  0
  149.4265  138.0749  152.0383 H   0  0  0  0  0  0  0  0  0  0  0  0
  147.7812  138.7004  152.1952 H   0  0  0  0  0  0  0  0  0  0  0  0
  148.1384  136.6571  154.7780 H   0  0  0  0  0  0  0  0  0  0  0  0
  148.5709  137.2451  157.1474 H   0  0  0  0  0  0  0  0  0  0  0  0
  149.5470  139.4763  157.6638 H   0  0  0  0  0  0  0  0  0  0  0  0
  149.6179  142.1482  155.3920 H   0  0  0  0  0  0  0  0  0  0  0  0
  150.7870  143.6382  155.8868 H   0  0  0  0  0  0  0  0  0  0  0  0
  153.3243  143.1450  157.2692 H   0  0  0  0  0  0  0  0  0  0  0  0
  152.8515  144.6372  156.4904 H   0  0  0  0  0  0  0  0  0  0  0  0
  152.4429  145.3762  158.6435 H   0  0  0  0  0  0  0  0  0  0  0  0
  150.9348  144.5121  158.4852 H   0  0  0  0  0  0  0  0  0  0  0  0
  151.4488  144.6458  161.1233 H   0  0  0  0  0  0  0  0  0  0  0  0
  152.7382  143.5701  162.9337 H   0  0  0  0  0  0  0  0  0  0  0  0
  151.5206  142.4032  162.4577 H   0  0  0  0  0  0  0  0  0  0  0  0
  154.4917  142.4122  161.7663 H   0  0  0  0  0  0  0  0  0  0  0  0
  153.5949  141.1605  162.5920 H   0  0  0  0  0  0  0  0  0  0  0  0
  154.0501  140.4799  160.2458 H   0  0  0  0  0  0  0  0  0  0  0  0
  152.3317  140.6776  160.4903 H   0  0  0  0  0  0  0  0  0  0  0  0
  152.8131  141.7767  158.4079 H   0  0  0  0  0  0  0  0  0  0  0  0
  154.2358  142.5694  159.0513 H   0  0  0  0  0  0  0  0  0  0  0  0
  1  2  1  0  0  0  0
  1 21  1  0  0  0  0
  1 22  1  0  0  0  0
  1 23  1  0  0  0  0
  2 19  1  0  0  0  0
  2  3  1  0  0  0  0
  3  4  2  0  0  0  0
  3 24  1  0  0  0  0
  4  5  1  0  0  0  0
  4 25  1  0  0  0  0
  5  6  2  0  0  0  0
  5 26  1  0  0  0  0
  6  7  1  0  0  0  0
  6 19  1  0  0  0  0
  7  8  1  0  0  0  0
  7 27  1  0  0  0  0
  8  9  2  0  0  0  0
  8 10  1  0  0  0  0
 10 11  1  0  0  0  0
 10 28  1  0  0  0  0
 11 12  1  0  0  0  0
 11 29  1  0  0  0  0
 11 30  1  0  0  0  0
 12 13  1  0  0  0  0
 12 31  1  0  0  0  0
 12 32  1  0  0  0  0
 13 18  1  0  0  0  0
 13 14  2  0  0  0  0
 14 15  1  0  0  0  0
 14 33  1  0  0  0  0
 15 16  1  0  0  0  0
 15 34  1  0  0  0  0
 15 35  1  0  0  0  0
 16 17  1  0  0  0  0
 16 36  1  0  0  0  0
 16 37  1  0  0  0  0
 17 18  1  0  0  0  0
 17 38  1  0  0  0  0
 17 39  1  0  0  0  0
 18 40  1  0  0  0  0
 18 41  1  0  0  0  0
 19 20  2  0  0  0  0
M  END
> <s_m_source_file>
AV-unprocessed.smi

> <i_m_source_file_index>
973

> <i_lp_mmshare_version>
43012

> <i_f3d_flags>
0

> <s_epik_input>
W0NIM11uMVtjSF1bY0hdW2NIXWMoYzE9TylbTkhdQyg9TylbTkhdW0NIMl1bQ0gyXUMyPVtDSF1bQ0gyXVtDSDJdW0NIMl1bQ0gyXTI=

> <s_epik_cmdline>
J2VwaWtfcHl0aG9uJywgJy1waCcsICc3LjAnLCAnLXRuJywgJzgnLCAnLW1hJywgJzIwMCcsICctbWV0YWxfYmluZGluZycsICctaW1hZScsICc8aW5maWxlLm1hZT4nLCAnLW9tYWUnLCAnPG91dGZpbGUubWFlPic=

> <r_lp_tautomer_probability>
1

> <r_epik_Ionization_Penalty>
2.5397e-05

> <r_epik_Ionization_Penalty_Charging>
4.7783e-06

> <r_epik_Ionization_Penalty_Neutral>
2.06187e-05

> <r_epik_State_Penalty>
-0

> <r_epik_Charging_Adjusted_Penalty>
4.7783e-06

> <i_epik_Tot_Q>
0

> <i_epik_Tot_abs_Q>
0

> <r_epik_Metal_State_Penalty>
-0

> <b_epik_Metal_Only>
0

> <s_lp_Force_Field>
OPLS_2005

> <r_lp_Energy>
20.1854

> <b_lp_Chiralities_Consistent>
1

> <s_lp_Variant>
AV-unprocessed.smi:973-1

> <Gold.Version>
5.8.1

> <Gold.Id.Protein>
6NUR|6NUR_protein|mol2

> <Gold.PLP.Fitness>
52.6573

> <Gold.PLP.PLP>
-46.6488

> <Gold.PLP.part.hbond>
-3.0000

> <Gold.PLP.part.metal>
0.0000

> <Gold.PLP.part.buried>
-4.4713

> <Gold.PLP.part.nonpolar>
-39.5699

> <Gold.PLP.part.repulsive>
0.2851

> <Gold.PLP.ligand.clash>
0.0000

> <Gold.PLP.ligand.torsion>
0.8853

> <Gold.PLP.Chemscore.Hbond>
2.5920

> <Gold.PLP.Chemscore.CHOScore>
0.0000

> <Gold.PLP.Chemscore.Metal>
0.0000

> <Gold.Chemscore.Hbonds>
donor molecule, donor type, donor heavy atom, donor atom, acceptor molecule, acceptor atom, score
      L1  H    10    28       P1  8028  0.62
      P1  H  7989  7998       L1    20  0.35
      P1  H  8011  8017       L1    20  0.73

> <Gold.PLP.Chemscore.Internal.Correction>
0.0030

> <Gold.Rescore>
     Score         DG    S(hbond)    S(metal)    S(lipo)     H(rot)  DE(clash)    DE(int)     intcor
     21.26     -24.01       2.60        0.00     114.72       1.40       0.50       2.26       ----

> <Gold.Chemscore.Fitness>
21.2572

> <Gold.Chemscore.DG>
-24.0086

> <Gold.Chemscore.ZeroCoef>
-5.4800

> <Gold.Chemscore.Hbond>
2.5986

> <Gold.Chemscore.Metal>
0.0000

> <Gold.Chemscore.Lipo>
114.7241

> <Gold.Chemscore.Internal_Hbond>
0.0000

> <Gold.Chemscore.DEClash>
0.4953

> <Gold.Chemscore.DEInternal>
2.2561

> <Gold.Chemscore.Rot>
1.3958

> <Gold.Chemscore.Internal.Correction>
   9.000000E+99

> <Gold.Chemscore.Hbonds>
donor molecule, donor type, donor heavy atom, donor atom, acceptor molecule, acceptor atom, score
      L1  H    10    28       P1  8028  0.60
      P1  H  7989  7998       L1    20  0.15
      P1  H  8011  8017       L1    20  0.73

> <Gold.Chemscore.Hbond.Weighted>
-8.6792

> <Gold.Chemscore.Metal.Weighted>
-0.0000

> <Gold.Chemscore.Lipo.Weighted>
-13.4227

> <Gold.Chemscore.Internal_Hbond.Weighted>
0.0000

> <Gold.Chemscore.DEClash.Weighted>
0.4953

> <Gold.Chemscore.DEInternal.Weighted>
2.2561

> <Gold.Chemscore.Rot.Weighted>
3.5733

> <Gold.Chemscore.Internal.Correction.Weighted>
   9.000000E+99

> <Gold.Protein.RotatedTorsions>
[ 6907 6896 6895 6894 ] final  -96.93 input  -60.11 | X-H torsion
[ 7974 7965 7964 7962 ] final  -44.82 input  175.53 | X-H torsion
[ 8008 7997 7996 7995 ] final  -55.63 input   59.86 | X-H torsion
[ 10167 10162 10161 10158 ] final -167.71 input  -65.29 | X-H torsion
[ 10718 10713 10712 10709 ] final  -36.27 input   66.30 | X-H torsion
[ 10763 10752 10751 10750 ] final   23.22 input  -60.55 | X-H torsion
[ 11005 11000 10999 10996 ] final  -11.51 input  -57.11 | X-H torsion

> <Gold.Protein.ActiveResidues>
 VAL166  LYS551  ARG553  GLY616  TRP617  ASP618  TYR619  PRO620  LYS621  CYS622 
 ASP623  PHE694  ASN695  SER759  ASP760  ASP761  ALA762  ILE779  LEU786  VAL792 
 PHE793  MET794  SER795  GLU796  ALA797  LYS798  CYS799  TRP800  GLU811  SER814 

> <Gold.Protein.RotatedAtoms>
  150.7002  134.1428  159.4110 H   0  0  0  0  0  0  0  0  0  0  0  0  # atno 6907 bound_to 6896
  151.9412  135.0210  160.0545 H   0  0  0  0  0  0  0  0  0  0  0  0  # atno 6908 bound_to 6896
  152.2092  133.4863  159.5137 H   0  0  0  0  0  0  0  0  0  0  0  0  # atno 6909 bound_to 6896
  145.9882  140.7209  142.9330 H   0  0  0  0  0  0  0  0  0  0  0  0  # atno 7974 bound_to 7965
  154.4202  140.1148  156.5508 H   0  0  0  0  0  0  0  0  0  0  0  0  # atno 8008 bound_to 7997
  155.6412  140.3496  155.4696 H   0  0  0  0  0  0  0  0  0  0  0  0  # atno 8009 bound_to 7997
  155.9869  140.1171  157.0664 H   0  0  0  0  0  0  0  0  0  0  0  0  # atno 8010 bound_to 7997
  139.6031  144.0968  152.1765 H   0  0  0  0  0  0  0  0  0  0  0  0  # atno 10167 bound_to 10162
  156.3288  130.4276  149.7892 H   0  0  0  0  0  0  0  0  0  0  0  0  # atno 10718 bound_to 10713
  153.0855  135.6631  153.9958 H   0  0  0  0  0  0  0  0  0  0  0  0  # atno 10763 bound_to 10752
  153.9569  135.2978  155.3437 H   0  0  0  0  0  0  0  0  0  0  0  0  # atno 10764 bound_to 10752
  154.7262  135.5143  153.8962 H   0  0  0  0  0  0  0  0  0  0  0  0  # atno 10765 bound_to 10752
  140.7560  133.8553  155.9084 H   0  0  0  0  0  0  0  0  0  0  0  0  # atno 11005 bound_to 11000
  144.6881  140.3025  143.7261 LP  0  0  0  0  0  0  0  0  0  0  0  0  # atno 17320 bound_to 7965
  145.7669  139.1843  143.2235 LP  0  0  0  0  0  0  0  0  0  0  0  0  # atno 17321 bound_to 7965
  140.0569  144.5888  150.7293 LP  0  0  0  0  0  0  0  0  0  0  0  0  # atno 17342 bound_to 10162
  140.7265  143.2642  151.4102 LP  0  0  0  0  0  0  0  0  0  0  0  0  # atno 17343 bound_to 10162
  156.5172  130.8199  151.3190 LP  0  0  0  0  0  0  0  0  0  0  0  0  # atno 17370 bound_to 10713
  157.7426  130.9894  150.2531 LP  0  0  0  0  0  0  0  0  0  0  0  0  # atno 17371 bound_to 10713
  140.9707  134.1535  157.4578 LP  0  0  0  0  0  0  0  0  0  0  0  0  # atno 17394 bound_to 11000
  139.8779  134.9977  156.5863 LP  0  0  0  0  0  0  0  0  0  0  0  0  # atno 17395 bound_to 11000

$$$$
