AV-unprocessed.smi:1965|AV-procd|sdf|7941|dock3
  -GOLD-   2272010113D 1   1.00000     0.00000
 Structure written by MMmdl.
 36 38  0  0  0  0  0  0  0  0  3 V2000
  152.1130  139.3189  154.9438 O   0  0  0  0  0  0  0  0  0  0  0  0
  151.7253  139.0609  156.0826 C   0  0  0  0  0  0  0  0  0  0  0  0
  152.3962  139.4336  157.2031 N   0  5  0  0  0  0  0  0  0  0  0  0
  152.0285  140.4912  157.9499 C   0  0  0  0  0  0  0  0  0  0  0  0
  152.5811  140.7789  159.1342 N   0  0  0  0  0  0  0  0  0  0  0  0
  152.0492  141.9230  159.7316 C   0  0  0  0  0  0  0  0  0  0  0  0
  151.0663  142.5179  158.9861 C   0  0  0  0  0  0  0  0  0  0  0  0
  150.7744  141.6511  157.5054 S   0  0  0  0  0  0  0  0  0  0  0  0
  150.5720  138.3827  156.2375 N   0  0  0  0  0  0  0  0  0  0  0  0
  149.6952  137.9303  155.1620 C   0  0  1  0  0  0  0  0  0  0  0  0
  148.3662  137.3545  155.6687 C   0  0  0  0  0  0  0  0  0  0  0  0
  147.3387  137.6985  154.5758 C   0  0  0  0  0  0  0  0  0  0  0  0
  148.0777  138.4521  153.5384 N   0  3  1  0  0  0  0  0  0  0  0  0
  147.2770  139.3712  152.6899 C   0  0  0  0  0  0  0  0  0  0  0  0
  146.9483  140.6977  153.3954 C   0  0  0  0  0  0  0  0  0  0  0  0
  148.2237  141.3592  153.9274 C   0  0  0  0  0  0  0  0  0  0  0  0
  148.9432  140.3973  154.8784 C   0  0  0  0  0  0  0  0  0  0  0  0
  149.2651  139.0441  154.1926 C   0  0  1  0  0  0  0  0  0  0  0  0
  152.4302  142.2424  160.6901 H   0  0  0  0  0  0  0  0  0  0  0  0
  150.4970  143.4055  159.2169 H   0  0  0  0  0  0  0  0  0  0  0  0
  150.2763  138.1839  157.1823 H   0  0  0  0  0  0  0  0  0  0  0  0
  150.2038  137.1485  154.5939 H   0  0  0  0  0  0  0  0  0  0  0  0
  148.4359  136.2809  155.8464 H   0  0  0  0  0  0  0  0  0  0  0  0
  148.0719  137.8234  156.6091 H   0  0  0  0  0  0  0  0  0  0  0  0
  146.8909  136.8049  154.1403 H   0  0  0  0  0  0  0  0  0  0  0  0
  146.5346  138.3015  154.9989 H   0  0  0  0  0  0  0  0  0  0  0  0
  147.8552  139.5802  151.7890 H   0  0  0  0  0  0  0  0  0  0  0  0
  146.3648  138.8713  152.3628 H   0  0  0  0  0  0  0  0  0  0  0  0
  146.4433  141.3702  152.7014 H   0  0  0  0  0  0  0  0  0  0  0  0
  146.2517  140.5255  154.2164 H   0  0  0  0  0  0  0  0  0  0  0  0
  148.8813  141.6256  153.0991 H   0  0  0  0  0  0  0  0  0  0  0  0
  147.9789  142.2865  154.4461 H   0  0  0  0  0  0  0  0  0  0  0  0
  149.8612  140.8636  155.2380 H   0  0  0  0  0  0  0  0  0  0  0  0
  148.3194  140.2362  155.7586 H   0  0  0  0  0  0  0  0  0  0  0  0
  150.0356  139.2091  153.4382 H   0  0  0  0  0  0  0  0  0  0  0  0
  148.4434  137.7431  152.9190 H   0  0  0  0  0  0  0  0  0  0  0  0
  1  2  2  0  0  0  0
  2  3  1  0  0  0  0
  2  9  1  0  0  0  0
  3  4  1  0  0  0  0
  4  8  1  0  0  0  0
  4  5  2  0  0  0  0
  5  6  1  0  0  0  0
  6  7  2  0  0  0  0
  6 19  1  0  0  0  0
  7  8  1  0  0  0  0
  7 20  1  0  0  0  0
  9 10  1  0  0  0  0
  9 21  1  0  0  0  0
 10 18  1  0  0  0  0
 10 11  1  0  0  0  0
 10 22  1  0  0  0  0
 11 12  1  0  0  0  0
 11 23  1  0  0  0  0
 11 24  1  0  0  0  0
 12 13  1  0  0  0  0
 12 25  1  0  0  0  0
 12 26  1  0  0  0  0
 13 18  1  0  0  0  0
 13 14  1  0  0  0  0
 13 36  1  0  0  0  0
 14 15  1  0  0  0  0
 14 27  1  0  0  0  0
 14 28  1  0  0  0  0
 15 16  1  0  0  0  0
 15 29  1  0  0  0  0
 15 30  1  0  0  0  0
 16 17  1  0  0  0  0
 16 31  1  0  0  0  0
 16 32  1  0  0  0  0
 17 18  1  0  0  0  0
 17 33  1  0  0  0  0
 17 34  1  0  0  0  0
 18 35  1  0  0  0  0
M  CHG  1   3  -1
M  CHG  1  13   1
M  END
> <s_m_source_file>
AV-unprocessed.smi

> <i_m_source_file_index>
1965

> <i_lp_mmshare_version>
43012

> <i_f3d_flags>
0

> <s_epik_input>
czFbY0hdW2NIXW5jMVtOSF1DKD1PKVtOSF1bQ0BIXShbQ0gyXVtDSDJdMilbQ0BASF0oTjIzKVtDSDJdW0NIMl1bQ0gyXVtDSDJdMw==

> <s_epik_cmdline>
J2VwaWtfcHl0aG9uJywgJy1waCcsICc3LjAnLCAnLXRuJywgJzgnLCAnLW1hJywgJzIwMCcsICctbWV0YWxfYmluZGluZycsICctaW1hZScsICc8aW5maWxlLm1hZT4nLCAnLW9tYWUnLCAnPG91dGZpbGUubWFlPic=

> <r_lp_tautomer_probability>
1

> <r_epik_Ionization_Penalty>
7.4116

> <r_epik_Ionization_Penalty_Charging>
6.13869

> <r_epik_Ionization_Penalty_Neutral>
1.27291

> <r_epik_State_Penalty>
6.13761

> <r_epik_Charging_Adjusted_Penalty>
12.2763

> <i_epik_Tot_Q>
0

> <i_epik_Tot_abs_Q>
2

> <r_epik_Metal_State_Penalty>
2.08142

> <b_epik_Metal_Only>
1

> <s_lp_Force_Field>
OPLS_2005

> <r_lp_Energy>
27.943

> <b_lp_Chiralities_Consistent>
1

> <s_lp_Variant>
AV-unprocessed.smi:1965-10

> <Gold.Version>
5.8.1

> <Gold.Id.Protein>
6NUR|6NUR_protein|mol2

> <Gold.PLP.Fitness>
41.4114

> <Gold.PLP.PLP>
-28.5275

> <Gold.PLP.part.hbond>
-3.5100

> <Gold.PLP.part.metal>
0.0000

> <Gold.PLP.part.buried>
-0.1208

> <Gold.PLP.part.nonpolar>
-24.3904

> <Gold.PLP.part.repulsive>
0.0949

> <Gold.PLP.ligand.clash>
0.0000

> <Gold.PLP.ligand.torsion>
0.7835

> <Gold.PLP.Chemscore.Hbond>
4.8160

> <Gold.PLP.Chemscore.CHOScore>
0.0000

> <Gold.PLP.Chemscore.Metal>
0.0000

> <Gold.Chemscore.Hbonds>
donor molecule, donor type, donor heavy atom, donor atom, acceptor molecule, acceptor atom, score
      L1  H    13    36       P1  7948  2.00
      P1  H  7989  7998       L1     1  0.60
      P1  H  7997  8009       L1     3  0.86

> <Gold.PLP.Chemscore.Internal.Correction>
0.0029

> <Gold.Rescore>
     Score         DG    S(hbond)    S(metal)    S(lipo)     H(rot)  DE(clash)    DE(int)     intcor
     16.72     -18.58       2.57        0.00      60.54       1.00       0.13       1.73       ----

> <Gold.Chemscore.Fitness>
16.7237

> <Gold.Chemscore.DG>
-18.5761

> <Gold.Chemscore.ZeroCoef>
-5.4800

> <Gold.Chemscore.Hbond>
2.5668

> <Gold.Chemscore.Metal>
0.0000

> <Gold.Chemscore.Lipo>
60.5379

> <Gold.Chemscore.Internal_Hbond>
0.0000

> <Gold.Chemscore.DEClash>
0.1253

> <Gold.Chemscore.DEInternal>
1.7271

> <Gold.Chemscore.Rot>
1.0000

> <Gold.Chemscore.Internal.Correction>
   9.000000E+99

> <Gold.Chemscore.Hbonds>
donor molecule, donor type, donor heavy atom, donor atom, acceptor molecule, acceptor atom, score
      L1  H    13    36       P1  7948  1.00
      P1  H  7989  7998       L1     1  0.59
      P1  H  7997  8009       L1     3  0.04

> <Gold.Chemscore.Hbond.Weighted>
-8.5732

> <Gold.Chemscore.Metal.Weighted>
-0.0000

> <Gold.Chemscore.Lipo.Weighted>
-7.0829

> <Gold.Chemscore.Internal_Hbond.Weighted>
0.0000

> <Gold.Chemscore.DEClash.Weighted>
0.1253

> <Gold.Chemscore.DEInternal.Weighted>
1.7271

> <Gold.Chemscore.Rot.Weighted>
2.5600

> <Gold.Chemscore.Internal.Correction.Weighted>
   9.000000E+99

> <Gold.Protein.RotatedTorsions>
[ 6907 6896 6895 6894 ] final  137.66 input  -60.11 | X-H torsion
[ 7974 7965 7964 7962 ] final  -59.95 input  175.53 | X-H torsion
[ 8008 7997 7996 7995 ] final -158.48 input   59.86 | X-H torsion
[ 10167 10162 10161 10158 ] final  -46.19 input  -65.29 | X-H torsion
[ 10718 10713 10712 10709 ] final -176.84 input   66.30 | X-H torsion
[ 10763 10752 10751 10750 ] final  127.59 input  -60.55 | X-H torsion
[ 11005 11000 10999 10996 ] final    8.35 input  -57.11 | X-H torsion

> <Gold.Protein.ActiveResidues>
 VAL166  LYS551  ARG553  GLY616  TRP617  ASP618  TYR619  PRO620  LYS621  CYS622 
 ASP623  PHE694  ASN695  SER759  ASP760  ASP761  ALA762  ILE779  LEU786  VAL792 
 PHE793  MET794  SER795  GLU796  ALA797  LYS798  CYS799  TRP800  GLU811  SER814 

> <Gold.Protein.RotatedAtoms>
  152.2755  133.5422  159.5465 H   0  0  0  0  0  0  0  0  0  0  0  0  # atno 6907 bound_to 6896
  150.7175  134.0637  159.3849 H   0  0  0  0  0  0  0  0  0  0  0  0  # atno 6908 bound_to 6896
  151.8550  135.0544  160.0514 H   0  0  0  0  0  0  0  0  0  0  0  0  # atno 6909 bound_to 6896
  145.8213  140.8538  143.0131 H   0  0  0  0  0  0  0  0  0  0  0  0  # atno 7974 bound_to 7965
  155.7482  140.0823  157.2213 H   0  0  0  0  0  0  0  0  0  0  0  0  # atno 8008 bound_to 7997
  154.4015  140.1565  156.2750 H   0  0  0  0  0  0  0  0  0  0  0  0  # atno 8009 bound_to 7997
  155.8955  140.3413  155.5990 H   0  0  0  0  0  0  0  0  0  0  0  0  # atno 8010 bound_to 7997
  140.6827  143.2843  151.3747 H   0  0  0  0  0  0  0  0  0  0  0  0  # atno 10167 bound_to 10162
  156.8206  130.9618  151.3112 H   0  0  0  0  0  0  0  0  0  0  0  0  # atno 10718 bound_to 10713
  153.7119  135.3267  155.3248 H   0  0  0  0  0  0  0  0  0  0  0  0  # atno 10763 bound_to 10752
  154.8382  135.4479  154.1305 H   0  0  0  0  0  0  0  0  0  0  0  0  # atno 10764 bound_to 10752
  153.2401  135.6970  153.7872 H   0  0  0  0  0  0  0  0  0  0  0  0  # atno 10765 bound_to 10752
  140.5379  134.0402  155.7894 H   0  0  0  0  0  0  0  0  0  0  0  0  # atno 11005 bound_to 11000
  144.6747  140.0538  143.7478 LP  0  0  0  0  0  0  0  0  0  0  0  0  # atno 17320 bound_to 7965
  145.9672  139.2843  143.1120 LP  0  0  0  0  0  0  0  0  0  0  0  0  # atno 17321 bound_to 7965
  139.6162  144.0998  152.2347 LP  0  0  0  0  0  0  0  0  0  0  0  0  # atno 17342 bound_to 10162
  140.0428  144.5994  150.7397 LP  0  0  0  0  0  0  0  0  0  0  0  0  # atno 17343 bound_to 10162
  157.6459  130.8844  149.9537 LP  0  0  0  0  0  0  0  0  0  0  0  0  # atno 17370 bound_to 10713
  156.0991  130.3657  150.0251 LP  0  0  0  0  0  0  0  0  0  0  0  0  # atno 17371 bound_to 10713
  141.1244  133.9408  157.2665 LP  0  0  0  0  0  0  0  0  0  0  0  0  # atno 17394 bound_to 11000
  139.9519  135.0173  156.9019 LP  0  0  0  0  0  0  0  0  0  0  0  0  # atno 17395 bound_to 11000

$$$$
