#       Name:                AV-unprocessed.smi:3195
#       Creating user name   scv26
#       Creation time:       Fri Mar 27 18:05:14 2020


#       File generated by GOLD software.
#

@<TRIPOS>MOLECULE
AV-unprocessed.smi:3195
    37    38     1
SMALL
NO_CHARGES


@<TRIPOS>ATOM
      1 ****        -2.1723  -1.9679   1.2114 C.3            1 S1                 0.0000
      2 ****        -1.6372  -1.1027   0.0575 C.3            1 S1                 0.0000
      3 ****        -0.0938  -1.0660   0.0831 C.2            1 S1                 0.0000
      4 ****         0.5331  -2.1023  -0.1414 O.2            1 S1                 0.0000
      5 ****         0.4812   0.1200   0.3618 N.am           1 S1                 0.0000
      6 ****         1.8639   0.4419   0.4424 C.ar           1 S1                 0.0000
      7 ****         2.8492  -0.4670   0.2328 N.ar           1 S1                 0.0000
      8 ****         4.1383  -0.0808   0.3291 C.ar           1 S1                 0.0000
      9 ****         4.5261   1.2348   0.6391 C.ar           1 S1                 0.0000
     10 ****         3.5165   2.1882   0.8579 C.ar           1 S1                 0.0000
     11 ****         2.1679   1.7907   0.7591 C.ar           1 S1                 0.0000
     12 ****         1.1808   2.7135   0.9708 O.3            1 S1                 0.0000
     13 ****        -2.1758  -1.5701  -1.3154 C.3            1 S1                 0.0000
     14 ****        -3.0762  -0.4379  -1.7757 C.3            1 S1                 0.0000
     15 ****        -2.4997   0.7616  -1.0420 C.3            1 S1                 0.0000
     16 ****        -2.1641   0.2182   0.2258 O.3            1 S1                 0.0000
     17 ****        -1.8438  -3.0041   1.1215 H              1 S1                 0.0000
     18 ****        -3.2626  -1.9688   1.2254 H              1 S1                 0.0000
     19 ****        -1.8331  -1.5939   2.1783 H              1 S1                 0.0000
     20 ****        -0.1507   0.8890   0.5334 H              1 S1                 0.0000
     21 ****         4.8820  -0.8439   0.1536 H              1 S1                 0.0000
     22 ****         5.5698   1.5039   0.7066 H              1 S1                 0.0000
     23 ****         3.7744   3.2091   1.0983 H              1 S1                 0.0000
     24 ****         1.5145   3.5724   1.1813 H              1 S1                 0.0000
     25 ****        -1.3729  -1.7091  -2.0416 H              1 S1                 0.0000
     26 ****        -2.7197  -2.5138  -1.2592 H              1 S1                 0.0000
     27 ****        -3.0863  -0.3113  -2.8585 H              1 S1                 0.0000
     28 ****        -4.0993  -0.6178  -1.4428 H              1 S1                 0.0000
     29 ****        -1.6009   1.1300  -1.5392 H              1 S1                 0.0000
     30 ****        -3.2088   1.5846  -0.9530 H              1 S1                 0.0000
     31 ****         0.0421  -2.9513  -0.3367 LP             1 S1                 0.0000
     32 ****         1.5330  -2.0946  -0.1284 LP             1 S1                 0.0000
     33 ****         2.6219  -1.4148   0.0089 LP             1 S1                 0.0000
     34 ****         0.6092   2.3997   1.7289 LP             1 S1                 0.0000
     35 ****         0.6262   2.7821   0.1415 LP             1 S1                 0.0000
     36 ****        -1.4771   0.7972   0.6649 LP             1 S1                 0.0000
     37 ****        -2.9828   0.1795   0.7987 LP             1 S1                 0.0000
@<TRIPOS>BOND
    1    1    2 1     
    2    1   17 1     
    3    1   18 1     
    4    1   19 1     
    5    2   16 1     
    6    2    3 1     
    7    2   13 1     
    8    3    4 2     
    9    3    5 am    
   10    5    6 1     
   11    5   20 1     
   12    6   11 ar    
   13    6    7 ar    
   14    7    8 ar    
   15    8    9 ar    
   16    8   21 1     
   17    9   10 ar    
   18    9   22 1     
   19   10   11 ar    
   20   10   23 1     
   21   11   12 1     
   22   12   24 1     
   23   13   14 1     
   24   13   25 1     
   25   13   26 1     
   26   14   15 1     
   27   14   27 1     
   28   14   28 1     
   29   15   16 1     
   30   15   29 1     
   31   15   30 1     
   32    4   31 1     
   33    4   32 1     
   34    7   33 1     
   35   12   34 1     
   36   12   35 1     
   37   16   36 1     
   38   16   37 1     
@<TRIPOS>SUBSTRUCTURE
      1 S1             1
@<TRIPOS>SET
LONE_PAIRS      STATIC     ATOMS    <user>   **** ""
7 31 32 33 34 35 36 37
DONOR_HYDROGENS      STATIC     ATOMS    <user>   **** ""
2 20 24
ATOM$BLUE        STATIC     ATOMS    COLORGROUP SYSTEM
7 31 32 33 34 35 36 37
ATOM$RED        STATIC     ATOMS    COLORGROUP SYSTEM
2 20 24
