#       Name:                AV-unprocessed.smi:1768
#       Creating user name   scv26
#       Creation time:       Fri Mar 27 08:38:45 2020


#       File generated by GOLD software.
#

@<TRIPOS>MOLECULE
AV-unprocessed.smi:1768
    39    40     1
SMALL
NO_CHARGES


@<TRIPOS>ATOM
      1 ****        -5.7524   3.9334  -0.1196 C.3            1 S1                 0.0000
      2 ****        -4.7195   2.9924   0.3984 C.2            1 S1                 0.0000
      3 ****        -4.4067   2.9057   1.6936 N.2            1 S1                 0.0000
      4 ****        -3.4175   1.9620   1.9299 N.2            1 S1                 0.0000
      5 ****        -2.9880   1.3588   0.8124 C.2            1 S1                 0.0000
      6 ****        -2.0348   0.4124   0.8260 N.pl3          1 S1                -1.0000
      7 ****        -0.7562   0.7357   0.5252 C.2            1 S1                 0.0000
      8 ****        -0.3391   1.8549   0.2187 O.2            1 S1                 0.0000
      9 ****         0.0908  -0.3022   0.5854 N.am           1 S1                 0.0000
     10 ****         1.5254  -0.2645   0.3098 C.3            1 S1                 0.0000
     11 ****         2.2806   0.2219   1.5598 C.3            1 S1                 0.0000
     12 ****         1.9880  -1.6633  -0.1411 C.3            1 S1                 0.0000
     13 ****         3.4608  -1.7536  -0.5458 C.3            1 S1                 0.0000
     14 ****         3.4996  -2.9208  -1.5209 C.3            1 S1                 0.0000
     15 ****         2.0290  -3.1710  -1.8633 C.3            1 S1                 0.0000
     16 ****         1.3345  -2.0479  -1.3414 O.3            1 S1                 0.0000
     17 ****        -3.8122   1.9114  -0.6456 S.3            1 S1                 0.0000
     18 ****        -5.3445   4.9431  -0.1677 H              1 S1                 0.0000
     19 ****        -6.6239   3.9361   0.5356 H              1 S1                 0.0000
     20 ****        -6.0696   3.6356  -1.1191 H              1 S1                 0.0000
     21 ****        -0.2981  -1.1993   0.8357 H              1 S1                 0.0000
     22 ****         1.7123   0.4355  -0.5067 H              1 S1                 0.0000
     23 ****         3.3514   0.2992   1.3722 H              1 S1                 0.0000
     24 ****         2.1371  -0.4593   2.3991 H              1 S1                 0.0000
     25 ****         1.9366   1.2086   1.8710 H              1 S1                 0.0000
     26 ****         1.7705  -2.4045   0.6309 H              1 S1                 0.0000
     27 ****         3.7674  -0.8411  -1.0589 H              1 S1                 0.0000
     28 ****         4.1222  -1.8962   0.3092 H              1 S1                 0.0000
     29 ****         4.0806  -2.6649  -2.4074 H              1 S1                 0.0000
     30 ****         3.9470  -3.8073  -1.0703 H              1 S1                 0.0000
     31 ****         1.8593  -3.2754  -2.9351 H              1 S1                 0.0000
     32 ****         1.6686  -4.0753  -1.3713 H              1 S1                 0.0000
     33 ****        -4.8353   3.4566   2.4097 LP             1 S1                 0.0000
     34 ****        -3.0613   1.7531   2.8407 LP             1 S1                 0.0000
     35 ****        -2.2704  -0.5312   1.0586 LP             1 S1                 0.0000
     36 ****        -0.9704   2.6292   0.1753 LP             1 S1                 0.0000
     37 ****         0.6305   1.9883   0.0136 LP             1 S1                 0.0000
     38 ****         1.3584  -1.2954  -1.9995 LP             1 S1                 0.0000
     39 ****         0.3842  -2.2929  -1.1495 LP             1 S1                 0.0000
@<TRIPOS>BOND
    1    1    2 1     
    2    1   18 1     
    3    1   19 1     
    4    1   20 1     
    5    2   17 1     
    6    2    3 2     
    7    3    4 1     
    8    4    5 2     
    9    5    6 1     
   10    5   17 1     
   11    6    7 1     
   12    7    8 2     
   13    7    9 am    
   14    9   10 1     
   15    9   21 1     
   16   10   11 1     
   17   10   12 1     
   18   10   22 1     
   19   11   23 1     
   20   11   24 1     
   21   11   25 1     
   22   12   16 1     
   23   12   13 1     
   24   12   26 1     
   25   13   14 1     
   26   13   27 1     
   27   13   28 1     
   28   14   15 1     
   29   14   29 1     
   30   14   30 1     
   31   15   16 1     
   32   15   31 1     
   33   15   32 1     
   34    3   33 1     
   35    4   34 1     
   36    6   35 1     
   37    8   36 1     
   38    8   37 1     
   39   16   38 1     
   40   16   39 1     
@<TRIPOS>SUBSTRUCTURE
      1 S1             1
@<TRIPOS>SET
LONE_PAIRS      STATIC     ATOMS    <user>   **** ""
7 33 34 35 36 37 38 39
DONOR_HYDROGENS      STATIC     ATOMS    <user>   **** ""
1 21
ATOM$BLUE        STATIC     ATOMS    COLORGROUP SYSTEM
7 33 34 35 36 37 38 39
ATOM$RED        STATIC     ATOMS    COLORGROUP SYSTEM
1 21
