AV-unprocessed.smi:3140|AV-procd|sdf|11958|dock4
  -GOLD-   2272017353D 1   1.00000     0.00000
 Structure written by MMmdl.
 38 39  0  0  0  0  0  0  0  0  2 V2000
  149.2655  140.9952  157.0211 C   0  0  0  0  0  0  0  0  0  0  0  0
  150.4370  141.6227  156.2471 C   0  0  2  0  0  0  0  0  0  0  0  0
  151.6652  140.6912  156.2660 C   0  0  0  0  0  0  0  0  0  0  0  0
  151.3794  139.3859  155.6964 N   0  0  0  0  0  0  0  0  0  0  0  0
  151.4930  138.1477  156.2927 C   0  0  0  0  0  0  0  0  0  0  0  0
  151.1064  137.2165  155.3718 C   0  0  0  0  0  0  0  0  0  0  0  0
  150.7717  137.9915  154.2264 C   0  0  0  0  0  0  0  0  0  0  0  0
  150.9338  139.2899  154.4246 N   0  0  0  0  0  0  0  0  0  0  0  0
  150.7925  142.9485  156.8039 N   0  3  0  0  0  0  0  0  0  0  0  0
  151.0379  142.9825  158.2598 C   0  0  0  0  0  0  0  0  0  0  0  0
  152.5430  142.9120  158.5589 C   0  0  0  0  0  0  0  0  0  0  0  0
  152.7974  142.6574  159.9740 N   0  0  0  0  0  0  0  0  0  0  0  0
  153.4538  141.4350  160.4064 C   0  0  0  0  0  0  0  0  0  0  0  0
  153.7138  141.6341  161.9067 C   0  0  0  0  0  0  0  0  0  0  0  0
  152.8504  142.8297  162.3239 C   0  0  0  0  0  0  0  0  0  0  0  0
  152.4361  143.4414  160.9963 C   0  0  0  0  0  0  0  0  0  0  0  0
  151.8465  144.5175  160.9097 O   0  0  0  0  0  0  0  0  0  0  0  0
  149.0259  140.0056  156.6312 H   0  0  0  0  0  0  0  0  0  0  0  0
  148.3595  141.5958  156.9427 H   0  0  0  0  0  0  0  0  0  0  0  0
  149.5032  140.8845  158.0797 H   0  0  0  0  0  0  0  0  0  0  0  0
  150.1333  141.7546  155.2073 H   0  0  0  0  0  0  0  0  0  0  0  0
  152.5017  141.1398  155.7271 H   0  0  0  0  0  0  0  0  0  0  0  0
  152.0046  140.5392  157.2916 H   0  0  0  0  0  0  0  0  0  0  0  0
  151.8345  138.0329  157.3112 H   0  0  0  0  0  0  0  0  0  0  0  0
  151.0703  136.1442  155.4963 H   0  0  0  0  0  0  0  0  0  0  0  0
  150.4168  137.6521  153.2643 H   0  0  0  0  0  0  0  0  0  0  0  0
  151.6050  143.3022  156.3190 H   0  0  0  0  0  0  0  0  0  0  0  0
  150.6238  143.9019  158.6760 H   0  0  0  0  0  0  0  0  0  0  0  0
  150.5207  142.1494  158.7357 H   0  0  0  0  0  0  0  0  0  0  0  0
  153.0105  142.1263  157.9627 H   0  0  0  0  0  0  0  0  0  0  0  0
  153.0253  143.8463  158.2683 H   0  0  0  0  0  0  0  0  0  0  0  0
  152.7886  140.5879  160.2338 H   0  0  0  0  0  0  0  0  0  0  0  0
  154.3790  141.2619  159.8551 H   0  0  0  0  0  0  0  0  0  0  0  0
  153.4765  140.7377  162.4809 H   0  0  0  0  0  0  0  0  0  0  0  0
  154.7668  141.8629  162.0768 H   0  0  0  0  0  0  0  0  0  0  0  0
  151.9615  142.5090  162.8680 H   0  0  0  0  0  0  0  0  0  0  0  0
  153.4009  143.5421  162.9391 H   0  0  0  0  0  0  0  0  0  0  0  0
  150.0168  143.5683  156.6154 H   0  0  0  0  0  0  0  0  0  0  0  0
  1  2  1  0  0  0  0
  1 18  1  0  0  0  0
  1 19  1  0  0  0  0
  1 20  1  0  0  0  0
  2  3  1  0  0  0  0
  2  9  1  0  0  0  0
  2 21  1  0  0  0  0
  3  4  1  0  0  0  0
  3 22  1  0  0  0  0
  3 23  1  0  0  0  0
  4  8  1  0  0  0  0
  4  5  1  0  0  0  0
  5  6  2  0  0  0  0
  5 24  1  0  0  0  0
  6  7  1  0  0  0  0
  6 25  1  0  0  0  0
  7  8  2  0  0  0  0
  7 26  1  0  0  0  0
  9 10  1  0  0  0  0
  9 27  1  0  0  0  0
  9 38  1  0  0  0  0
 10 11  1  0  0  0  0
 10 28  1  0  0  0  0
 10 29  1  0  0  0  0
 11 12  1  0  0  0  0
 11 30  1  0  0  0  0
 11 31  1  0  0  0  0
 12 16  1  0  0  0  0
 12 13  1  0  0  0  0
 13 14  1  0  0  0  0
 13 32  1  0  0  0  0
 13 33  1  0  0  0  0
 14 15  1  0  0  0  0
 14 34  1  0  0  0  0
 14 35  1  0  0  0  0
 15 16  1  0  0  0  0
 15 36  1  0  0  0  0
 15 37  1  0  0  0  0
 16 17  2  0  0  0  0
M  CHG  1   9   1
M  END
> <s_m_source_file>
AV-unprocessed.smi

> <i_m_source_file_index>
3140

> <i_lp_mmshare_version>
43012

> <i_f3d_flags>
0

> <s_epik_input>
bjFbY0hdW2NIXVtjSF1uMVtDSDJdW0NAQEhdKFtDSDNdKVtOSF1bQ0gyXVtDSDJdTjJbQ0gyXVtDSDJdW0NIMl1DMj1P

> <s_epik_cmdline>
J2VwaWtfcHl0aG9uJywgJy1waCcsICc3LjAnLCAnLXRuJywgJzgnLCAnLW1hJywgJzIwMCcsICctbWV0YWxfYmluZGluZycsICctaW1hZScsICc8aW5maWxlLm1hZT4nLCAnLW9tYWUnLCAnPG91dGZpbGUubWFlPic=

> <r_lp_tautomer_probability>
1

> <r_epik_Ionization_Penalty>
0.00826299

> <r_epik_Ionization_Penalty_Charging>
0.00825899

> <r_epik_Ionization_Penalty_Neutral>
3.99893e-06

> <r_epik_State_Penalty>
0.00621436

> <r_epik_Charging_Adjusted_Penalty>
0.0144734

> <i_epik_Tot_Q>
1

> <i_epik_Tot_abs_Q>
1

> <r_epik_Metal_State_Penalty>
0.00621472

> <b_epik_Metal_Only>
0

> <s_lp_Force_Field>
OPLS_2005

> <r_lp_Energy>
18.6849

> <b_lp_Chiralities_Consistent>
1

> <s_lp_Variant>
AV-unprocessed.smi:3140-1

> <Gold.Version>
5.8.1

> <Gold.Id.Protein>
6NUR|6NUR_protein|mol2

> <Gold.PLP.Fitness>
54.6299

> <Gold.PLP.PLP>
-42.7902

> <Gold.PLP.part.hbond>
-2.0000

> <Gold.PLP.part.metal>
0.0000

> <Gold.PLP.part.buried>
-6.3773

> <Gold.PLP.part.nonpolar>
-34.6589

> <Gold.PLP.part.repulsive>
0.3515

> <Gold.PLP.ligand.clash>
0.0000

> <Gold.PLP.ligand.torsion>
0.3545

> <Gold.PLP.Chemscore.Hbond>
3.0000

> <Gold.PLP.Chemscore.CHOScore>
1.1572

> <Gold.PLP.Chemscore.Metal>
0.0000

> <Gold.Chemscore.Hbonds>
donor molecule, donor type, donor heavy atom, donor atom, acceptor molecule, acceptor atom, score
      L1  H     9    38       P1  8028  2.00
      P1  H  7989  7998       L1     8  1.00
      L1  C     7    26       P1  7948  0.71
      L1  C     7    26       P1  7949  0.42

> <Gold.PLP.Chemscore.Internal.Correction>
0.0773

> <Gold.Rescore>
     Score         DG    S(hbond)    S(metal)    S(lipo)     H(rot)  DE(clash)    DE(int)     intcor
     16.98     -17.45       1.88        0.00      93.62       2.06       0.07       0.40       ----

> <Gold.Chemscore.Fitness>
16.9775

> <Gold.Chemscore.DG>
-17.4475

> <Gold.Chemscore.ZeroCoef>
-5.4800

> <Gold.Chemscore.Hbond>
1.8794

> <Gold.Chemscore.Metal>
0.0000

> <Gold.Chemscore.Lipo>
93.6163

> <Gold.Chemscore.Internal_Hbond>
0.0000

> <Gold.Chemscore.DEClash>
0.0743

> <Gold.Chemscore.DEInternal>
0.3957

> <Gold.Chemscore.Rot>
2.0557

> <Gold.Chemscore.Internal.Correction>
   9.000000E+99

> <Gold.Chemscore.Hbonds>
donor molecule, donor type, donor heavy atom, donor atom, acceptor molecule, acceptor atom, score
      L1  H     9    38       P1  8028  0.99
      P1  H  7989  7998       L1     8  0.55

> <Gold.Chemscore.Hbond.Weighted>
-6.2771

> <Gold.Chemscore.Metal.Weighted>
-0.0000

> <Gold.Chemscore.Lipo.Weighted>
-10.9531

> <Gold.Chemscore.Internal_Hbond.Weighted>
0.0000

> <Gold.Chemscore.DEClash.Weighted>
0.0743

> <Gold.Chemscore.DEInternal.Weighted>
0.3957

> <Gold.Chemscore.Rot.Weighted>
5.2627

> <Gold.Chemscore.Internal.Correction.Weighted>
   9.000000E+99

> <Gold.Protein.RotatedTorsions>
[ 6907 6896 6895 6894 ] final  -15.31 input  -60.11 | X-H torsion
[ 7974 7965 7964 7962 ] final  120.18 input  175.53 | X-H torsion
[ 8008 7997 7996 7995 ] final  -38.30 input   59.86 | X-H torsion
[ 10167 10162 10161 10158 ] final   33.36 input  -65.29 | X-H torsion
[ 10718 10713 10712 10709 ] final   32.15 input   66.30 | X-H torsion
[ 10763 10752 10751 10750 ] final    6.87 input  -60.55 | X-H torsion
[ 11005 11000 10999 10996 ] final  158.82 input  -57.11 | X-H torsion

> <Gold.Protein.ActiveResidues>
 VAL166  LYS551  ARG553  GLY616  TRP617  ASP618  TYR619  PRO620  LYS621  CYS622 
 ASP623  PHE694  ASN695  SER759  ASP760  ASP761  ALA762  ILE779  LEU786  VAL792 
 PHE793  MET794  SER795  GLU796  ALA797  LYS798  CYS799  TRP800  GLU811  SER814 

> <Gold.Protein.RotatedAtoms>
  151.3259  135.0830  159.9321 H   0  0  0  0  0  0  0  0  0  0  0  0  # atno 6907 bound_to 6896
  152.5246  133.9592  159.7719 H   0  0  0  0  0  0  0  0  0  0  0  0  # atno 6908 bound_to 6896
  150.9921  133.6086  159.2737 H   0  0  0  0  0  0  0  0  0  0  0  0  # atno 6909 bound_to 6896
  145.1342  139.3308  143.4649 H   0  0  0  0  0  0  0  0  0  0  0  0  # atno 7974 bound_to 7965
  154.4039  140.1581  156.2678 H   0  0  0  0  0  0  0  0  0  0  0  0  # atno 8008 bound_to 7997
  155.8980  140.3435  155.5983 H   0  0  0  0  0  0  0  0  0  0  0  0  # atno 8009 bound_to 7997
  155.7481  140.0801  157.2205 H   0  0  0  0  0  0  0  0  0  0  0  0  # atno 8010 bound_to 7997
  140.4414  144.1182  150.6174 H   0  0  0  0  0  0  0  0  0  0  0  0  # atno 10167 bound_to 10162
  157.2815  130.7257  149.6559 H   0  0  0  0  0  0  0  0  0  0  0  0  # atno 10718 bound_to 10713
  153.2428  135.6905  153.7764 H   0  0  0  0  0  0  0  0  0  0  0  0  # atno 10763 bound_to 10752
  153.6888  135.3316  155.3197 H   0  0  0  0  0  0  0  0  0  0  0  0  # atno 10764 bound_to 10752
  154.8362  135.4540  154.1356 H   0  0  0  0  0  0  0  0  0  0  0  0  # atno 10765 bound_to 10752
  140.1902  134.8413  157.2903 H   0  0  0  0  0  0  0  0  0  0  0  0  # atno 11005 bound_to 11000
  146.3511  140.1353  142.8596 LP  0  0  0  0  0  0  0  0  0  0  0  0  # atno 17320 bound_to 7965
  145.0602  140.9082  143.4943 LP  0  0  0  0  0  0  0  0  0  0  0  0  # atno 17321 bound_to 7965
  140.4314  143.2566  151.9591 LP  0  0  0  0  0  0  0  0  0  0  0  0  # atno 17342 bound_to 10162
  139.4790  144.5740  151.8041 LP  0  0  0  0  0  0  0  0  0  0  0  0  # atno 17343 bound_to 10162
  155.9664  130.4336  150.5015 LP  0  0  0  0  0  0  0  0  0  0  0  0  # atno 17370 bound_to 10713
  157.2960  131.0635  151.2101 LP  0  0  0  0  0  0  0  0  0  0  0  0  # atno 17371 bound_to 10713
  140.2168  134.4071  155.7585 LP  0  0  0  0  0  0  0  0  0  0  0  0  # atno 17394 bound_to 11000
  141.2226  133.7146  156.8427 LP  0  0  0  0  0  0  0  0  0  0  0  0  # atno 17395 bound_to 11000

$$$$
