#       Name:                AV-unprocessed.smi:1921
#       Creating user name   scv26
#       Creation time:       Fri Mar 27 09:53:12 2020


#       File generated by GOLD software.
#

@<TRIPOS>MOLECULE
AV-unprocessed.smi:1921
    30    31     1
SMALL
NO_CHARGES


@<TRIPOS>ATOM
      1 ****        -2.2012  -1.7602   1.5368 C.3            1 S1                 0.0000
      2 ****        -1.6418  -0.7834   0.4933 C.3            1 S1                 0.0000
      3 ****        -0.2018  -0.6587   0.6963 N.am           1 S1                 0.0000
      4 ****         0.5434   0.4018   0.3522 C.2            1 S1                 0.0000
      5 ****         0.0845   1.4120  -0.1819 O.2            1 S1                 0.0000
      6 ****         1.8360   0.2090   0.6679 N.am           1 S1                 0.0000
      7 ****         2.9304   1.0904   0.4667 C.2            1 S1                 0.0000
      8 ****         2.8353   2.2932  -0.1121 N.2            1 S1                 0.0000
      9 ****         4.0704   2.9430  -0.1776 C.2            1 S1                 0.0000
     10 ****         5.1029   2.2150   0.3593 C.2            1 S1                 0.0000
     11 ****         4.5619   0.6747   0.9712 S.3            1 S1                 0.0000
     12 ****        -2.0189  -1.2192  -0.9129 C.3            1 S1                 0.0000
     13 ****        -2.2724  -0.2110  -2.0090 C.3            1 S1                 0.0000
     14 ****        -3.4194  -1.0141  -1.4404 C.3            1 S1                 0.0000
     15 ****        -3.2857  -1.8402   1.4583 H              1 S1                 0.0000
     16 ****        -1.9703  -1.4293   2.5500 H              1 S1                 0.0000
     17 ****        -1.7846  -2.7600   1.4088 H              1 S1                 0.0000
     18 ****        -2.1030   0.1883   0.6810 H              1 S1                 0.0000
     19 ****         0.2624  -1.4432   1.1299 H              1 S1                 0.0000
     20 ****         2.0643  -0.6713   1.1056 H              1 S1                 0.0000
     21 ****         4.1238   3.9248  -0.6242 H              1 S1                 0.0000
     22 ****         6.1446   2.4904   0.4315 H              1 S1                 0.0000
     23 ****        -1.5371  -2.1450  -1.2227 H              1 S1                 0.0000
     24 ****        -2.2255   0.8451  -1.7512 H              1 S1                 0.0000
     25 ****        -1.9272  -0.4620  -3.0097 H              1 S1                 0.0000
     26 ****        -3.8413  -1.8001  -2.0630 H              1 S1                 0.0000
     27 ****        -4.1302  -0.4901  -0.8043 H              1 S1                 0.0000
     28 ****        -0.8936   1.4717  -0.3813 LP             1 S1                 0.0000
     29 ****         0.6899   2.1726  -0.4162 LP             1 S1                 0.0000
     30 ****         1.9807   2.6813  -0.4572 LP             1 S1                 0.0000
@<TRIPOS>BOND
    1    1    2 1     
    2    1   15 1     
    3    1   16 1     
    4    1   17 1     
    5    2    3 1     
    6    2   12 1     
    7    2   18 1     
    8    3    4 am    
    9    3   19 1     
   10    4    5 2     
   11    4    6 am    
   12    6    7 1     
   13    6   20 1     
   14    7   11 1     
   15    7    8 2     
   16    8    9 1     
   17    9   10 2     
   18    9   21 1     
   19   10   11 1     
   20   10   22 1     
   21   12   14 1     
   22   12   13 1     
   23   12   23 1     
   24   13   14 1     
   25   13   24 1     
   26   13   25 1     
   27   14   26 1     
   28   14   27 1     
   29    5   28 1     
   30    5   29 1     
   31    8   30 1     
@<TRIPOS>SUBSTRUCTURE
      1 S1             1
@<TRIPOS>SET
LONE_PAIRS      STATIC     ATOMS    <user>   **** ""
3 28 29 30
DONOR_HYDROGENS      STATIC     ATOMS    <user>   **** ""
2 19 20
ATOM$BLUE        STATIC     ATOMS    COLORGROUP SYSTEM
3 28 29 30
ATOM$RED        STATIC     ATOMS    COLORGROUP SYSTEM
2 19 20
