AV-unprocessed.smi:2068|AV-procd|sdf|8428|dock3
  -GOLD-   2272011123D 1   1.00000     0.00000
 Structure written by MMmdl.
 33 34  0  0  0  0  0  0  0  0  1 V2000
  145.1497  137.8159  152.0705 N   0  0  0  0  0  0  0  0  0  0  0  0
  146.3977  138.2922  152.0864 C   0  0  0  0  0  0  0  0  0  0  0  0
  147.0000  138.5941  151.0580 O   0  0  0  0  0  0  0  0  0  0  0  0
  147.0655  138.4556  153.4530 C   0  0  0  0  0  0  0  0  0  0  0  0
  147.3187  139.9074  153.7379 C   0  0  0  0  0  0  0  0  0  0  0  0
  146.5545  140.9739  153.3289 C   0  0  0  0  0  0  0  0  0  0  0  0
  147.2056  142.4951  153.8776 S   0  0  0  0  0  0  0  0  0  0  0  0
  148.5109  141.6120  154.6534 C   0  0  0  0  0  0  0  0  0  0  0  0
  149.5441  142.2716  155.3688 N   0  0  0  0  0  0  0  0  0  0  0  0
  150.1840  141.8593  156.4792 C   0  0  0  0  0  0  0  0  0  0  0  0
  149.9416  140.8110  157.0782 O   0  0  0  0  0  0  0  0  0  0  0  0
  151.2821  142.7924  157.0024 C   0  0  0  0  0  0  0  0  0  0  0  0
  150.9735  143.3911  158.3921 C   0  0  1  0  0  0  0  0  0  0  0  0
  152.0830  143.1900  159.3963 C   0  0  0  0  0  0  0  0  0  0  0  0
  152.4901  144.3301  159.9490 C   0  0  0  0  0  0  0  0  0  0  0  0
  151.7395  145.5236  159.4274 C   0  0  0  0  0  0  0  0  0  0  0  0
  150.7885  144.9303  158.3636 C   0  0  0  0  0  0  0  0  0  0  0  0
  148.4296  140.2859  154.4993 N   0  0  0  0  0  0  0  0  0  0  0  0
  144.6750  137.6806  151.1897 H   0  0  0  0  0  0  0  0  0  0  0  0
  144.6894  137.5814  152.9384 H   0  0  0  0  0  0  0  0  0  0  0  0
  146.4225  138.0212  154.2195 H   0  0  0  0  0  0  0  0  0  0  0  0
  147.9956  137.8855  153.4742 H   0  0  0  0  0  0  0  0  0  0  0  0
  145.6519  140.9554  152.7363 H   0  0  0  0  0  0  0  0  0  0  0  0
  149.8466  143.1529  154.9800 H   0  0  0  0  0  0  0  0  0  0  0  0
  152.2325  142.2569  157.0372 H   0  0  0  0  0  0  0  0  0  0  0  0
  151.4107  143.5977  156.2785 H   0  0  0  0  0  0  0  0  0  0  0  0
  150.0738  142.9291  158.8017 H   0  0  0  0  0  0  0  0  0  0  0  0
  152.4765  142.2127  159.6350 H   0  0  0  0  0  0  0  0  0  0  0  0
  153.2633  144.4179  160.6978 H   0  0  0  0  0  0  0  0  0  0  0  0
  151.1906  146.0031  160.2383 H   0  0  0  0  0  0  0  0  0  0  0  0
  152.4289  146.2493  158.9949 H   0  0  0  0  0  0  0  0  0  0  0  0
  151.0328  145.3374  157.3817 H   0  0  0  0  0  0  0  0  0  0  0  0
  149.7525  145.2022  158.5699 H   0  0  0  0  0  0  0  0  0  0  0  0
  1  2  1  0  0  0  0
  1 19  1  0  0  0  0
  1 20  1  0  0  0  0
  2  3  2  0  0  0  0
  2  4  1  0  0  0  0
  4  5  1  0  0  0  0
  4 21  1  0  0  0  0
  4 22  1  0  0  0  0
  5 18  1  0  0  0  0
  5  6  2  0  0  0  0
  6  7  1  0  0  0  0
  6 23  1  0  0  0  0
  7  8  1  0  0  0  0
  8  9  1  0  0  0  0
  8 18  2  0  0  0  0
  9 10  1  0  0  0  0
  9 24  1  0  0  0  0
 10 11  2  0  0  0  0
 10 12  1  0  0  0  0
 12 13  1  0  0  0  0
 12 25  1  0  0  0  0
 12 26  1  0  0  0  0
 13 17  1  0  0  0  0
 13 14  1  0  0  0  0
 13 27  1  0  0  0  0
 14 15  2  0  0  0  0
 14 28  1  0  0  0  0
 15 16  1  0  0  0  0
 15 29  1  0  0  0  0
 16 17  1  0  0  0  0
 16 30  1  0  0  0  0
 16 31  1  0  0  0  0
 17 32  1  0  0  0  0
 17 33  1  0  0  0  0
M  END
> <s_m_source_file>
AV-unprocessed.smi

> <i_m_source_file_index>
2068

> <i_lp_mmshare_version>
43012

> <i_f3d_flags>
0

> <s_epik_input>
W05IMl1DKD1PKVtDSDJdYzFbY0hdc2MobjEpW05IXUMoPU8pW0NIMl1bQ0BASF0yW0NIXT1bQ0hdW0NIMl1bQ0gyXTI=

> <s_epik_cmdline>
J2VwaWtfcHl0aG9uJywgJy1waCcsICc3LjAnLCAnLXRuJywgJzgnLCAnLW1hJywgJzIwMCcsICctbWV0YWxfYmluZGluZycsICctaW1hZScsICc8aW5maWxlLm1hZT4nLCAnLW9tYWUnLCAnPG91dGZpbGUubWFlPic=

> <r_lp_tautomer_probability>
1

> <r_epik_Ionization_Penalty>
0.000253249

> <r_epik_Ionization_Penalty_Charging>
0

> <r_epik_Ionization_Penalty_Neutral>
0.000253249

> <r_epik_State_Penalty>
-0

> <r_epik_Charging_Adjusted_Penalty>
0

> <i_epik_Tot_Q>
0

> <i_epik_Tot_abs_Q>
0

> <r_epik_Metal_State_Penalty>
0.148671

> <b_epik_Metal_Only>
0

> <s_lp_Force_Field>
OPLS_2005

> <r_lp_Energy>
16.4011

> <b_lp_Chiralities_Consistent>
1

> <s_lp_Variant>
AV-unprocessed.smi:2068-2

> <Gold.Version>
5.8.1

> <Gold.Id.Protein>
6NUR|6NUR_protein|mol2

> <Gold.PLP.Fitness>
44.8243

> <Gold.PLP.PLP>
-37.4995

> <Gold.PLP.part.hbond>
-4.0000

> <Gold.PLP.part.metal>
0.0000

> <Gold.PLP.part.buried>
-5.3471

> <Gold.PLP.part.nonpolar>
-30.9051

> <Gold.PLP.part.repulsive>
1.6483

> <Gold.PLP.ligand.clash>
0.0000

> <Gold.PLP.ligand.torsion>
1.4013

> <Gold.PLP.Chemscore.Hbond>
2.3680

> <Gold.PLP.Chemscore.CHOScore>
0.9965

> <Gold.PLP.Chemscore.Metal>
0.0000

> <Gold.Chemscore.Hbonds>
donor molecule, donor type, donor heavy atom, donor atom, acceptor molecule, acceptor atom, score
      L1  H     1    19       P1 10171  0.85
      L1  H     9    24       P1  8028  0.32
      P1  H  7954  7966       L1     3  1.00
      L1  C     6    23       P1 10175  0.91

> <Gold.PLP.Chemscore.Internal.Correction>
0.0339

> <Gold.Rescore>
     Score         DG    S(hbond)    S(metal)    S(lipo)     H(rot)  DE(clash)    DE(int)     intcor
     14.41     -17.68       2.24        0.00      88.58       2.21       0.99       2.28       ----

> <Gold.Chemscore.Fitness>
14.4058

> <Gold.Chemscore.DG>
-17.6822

> <Gold.Chemscore.ZeroCoef>
-5.4800

> <Gold.Chemscore.Hbond>
2.2407

> <Gold.Chemscore.Metal>
0.0000

> <Gold.Chemscore.Lipo>
88.5800

> <Gold.Chemscore.Internal_Hbond>
0.0000

> <Gold.Chemscore.DEClash>
0.9942

> <Gold.Chemscore.DEInternal>
2.2822

> <Gold.Chemscore.Rot>
2.2053

> <Gold.Chemscore.Internal.Correction>
   9.000000E+99

> <Gold.Chemscore.Hbonds>
donor molecule, donor type, donor heavy atom, donor atom, acceptor molecule, acceptor atom, score
      L1  H     1    19       P1 10171  0.85
      L1  H     9    24       P1  8028  0.32
      P1  H  7954  7966       L1     3  0.95

> <Gold.Chemscore.Hbond.Weighted>
-7.4840

> <Gold.Chemscore.Metal.Weighted>
-0.0000

> <Gold.Chemscore.Lipo.Weighted>
-10.3639

> <Gold.Chemscore.Internal_Hbond.Weighted>
0.0000

> <Gold.Chemscore.DEClash.Weighted>
0.9942

> <Gold.Chemscore.DEInternal.Weighted>
2.2822

> <Gold.Chemscore.Rot.Weighted>
5.6456

> <Gold.Chemscore.Internal.Correction.Weighted>
   9.000000E+99

> <Gold.Protein.RotatedTorsions>
[ 6907 6896 6895 6894 ] final  -52.26 input  -60.11 | X-H torsion
[ 7974 7965 7964 7962 ] final    3.49 input  175.53 | X-H torsion
[ 8008 7997 7996 7995 ] final  -37.23 input   59.86 | X-H torsion
[ 10167 10162 10161 10158 ] final   79.18 input  -65.29 | X-H torsion
[ 10718 10713 10712 10709 ] final    5.57 input   66.30 | X-H torsion
[ 10763 10752 10751 10750 ] final   -0.46 input  -60.55 | X-H torsion
[ 11005 11000 10999 10996 ] final   14.73 input  -57.11 | X-H torsion

> <Gold.Protein.ActiveResidues>
 VAL166  LYS551  ARG553  GLY616  TRP617  ASP618  TYR619  PRO620  LYS621  CYS622 
 ASP623  PHE694  ASN695  SER759  ASP760  ASP761  ALA762  ILE779  LEU786  VAL792 
 PHE793  MET794  SER795  GLU796  ALA797  LYS798  CYS799  TRP800  GLU811  SER814 

> <Gold.Protein.RotatedAtoms>
  150.8535  134.7866  159.7026 H   0  0  0  0  0  0  0  0  0  0  0  0  # atno 6907 bound_to 6896
  152.4593  134.5218  159.9794 H   0  0  0  0  0  0  0  0  0  0  0  0  # atno 6908 bound_to 6896
  151.5334  133.3407  159.2958 H   0  0  0  0  0  0  0  0  0  0  0  0  # atno 6909 bound_to 6896
  146.2445  140.0678  142.8364 H   0  0  0  0  0  0  0  0  0  0  0  0  # atno 7974 bound_to 7965
  154.4057  140.1610  156.2502 H   0  0  0  0  0  0  0  0  0  0  0  0  # atno 8008 bound_to 7997
  155.9125  140.3426  155.6087 H   0  0  0  0  0  0  0  0  0  0  0  0  # atno 8009 bound_to 7997
  155.7319  140.0781  157.2276 H   0  0  0  0  0  0  0  0  0  0  0  0  # atno 8010 bound_to 7997
  139.9631  144.5947  150.8054 H   0  0  0  0  0  0  0  0  0  0  0  0  # atno 10167 bound_to 10162
  156.9093  130.5750  149.5647 H   0  0  0  0  0  0  0  0  0  0  0  0  # atno 10718 bound_to 10713
  153.3322  135.6976  153.6938 H   0  0  0  0  0  0  0  0  0  0  0  0  # atno 10763 bound_to 10752
  153.5736  135.3511  155.2848 H   0  0  0  0  0  0  0  0  0  0  0  0  # atno 10764 bound_to 10752
  154.8620  135.4278  154.2514 H   0  0  0  0  0  0  0  0  0  0  0  0  # atno 10765 bound_to 10752
  140.4663  134.1076  155.7725 H   0  0  0  0  0  0  0  0  0  0  0  0  # atno 11005 bound_to 11000
  145.0843  140.9242  143.4807 LP  0  0  0  0  0  0  0  0  0  0  0  0  # atno 17320 bound_to 7965
  145.0837  139.2941  143.5770 LP  0  0  0  0  0  0  0  0  0  0  0  0  # atno 17321 bound_to 7965
  140.7547  143.3032  151.3029 LP  0  0  0  0  0  0  0  0  0  0  0  0  # atno 17342 bound_to 10162
  139.6539  144.0312  152.2646 LP  0  0  0  0  0  0  0  0  0  0  0  0  # atno 17343 bound_to 10162
  156.0544  130.5608  150.9059 LP  0  0  0  0  0  0  0  0  0  0  0  0  # atno 17370 bound_to 10713
  157.5977  131.0942  150.9012 LP  0  0  0  0  0  0  0  0  0  0  0  0  # atno 17371 bound_to 10713
  141.1598  133.8814  157.1879 LP  0  0  0  0  0  0  0  0  0  0  0  0  # atno 17394 bound_to 11000
  139.9913  135.0063  156.9982 LP  0  0  0  0  0  0  0  0  0  0  0  0  # atno 17395 bound_to 11000

$$$$
