AV-unprocessed.smi:2708|AV-procd|sdf|10459|dock5
  -GOLD-   2272014493D 1   1.00000     0.00000
 Structure written by MMmdl.
 35 35  0  0  0  0  0  0  0  0  2 V2000
  149.2382  137.0812  155.0207 C   0  0  0  0  0  0  0  0  0  0  0  0
  150.6103  137.7684  155.1309 C   0  0  1  0  0  0  0  0  0  0  0  0
  150.3931  139.1587  155.5248 N   0  0  0  0  0  0  0  0  0  0  0  0
  151.3352  140.1139  155.5832 C   0  0  0  0  0  0  0  0  0  0  0  0
  152.5164  139.9272  155.2903 O   0  0  0  0  0  0  0  0  0  0  0  0
  150.8693  141.4980  156.0367 C   0  0  0  0  0  0  0  0  0  0  0  0
  151.3920  141.7918  157.4127 C   0  0  0  0  0  0  0  0  0  0  0  0
  152.1724  140.9727  158.1889 C   0  0  0  0  0  0  0  0  0  0  0  0
  152.5676  141.7098  159.7158 S   0  0  0  0  0  0  0  0  0  0  0  0
  151.6361  143.1367  159.2461 C   0  0  0  0  0  0  0  0  0  0  0  0
  151.4714  144.3802  160.0864 C   0  0  0  0  0  0  0  0  0  0  0  0
  152.1008  145.5853  159.3608 C   0  0  0  0  0  0  0  0  0  0  0  0
  152.1777  144.2324  161.4516 C   0  0  0  0  0  0  0  0  0  0  0  0
  149.9763  144.6324  160.3618 C   0  0  0  0  0  0  0  0  0  0  0  0
  151.0905  143.0093  158.0314 N   0  0  0  0  0  0  0  0  0  0  0  0
  151.4392  137.0332  156.1962 C   0  0  0  0  0  0  0  0  0  0  0  0
  152.5668  136.6190  155.8487 O   0  0  0  0  0  0  0  0  0  0  0  0
  150.9356  136.8918  157.3336 O   0  5  0  0  0  0  0  0  0  0  0  0
  151.1190  137.7241  154.1659 H   0  0  0  0  0  0  0  0  0  0  0  0
  149.3428  136.0315  154.7436 H   0  0  0  0  0  0  0  0  0  0  0  0
  148.6263  137.5595  154.2551 H   0  0  0  0  0  0  0  0  0  0  0  0
  148.6828  137.1246  155.9590 H   0  0  0  0  0  0  0  0  0  0  0  0
  149.4528  139.4071  155.7950 H   0  0  0  0  0  0  0  0  0  0  0  0
  151.2076  142.2499  155.3224 H   0  0  0  0  0  0  0  0  0  0  0  0
  149.7791  141.5309  156.0236 H   0  0  0  0  0  0  0  0  0  0  0  0
  152.5431  139.9867  157.9514 H   0  0  0  0  0  0  0  0  0  0  0  0
  152.0117  146.4974  159.9517 H   0  0  0  0  0  0  0  0  0  0  0  0
  151.6172  145.7717  158.4010 H   0  0  0  0  0  0  0  0  0  0  0  0
  153.1612  145.4205  159.1667 H   0  0  0  0  0  0  0  0  0  0  0  0
  153.2503  144.0718  161.3353 H   0  0  0  0  0  0  0  0  0  0  0  0
  151.7751  143.3959  162.0242 H   0  0  0  0  0  0  0  0  0  0  0  0
  152.0530  145.1281  162.0613 H   0  0  0  0  0  0  0  0  0  0  0  0
  149.8293  145.5173  160.9822 H   0  0  0  0  0  0  0  0  0  0  0  0
  149.5201  143.7872  160.8788 H   0  0  0  0  0  0  0  0  0  0  0  0
  149.4204  144.7906  159.4368 H   0  0  0  0  0  0  0  0  0  0  0  0
  1  2  1  0  0  0  0
  1 20  1  0  0  0  0
  1 21  1  0  0  0  0
  1 22  1  0  0  0  0
  2 19  1  0  0  0  0
  2  3  1  0  0  0  0
  2 16  1  0  0  0  0
  3  4  1  0  0  0  0
  3 23  1  0  0  0  0
  4  5  2  0  0  0  0
  4  6  1  0  0  0  0
  6  7  1  0  0  0  0
  6 24  1  0  0  0  0
  6 25  1  0  0  0  0
  7 15  1  0  0  0  0
  7  8  2  0  0  0  0
  8  9  1  0  0  0  0
  8 26  1  0  0  0  0
  9 10  1  0  0  0  0
 10 11  1  0  0  0  0
 10 15  2  0  0  0  0
 11 12  1  0  0  0  0
 11 13  1  0  0  0  0
 11 14  1  0  0  0  0
 12 27  1  0  0  0  0
 12 28  1  0  0  0  0
 12 29  1  0  0  0  0
 13 30  1  0  0  0  0
 13 31  1  0  0  0  0
 13 32  1  0  0  0  0
 14 33  1  0  0  0  0
 14 34  1  0  0  0  0
 14 35  1  0  0  0  0
 16 17  2  0  0  0  0
 16 18  1  0  0  0  0
M  CHG  1  18  -1
M  END
> <s_m_source_file>
AV-unprocessed.smi

> <i_m_source_file_index>
2708

> <i_lp_mmshare_version>
43012

> <i_f3d_flags>
0

> <s_epik_input>
Tz1DKFtPSF0pW0NASF0oW0NIM10pW05IXUMoPU8pW0NIMl1jMVtjSF1zYyhuMSlDKFtDSDNdKShbQ0gzXSlbQ0gzXQ==

> <s_epik_cmdline>
J2VwaWtfcHl0aG9uJywgJy1waCcsICc3LjAnLCAnLXRuJywgJzgnLCAnLW1hJywgJzIwMCcsICctbWV0YWxfYmluZGluZycsICctaW1hZScsICc8aW5maWxlLm1hZT4nLCAnLW9tYWUnLCAnPG91dGZpbGUubWFlPic=

> <r_lp_tautomer_probability>
1

> <r_epik_Ionization_Penalty>
0.000214174

> <r_epik_Ionization_Penalty_Charging>
0.000167453

> <r_epik_Ionization_Penalty_Neutral>
4.67216e-05

> <r_epik_State_Penalty>
-0

> <r_epik_Charging_Adjusted_Penalty>
0.000167453

> <i_epik_Tot_Q>
-1

> <i_epik_Tot_abs_Q>
1

> <r_epik_Metal_State_Penalty>
-0

> <b_epik_Metal_Only>
0

> <s_lp_Force_Field>
OPLS_2005

> <r_lp_Energy>
-5.21837

> <b_lp_Chiralities_Consistent>
1

> <s_lp_Variant>
AV-unprocessed.smi:2708-2

> <Gold.Version>
5.8.1

> <Gold.Id.Protein>
6NUR|6NUR_protein|mol2

> <Gold.PLP.Fitness>
43.5471

> <Gold.PLP.PLP>
-35.0129

> <Gold.PLP.part.hbond>
-2.7820

> <Gold.PLP.part.metal>
0.0000

> <Gold.PLP.part.buried>
-4.0285

> <Gold.PLP.part.nonpolar>
-26.1762

> <Gold.PLP.part.repulsive>
0.1758

> <Gold.PLP.ligand.clash>
0.0000

> <Gold.PLP.ligand.torsion>
0.2479

> <Gold.PLP.Chemscore.Hbond>
3.0000

> <Gold.PLP.Chemscore.CHOScore>
0.0000

> <Gold.PLP.Chemscore.Metal>
0.0000

> <Gold.Chemscore.Hbonds>
donor molecule, donor type, donor heavy atom, donor atom, acceptor molecule, acceptor atom, score
      P1  H  7997  8009       L1     5  0.99
      P1  H 10752 10765       L1    17  1.75

> <Gold.PLP.Chemscore.Internal.Correction>
0.0299

> <Gold.Rescore>
     Score         DG    S(hbond)    S(metal)    S(lipo)     H(rot)  DE(clash)    DE(int)     intcor
     17.37     -17.67       1.98        0.00      96.81       2.25       0.04       0.26       ----

> <Gold.Chemscore.Fitness>
17.3698

> <Gold.Chemscore.DG>
-17.6673

> <Gold.Chemscore.ZeroCoef>
-5.4800

> <Gold.Chemscore.Hbond>
1.9805

> <Gold.Chemscore.Metal>
0.0000

> <Gold.Chemscore.Lipo>
96.8100

> <Gold.Chemscore.Internal_Hbond>
0.0000

> <Gold.Chemscore.DEClash>
0.0407

> <Gold.Chemscore.DEInternal>
0.2568

> <Gold.Chemscore.Rot>
2.2478

> <Gold.Chemscore.Internal.Correction>
   9.000000E+99

> <Gold.Chemscore.Hbonds>
donor molecule, donor type, donor heavy atom, donor atom, acceptor molecule, acceptor atom, score
      P1  H  7997  8009       L1     5  0.92
      P1  H 10752 10765       L1    17  0.81

> <Gold.Chemscore.Hbond.Weighted>
-6.6150

> <Gold.Chemscore.Metal.Weighted>
-0.0000

> <Gold.Chemscore.Lipo.Weighted>
-11.3268

> <Gold.Chemscore.Internal_Hbond.Weighted>
0.0000

> <Gold.Chemscore.DEClash.Weighted>
0.0407

> <Gold.Chemscore.DEInternal.Weighted>
0.2568

> <Gold.Chemscore.Rot.Weighted>
5.7544

> <Gold.Chemscore.Internal.Correction.Weighted>
   9.000000E+99

> <Gold.Protein.RotatedTorsions>
[ 6907 6896 6895 6894 ] final   61.07 input  -60.11 | X-H torsion
[ 7974 7965 7964 7962 ] final -175.61 input  175.53 | X-H torsion
[ 8008 7997 7996 7995 ] final -136.97 input   59.86 | X-H torsion
[ 10167 10162 10161 10158 ] final    9.77 input  -65.29 | X-H torsion
[ 10718 10713 10712 10709 ] final   55.27 input   66.30 | X-H torsion
[ 10763 10752 10751 10750 ] final -154.58 input  -60.55 | X-H torsion
[ 11005 11000 10999 10996 ] final -150.11 input  -57.11 | X-H torsion

> <Gold.Protein.ActiveResidues>
 VAL166  LYS551  ARG553  GLY616  TRP617  ASP618  TYR619  PRO620  LYS621  CYS622 
 ASP623  PHE694  ASN695  SER759  ASP760  ASP761  ALA762  ILE779  LEU786  VAL792 
 PHE793  MET794  SER795  GLU796  ALA797  LYS798  CYS799  TRP800  GLU811  SER814 

> <Gold.Protein.RotatedAtoms>
  152.4057  134.6210  160.0050 H   0  0  0  0  0  0  0  0  0  0  0  0  # atno 6907 bound_to 6896
  151.6402  133.3321  159.3136 H   0  0  0  0  0  0  0  0  0  0  0  0  # atno 6908 bound_to 6896
  150.7953  134.7049  159.6615 H   0  0  0  0  0  0  0  0  0  0  0  0  # atno 6909 bound_to 6896
  144.7128  140.1295  143.6399 H   0  0  0  0  0  0  0  0  0  0  0  0  # atno 7974 bound_to 7965
  155.4041  140.0508  157.3035 H   0  0  0  0  0  0  0  0  0  0  0  0  # atno 8008 bound_to 7997
  154.4977  140.2145  155.9372 H   0  0  0  0  0  0  0  0  0  0  0  0  # atno 8009 bound_to 7997
  156.1427  140.3151  155.8526 H   0  0  0  0  0  0  0  0  0  0  0  0  # atno 8010 bound_to 7997
  140.6235  143.8153  150.7204 H   0  0  0  0  0  0  0  0  0  0  0  0  # atno 10167 bound_to 10162
  157.5330  130.8644  149.8714 H   0  0  0  0  0  0  0  0  0  0  0  0  # atno 10718 bound_to 10713
  154.7848  135.3187  154.7910 H   0  0  0  0  0  0  0  0  0  0  0  0  # atno 10763 bound_to 10752
  153.8612  135.6853  153.4787 H   0  0  0  0  0  0  0  0  0  0  0  0  # atno 10764 bound_to 10752
  153.1496  135.4705  154.9556 H   0  0  0  0  0  0  0  0  0  0  0  0  # atno 10765 bound_to 10752
  140.7436  134.3486  157.5142 H   0  0  0  0  0  0  0  0  0  0  0  0  # atno 11005 bound_to 11000
  145.9299  139.2600  143.1331 LP  0  0  0  0  0  0  0  0  0  0  0  0  # atno 17320 bound_to 7965
  145.9533  140.8892  143.0248 LP  0  0  0  0  0  0  0  0  0  0  0  0  # atno 17321 bound_to 7965
  140.1748  143.4164  152.1975 LP  0  0  0  0  0  0  0  0  0  0  0  0  # atno 17342 bound_to 10162
  139.5459  144.7298  151.4585 LP  0  0  0  0  0  0  0  0  0  0  0  0  # atno 17343 bound_to 10162
  156.0437  130.3733  150.1371 LP  0  0  0  0  0  0  0  0  0  0  0  0  # atno 17370 bound_to 10713
  156.9554  130.9788  151.3490 LP  0  0  0  0  0  0  0  0  0  0  0  0  # atno 17371 bound_to 10713
  139.8801  134.9097  156.2996 LP  0  0  0  0  0  0  0  0  0  0  0  0  # atno 17394 bound_to 11000
  140.9814  133.7265  156.0678 LP  0  0  0  0  0  0  0  0  0  0  0  0  # atno 17395 bound_to 11000

$$$$
