#       Name:                AV-unprocessed.smi:3283
#       Creating user name   scv26
#       Creation time:       Fri Mar 27 18:49:14 2020


#       File generated by GOLD software.
#

@<TRIPOS>MOLECULE
AV-unprocessed.smi:3283
    45    46     1
SMALL
NO_CHARGES


@<TRIPOS>ATOM
      1 ****         0.2773   2.9788   0.7323 C.3            1 S1                 0.0000
      2 ****        -1.1535   2.4761   0.8370 C.2            1 S1                 0.0000
      3 ****        -1.9255   2.8095   1.8904 C.2            1 S1                 0.0000
      4 ****        -3.3816   2.4131   2.0584 C.3            1 S1                 0.0000
      5 ****        -3.8656   1.4226   0.9867 C.3            1 S1                 0.0000
      6 ****        -3.2408   1.7274  -0.3862 C.3            1 S1                 0.0000
      7 ****        -3.8867   0.9007  -1.5114 C.3            1 S1                 0.0000
      8 ****        -1.6899   1.6305  -0.3265 C.3            1 S1                 0.0000
      9 ****        -1.1785   0.1660  -0.2809 C.3            1 S1                 0.0000
     10 ****         0.2888   0.0626  -0.4016 N.4            1 S1                 1.0000
     11 ****         0.8025  -1.3204  -0.3801 C.3            1 S1                 0.0000
     12 ****         2.3371  -1.3368  -0.4318 C.3            1 S1                 0.0000
     13 ****         2.9404  -2.7090  -0.4236 C.2            1 S1                 0.0000
     14 ****         2.3526  -3.9450  -0.4205 C.2            1 S1                 0.0000
     15 ****         3.4465  -4.8531  -0.4175 C.2            1 S1                 0.0000
     16 ****         4.6148  -4.2371  -0.4183 N.2            1 S1                 0.0000
     17 ****         4.3092  -2.9228  -0.4221 N.pl3          1 S1                 0.0000
     18 ****         5.3973  -1.9628  -0.4237 C.3            1 S1                 0.0000
     19 ****         0.4604   3.4116  -0.2515 H              1 S1                 0.0000
     20 ****         0.9971   2.1801   0.9028 H              1 S1                 0.0000
     21 ****         0.4746   3.7531   1.4746 H              1 S1                 0.0000
     22 ****        -1.5185   3.4306   2.6751 H              1 S1                 0.0000
     23 ****        -3.5332   1.9945   3.0537 H              1 S1                 0.0000
     24 ****        -3.9754   3.3263   2.0079 H              1 S1                 0.0000
     25 ****        -3.6155   0.4053   1.2885 H              1 S1                 0.0000
     26 ****        -4.9542   1.4585   0.9289 H              1 S1                 0.0000
     27 ****        -3.4783   2.7681  -0.6146 H              1 S1                 0.0000
     28 ****        -3.8424  -0.1694  -1.3092 H              1 S1                 0.0000
     29 ****        -3.3988   1.0869  -2.4684 H              1 S1                 0.0000
     30 ****        -4.9393   1.1614  -1.6254 H              1 S1                 0.0000
     31 ****        -1.3167   2.0826  -1.2467 H              1 S1                 0.0000
     32 ****        -1.4907  -0.3164   0.6459 H              1 S1                 0.0000
     33 ****        -1.6035  -0.4128  -1.1001 H              1 S1                 0.0000
     34 ****         0.5724   0.4980  -1.2678 H              1 S1                 0.0000
     35 ****         0.4550  -1.8178   0.5266 H              1 S1                 0.0000
     36 ****         0.3902  -1.8657  -1.2302 H              1 S1                 0.0000
     37 ****         2.6706  -0.8098  -1.3268 H              1 S1                 0.0000
     38 ****         2.7256  -0.7735   0.4176 H              1 S1                 0.0000
     39 ****         1.2968  -4.1726  -0.4216 H              1 S1                 0.0000
     40 ****         3.4265  -5.9329  -0.4154 H              1 S1                 0.0000
     41 ****         5.0181  -0.9414  -0.4277 H              1 S1                 0.0000
     42 ****         6.0155  -2.1097  -1.3100 H              1 S1                 0.0000
     43 ****         6.0126  -2.1041   0.4655 H              1 S1                 0.0000
     44 ****         0.7047   0.5702   0.3663 H              1 S1                 0.0000
     45 ****         5.5244  -4.6527  -0.4165 LP             1 S1                 0.0000
@<TRIPOS>BOND
    1    1    2 1     
    2    1   19 1     
    3    1   20 1     
    4    1   21 1     
    5    2    8 1     
    6    2    3 2     
    7    3    4 1     
    8    3   22 1     
    9    4    5 1     
   10    4   23 1     
   11    4   24 1     
   12    5    6 1     
   13    5   25 1     
   14    5   26 1     
   15    6    7 1     
   16    6    8 1     
   17    6   27 1     
   18    7   28 1     
   19    7   29 1     
   20    7   30 1     
   21    8    9 1     
   22    8   31 1     
   23    9   10 1     
   24    9   32 1     
   25    9   33 1     
   26   10   11 1     
   27   10   34 1     
   28   10   44 1     
   29   11   12 1     
   30   11   35 1     
   31   11   36 1     
   32   12   13 1     
   33   12   37 1     
   34   12   38 1     
   35   13   17 1     
   36   13   14 2     
   37   14   15 1     
   38   14   39 1     
   39   15   16 2     
   40   15   40 1     
   41   16   17 1     
   42   17   18 1     
   43   18   41 1     
   44   18   42 1     
   45   18   43 1     
   46   16   45 1     
@<TRIPOS>SUBSTRUCTURE
      1 S1             1
@<TRIPOS>SET
LONE_PAIRS      STATIC     ATOMS    <user>   **** ""
1 45
DONOR_HYDROGENS      STATIC     ATOMS    <user>   **** ""
2 34 44
ATOM$BLUE        STATIC     ATOMS    COLORGROUP SYSTEM
1 45
ATOM$RED        STATIC     ATOMS    COLORGROUP SYSTEM
2 34 44
