AV-unprocessed.smi:904|AV-procd|sdf|4097|dock1
  -GOLD-   22720 1583D 1   1.00000     0.00000
 Structure written by MMmdl.
 42 43  0  0  0  0  0  0  0  0  1 V2000
  150.1349  135.2961  156.5349 C   0  0  0  0  0  0  0  0  0  0  0  0
  150.2365  133.8136  156.3162 C   0  0  0  0  0  0  0  0  0  0  0  0
  150.6345  133.0358  157.3092 N   0  0  0  0  0  0  0  0  0  0  0  0
  150.6212  131.7892  156.7964 N   0  0  0  0  0  0  0  0  0  0  0  0
  151.0096  130.6716  157.6346 C   0  0  0  0  0  0  0  0  0  0  0  0
  150.2114  131.7788  155.4773 C   0  0  0  0  0  0  0  0  0  0  0  0
  150.1197  130.5148  154.6840 C   0  0  0  0  0  0  0  0  0  0  0  0
  149.9515  133.0778  155.1287 C   0  0  0  0  0  0  0  0  0  0  0  0
  149.4777  133.6278  153.8058 C   0  0  0  0  0  0  0  0  0  0  0  0
  148.1104  133.0432  153.4462 C   0  0  0  0  0  0  0  0  0  0  0  0
  147.7168  132.0157  153.9978 O   0  0  0  0  0  0  0  0  0  0  0  0
  147.4031  133.6999  152.5128 N   0  0  0  0  0  0  0  0  0  0  0  0
  146.0848  133.3150  152.0210 C   0  0  2  0  0  0  0  0  0  0  0  0
  146.1081  131.8633  151.5001 C   0  0  0  0  0  0  0  0  0  0  0  0
  144.7529  131.4605  150.8972 C   0  0  0  0  0  0  0  0  0  0  0  0
  144.3290  132.4376  149.7873 C   0  0  1  0  0  0  0  0  0  0  0  0
  143.0532  132.0768  149.3021 O   0  0  0  0  0  0  0  0  0  0  0  0
  144.2911  133.8842  150.3087 C   0  0  0  0  0  0  0  0  0  0  0  0
  145.6451  134.2906  150.9127 C   0  0  0  0  0  0  0  0  0  0  0  0
  150.6304  135.8436  155.7328 H   0  0  0  0  0  0  0  0  0  0  0  0
  150.5976  135.5993  157.4747 H   0  0  0  0  0  0  0  0  0  0  0  0
  149.0928  135.6144  156.5599 H   0  0  0  0  0  0  0  0  0  0  0  0
  151.7575  130.0676  157.1206 H   0  0  0  0  0  0  0  0  0  0  0  0
  150.1368  130.0540  157.8467 H   0  0  0  0  0  0  0  0  0  0  0  0
  151.4310  131.0250  158.5767 H   0  0  0  0  0  0  0  0  0  0  0  0
  149.6572  130.6871  153.7126 H   0  0  0  0  0  0  0  0  0  0  0  0
  149.5229  129.7684  155.2087 H   0  0  0  0  0  0  0  0  0  0  0  0
  151.1112  130.0959  154.5114 H   0  0  0  0  0  0  0  0  0  0  0  0
  149.3999  134.7147  153.8243 H   0  0  0  0  0  0  0  0  0  0  0  0
  150.1846  133.3934  153.0088 H   0  0  0  0  0  0  0  0  0  0  0  0
  147.8079  134.5373  152.1200 H   0  0  0  0  0  0  0  0  0  0  0  0
  145.3623  133.3848  152.8366 H   0  0  0  0  0  0  0  0  0  0  0  0
  146.8861  131.7542  150.7431 H   0  0  0  0  0  0  0  0  0  0  0  0
  146.3662  131.1779  152.3082 H   0  0  0  0  0  0  0  0  0  0  0  0
  144.8119  130.4456  150.5024 H   0  0  0  0  0  0  0  0  0  0  0  0
  143.9989  131.4435  151.6856 H   0  0  0  0  0  0  0  0  0  0  0  0
  145.0341  132.3702  148.9576 H   0  0  0  0  0  0  0  0  0  0  0  0
  142.5216  132.8560  149.2453 H   0  0  0  0  0  0  0  0  0  0  0  0
  144.0284  134.5678  149.5003 H   0  0  0  0  0  0  0  0  0  0  0  0
  143.5128  133.9860  151.0665 H   0  0  0  0  0  0  0  0  0  0  0  0
  145.5793  135.3035  151.3120 H   0  0  0  0  0  0  0  0  0  0  0  0
  146.3975  134.3180  150.1232 H   0  0  0  0  0  0  0  0  0  0  0  0
  1  2  1  0  0  0  0
  1 20  1  0  0  0  0
  1 21  1  0  0  0  0
  1 22  1  0  0  0  0
  2  8  1  0  0  0  0
  2  3  2  0  0  0  0
  3  4  1  0  0  0  0
  4  5  1  0  0  0  0
  4  6  1  0  0  0  0
  5 23  1  0  0  0  0
  5 24  1  0  0  0  0
  5 25  1  0  0  0  0
  6  7  1  0  0  0  0
  6  8  2  0  0  0  0
  7 26  1  0  0  0  0
  7 27  1  0  0  0  0
  7 28  1  0  0  0  0
  8  9  1  0  0  0  0
  9 10  1  0  0  0  0
  9 29  1  0  0  0  0
  9 30  1  0  0  0  0
 10 11  2  0  0  0  0
 10 12  1  0  0  0  0
 12 13  1  0  0  0  0
 12 31  1  0  0  0  0
 13 19  1  0  0  0  0
 13 14  1  0  0  0  0
 13 32  1  0  0  0  0
 14 15  1  0  0  0  0
 14 33  1  0  0  0  0
 14 34  1  0  0  0  0
 15 16  1  0  0  0  0
 15 35  1  0  0  0  0
 15 36  1  0  0  0  0
 16 17  1  0  0  0  0
 16 18  1  0  0  0  0
 16 37  1  0  0  0  0
 17 38  1  0  0  0  0
 18 19  1  0  0  0  0
 18 39  1  0  0  0  0
 18 40  1  0  0  0  0
 19 41  1  0  0  0  0
 19 42  1  0  0  0  0
M  END
> <s_m_source_file>
AV-unprocessed.smi

> <i_m_source_file_index>
904

> <i_lp_mmshare_version>
43012

> <i_f3d_flags>
0

> <s_epik_input>
W0NIM11jMW5uKFtDSDNdKWMoW0NIM10pYzFbQ0gyXUMoPU8pW05IXVtDQEBIXTJbQ0gyXVtDSDJdW0NAQEhdKFtPSF0pW0NIMl1bQ0gyXTI=

> <s_epik_cmdline>
J2VwaWtfcHl0aG9uJywgJy1waCcsICc3LjAnLCAnLXRuJywgJzgnLCAnLW1hJywgJzIwMCcsICctbWV0YWxfYmluZGluZycsICctaW1hZScsICc8aW5maWxlLm1hZT4nLCAnLW9tYWUnLCAnPG91dGZpbGUubWFlPic=

> <r_lp_tautomer_probability>
1

> <r_epik_Ionization_Penalty>
0.00340889

> <r_epik_Ionization_Penalty_Charging>
0

> <r_epik_Ionization_Penalty_Neutral>
0.00340889

> <r_epik_State_Penalty>
0.00241397

> <r_epik_Charging_Adjusted_Penalty>
0.00241397

> <i_epik_Tot_Q>
0

> <i_epik_Tot_abs_Q>
0

> <r_epik_Metal_State_Penalty>
-0

> <b_epik_Metal_Only>
0

> <s_lp_Force_Field>
OPLS_2005

> <r_lp_Energy>
1.52997

> <b_lp_Chiralities_Consistent>
1

> <s_lp_Variant>
AV-unprocessed.smi:904-1

> <Gold.Version>
5.8.1

> <Gold.Id.Protein>
6NUR|6NUR_protein|mol2

> <Gold.PLP.Fitness>
48.1366

> <Gold.PLP.PLP>
-37.7276

> <Gold.PLP.part.hbond>
-4.8050

> <Gold.PLP.part.metal>
0.0000

> <Gold.PLP.part.buried>
-6.2010

> <Gold.PLP.part.nonpolar>
-28.0157

> <Gold.PLP.part.repulsive>
0.0647

> <Gold.PLP.ligand.clash>
0.0000

> <Gold.PLP.ligand.torsion>
0.2652

> <Gold.PLP.Chemscore.Hbond>
3.6413

> <Gold.PLP.Chemscore.CHOScore>
0.0000

> <Gold.PLP.Chemscore.Metal>
0.0000

> <Gold.Chemscore.Hbonds>
donor molecule, donor type, donor heavy atom, donor atom, acceptor molecule, acceptor atom, score
      L1  H    12    31       P1  7948  1.00
      L1  H    17    38       P1 10186  0.60
      P1  H  6896  6907       L1     3  1.00
      P1  H 10785 10796       L1    17  1.00

> <Gold.PLP.Chemscore.Internal.Correction>
0.0155

> <Gold.Rescore>
     Score         DG    S(hbond)    S(metal)    S(lipo)     H(rot)  DE(clash)    DE(int)     intcor
     17.35     -19.55       2.98        0.00      75.55       1.84       0.02       2.18       ----

> <Gold.Chemscore.Fitness>
17.3465

> <Gold.Chemscore.DG>
-19.5502

> <Gold.Chemscore.ZeroCoef>
-5.4800

> <Gold.Chemscore.Hbond>
2.9769

> <Gold.Chemscore.Metal>
0.0000

> <Gold.Chemscore.Lipo>
75.5492

> <Gold.Chemscore.Internal_Hbond>
0.0000

> <Gold.Chemscore.DEClash>
0.0189

> <Gold.Chemscore.DEInternal>
2.1848

> <Gold.Chemscore.Rot>
1.8406

> <Gold.Chemscore.Internal.Correction>
   9.000000E+99

> <Gold.Chemscore.Hbonds>
donor molecule, donor type, donor heavy atom, donor atom, acceptor molecule, acceptor atom, score
      L1  H    12    31       P1  7948  0.38
      L1  H    17    38       P1 10186  0.60
      P1  H  6896  6907       L1     3  0.94
      P1  H 10785 10796       L1    17  0.52

> <Gold.Chemscore.Hbond.Weighted>
-9.9428

> <Gold.Chemscore.Metal.Weighted>
-0.0000

> <Gold.Chemscore.Lipo.Weighted>
-8.8393

> <Gold.Chemscore.Internal_Hbond.Weighted>
0.0000

> <Gold.Chemscore.DEClash.Weighted>
0.0189

> <Gold.Chemscore.DEInternal.Weighted>
2.1848

> <Gold.Chemscore.Rot.Weighted>
4.7118

> <Gold.Chemscore.Internal.Correction.Weighted>
   9.000000E+99

> <Gold.Protein.RotatedTorsions>
[ 6907 6896 6895 6894 ] final -145.11 input  -60.11 | X-H torsion
[ 7974 7965 7964 7962 ] final  -74.62 input  175.53 | X-H torsion
[ 8008 7997 7996 7995 ] final  136.18 input   59.86 | X-H torsion
[ 10167 10162 10161 10158 ] final   24.84 input  -65.29 | X-H torsion
[ 10718 10713 10712 10709 ] final   95.57 input   66.30 | X-H torsion
[ 10763 10752 10751 10750 ] final   37.09 input  -60.55 | X-H torsion
[ 11005 11000 10999 10996 ] final  151.60 input  -57.11 | X-H torsion

> <Gold.Protein.ActiveResidues>
 VAL166  LYS551  ARG553  GLY616  TRP617  ASP618  TYR619  PRO620  LYS621  CYS622 
 ASP623  PHE694  ASN695  SER759  ASP760  ASP761  ALA762  ILE779  LEU786  VAL792 
 PHE793  MET794  SER795  GLU796  ALA797  LYS798  CYS799  TRP800  GLU811  SER814 

> <Gold.Protein.RotatedAtoms>
  151.1233  133.5088  159.2601 H   0  0  0  0  0  0  0  0  0  0  0  0  # atno 6907 bound_to 6896
  151.1837  135.0372  159.8813 H   0  0  0  0  0  0  0  0  0  0  0  0  # atno 6908 bound_to 6896
  152.5457  134.1082  159.8400 H   0  0  0  0  0  0  0  0  0  0  0  0  # atno 6909 bound_to 6896
  145.6367  140.9322  143.1058 H   0  0  0  0  0  0  0  0  0  0  0  0  # atno 7974 bound_to 7965
  156.3004  140.2452  156.3702 H   0  0  0  0  0  0  0  0  0  0  0  0  # atno 8008 bound_to 7997
  154.8795  140.0413  157.1793 H   0  0  0  0  0  0  0  0  0  0  0  0  # atno 8009 bound_to 7997
  154.8710  140.2935  155.5485 H   0  0  0  0  0  0  0  0  0  0  0  0  # atno 8010 bound_to 7997
  140.5155  144.0089  150.6392 H   0  0  0  0  0  0  0  0  0  0  0  0  # atno 10167 bound_to 10162
  157.6937  131.0550  150.4360 H   0  0  0  0  0  0  0  0  0  0  0  0  # atno 10718 bound_to 10713
  153.0051  135.6287  154.2089 H   0  0  0  0  0  0  0  0  0  0  0  0  # atno 10763 bound_to 10752
  154.1832  135.2812  155.3047 H   0  0  0  0  0  0  0  0  0  0  0  0  # atno 10764 bound_to 10752
  154.5818  135.5645  153.7252 H   0  0  0  0  0  0  0  0  0  0  0  0  # atno 10765 bound_to 10752
  140.1233  134.8850  157.2102 H   0  0  0  0  0  0  0  0  0  0  0  0  # atno 11005 bound_to 11000
  144.7173  139.8152  143.7394 LP  0  0  0  0  0  0  0  0  0  0  0  0  # atno 17320 bound_to 7965
  146.1314  139.4350  143.0166 LP  0  0  0  0  0  0  0  0  0  0  0  0  # atno 17321 bound_to 7965
  140.3424  143.3012  152.0574 LP  0  0  0  0  0  0  0  0  0  0  0  0  # atno 17342 bound_to 10162
  139.4908  144.6433  151.6831 LP  0  0  0  0  0  0  0  0  0  0  0  0  # atno 17343 bound_to 10162
  156.4722  130.4055  149.6511 LP  0  0  0  0  0  0  0  0  0  0  0  0  # atno 17370 bound_to 10713
  156.3587  130.7470  151.2439 LP  0  0  0  0  0  0  0  0  0  0  0  0  # atno 17371 bound_to 10713
  140.2937  134.3211  155.7308 LP  0  0  0  0  0  0  0  0  0  0  0  0  # atno 17394 bound_to 11000
  141.2156  133.7550  156.9540 LP  0  0  0  0  0  0  0  0  0  0  0  0  # atno 17395 bound_to 11000

$$$$
