AV-unprocessed.smi:678|AV-procd|sdf|3313|dock1
  -GOLD-   22720 0273D 1   1.00000     0.00000
 Structure written by MMmdl.
 51 52  0  0  0  0  0  0  0  0  2 V2000
  152.7877  142.2326  161.2846 C   0  0  0  0  0  0  0  0  0  0  0  0
  152.3766  142.8376  159.9536 C   0  0  0  0  0  0  0  0  0  0  0  0
  152.5968  144.1403  159.6729 C   0  0  0  0  0  0  0  0  0  0  0  0
  152.2009  144.7074  158.4065 C   0  0  0  0  0  0  0  0  0  0  0  0
  151.6093  143.9052  157.5101 C   0  0  0  0  0  0  0  0  0  0  0  0
  151.3712  142.5439  157.7761 N   0  0  0  0  0  0  0  0  0  0  0  0
  150.7112  141.7593  156.7186 C   0  0  0  0  0  0  0  0  0  0  0  0
  151.5072  140.5080  156.3244 C   0  0  0  0  0  0  0  0  0  0  0  0
  152.5170  140.1857  156.9516 O   0  0  0  0  0  0  0  0  0  0  0  0
  151.0349  139.8103  155.2806 N   0  0  0  0  0  0  0  0  0  0  0  0
  151.6765  138.6378  154.6962 C   0  0  0  0  0  0  0  0  0  0  0  0
  150.6721  137.4870  154.5027 C   0  0  2  0  0  0  0  0  0  0  0  0
  149.2130  137.9810  154.5489 C   0  0  0  0  0  0  0  0  0  0  0  0
  148.2714  136.8416  154.4113 N   0  3  2  0  0  0  0  0  0  0  0  0
  146.8419  137.2457  154.3966 C   0  0  0  0  0  0  0  0  0  0  0  0
  146.3230  137.5999  152.9859 C   0  0  0  0  0  0  0  0  0  0  0  0
  146.8038  138.9981  152.5699 C   0  0  0  0  0  0  0  0  0  0  0  0
  144.7901  137.5120  152.8983 C   0  0  0  0  0  0  0  0  0  0  0  0
  148.5556  135.8100  155.4369 C   0  0  0  0  0  0  0  0  0  0  0  0
  150.0321  135.3866  155.3801 C   0  0  0  0  0  0  0  0  0  0  0  0
  150.8554  136.5326  155.5441 O   0  0  0  0  0  0  0  0  0  0  0  0
  151.7243  141.9600  158.9640 C   0  0  0  0  0  0  0  0  0  0  0  0
  151.5028  140.7672  159.1852 O   0  0  0  0  0  0  0  0  0  0  0  0
  153.2546  142.9754  161.9321 H   0  0  0  0  0  0  0  0  0  0  0  0
  153.5020  141.4231  161.1313 H   0  0  0  0  0  0  0  0  0  0  0  0
  151.9184  141.8307  161.8059 H   0  0  0  0  0  0  0  0  0  0  0  0
  153.0750  144.7754  160.4042 H   0  0  0  0  0  0  0  0  0  0  0  0
  152.3732  145.7510  158.1884 H   0  0  0  0  0  0  0  0  0  0  0  0
  151.2771  144.2530  156.5429 H   0  0  0  0  0  0  0  0  0  0  0  0
  149.7155  141.4418  157.0301 H   0  0  0  0  0  0  0  0  0  0  0  0
  150.5500  142.3889  155.8412 H   0  0  0  0  0  0  0  0  0  0  0  0
  150.1906  140.1393  154.8343 H   0  0  0  0  0  0  0  0  0  0  0  0
  152.1660  138.8887  153.7536 H   0  0  0  0  0  0  0  0  0  0  0  0
  152.4665  138.3248  155.3794 H   0  0  0  0  0  0  0  0  0  0  0  0
  150.8630  137.0130  153.5377 H   0  0  0  0  0  0  0  0  0  0  0  0
  149.0226  138.5009  155.4893 H   0  0  0  0  0  0  0  0  0  0  0  0
  149.0541  138.7021  153.7482 H   0  0  0  0  0  0  0  0  0  0  0  0
  146.2324  136.4301  154.7891 H   0  0  0  0  0  0  0  0  0  0  0  0
  146.7009  138.0844  155.0803 H   0  0  0  0  0  0  0  0  0  0  0  0
  146.7415  136.8997  152.2638 H   0  0  0  0  0  0  0  0  0  0  0  0
  146.4068  139.7688  153.2315 H   0  0  0  0  0  0  0  0  0  0  0  0
  146.4866  139.2368  151.5541 H   0  0  0  0  0  0  0  0  0  0  0  0
  147.8919  139.0650  152.5960 H   0  0  0  0  0  0  0  0  0  0  0  0
  144.3125  138.1911  153.6054 H   0  0  0  0  0  0  0  0  0  0  0  0
  144.4344  136.5038  153.1120 H   0  0  0  0  0  0  0  0  0  0  0  0
  144.4391  137.7735  151.8997 H   0  0  0  0  0  0  0  0  0  0  0  0
  148.3180  136.2029  156.4269 H   0  0  0  0  0  0  0  0  0  0  0  0
  147.9192  134.9393  155.2750 H   0  0  0  0  0  0  0  0  0  0  0  0
  150.2513  134.6772  156.1781 H   0  0  0  0  0  0  0  0  0  0  0  0
  150.2624  134.8875  154.4373 H   0  0  0  0  0  0  0  0  0  0  0  0
  148.4575  136.4085  153.5177 H   0  0  0  0  0  0  0  0  0  0  0  0
  1  2  1  0  0  0  0
  1 24  1  0  0  0  0
  1 25  1  0  0  0  0
  1 26  1  0  0  0  0
  2 22  1  0  0  0  0
  2  3  2  0  0  0  0
  3  4  1  0  0  0  0
  3 27  1  0  0  0  0
  4  5  2  0  0  0  0
  4 28  1  0  0  0  0
  5  6  1  0  0  0  0
  5 29  1  0  0  0  0
  6  7  1  0  0  0  0
  6 22  1  0  0  0  0
  7  8  1  0  0  0  0
  7 30  1  0  0  0  0
  7 31  1  0  0  0  0
  8  9  2  0  0  0  0
  8 10  1  0  0  0  0
 10 11  1  0  0  0  0
 10 32  1  0  0  0  0
 11 12  1  0  0  0  0
 11 33  1  0  0  0  0
 11 34  1  0  0  0  0
 12 21  1  0  0  0  0
 12 13  1  0  0  0  0
 12 35  1  0  0  0  0
 13 14  1  0  0  0  0
 13 36  1  0  0  0  0
 13 37  1  0  0  0  0
 14 15  1  0  0  0  0
 14 19  1  0  0  0  0
 14 51  1  0  0  0  0
 15 16  1  0  0  0  0
 15 38  1  0  0  0  0
 15 39  1  0  0  0  0
 16 17  1  0  0  0  0
 16 18  1  0  0  0  0
 16 40  1  0  0  0  0
 17 41  1  0  0  0  0
 17 42  1  0  0  0  0
 17 43  1  0  0  0  0
 18 44  1  0  0  0  0
 18 45  1  0  0  0  0
 18 46  1  0  0  0  0
 19 20  1  0  0  0  0
 19 47  1  0  0  0  0
 19 48  1  0  0  0  0
 20 21  1  0  0  0  0
 20 49  1  0  0  0  0
 20 50  1  0  0  0  0
 22 23  2  0  0  0  0
M  CHG  1  14   1
M  END
> <s_m_source_file>
AV-unprocessed.smi

> <i_m_source_file_index>
678

> <i_lp_mmshare_version>
43012

> <i_f3d_flags>
0

> <s_epik_input>
W0NIM11jMVtjSF1bY0hdW2NIXW4oYzE9TylbQ0gyXUMoPU8pW05IXVtDSDJdW0NAQEhdMltDSDJdTihbQ0gyXVtDSDJdTzIpW0NIMl1bQ0hdKFtDSDNdKVtDSDNd

> <s_epik_cmdline>
J2VwaWtfcHl0aG9uJywgJy1waCcsICc3LjAnLCAnLXRuJywgJzgnLCAnLW1hJywgJzIwMCcsICctbWV0YWxfYmluZGluZycsICctaW1hZScsICc8aW5maWxlLm1hZT4nLCAnLW9tYWUnLCAnPG91dGZpbGUubWFlPic=

> <r_lp_tautomer_probability>
1

> <r_epik_Ionization_Penalty>
0.0975937

> <r_epik_Ionization_Penalty_Charging>
0.0975937

> <r_epik_Ionization_Penalty_Neutral>
6.27044e-08

> <r_epik_State_Penalty>
0.0877056

> <r_epik_Charging_Adjusted_Penalty>
0.185299

> <i_epik_Tot_Q>
1

> <i_epik_Tot_abs_Q>
1

> <r_epik_Metal_State_Penalty>
0.0877109

> <b_epik_Metal_Only>
0

> <s_lp_Force_Field>
OPLS_2005

> <r_lp_Energy>
27.0363

> <b_lp_Chiralities_Consistent>
1

> <s_lp_Variant>
AV-unprocessed.smi:678-1

> <Gold.Version>
5.8.1

> <Gold.Id.Protein>
6NUR|6NUR_protein|mol2

> <Gold.PLP.Fitness>
53.5591

> <Gold.PLP.PLP>
-46.3886

> <Gold.PLP.part.hbond>
-2.0000

> <Gold.PLP.part.metal>
0.0000

> <Gold.PLP.part.buried>
-2.6435

> <Gold.PLP.part.nonpolar>
-42.0253

> <Gold.PLP.part.repulsive>
0.3024

> <Gold.PLP.ligand.clash>
2.3902

> <Gold.PLP.ligand.torsion>
1.2864

> <Gold.PLP.Chemscore.Hbond>
3.0000

> <Gold.PLP.Chemscore.CHOScore>
0.9968

> <Gold.PLP.Chemscore.Metal>
0.0000

> <Gold.Chemscore.Hbonds>
donor molecule, donor type, donor heavy atom, donor atom, acceptor molecule, acceptor atom, score
      L1  H    14    51       P1  7948  2.00
      P1  H  7997  8009       L1     9  1.00
      L1  C     5    29       P1  8028  0.92

> <Gold.PLP.Chemscore.Internal.Correction>
0.1433

> <Gold.Rescore>
     Score         DG    S(hbond)    S(metal)    S(lipo)     H(rot)  DE(clash)    DE(int)     intcor
     17.66     -20.44       1.98        0.00     112.70       1.89       0.76       2.02       ----

> <Gold.Chemscore.Fitness>
17.6607

> <Gold.Chemscore.DG>
-20.4434

> <Gold.Chemscore.ZeroCoef>
-5.4800

> <Gold.Chemscore.Hbond>
1.9786

> <Gold.Chemscore.Metal>
0.0000

> <Gold.Chemscore.Lipo>
112.7003

> <Gold.Chemscore.Internal_Hbond>
0.0000

> <Gold.Chemscore.DEClash>
0.7641

> <Gold.Chemscore.DEInternal>
2.0186

> <Gold.Chemscore.Rot>
1.8871

> <Gold.Chemscore.Internal.Correction>
   9.000000E+99

> <Gold.Chemscore.Hbonds>
donor molecule, donor type, donor heavy atom, donor atom, acceptor molecule, acceptor atom, score
      L1  H    14    51       P1  7948  1.00
      P1  H  7997  8009       L1     9  0.97

> <Gold.Chemscore.Hbond.Weighted>
-6.6084

> <Gold.Chemscore.Metal.Weighted>
-0.0000

> <Gold.Chemscore.Lipo.Weighted>
-13.1859

> <Gold.Chemscore.Internal_Hbond.Weighted>
0.0000

> <Gold.Chemscore.DEClash.Weighted>
0.7641

> <Gold.Chemscore.DEInternal.Weighted>
2.0186

> <Gold.Chemscore.Rot.Weighted>
4.8309

> <Gold.Chemscore.Internal.Correction.Weighted>
   9.000000E+99

> <Gold.Protein.RotatedTorsions>
[ 6907 6896 6895 6894 ] final   90.28 input  -60.11 | X-H torsion
[ 7974 7965 7964 7962 ] final -170.98 input  175.53 | X-H torsion
[ 8008 7997 7996 7995 ] final -170.33 input   59.86 | X-H torsion
[ 10167 10162 10161 10158 ] final  -97.81 input  -65.29 | X-H torsion
[ 10718 10713 10712 10709 ] final  -10.09 input   66.30 | X-H torsion
[ 10763 10752 10751 10750 ] final -135.84 input  -60.55 | X-H torsion
[ 11005 11000 10999 10996 ] final  -65.88 input  -57.11 | X-H torsion

> <Gold.Protein.ActiveResidues>
 VAL166  LYS551  ARG553  GLY616  TRP617  ASP618  TYR619  PRO620  LYS621  CYS622 
 ASP623  PHE694  ASN695  SER759  ASP760  ASP761  ALA762  ILE779  LEU786  VAL792 
 PHE793  MET794  SER795  GLU796  ALA797  LYS798  CYS799  TRP800  GLU811  SER814 

> <Gold.Protein.RotatedAtoms>
  152.5443  134.1836  159.8645 H   0  0  0  0  0  0  0  0  0  0  0  0  # atno 6907 bound_to 6896
  151.1836  133.4703  159.2602 H   0  0  0  0  0  0  0  0  0  0  0  0  # atno 6908 bound_to 6896
  151.1153  135.0061  159.8568 H   0  0  0  0  0  0  0  0  0  0  0  0  # atno 6909 bound_to 6896
  144.7163  140.1991  143.6340 H   0  0  0  0  0  0  0  0  0  0  0  0  # atno 7974 bound_to 7965
  155.9169  140.1067  157.1237 H   0  0  0  0  0  0  0  0  0  0  0  0  # atno 8008 bound_to 7997
  154.4048  140.1263  156.4694 H   0  0  0  0  0  0  0  0  0  0  0  0  # atno 8009 bound_to 7997
  155.7243  140.3469  155.5032 H   0  0  0  0  0  0  0  0  0  0  0  0  # atno 8010 bound_to 7997
  140.2795  143.3291  152.0455 H   0  0  0  0  0  0  0  0  0  0  0  0  # atno 10167 bound_to 10162
  156.6785  130.5030  149.5978 H   0  0  0  0  0  0  0  0  0  0  0  0  # atno 10718 bound_to 10713
  154.8695  135.3691  154.4964 H   0  0  0  0  0  0  0  0  0  0  0  0  # atno 10763 bound_to 10752
  153.5608  135.7023  153.5553 H   0  0  0  0  0  0  0  0  0  0  0  0  # atno 10764 bound_to 10752
  153.3630  135.4041  155.1696 H   0  0  0  0  0  0  0  0  0  0  0  0  # atno 10765 bound_to 10752
  141.1467  133.6689  156.6054 H   0  0  0  0  0  0  0  0  0  0  0  0  # atno 11005 bound_to 11000
  145.8697  139.2265  143.1668 LP  0  0  0  0  0  0  0  0  0  0  0  0  # atno 17320 bound_to 7965
  146.0097  140.8447  142.9977 LP  0  0  0  0  0  0  0  0  0  0  0  0  # atno 17321 bound_to 7965
  139.4966  144.6601  151.6483 LP  0  0  0  0  0  0  0  0  0  0  0  0  # atno 17342 bound_to 10162
  140.5823  143.9924  150.6275 LP  0  0  0  0  0  0  0  0  0  0  0  0  # atno 17343 bound_to 10162
  156.1885  130.6544  151.1034 LP  0  0  0  0  0  0  0  0  0  0  0  0  # atno 17370 bound_to 10713
  157.7052  131.0759  150.6691 LP  0  0  0  0  0  0  0  0  0  0  0  0  # atno 17371 bound_to 10713
  140.3656  134.7650  157.4564 LP  0  0  0  0  0  0  0  0  0  0  0  0  # atno 17394 bound_to 11000
  140.0750  134.5809  155.8600 LP  0  0  0  0  0  0  0  0  0  0  0  0  # atno 17395 bound_to 11000

$$$$
