#       Name:                AV-unprocessed.smi:1310
#       Creating user name   scv26
#       Creation time:       Fri Mar 27 05:01:30 2020


#       File generated by GOLD software.
#

@<TRIPOS>MOLECULE
AV-unprocessed.smi:1310
    39    40     1
SMALL
NO_CHARGES


@<TRIPOS>ATOM
      1 ****        -6.3461   0.5555  -0.3218 C.3            1 S1                 0.0000
      2 ****        -5.6682  -0.6958  -0.3392 O.3            1 S1                 0.0000
      3 ****        -4.2883  -0.6932  -0.3519 C.ar           1 S1                 0.0000
      4 ****        -3.6117  -1.9288  -0.3618 C.ar           1 S1                 0.0000
      5 ****        -2.2036  -1.9360  -0.3738 C.ar           1 S1                 0.0000
      6 ****        -1.5127  -0.6999  -0.3803 C.ar           1 S1                 0.0000
      7 ****        -0.0979  -0.5557  -0.3819 N.am           1 S1                 0.0000
      8 ****         0.8629  -1.4863  -0.5488 C.2            1 S1                 0.0000
      9 ****         0.6607  -2.6804  -0.7557 O.2            1 S1                 0.0000
     10 ****         2.1149  -0.9997  -0.4715 N.am           1 S1                 0.0000
     11 ****         3.3803  -1.7263  -0.6048 C.3            1 S1                 0.0000
     12 ****         4.5496  -0.8872  -0.0546 C.3            1 S1                 0.0000
     13 ****         5.6626  -0.9773  -1.0994 C.3            1 S1                 0.0000
     14 ****         4.9216  -1.1317  -2.4229 C.3            1 S1                 0.0000
     15 ****         3.7232  -2.0175  -2.0811 C.3            1 S1                 0.0000
     16 ****        -2.2849   0.4801  -0.3625 C.ar           1 S1                 0.0000
     17 ****        -3.6343   0.4942  -0.3508 N.ar           1 S1                 0.0000
     18 ****        -7.4222   0.3826  -0.3201 H              1 S1                 0.0000
     19 ****        -6.1083   1.1512  -1.2044 H              1 S1                 0.0000
     20 ****        -6.1019   1.1285   0.5737 H              1 S1                 0.0000
     21 ****        -4.1635  -2.8573  -0.3573 H              1 S1                 0.0000
     22 ****        -1.6955  -2.8866  -0.3686 H              1 S1                 0.0000
     23 ****         0.2337   0.3895  -0.2567 H              1 S1                 0.0000
     24 ****         2.1986  -0.0120  -0.2784 H              1 S1                 0.0000
     25 ****         3.3292  -2.6646  -0.0494 H              1 S1                 0.0000
     26 ****         4.2545   0.1578   0.0559 H              1 S1                 0.0000
     27 ****         4.8806  -1.2324   0.9254 H              1 S1                 0.0000
     28 ****         6.3228  -0.1097  -1.0855 H              1 S1                 0.0000
     29 ****         6.2708  -1.8635  -0.9143 H              1 S1                 0.0000
     30 ****         4.5726  -0.1560  -2.7635 H              1 S1                 0.0000
     31 ****         5.5467  -1.5557  -3.2094 H              1 S1                 0.0000
     32 ****         4.0099  -3.0652  -2.1814 H              1 S1                 0.0000
     33 ****         2.8896  -1.8492  -2.7640 H              1 S1                 0.0000
     34 ****        -1.8049   1.4480  -0.3581 H              1 S1                 0.0000
     35 ****        -5.9707  -1.1848  -1.1573 LP             1 S1                 0.0000
     36 ****        -5.9557  -1.1994   0.4755 LP             1 S1                 0.0000
     37 ****        -0.2758  -3.0266  -0.8113 LP             1 S1                 0.0000
     38 ****         1.4326  -3.3060  -0.8686 LP             1 S1                 0.0000
     39 ****        -4.1385   1.3578  -0.3416 LP             1 S1                 0.0000
@<TRIPOS>BOND
    1    1    2 1     
    2    1   18 1     
    3    1   19 1     
    4    1   20 1     
    5    2    3 1     
    6    3   17 ar    
    7    3    4 ar    
    8    4    5 ar    
    9    4   21 1     
   10    5    6 ar    
   11    5   22 1     
   12    6    7 1     
   13    6   16 ar    
   14    7    8 am    
   15    7   23 1     
   16    8    9 2     
   17    8   10 am    
   18   10   11 1     
   19   10   24 1     
   20   11   15 1     
   21   11   12 1     
   22   11   25 1     
   23   12   13 1     
   24   12   26 1     
   25   12   27 1     
   26   13   14 1     
   27   13   28 1     
   28   13   29 1     
   29   14   15 1     
   30   14   30 1     
   31   14   31 1     
   32   15   32 1     
   33   15   33 1     
   34   16   17 ar    
   35   16   34 1     
   36    2   35 1     
   37    2   36 1     
   38    9   37 1     
   39    9   38 1     
   40   17   39 1     
@<TRIPOS>SUBSTRUCTURE
      1 S1             1
@<TRIPOS>SET
LONE_PAIRS      STATIC     ATOMS    <user>   **** ""
5 35 36 37 38 39
DONOR_HYDROGENS      STATIC     ATOMS    <user>   **** ""
2 23 24
ATOM$BLUE        STATIC     ATOMS    COLORGROUP SYSTEM
5 35 36 37 38 39
ATOM$RED        STATIC     ATOMS    COLORGROUP SYSTEM
2 23 24
