AV-unprocessed.smi:284|AV-procd|sdf|2163|dock3
  -GOLD-   2262021523D 1   1.00000     0.00000
 Structure written by MMmdl.
 60 62  0  0  0  0  0  0  0  0  1 V2000
  160.6534  137.1658  160.1147 C   0  0  0  0  0  0  0  0  0  0  0  0
  159.3252  136.7826  159.4815 C   0  0  0  0  0  0  0  0  0  0  0  0
  159.2534  136.1444  158.2910 C   0  0  0  0  0  0  0  0  0  0  0  0
  158.0638  135.7846  157.6876 N   0  0  0  0  0  0  0  0  0  0  0  0
  158.0624  135.0805  156.3525 C   0  0  2  0  0  0  0  0  0  0  0  0
  159.4783  134.9165  155.8089 C   0  0  0  0  0  0  0  0  0  0  0  0
  159.1852  134.8016  154.3275 C   0  0  2  0  0  0  0  0  0  0  0  0
  160.3129  135.1058  153.5304 O   0  0  0  0  0  0  0  0  0  0  0  0
  157.9710  135.7361  154.1456 C   0  0  2  0  0  0  0  0  0  0  0  0
  158.2214  137.1541  153.5869 C   0  0  0  0  0  0  0  0  0  0  0  0
  157.0712  137.9737  153.6353 O   0  0  0  0  0  0  0  0  0  0  0  0
  157.3566  135.8535  155.4299 O   0  0  0  0  0  0  0  0  0  0  0  0
  156.8409  136.0647  158.3296 C   0  0  0  0  0  0  0  0  0  0  0  0
  155.7663  135.7393  157.8195 O   0  0  0  0  0  0  0  0  0  0  0  0
  156.8808  136.7255  159.5783 N   0  0  0  0  0  0  0  0  0  0  0  0
  155.6000  137.0405  160.2496 C   0  0  0  0  0  0  0  0  0  0  0  0
  154.7863  138.1343  159.5398 C   0  0  0  0  0  0  0  0  0  0  0  0
  154.5826  138.0704  158.3272 O   0  0  0  0  0  0  0  0  0  0  0  0
  154.3712  139.1381  160.3340 N   0  0  0  0  0  0  0  0  0  0  0  0
  153.6037  140.2890  160.0047 C   0  0  0  0  0  0  0  0  0  0  0  0
  153.7139  141.5325  160.6692 C   0  0  0  0  0  0  0  0  0  0  0  0
  152.9251  142.6282  160.2679 C   0  0  0  0  0  0  0  0  0  0  0  0
  152.0138  142.5150  159.1890 C   0  0  0  0  0  0  0  0  0  0  0  0
  151.1376  143.6925  158.7202 C   0  0  0  0  0  0  0  0  0  0  0  0
  149.6537  143.2735  158.7549 C   0  0  0  0  0  0  0  0  0  0  0  0
  151.4636  144.1513  157.2811 C   0  0  0  0  0  0  0  0  0  0  0  0
  151.3470  144.9048  159.6526 C   0  0  0  0  0  0  0  0  0  0  0  0
  151.9259  141.2715  158.5209 C   0  0  0  0  0  0  0  0  0  0  0  0
  152.7114  140.1748  158.9214 C   0  0  0  0  0  0  0  0  0  0  0  0
  158.0927  137.1194  160.1980 C   0  0  0  0  0  0  0  0  0  0  0  0
  158.0821  137.7144  161.2775 O   0  0  0  0  0  0  0  0  0  0  0  0
  161.4989  136.8808  159.4879 H   0  0  0  0  0  0  0  0  0  0  0  0
  160.7718  136.6722  161.0800 H   0  0  0  0  0  0  0  0  0  0  0  0
  160.7042  138.2438  160.2721 H   0  0  0  0  0  0  0  0  0  0  0  0
  160.1766  135.9025  157.7859 H   0  0  0  0  0  0  0  0  0  0  0  0
  157.5355  134.1322  156.4652 H   0  0  0  0  0  0  0  0  0  0  0  0
  160.0650  135.8096  156.0290 H   0  0  0  0  0  0  0  0  0  0  0  0
  159.9718  134.0435  156.2368 H   0  0  0  0  0  0  0  0  0  0  0  0
  158.8797  133.7768  154.1113 H   0  0  0  0  0  0  0  0  0  0  0  0
  160.6646  135.9371  153.8100 H   0  0  0  0  0  0  0  0  0  0  0  0
  157.2535  135.2458  153.4864 H   0  0  0  0  0  0  0  0  0  0  0  0
  159.0039  137.6443  154.1666 H   0  0  0  0  0  0  0  0  0  0  0  0
  158.5800  137.0991  152.5589 H   0  0  0  0  0  0  0  0  0  0  0  0
  156.7105  137.9344  154.5077 H   0  0  0  0  0  0  0  0  0  0  0  0
  154.9844  136.1436  160.3403 H   0  0  0  0  0  0  0  0  0  0  0  0
  155.7586  137.3525  161.2828 H   0  0  0  0  0  0  0  0  0  0  0  0
  154.6869  139.0939  161.2920 H   0  0  0  0  0  0  0  0  0  0  0  0
  154.4060  141.6800  161.4831 H   0  0  0  0  0  0  0  0  0  0  0  0
  153.0469  143.5525  160.8102 H   0  0  0  0  0  0  0  0  0  0  0  0
  149.0051  144.0825  158.4173 H   0  0  0  0  0  0  0  0  0  0  0  0
  149.3285  143.0002  159.7587 H   0  0  0  0  0  0  0  0  0  0  0  0
  149.4711  142.4159  158.1063 H   0  0  0  0  0  0  0  0  0  0  0  0
  151.2882  143.3578  156.5537 H   0  0  0  0  0  0  0  0  0  0  0  0
  152.5009  144.4756  157.1869 H   0  0  0  0  0  0  0  0  0  0  0  0
  150.8381  144.9943  156.9851 H   0  0  0  0  0  0  0  0  0  0  0  0
  150.7581  145.7625  159.3257 H   0  0  0  0  0  0  0  0  0  0  0  0
  152.3929  145.2134  159.6684 H   0  0  0  0  0  0  0  0  0  0  0  0
  151.0517  144.6922  160.6798 H   0  0  0  0  0  0  0  0  0  0  0  0
  151.2518  141.1462  157.6870 H   0  0  0  0  0  0  0  0  0  0  0  0
  152.6215  139.2384  158.3904 H   0  0  0  0  0  0  0  0  0  0  0  0
  1  2  1  0  0  0  0
  1 32  1  0  0  0  0
  1 33  1  0  0  0  0
  1 34  1  0  0  0  0
  2 30  1  0  0  0  0
  2  3  2  0  0  0  0
  3  4  1  0  0  0  0
  3 35  1  0  0  0  0
  4  5  1  0  0  0  0
  4 13  1  0  0  0  0
  5 12  1  0  0  0  0
  5  6  1  0  0  0  0
  5 36  1  0  0  0  0
  6  7  1  0  0  0  0
  6 37  1  0  0  0  0
  6 38  1  0  0  0  0
  7  8  1  0  0  0  0
  7  9  1  0  0  0  0
  7 39  1  0  0  0  0
  8 40  1  0  0  0  0
  9 10  1  0  0  0  0
  9 12  1  0  0  0  0
  9 41  1  0  0  0  0
 10 11  1  0  0  0  0
 10 42  1  0  0  0  0
 10 43  1  0  0  0  0
 11 44  1  0  0  0  0
 13 14  2  0  0  0  0
 13 15  1  0  0  0  0
 15 16  1  0  0  0  0
 15 30  1  0  0  0  0
 16 17  1  0  0  0  0
 16 45  1  0  0  0  0
 16 46  1  0  0  0  0
 17 18  2  0  0  0  0
 17 19  1  0  0  0  0
 19 20  1  0  0  0  0
 19 47  1  0  0  0  0
 20 29  1  0  0  0  0
 20 21  2  0  0  0  0
 21 22  1  0  0  0  0
 21 48  1  0  0  0  0
 22 23  2  0  0  0  0
 22 49  1  0  0  0  0
 23 24  1  0  0  0  0
 23 28  1  0  0  0  0
 24 25  1  0  0  0  0
 24 26  1  0  0  0  0
 24 27  1  0  0  0  0
 25 50  1  0  0  0  0
 25 51  1  0  0  0  0
 25 52  1  0  0  0  0
 26 53  1  0  0  0  0
 26 54  1  0  0  0  0
 26 55  1  0  0  0  0
 27 56  1  0  0  0  0
 27 57  1  0  0  0  0
 27 58  1  0  0  0  0
 28 29  2  0  0  0  0
 28 59  1  0  0  0  0
 29 60  1  0  0  0  0
 30 31  2  0  0  0  0
M  END
> <s_m_source_file>
AV-unprocessed.smi

> <i_m_source_file_index>
284

> <i_lp_mmshare_version>
43012

> <i_f3d_flags>
0

> <s_epik_input>
W09IXVtDSDJdW0NAQEhdKE8xKVtDQEhdKFtPSF0pW0NIMl1bQ0BIXTFuKFtjSF1jMltDSDNdKWMoPU8pbihjMj1PKVtDSDJdQyg9TylbTkhdYzNbY0hdW2NIXWMoQyhbQ0gzXSkoW0NIM10pW0NIM10pW2NIXVtjSF0z

> <s_epik_cmdline>
J2VwaWtfcHl0aG9uJywgJy1waCcsICc3LjAnLCAnLXRuJywgJzgnLCAnLW1hJywgJzIwMCcsICctbWV0YWxfYmluZGluZycsICctaW1hZScsICc8aW5maWxlLm1hZT4nLCAnLW9tYWUnLCAnPG91dGZpbGUubWFlPic=

> <r_lp_tautomer_probability>
1

> <r_epik_Ionization_Penalty>
4.92358e-06

> <r_epik_Ionization_Penalty_Charging>
1.29777e-07

> <r_epik_Ionization_Penalty_Neutral>
4.79381e-06

> <r_epik_State_Penalty>
-0

> <r_epik_Charging_Adjusted_Penalty>
1.29777e-07

> <i_epik_Tot_Q>
0

> <i_epik_Tot_abs_Q>
0

> <r_epik_Metal_State_Penalty>
-0

> <b_epik_Metal_Only>
0

> <s_epik_Chemistry_Notes>
This compound contains an acetal/aminal-like group ( X-CH(R)-Y where X, Y are N, S, or O) that may be acid/base labile, releasing an aldehyde.

> <s_lp_Force_Field>
OPLS_2005

> <r_lp_Energy>
44.8012

> <b_lp_Chiralities_Consistent>
1

> <s_lp_Variant>
AV-unprocessed.smi:284-7

> <Gold.Version>
5.8.1

> <Gold.Id.Protein>
6NUR|6NUR_protein|mol2

> <Gold.PLP.Fitness>
54.9648

> <Gold.PLP.PLP>
-48.2312

> <Gold.PLP.part.hbond>
-3.3038

> <Gold.PLP.part.metal>
0.0000

> <Gold.PLP.part.buried>
-7.1696

> <Gold.PLP.part.nonpolar>
-37.8379

> <Gold.PLP.part.repulsive>
0.0804

> <Gold.PLP.ligand.clash>
0.0000

> <Gold.PLP.ligand.torsion>
0.4570

> <Gold.PLP.Chemscore.Hbond>
2.5280

> <Gold.PLP.Chemscore.CHOScore>
0.0000

> <Gold.PLP.Chemscore.Metal>
0.0000

> <Gold.Chemscore.Hbonds>
donor molecule, donor type, donor heavy atom, donor atom, acceptor molecule, acceptor atom, score
      P1  H  7997  8010       L1    18  0.27

> <Gold.PLP.Chemscore.Internal.Correction>
0.0637

> <Gold.Rescore>
     Score         DG    S(hbond)    S(metal)    S(lipo)     H(rot)  DE(clash)    DE(int)     intcor
     13.51     -19.49       1.78        0.00     140.52       3.27       0.36       5.62       ----

> <Gold.Chemscore.Fitness>
13.5094

> <Gold.Chemscore.DG>
-19.4856

> <Gold.Chemscore.ZeroCoef>
-5.4800

> <Gold.Chemscore.Hbond>
1.7800

> <Gold.Chemscore.Metal>
0.0000

> <Gold.Chemscore.Lipo>
140.5159

> <Gold.Chemscore.Internal_Hbond>
0.0000

> <Gold.Chemscore.DEClash>
0.3578

> <Gold.Chemscore.DEInternal>
5.6184

> <Gold.Chemscore.Rot>
3.2735

> <Gold.Chemscore.Internal.Correction>
   9.000000E+99

> <Gold.Chemscore.Hbonds>
donor molecule, donor type, donor heavy atom, donor atom, acceptor molecule, acceptor atom, score
      P1  H  7997  8010       L1    18  0.25

> <Gold.Chemscore.Hbond.Weighted>
-5.9453

> <Gold.Chemscore.Metal.Weighted>
-0.0000

> <Gold.Chemscore.Lipo.Weighted>
-16.4404

> <Gold.Chemscore.Internal_Hbond.Weighted>
0.0000

> <Gold.Chemscore.DEClash.Weighted>
0.3578

> <Gold.Chemscore.DEInternal.Weighted>
5.6184

> <Gold.Chemscore.Rot.Weighted>
8.3801

> <Gold.Chemscore.Internal.Correction.Weighted>
   9.000000E+99

> <Gold.Protein.RotatedTorsions>
[ 6907 6896 6895 6894 ] final   13.81 input  -60.11 | X-H torsion
[ 7974 7965 7964 7962 ] final -166.36 input  175.53 | X-H torsion
[ 8008 7997 7996 7995 ] final   29.97 input   59.86 | X-H torsion
[ 10167 10162 10161 10158 ] final -107.59 input  -65.29 | X-H torsion
[ 10718 10713 10712 10709 ] final   37.30 input   66.30 | X-H torsion
[ 10763 10752 10751 10750 ] final -104.19 input  -60.55 | X-H torsion
[ 11005 11000 10999 10996 ] final  -89.91 input  -57.11 | X-H torsion

> <Gold.Protein.ActiveResidues>
 VAL166  LYS551  ARG553  GLY616  TRP617  ASP618  TYR619  PRO620  LYS621  CYS622 
 ASP623  PHE694  ASN695  SER759  ASP760  ASP761  ALA762  ILE779  LEU786  VAL792 
 PHE793  MET794  SER795  GLU796  ALA797  LYS798  CYS799  TRP800  GLU811  SER814 

> <Gold.Protein.RotatedAtoms>
  151.7923  135.0732  160.0388 H   0  0  0  0  0  0  0  0  0  0  0  0  # atno 6907 bound_to 6896
  152.3148  133.5786  159.5713 H   0  0  0  0  0  0  0  0  0  0  0  0  # atno 6908 bound_to 6896
  150.7338  134.0015  159.3682 H   0  0  0  0  0  0  0  0  0  0  0  0  # atno 6909 bound_to 6896
  144.7247  140.2678  143.6255 H   0  0  0  0  0  0  0  0  0  0  0  0  # atno 7974 bound_to 7965
  155.0830  140.3212  155.4596 H   0  0  0  0  0  0  0  0  0  0  0  0  # atno 8008 bound_to 7997
  156.2762  140.2091  156.5903 H   0  0  0  0  0  0  0  0  0  0  0  0  # atno 8009 bound_to 7997
  154.6964  140.0511  157.0401 H   0  0  0  0  0  0  0  0  0  0  0  0  # atno 8010 bound_to 7997
  140.1754  143.4009  152.1323 H   0  0  0  0  0  0  0  0  0  0  0  0  # atno 10167 bound_to 10162
  157.3453  130.7569  149.6940 H   0  0  0  0  0  0  0  0  0  0  0  0  # atno 10718 bound_to 10713
  154.7861  135.4795  153.9949 H   0  0  0  0  0  0  0  0  0  0  0  0  # atno 10763 bound_to 10752
  153.1562  135.6800  153.8816 H   0  0  0  0  0  0  0  0  0  0  0  0  # atno 10764 bound_to 10752
  153.8445  135.3175  155.3406 H   0  0  0  0  0  0  0  0  0  0  0  0  # atno 10765 bound_to 10752
  141.1576  133.7659  156.9662 H   0  0  0  0  0  0  0  0  0  0  0  0  # atno 11005 bound_to 11000
  145.8073  139.1988  143.2013 LP  0  0  0  0  0  0  0  0  0  0  0  0  # atno 17320 bound_to 7965
  146.0626  140.7955  142.9727 LP  0  0  0  0  0  0  0  0  0  0  0  0  # atno 17321 bound_to 7965
  139.5319  144.7169  151.5025 LP  0  0  0  0  0  0  0  0  0  0  0  0  # atno 17342 bound_to 10162
  140.6555  143.8608  150.6830 LP  0  0  0  0  0  0  0  0  0  0  0  0  # atno 17343 bound_to 10162
  155.9713  130.4156  150.4189 LP  0  0  0  0  0  0  0  0  0  0  0  0  # atno 17370 bound_to 10713
  157.2243  131.0489  151.2528 LP  0  0  0  0  0  0  0  0  0  0  0  0  # atno 17371 bound_to 10713
  140.1160  134.9447  157.2135 LP  0  0  0  0  0  0  0  0  0  0  0  0  # atno 17394 bound_to 11000
  140.3133  134.2999  155.7262 LP  0  0  0  0  0  0  0  0  0  0  0  0  # atno 17395 bound_to 11000

$$$$
