AV-unprocessed.smi:2411|AV-procd|sdf|9530|dock3
  -GOLD-   2272013163D 1   1.00000     0.00000
 Structure written by MMmdl.
 41 43  0  0  0  0  0  0  0  0  1 V2000
  145.1598  147.0855  159.1825 C   0  0  0  0  0  0  0  0  0  0  0  0
  144.5333  145.7834  158.9985 N   0  0  0  0  0  0  0  0  0  0  0  0
  144.7347  145.1539  157.6992 C   0  0  0  0  0  0  0  0  0  0  0  0
  144.6435  144.9435  160.1256 C   0  0  0  0  0  0  0  0  0  0  0  0
  143.5014  144.5611  160.7474 N   0  0  0  0  0  0  0  0  0  0  0  0
  143.6123  143.7491  161.8000 C   0  0  0  0  0  0  0  0  0  0  0  0
  144.7415  143.2690  162.3203 N   0  0  0  0  0  0  0  0  0  0  0  0
  145.8916  143.6380  161.7194 C   0  0  0  0  0  0  0  0  0  0  0  0
  145.9068  144.4875  160.5859 C   0  0  0  0  0  0  0  0  0  0  0  0
  147.1063  144.9334  159.9658 N   0  0  0  0  0  0  0  0  0  0  0  0
  148.3505  144.8975  160.4681 C   0  0  0  0  0  0  0  0  0  0  0  0
  148.6478  144.5053  161.5965 O   0  0  0  0  0  0  0  0  0  0  0  0
  149.2471  145.3174  159.5652 N   0  0  0  0  0  0  0  0  0  0  0  0
  150.6951  145.3463  159.7576 C   0  0  0  0  0  0  0  0  0  0  0  0
  151.5035  144.1714  159.2076 C   0  0  0  0  0  0  0  0  0  0  0  0
  152.3418  143.4691  160.2706 C   0  0  0  0  0  0  0  0  0  0  0  0
  153.7107  142.9360  159.9202 C   0  0  0  0  0  0  0  0  0  0  0  0
  152.6089  141.9782  160.3100 C   0  0  0  0  0  0  0  0  0  0  0  0
  150.9061  143.2837  158.1295 C   0  0  0  0  0  0  0  0  0  0  0  0
  151.9947  144.2586  157.7678 C   0  0  0  0  0  0  0  0  0  0  0  0
  144.7762  147.6011  160.0625 H   0  0  0  0  0  0  0  0  0  0  0  0
  144.9731  147.7226  158.3176 H   0  0  0  0  0  0  0  0  0  0  0  0
  146.2390  146.9758  159.2959 H   0  0  0  0  0  0  0  0  0  0  0  0
  144.1886  144.2121  157.6334 H   0  0  0  0  0  0  0  0  0  0  0  0
  145.7926  144.9560  157.5221 H   0  0  0  0  0  0  0  0  0  0  0  0
  144.3730  145.8059  156.9040 H   0  0  0  0  0  0  0  0  0  0  0  0
  142.6926  143.4538  162.2825 H   0  0  0  0  0  0  0  0  0  0  0  0
  146.7970  143.2670  162.1745 H   0  0  0  0  0  0  0  0  0  0  0  0
  147.0218  145.1930  158.9938 H   0  0  0  0  0  0  0  0  0  0  0  0
  148.9056  145.6178  158.6639 H   0  0  0  0  0  0  0  0  0  0  0  0
  151.0597  146.2544  159.2772 H   0  0  0  0  0  0  0  0  0  0  0  0
  150.9299  145.4619  160.8171 H   0  0  0  0  0  0  0  0  0  0  0  0
  152.2650  143.9285  161.2543 H   0  0  0  0  0  0  0  0  0  0  0  0
  154.0092  142.9556  158.8738 H   0  0  0  0  0  0  0  0  0  0  0  0
  154.5119  143.1029  160.6373 H   0  0  0  0  0  0  0  0  0  0  0  0
  152.6795  141.5120  161.2905 H   0  0  0  0  0  0  0  0  0  0  0  0
  152.2009  141.3396  159.5315 H   0  0  0  0  0  0  0  0  0  0  0  0
  151.1697  142.2280  158.1406 H   0  0  0  0  0  0  0  0  0  0  0  0
  149.9021  143.4983  157.7710 H   0  0  0  0  0  0  0  0  0  0  0  0
  151.7055  145.1219  157.1724 H   0  0  0  0  0  0  0  0  0  0  0  0
  152.9680  143.8493  157.5125 H   0  0  0  0  0  0  0  0  0  0  0  0
  1  2  1  0  0  0  0
  1 21  1  0  0  0  0
  1 22  1  0  0  0  0
  1 23  1  0  0  0  0
  2  3  1  0  0  0  0
  2  4  1  0  0  0  0
  3 24  1  0  0  0  0
  3 25  1  0  0  0  0
  3 26  1  0  0  0  0
  4  9  1  0  0  0  0
  4  5  2  0  0  0  0
  5  6  1  0  0  0  0
  6  7  2  0  0  0  0
  6 27  1  0  0  0  0
  7  8  1  0  0  0  0
  8  9  2  0  0  0  0
  8 28  1  0  0  0  0
  9 10  1  0  0  0  0
 10 11  1  0  0  0  0
 10 29  1  0  0  0  0
 11 12  2  0  0  0  0
 11 13  1  0  0  0  0
 13 14  1  0  0  0  0
 13 30  1  0  0  0  0
 14 15  1  0  0  0  0
 14 31  1  0  0  0  0
 14 32  1  0  0  0  0
 15 20  1  0  0  0  0
 15 16  1  0  0  0  0
 15 19  1  0  0  0  0
 16 18  1  0  0  0  0
 16 17  1  0  0  0  0
 16 33  1  0  0  0  0
 17 18  1  0  0  0  0
 17 34  1  0  0  0  0
 17 35  1  0  0  0  0
 18 36  1  0  0  0  0
 18 37  1  0  0  0  0
 19 20  1  0  0  0  0
 19 38  1  0  0  0  0
 19 39  1  0  0  0  0
 20 40  1  0  0  0  0
 20 41  1  0  0  0  0
M  END
> <s_m_source_file>
AV-unprocessed.smi

> <i_m_source_file_index>
2411

> <i_lp_mmshare_version>
43012

> <i_f3d_flags>
0

> <s_epik_input>
W0NIM11OKFtDSDNdKWMxbltjSF1uW2NIXWMxW05IXUMoPU8pW05IXVtDSDJdQzIoW0NIMl1bQ0gyXTIpW0NIXTNbQ0gyXVtDSDJdMw==

> <s_epik_cmdline>
J2VwaWtfcHl0aG9uJywgJy1waCcsICc3LjAnLCAnLXRuJywgJzgnLCAnLW1hJywgJzIwMCcsICctbWV0YWxfYmluZGluZycsICctaW1hZScsICc8aW5maWxlLm1hZT4nLCAnLW9tYWUnLCAnPG91dGZpbGUubWFlPic=

> <r_lp_tautomer_probability>
1

> <r_epik_Ionization_Penalty>
0.0183431

> <r_epik_Ionization_Penalty_Charging>
0

> <r_epik_Ionization_Penalty_Neutral>
0.0183431

> <r_epik_State_Penalty>
0.013978

> <r_epik_Charging_Adjusted_Penalty>
0.013978

> <i_epik_Tot_Q>
0

> <i_epik_Tot_abs_Q>
0

> <r_epik_Metal_State_Penalty>
0.0135734

> <b_epik_Metal_Only>
0

> <s_lp_Force_Field>
OPLS_2005

> <r_lp_Energy>
29.7017

> <b_lp_Chiralities_Consistent>
1

> <s_lp_Variant>
AV-unprocessed.smi:2411-1

> <Gold.Version>
5.8.1

> <Gold.Id.Protein>
6NUR|6NUR_protein|mol2

> <Gold.PLP.Fitness>
50.0817

> <Gold.PLP.PLP>
-44.0931

> <Gold.PLP.part.hbond>
-3.2213

> <Gold.PLP.part.metal>
0.0000

> <Gold.PLP.part.buried>
-8.1577

> <Gold.PLP.part.nonpolar>
-33.7549

> <Gold.PLP.part.repulsive>
0.8905

> <Gold.PLP.ligand.clash>
0.0000

> <Gold.PLP.ligand.torsion>
2.5565

> <Gold.PLP.Chemscore.Hbond>
2.7360

> <Gold.PLP.Chemscore.CHOScore>
0.0000

> <Gold.PLP.Chemscore.Metal>
0.0000

> <Gold.Chemscore.Hbonds>
donor molecule, donor type, donor heavy atom, donor atom, acceptor molecule, acceptor atom, score
      L1  H    10    29       P1  8029  0.96
      L1  H    13    30       P1  8029  1.00
      P1  H  6933  6944       L1    12  0.54

> <Gold.PLP.Chemscore.Internal.Correction>
2.8936

> <Gold.Rescore>
     Score         DG    S(hbond)    S(metal)    S(lipo)     H(rot)  DE(clash)    DE(int)     intcor
     17.31     -21.11       2.69        0.00      93.31       1.68       0.08       3.72       ----

> <Gold.Chemscore.Fitness>
17.3054

> <Gold.Chemscore.DG>
-21.1066

> <Gold.Chemscore.ZeroCoef>
-5.4800

> <Gold.Chemscore.Hbond>
2.6945

> <Gold.Chemscore.Metal>
0.0000

> <Gold.Chemscore.Lipo>
93.3059

> <Gold.Chemscore.Internal_Hbond>
0.0000

> <Gold.Chemscore.DEClash>
0.0811

> <Gold.Chemscore.DEInternal>
3.7202

> <Gold.Chemscore.Rot>
1.6757

> <Gold.Chemscore.Internal.Correction>
   9.000000E+99

> <Gold.Chemscore.Hbonds>
donor molecule, donor type, donor heavy atom, donor atom, acceptor molecule, acceptor atom, score
      L1  H    10    29       P1  8029  0.85
      L1  H    13    30       P1  8029  1.00
      P1  H  6933  6944       L1    12  0.27

> <Gold.Chemscore.Hbond.Weighted>
-8.9996

> <Gold.Chemscore.Metal.Weighted>
-0.0000

> <Gold.Chemscore.Lipo.Weighted>
-10.9168

> <Gold.Chemscore.Internal_Hbond.Weighted>
0.0000

> <Gold.Chemscore.DEClash.Weighted>
0.0811

> <Gold.Chemscore.DEInternal.Weighted>
3.7202

> <Gold.Chemscore.Rot.Weighted>
4.2897

> <Gold.Chemscore.Internal.Correction.Weighted>
   9.000000E+99

> <Gold.Protein.RotatedTorsions>
[ 6907 6896 6895 6894 ] final   53.67 input  -60.11 | X-H torsion
[ 7974 7965 7964 7962 ] final -127.84 input  175.53 | X-H torsion
[ 8008 7997 7996 7995 ] final -154.23 input   59.86 | X-H torsion
[ 10167 10162 10161 10158 ] final  -84.92 input  -65.29 | X-H torsion
[ 10718 10713 10712 10709 ] final  -99.88 input   66.30 | X-H torsion
[ 10763 10752 10751 10750 ] final  -12.03 input  -60.55 | X-H torsion
[ 11005 11000 10999 10996 ] final  -24.10 input  -57.11 | X-H torsion

> <Gold.Protein.ActiveResidues>
 VAL166  LYS551  ARG553  GLY616  TRP617  ASP618  TYR619  PRO620  LYS621  CYS622 
 ASP623  PHE694  ASN695  SER759  ASP760  ASP761  ALA762  ILE779  LEU786  VAL792 
 PHE793  MET794  SER795  GLU796  ALA797  LYS798  CYS799  TRP800  GLU811  SER814 

> <Gold.Protein.RotatedAtoms>
  152.3360  134.7197  160.0276 H   0  0  0  0  0  0  0  0  0  0  0  0  # atno 6907 bound_to 6896
  151.7597  133.3327  159.3422 H   0  0  0  0  0  0  0  0  0  0  0  0  # atno 6908 bound_to 6896
  150.7451  134.6049  159.6100 H   0  0  0  0  0  0  0  0  0  0  0  0  # atno 6909 bound_to 6896
  144.9730  140.7564  143.4659 H   0  0  0  0  0  0  0  0  0  0  0  0  # atno 7974 bound_to 7965
  155.6832  140.0746  157.2477 H   0  0  0  0  0  0  0  0  0  0  0  0  # atno 8008 bound_to 7997
  154.4102  140.1678  156.2057 H   0  0  0  0  0  0  0  0  0  0  0  0  # atno 8009 bound_to 7997
  155.9516  140.3377  155.6416 H   0  0  0  0  0  0  0  0  0  0  0  0  # atno 8010 bound_to 7997
  140.4086  143.2632  151.9048 H   0  0  0  0  0  0  0  0  0  0  0  0  # atno 10167 bound_to 10162
  156.0146  130.5302  150.6735 H   0  0  0  0  0  0  0  0  0  0  0  0  # atno 10718 bound_to 10713
  153.4925  135.7017  153.5876 H   0  0  0  0  0  0  0  0  0  0  0  0  # atno 10763 bound_to 10752
  153.4042  135.3864  155.2008 H   0  0  0  0  0  0  0  0  0  0  0  0  # atno 10764 bound_to 10752
  154.8716  135.3889  154.4387 H   0  0  0  0  0  0  0  0  0  0  0  0  # atno 10765 bound_to 10752
  140.8814  133.7651  156.0306 H   0  0  0  0  0  0  0  0  0  0  0  0  # atno 11005 bound_to 11000
  145.2531  139.2023  143.4932 LP  0  0  0  0  0  0  0  0  0  0  0  0  # atno 17320 bound_to 7965
  146.3387  140.2448  142.8596 LP  0  0  0  0  0  0  0  0  0  0  0  0  # atno 17321 bound_to 7965
  139.4783  144.5560  151.8313 LP  0  0  0  0  0  0  0  0  0  0  0  0  # atno 17342 bound_to 10162
  140.4662  144.1651  150.5912 LP  0  0  0  0  0  0  0  0  0  0  0  0  # atno 17343 bound_to 10162
  157.4453  131.0866  151.0902 LP  0  0  0  0  0  0  0  0  0  0  0  0  # atno 17370 bound_to 10713
  157.1434  130.6153  149.5561 LP  0  0  0  0  0  0  0  0  0  0  0  0  # atno 17371 bound_to 10713
  140.8457  134.3014  157.5296 LP  0  0  0  0  0  0  0  0  0  0  0  0  # atno 17394 bound_to 11000
  139.8720  134.9440  156.3870 LP  0  0  0  0  0  0  0  0  0  0  0  0  # atno 17395 bound_to 11000

$$$$
