AV-unprocessed.smi:3333|AV-procd|sdf|12831|dock8
  -GOLD-   2272019213D 1   1.00000     0.00000
 Structure written by MMmdl.
 41 43  0  0  0  0  0  0  0  0  1 V2000
  143.8778  140.4391  156.5123 C   0  0  0  0  0  0  0  0  0  0  0  0
  144.2967  139.2783  155.6039 C   0  0  0  0  0  0  0  0  0  0  0  0
  145.6058  139.5217  154.9305 C   0  0  0  0  0  0  0  0  0  0  0  0
  146.3291  140.6306  155.1059 N   0  0  0  0  0  0  0  0  0  0  0  0
  147.5023  140.6369  154.3443 C   0  0  0  0  0  0  0  0  0  0  0  0
  148.4420  141.8064  154.4253 C   0  0  0  0  0  0  0  0  0  0  0  0
  149.7275  141.4275  155.1673 C   0  0  0  0  0  0  0  0  0  0  0  0
  150.3986  140.4632  154.7979 O   0  0  0  0  0  0  0  0  0  0  0  0
  150.0562  142.1914  156.2209 N   0  0  0  0  0  0  0  0  0  0  0  0
  151.2273  141.9923  157.0684 C   0  0  0  0  0  0  0  0  0  0  0  0
  151.1335  142.7945  158.3836 C   0  0  2  0  0  0  0  0  0  0  0  0
  150.8037  144.2924  158.1828 C   0  0  0  0  0  0  0  0  0  0  0  0
  151.9472  145.0028  158.9295 C   0  0  1  0  0  0  0  0  0  0  0  0
  151.7924  144.7775  160.4453 C   0  0  0  0  0  0  0  0  0  0  0  0
  152.1830  143.2963  160.6094 C   0  0  0  0  0  0  0  0  0  0  0  0
  152.4684  142.8586  159.1601 C   0  0  2  0  0  0  0  0  0  0  0  0
  153.1345  144.1094  158.5946 C   0  0  0  0  0  0  0  0  0  0  0  0
  147.6453  139.5145  153.5656 C   0  0  0  0  0  0  0  0  0  0  0  0
  146.3171  138.4063  153.7706 S   0  0  0  0  0  0  0  0  0  0  0  0
  142.9187  140.2338  156.9877 H   0  0  0  0  0  0  0  0  0  0  0  0
  143.7784  141.3652  155.9458 H   0  0  0  0  0  0  0  0  0  0  0  0
  144.6121  140.6057  157.3012 H   0  0  0  0  0  0  0  0  0  0  0  0
  144.3635  138.3569  156.1835 H   0  0  0  0  0  0  0  0  0  0  0  0
  143.5369  139.1124  154.8398 H   0  0  0  0  0  0  0  0  0  0  0  0
  148.6803  142.1661  153.4233 H   0  0  0  0  0  0  0  0  0  0  0  0
  147.9781  142.6429  154.9493 H   0  0  0  0  0  0  0  0  0  0  0  0
  149.4483  142.9623  156.4569 H   0  0  0  0  0  0  0  0  0  0  0  0
  151.3484  140.9292  157.2831 H   0  0  0  0  0  0  0  0  0  0  0  0
  152.1087  142.2911  156.5007 H   0  0  0  0  0  0  0  0  0  0  0  0
  150.3742  142.3294  159.0140 H   0  0  0  0  0  0  0  0  0  0  0  0
  150.8197  144.5658  157.1268 H   0  0  0  0  0  0  0  0  0  0  0  0
  149.8219  144.5568  158.5770 H   0  0  0  0  0  0  0  0  0  0  0  0
  152.0657  146.0507  158.6525 H   0  0  0  0  0  0  0  0  0  0  0  0
  152.4730  145.4182  161.0073 H   0  0  0  0  0  0  0  0  0  0  0  0
  150.7780  144.9809  160.7904 H   0  0  0  0  0  0  0  0  0  0  0  0
  153.0789  143.2032  161.2245 H   0  0  0  0  0  0  0  0  0  0  0  0
  151.3952  142.7057  161.0784 H   0  0  0  0  0  0  0  0  0  0  0  0
  153.0642  141.9476  159.0943 H   0  0  0  0  0  0  0  0  0  0  0  0
  153.3445  144.0502  157.5257 H   0  0  0  0  0  0  0  0  0  0  0  0
  154.0485  144.3889  159.1218 H   0  0  0  0  0  0  0  0  0  0  0  0
  148.4504  139.2732  152.8876 H   0  0  0  0  0  0  0  0  0  0  0  0
  1  2  1  0  0  0  0
  1 20  1  0  0  0  0
  1 21  1  0  0  0  0
  1 22  1  0  0  0  0
  2  3  1  0  0  0  0
  2 23  1  0  0  0  0
  2 24  1  0  0  0  0
  3 19  1  0  0  0  0
  3  4  2  0  0  0  0
  4  5  1  0  0  0  0
  5  6  1  0  0  0  0
  5 18  2  0  0  0  0
  6  7  1  0  0  0  0
  6 25  1  0  0  0  0
  6 26  1  0  0  0  0
  7  8  2  0  0  0  0
  7  9  1  0  0  0  0
  9 10  1  0  0  0  0
  9 27  1  0  0  0  0
 10 11  1  0  0  0  0
 10 28  1  0  0  0  0
 10 29  1  0  0  0  0
 11 16  1  0  0  0  0
 11 12  1  0  0  0  0
 11 30  1  0  0  0  0
 12 13  1  0  0  0  0
 12 31  1  0  0  0  0
 12 32  1  0  0  0  0
 13 17  1  0  0  0  0
 13 14  1  0  0  0  0
 13 33  1  0  0  0  0
 14 15  1  0  0  0  0
 14 34  1  0  0  0  0
 14 35  1  0  0  0  0
 15 16  1  0  0  0  0
 15 36  1  0  0  0  0
 15 37  1  0  0  0  0
 16 17  1  0  0  0  0
 16 38  1  0  0  0  0
 17 39  1  0  0  0  0
 17 40  1  0  0  0  0
 18 19  1  0  0  0  0
 18 41  1  0  0  0  0
M  END
> <s_m_source_file>
AV-unprocessed.smi

> <i_m_source_file_index>
3333

> <i_lp_mmshare_version>
43012

> <i_f3d_flags>
0

> <s_epik_input>
W0NIM11bQ0gyXWMxbmMoW2NIXXMxKVtDSDJdQyg9TylbTkhdW0NIMl1bQ0BIXShbQ0gyXVtDQEBIXTIzKVtDQEBIXShbQ0gyXTMpW0NIMl1bQ0gyXTI=

> <s_epik_cmdline>
J2VwaWtfcHl0aG9uJywgJy1waCcsICc3LjAnLCAnLXRuJywgJzgnLCAnLW1hJywgJzIwMCcsICctbWV0YWxfYmluZGluZycsICctaW1hZScsICc8aW5maWxlLm1hZT4nLCAnLW9tYWUnLCAnPG91dGZpbGUubWFlPic=

> <r_lp_tautomer_probability>
1

> <r_epik_Ionization_Penalty>
6.68371e-05

> <r_epik_Ionization_Penalty_Charging>
0

> <r_epik_Ionization_Penalty_Neutral>
6.68371e-05

> <r_epik_State_Penalty>
-0

> <r_epik_Charging_Adjusted_Penalty>
0

> <i_epik_Tot_Q>
0

> <i_epik_Tot_abs_Q>
0

> <r_epik_Metal_State_Penalty>
-0

> <b_epik_Metal_Only>
0

> <s_lp_Force_Field>
OPLS_2005

> <r_lp_Energy>
44.1536

> <b_lp_Chiralities_Consistent>
1

> <s_lp_Variant>
AV-unprocessed.smi:3333-1

> <Gold.Version>
5.8.1

> <Gold.Id.Protein>
6NUR|6NUR_protein|mol2

> <Gold.PLP.Fitness>
46.7918

> <Gold.PLP.PLP>
-39.0644

> <Gold.PLP.part.hbond>
-2.0000

> <Gold.PLP.part.metal>
0.0000

> <Gold.PLP.part.buried>
-3.3551

> <Gold.PLP.part.nonpolar>
-33.8436

> <Gold.PLP.part.repulsive>
0.2422

> <Gold.PLP.ligand.clash>
0.0000

> <Gold.PLP.ligand.torsion>
0.2998

> <Gold.PLP.Chemscore.Hbond>
1.7680

> <Gold.PLP.Chemscore.CHOScore>
1.0000

> <Gold.PLP.Chemscore.Metal>
0.0000

> <Gold.Chemscore.Hbonds>
donor molecule, donor type, donor heavy atom, donor atom, acceptor molecule, acceptor atom, score
      L1  H     9    27       P1  8028  0.77
      P1  H  7989  7998       L1     8  1.00
      L1  C    18    41       P1  7957  1.00

> <Gold.PLP.Chemscore.Internal.Correction>
0.0229

> <Gold.Rescore>
     Score         DG    S(hbond)    S(metal)    S(lipo)     H(rot)  DE(clash)    DE(int)     intcor
     20.42     -20.74       1.57        0.00     116.65       1.42       0.05       0.27       ----

> <Gold.Chemscore.Fitness>
20.4231

> <Gold.Chemscore.DG>
-20.7443

> <Gold.Chemscore.ZeroCoef>
-5.4800

> <Gold.Chemscore.Hbond>
1.5745

> <Gold.Chemscore.Metal>
0.0000

> <Gold.Chemscore.Lipo>
116.6462

> <Gold.Chemscore.Internal_Hbond>
0.0000

> <Gold.Chemscore.DEClash>
0.0544

> <Gold.Chemscore.DEInternal>
0.2669

> <Gold.Chemscore.Rot>
1.4227

> <Gold.Chemscore.Internal.Correction>
   9.000000E+99

> <Gold.Chemscore.Hbonds>
donor molecule, donor type, donor heavy atom, donor atom, acceptor molecule, acceptor atom, score
      L1  H     9    27       P1  8028  0.72
      P1  H  7989  7998       L1     8  0.81

> <Gold.Chemscore.Hbond.Weighted>
-5.2588

> <Gold.Chemscore.Metal.Weighted>
-0.0000

> <Gold.Chemscore.Lipo.Weighted>
-13.6476

> <Gold.Chemscore.Internal_Hbond.Weighted>
0.0000

> <Gold.Chemscore.DEClash.Weighted>
0.0544

> <Gold.Chemscore.DEInternal.Weighted>
0.2669

> <Gold.Chemscore.Rot.Weighted>
3.6421

> <Gold.Chemscore.Internal.Correction.Weighted>
   9.000000E+99

> <Gold.Protein.RotatedTorsions>
[ 6907 6896 6895 6894 ] final  129.73 input  -60.11 | X-H torsion
[ 7974 7965 7964 7962 ] final  -65.91 input  175.53 | X-H torsion
[ 8008 7997 7996 7995 ] final -151.83 input   59.86 | X-H torsion
[ 10167 10162 10161 10158 ] final  -74.69 input  -65.29 | X-H torsion
[ 10718 10713 10712 10709 ] final  -73.04 input   66.30 | X-H torsion
[ 10763 10752 10751 10750 ] final  -65.48 input  -60.55 | X-H torsion
[ 11005 11000 10999 10996 ] final   56.15 input  -57.11 | X-H torsion

> <Gold.Protein.ActiveResidues>
 VAL166  LYS551  ARG553  GLY616  TRP617  ASP618  TYR619  PRO620  LYS621  CYS622 
 ASP623  PHE694  ASN695  SER759  ASP760  ASP761  ALA762  ILE779  LEU786  VAL792 
 PHE793  MET794  SER795  GLU796  ALA797  LYS798  CYS799  TRP800  GLU811  SER814 

> <Gold.Protein.RotatedAtoms>
  152.3596  133.6280  159.6004 H   0  0  0  0  0  0  0  0  0  0  0  0  # atno 6907 bound_to 6896
  150.7592  133.9445  159.3475 H   0  0  0  0  0  0  0  0  0  0  0  0  # atno 6908 bound_to 6896
  151.7285  135.0880  160.0347 H   0  0  0  0  0  0  0  0  0  0  0  0  # atno 6909 bound_to 6896
  145.7483  140.8920  143.0493 H   0  0  0  0  0  0  0  0  0  0  0  0  # atno 7974 bound_to 7965
  155.6456  140.0706  157.2604 H   0  0  0  0  0  0  0  0  0  0  0  0  # atno 8008 bound_to 7997
  154.4174  140.1742  156.1669 H   0  0  0  0  0  0  0  0  0  0  0  0  # atno 8009 bound_to 7997
  155.9819  140.3353  155.6674 H   0  0  0  0  0  0  0  0  0  0  0  0  # atno 8010 bound_to 7997
  140.5006  143.2362  151.7759 H   0  0  0  0  0  0  0  0  0  0  0  0  # atno 10167 bound_to 10162
  156.0296  130.4385  150.2683 H   0  0  0  0  0  0  0  0  0  0  0  0  # atno 10718 bound_to 10713
  154.3456  135.6147  153.5618 H   0  0  0  0  0  0  0  0  0  0  0  0  # atno 10763 bound_to 10752
  152.9801  135.5780  154.4802 H   0  0  0  0  0  0  0  0  0  0  0  0  # atno 10764 bound_to 10752
  154.4514  135.2853  155.1755 H   0  0  0  0  0  0  0  0  0  0  0  0  # atno 10765 bound_to 10752
  140.0552  134.5681  155.9217 H   0  0  0  0  0  0  0  0  0  0  0  0  # atno 11005 bound_to 11000
  144.6855  139.9556  143.7479 LP  0  0  0  0  0  0  0  0  0  0  0  0  # atno 17320 bound_to 7965
  146.0381  139.3396  143.0714 LP  0  0  0  0  0  0  0  0  0  0  0  0  # atno 17321 bound_to 7965
  139.4871  144.4527  151.9634 LP  0  0  0  0  0  0  0  0  0  0  0  0  # atno 17342 bound_to 10162
  140.3616  144.2965  150.5932 LP  0  0  0  0  0  0  0  0  0  0  0  0  # atno 17343 bound_to 10162
  157.0785  131.0137  151.3165 LP  0  0  0  0  0  0  0  0  0  0  0  0  # atno 17370 bound_to 10713
  157.4945  130.7842  149.7541 LP  0  0  0  0  0  0  0  0  0  0  0  0  # atno 17371 bound_to 10713
  141.1948  133.6584  156.5614 LP  0  0  0  0  0  0  0  0  0  0  0  0  # atno 17394 bound_to 11000
  140.3856  134.7485  157.4689 LP  0  0  0  0  0  0  0  0  0  0  0  0  # atno 17395 bound_to 11000

$$$$
