AV-unprocessed.smi:1464|AV-procd|sdf|5944|dock6
  -GOLD-   22720 6 23D 1   1.00000     0.00000
 Structure written by MMmdl.
 41 42  0  0  0  0  0  0  0  0  1 V2000
  151.9391  144.8170  158.7840 C   0  0  0  0  0  0  0  0  0  0  0  0
  152.3525  143.3387  158.6899 C   0  0  1  0  0  0  0  0  0  0  0  0
  152.4424  142.6802  160.0817 C   0  0  0  0  0  0  0  0  0  0  0  0
  152.9525  141.2334  159.9887 C   0  0  0  0  0  0  0  0  0  0  0  0
  152.1030  140.3955  159.0214 C   0  0  0  0  0  0  0  0  0  0  0  0
  152.0221  141.0574  157.6324 C   0  0  1  0  0  0  0  0  0  0  0  0
  151.2403  140.2174  156.7277 N   0  0  0  0  0  0  0  0  0  0  0  0
  151.7109  139.6124  155.6263 C   0  0  0  0  0  0  0  0  0  0  0  0
  152.8775  139.7176  155.2444 O   0  0  0  0  0  0  0  0  0  0  0  0
  150.6935  138.7838  154.8286 C   0  0  0  0  0  0  0  0  0  0  0  0
  149.4069  139.4687  154.6357 N   0  0  0  0  0  0  0  0  0  0  0  0
  149.5154  140.8397  154.4575 N   0  0  0  0  0  0  0  0  0  0  0  0
  148.4557  141.5504  154.2660 C   0  0  0  0  0  0  0  0  0  0  0  0
  148.6087  142.9036  154.0895 O   0  0  0  0  0  0  0  0  0  0  0  0
  147.1427  140.9444  154.2372 C   0  0  0  0  0  0  0  0  0  0  0  0
  147.0468  139.6087  154.4163 C   0  0  0  0  0  0  0  0  0  0  0  0
  148.2285  138.7726  154.6349 C   0  0  0  0  0  0  0  0  0  0  0  0
  148.1706  137.5545  154.8024 O   0  0  0  0  0  0  0  0  0  0  0  0
  151.4710  142.5077  157.7196 C   0  0  1  0  0  0  0  0  0  0  0  0
  149.9616  142.5666  158.0521 C   0  0  0  0  0  0  0  0  0  0  0  0
  148.7233  143.2582  154.9577 H   0  0  0  0  0  0  0  0  0  0  0  0
  150.9809  144.9387  159.2890 H   0  0  0  0  0  0  0  0  0  0  0  0
  151.8590  145.2676  157.7945 H   0  0  0  0  0  0  0  0  0  0  0  0
  152.6763  145.3905  159.3464 H   0  0  0  0  0  0  0  0  0  0  0  0
  153.3615  143.3364  158.2739 H   0  0  0  0  0  0  0  0  0  0  0  0
  153.1108  143.2569  160.7221 H   0  0  0  0  0  0  0  0  0  0  0  0
  151.4674  142.6960  160.5695 H   0  0  0  0  0  0  0  0  0  0  0  0
  153.9897  141.2356  159.6511 H   0  0  0  0  0  0  0  0  0  0  0  0
  152.9520  140.7747  160.9778 H   0  0  0  0  0  0  0  0  0  0  0  0
  152.5350  139.3979  158.9330 H   0  0  0  0  0  0  0  0  0  0  0  0
  151.1035  140.2588  159.4356 H   0  0  0  0  0  0  0  0  0  0  0  0
  153.0412  141.1048  157.2425 H   0  0  0  0  0  0  0  0  0  0  0  0
  150.2675  140.0823  156.9617 H   0  0  0  0  0  0  0  0  0  0  0  0
  151.1194  138.5140  153.8603 H   0  0  0  0  0  0  0  0  0  0  0  0
  150.5429  137.8394  155.3547 H   0  0  0  0  0  0  0  0  0  0  0  0
  146.2659  141.5541  154.0758 H   0  0  0  0  0  0  0  0  0  0  0  0
  146.0724  139.1430  154.3970 H   0  0  0  0  0  0  0  0  0  0  0  0
  151.5822  142.9541  156.7303 H   0  0  0  0  0  0  0  0  0  0  0  0
  149.7426  142.1626  159.0398 H   0  0  0  0  0  0  0  0  0  0  0  0
  149.3698  142.0044  157.3299 H   0  0  0  0  0  0  0  0  0  0  0  0
  149.5859  143.5888  158.0240 H   0  0  0  0  0  0  0  0  0  0  0  0
  1  2  1  0  0  0  0
  1 22  1  0  0  0  0
  1 23  1  0  0  0  0
  1 24  1  0  0  0  0
  2 19  1  0  0  0  0
  2  3  1  0  0  0  0
  2 25  1  0  0  0  0
  3  4  1  0  0  0  0
  3 26  1  0  0  0  0
  3 27  1  0  0  0  0
  4  5  1  0  0  0  0
  4 28  1  0  0  0  0
  4 29  1  0  0  0  0
  5  6  1  0  0  0  0
  5 30  1  0  0  0  0
  5 31  1  0  0  0  0
  6  7  1  0  0  0  0
  6 19  1  0  0  0  0
  6 32  1  0  0  0  0
  7  8  1  0  0  0  0
  7 33  1  0  0  0  0
  8  9  2  0  0  0  0
  8 10  1  0  0  0  0
 10 34  1  0  0  0  0
 10 35  1  0  0  0  0
 10 11  1  0  0  0  0
 11 12  1  0  0  0  0
 11 17  1  0  0  0  0
 12 13  2  0  0  0  0
 13 14  1  0  0  0  0
 13 15  1  0  0  0  0
 14 21  1  0  0  0  0
 15 36  1  0  0  0  0
 15 16  2  0  0  0  0
 16 37  1  0  0  0  0
 16 17  1  0  0  0  0
 17 18  2  0  0  0  0
 19 20  1  0  0  0  0
 19 38  1  0  0  0  0
 20 39  1  0  0  0  0
 20 40  1  0  0  0  0
 20 41  1  0  0  0  0
M  END
> <s_m_source_file>
AV-unprocessed.smi

> <i_m_source_file_index>
1464

> <i_lp_mmshare_version>
43012

> <i_f3d_flags>
0

> <s_epik_input>
W0NIM11bQ0BASF0xW0NIMl1bQ0gyXVtDSDJdW0NASF0oW0NASF0xW0NIM10pW05IXUMoPU8pW0NIMl1uMltuSF1jKD1PKVtjSF1bY0hdYzI9Tw==

> <s_epik_cmdline>
J2VwaWtfcHl0aG9uJywgJy1waCcsICc3LjAnLCAnLXRuJywgJzgnLCAnLW1hJywgJzIwMCcsICctbWV0YWxfYmluZGluZycsICctaW1hZScsICc8aW5maWxlLm1hZT4nLCAnLW9tYWUnLCAnPG91dGZpbGUubWFlPic=

> <r_lp_tautomer_probability>
0.9996

> <r_epik_Ionization_Penalty>
2.10335

> <r_epik_Ionization_Penalty_Charging>
3.98079e-08

> <r_epik_Ionization_Penalty_Neutral>
2.10335

> <r_epik_State_Penalty>
1.67957

> <r_epik_Charging_Adjusted_Penalty>
1.67957

> <i_epik_Tot_Q>
0

> <i_epik_Tot_abs_Q>
0

> <r_epik_Metal_State_Penalty>
1.67957

> <b_epik_Metal_Only>
0

> <s_lp_Force_Field>
OPLS_2005

> <r_lp_Energy>
25.7359

> <b_lp_Chiralities_Consistent>
1

> <s_lp_Variant>
AV-unprocessed.smi:1464-10

> <Gold.Version>
5.8.1

> <Gold.Id.Protein>
6NUR|6NUR_protein|mol2

> <Gold.PLP.Fitness>
46.8731

> <Gold.PLP.PLP>
-41.7874

> <Gold.PLP.part.hbond>
-4.9934

> <Gold.PLP.part.metal>
0.0000

> <Gold.PLP.part.buried>
-3.8158

> <Gold.PLP.part.nonpolar>
-32.6205

> <Gold.PLP.part.repulsive>
0.3419

> <Gold.PLP.ligand.clash>
0.0000

> <Gold.PLP.ligand.torsion>
0.5302

> <Gold.PLP.Chemscore.Hbond>
2.0434

> <Gold.PLP.Chemscore.CHOScore>
0.0000

> <Gold.PLP.Chemscore.Metal>
0.0000

> <Gold.Chemscore.Hbonds>
donor molecule, donor type, donor heavy atom, donor atom, acceptor molecule, acceptor atom, score
      L1  H    14    21       P1  8028  0.74
      P1  H  7989  7998       L1    12  0.18
      P1  H  7997  8009       L1     9  1.00
      P1  H  8022  8030       L1    14  0.15

> <Gold.PLP.Chemscore.Internal.Correction>
0.0159

> <Gold.Rescore>
     Score         DG    S(hbond)    S(metal)    S(lipo)     H(rot)  DE(clash)    DE(int)     intcor
     15.58     -17.33       2.04        0.00      91.56       2.22       0.07       1.68       ----

> <Gold.Chemscore.Fitness>
15.5807

> <Gold.Chemscore.DG>
-17.3258

> <Gold.Chemscore.ZeroCoef>
-5.4800

> <Gold.Chemscore.Hbond>
2.0426

> <Gold.Chemscore.Metal>
0.0000

> <Gold.Chemscore.Lipo>
91.5638

> <Gold.Chemscore.Internal_Hbond>
0.0000

> <Gold.Chemscore.DEClash>
0.0672

> <Gold.Chemscore.DEInternal>
1.6779

> <Gold.Chemscore.Rot>
2.2224

> <Gold.Chemscore.Internal.Correction>
   9.000000E+99

> <Gold.Chemscore.Hbonds>
donor molecule, donor type, donor heavy atom, donor atom, acceptor molecule, acceptor atom, score
      L1  H    14    21       P1  8028  0.73
      P1  H  7989  7998       L1    12  0.04
      P1  H  7997  8009       L1     9  1.00

> <Gold.Chemscore.Hbond.Weighted>
-6.8221

> <Gold.Chemscore.Metal.Weighted>
-0.0000

> <Gold.Chemscore.Lipo.Weighted>
-10.7130

> <Gold.Chemscore.Internal_Hbond.Weighted>
0.0000

> <Gold.Chemscore.DEClash.Weighted>
0.0672

> <Gold.Chemscore.DEInternal.Weighted>
1.6779

> <Gold.Chemscore.Rot.Weighted>
5.6893

> <Gold.Chemscore.Internal.Correction.Weighted>
   9.000000E+99

> <Gold.Protein.RotatedTorsions>
[ 6907 6896 6895 6894 ] final  -46.52 input  -60.11 | X-H torsion
[ 7974 7965 7964 7962 ] final -102.66 input  175.53 | X-H torsion
[ 8008 7997 7996 7995 ] final -135.30 input   59.86 | X-H torsion
[ 10167 10162 10161 10158 ] final  119.17 input  -65.29 | X-H torsion
[ 10718 10713 10712 10709 ] final   89.45 input   66.30 | X-H torsion
[ 10763 10752 10751 10750 ] final   34.60 input  -60.55 | X-H torsion
[ 11005 11000 10999 10996 ] final  -82.36 input  -57.11 | X-H torsion

> <Gold.Protein.ActiveResidues>
 VAL166  LYS551  ARG553  GLY616  TRP617  ASP618  TYR619  PRO620  LYS621  CYS622 
 ASP623  PHE694  ASN695  SER759  ASP760  ASP761  ALA762  ILE779  LEU786  VAL792 
 PHE793  MET794  SER795  GLU796  ALA797  LYS798  CYS799  TRP800  GLU811  SER814 

> <Gold.Protein.RotatedAtoms>
  150.9104  134.8520  159.7420 H   0  0  0  0  0  0  0  0  0  0  0  0  # atno 6907 bound_to 6896
  152.4941  134.4368  159.9540 H   0  0  0  0  0  0  0  0  0  0  0  0  # atno 6908 bound_to 6896
  151.4411  133.3603  159.2817 H   0  0  0  0  0  0  0  0  0  0  0  0  # atno 6909 bound_to 6896
  145.2659  140.9283  143.3014 H   0  0  0  0  0  0  0  0  0  0  0  0  # atno 7974 bound_to 7965
  155.3763  140.0491  157.3044 H   0  0  0  0  0  0  0  0  0  0  0  0  # atno 8008 bound_to 7997
  154.5104  140.2189  155.9129 H   0  0  0  0  0  0  0  0  0  0  0  0  # atno 8009 bound_to 7997
  156.1576  140.3123  155.8758 H   0  0  0  0  0  0  0  0  0  0  0  0  # atno 8010 bound_to 7997
  139.6063  144.7071  151.2945 H   0  0  0  0  0  0  0  0  0  0  0  0  # atno 10167 bound_to 10162
  157.6955  131.0333  150.3428 H   0  0  0  0  0  0  0  0  0  0  0  0  # atno 10718 bound_to 10713
  153.0157  135.6356  154.1694 H   0  0  0  0  0  0  0  0  0  0  0  0  # atno 10763 bound_to 10752
  154.1434  135.2833  155.3156 H   0  0  0  0  0  0  0  0  0  0  0  0  # atno 10764 bound_to 10752
  154.6108  135.5557  153.7532 H   0  0  0  0  0  0  0  0  0  0  0  0  # atno 10765 bound_to 10752
  141.1663  133.7241  156.8560 H   0  0  0  0  0  0  0  0  0  0  0  0  # atno 11005 bound_to 11000
  144.9378  139.4224  143.6464 LP  0  0  0  0  0  0  0  0  0  0  0  0  # atno 17320 bound_to 7965
  146.3261  139.8322  142.8906 LP  0  0  0  0  0  0  0  0  0  0  0  0  # atno 17321 bound_to 7965
  140.7287  143.6927  150.7908 LP  0  0  0  0  0  0  0  0  0  0  0  0  # atno 17342 bound_to 10162
  140.0514  143.5246  152.2672 LP  0  0  0  0  0  0  0  0  0  0  0  0  # atno 17343 bound_to 10162
  156.3887  130.3894  149.7046 LP  0  0  0  0  0  0  0  0  0  0  0  0  # atno 17370 bound_to 10713
  156.4404  130.7858  151.2879 LP  0  0  0  0  0  0  0  0  0  0  0  0  # atno 17371 bound_to 10713
  140.1882  134.8984  157.3029 LP  0  0  0  0  0  0  0  0  0  0  0  0  # atno 17394 bound_to 11000
  140.2319  134.3899  155.7518 LP  0  0  0  0  0  0  0  0  0  0  0  0  # atno 17395 bound_to 11000

$$$$
