AV-unprocessed.smi:35|AV-procd|sdf|248|dock3
  -GOLD-   2262016 03D 1   1.00000     0.00000
 Structure written by MMmdl.
 29 30  0  0  0  0  0  0  0  0  1 V2000
  151.5692  137.2846  159.4930 O   0  0  0  0  0  0  0  0  0  0  0  0
  151.2335  137.8977  158.4821 C   0  0  0  0  0  0  0  0  0  0  0  0
  152.1988  138.4890  157.6616 N   0  0  0  0  0  0  0  0  0  0  0  0
  151.9399  139.2084  156.4929 C   0  0  0  0  0  0  0  0  0  0  0  0
  152.8699  139.7050  155.8588 O   0  0  0  0  0  0  0  0  0  0  0  0
  150.5880  139.3391  156.1022 N   0  0  0  0  0  0  0  0  0  0  0  0
  150.2416  140.1087  154.8455 C   0  0  1  0  0  0  0  0  0  0  0  0
  149.3511  139.3436  154.0907 O   0  0  0  0  0  0  0  0  0  0  0  0
  148.3558  140.1941  153.5360 C   0  0  1  0  0  0  0  0  0  0  0  0
  147.1181  139.3899  153.0998 C   0  0  0  0  0  0  0  0  0  0  0  0
  147.3740  138.7195  151.8842 O   0  0  0  0  0  0  0  0  0  0  0  0
  148.1500  141.2708  154.6115 C   0  0  1  0  0  0  0  0  0  0  0  0
  147.2541  140.8270  155.6170 O   0  0  0  0  0  0  0  0  0  0  0  0
  149.5702  141.4701  155.1364 C   0  0  1  0  0  0  0  0  0  0  0  0
  149.6174  141.9063  156.4852 O   0  0  0  0  0  0  0  0  0  0  0  0
  149.5941  138.7763  156.8915 C   0  0  0  0  0  0  0  0  0  0  0  0
  149.8612  138.0868  158.0249 C   0  0  0  0  0  0  0  0  0  0  0  0
  148.3014  137.3673  159.0112 Br  0  0  0  0  0  0  0  0  0  0  0  0
  153.1643  138.3913  157.9409 H   0  0  0  0  0  0  0  0  0  0  0  0
  151.1617  140.2103  154.2676 H   0  0  0  0  0  0  0  0  0  0  0  0
  148.8019  140.6622  152.6560 H   0  0  0  0  0  0  0  0  0  0  0  0
  146.8782  138.6421  153.8560 H   0  0  0  0  0  0  0  0  0  0  0  0
  146.2384  140.0249  152.9952 H   0  0  0  0  0  0  0  0  0  0  0  0
  147.8158  137.9065  152.0769 H   0  0  0  0  0  0  0  0  0  0  0  0
  147.7464  142.1898  154.1852 H   0  0  0  0  0  0  0  0  0  0  0  0
  146.4142  141.2333  155.4691 H   0  0  0  0  0  0  0  0  0  0  0  0
  150.0754  142.2136  154.5183 H   0  0  0  0  0  0  0  0  0  0  0  0
  149.4053  142.8269  156.5095 H   0  0  0  0  0  0  0  0  0  0  0  0
  148.5605  138.8896  156.6004 H   0  0  0  0  0  0  0  0  0  0  0  0
  1  2  2  0  0  0  0
  2 17  1  0  0  0  0
  2  3  1  0  0  0  0
  3 19  1  0  0  0  0
  3  4  1  0  0  0  0
  4  5  2  0  0  0  0
  4  6  1  0  0  0  0
  6  7  1  0  0  0  0
  6 16  1  0  0  0  0
  7 14  1  0  0  0  0
  7  8  1  0  0  0  0
  7 20  1  0  0  0  0
  8  9  1  0  0  0  0
  9 10  1  0  0  0  0
  9 12  1  0  0  0  0
  9 21  1  0  0  0  0
 10 11  1  0  0  0  0
 10 22  1  0  0  0  0
 10 23  1  0  0  0  0
 11 24  1  0  0  0  0
 12 13  1  0  0  0  0
 12 14  1  0  0  0  0
 12 25  1  0  0  0  0
 13 26  1  0  0  0  0
 14 15  1  0  0  0  0
 14 27  1  0  0  0  0
 15 28  1  0  0  0  0
 16 17  2  0  0  0  0
 16 29  1  0  0  0  0
 17 18  1  0  0  0  0
M  END
> <s_m_source_file>
AV-unprocessed.smi

> <i_m_source_file_index>
35

> <i_lp_mmshare_version>
43012

> <i_f3d_flags>
0

> <s_epik_input>
Tz1jMVtuSF1jKD1PKW4oW2NIXWMxQnIpW0NAQEhdMk9bQ0BASF0oW0NIMl1bT0hdKVtDQEBIXShbT0hdKVtDQEhdMltPSF0=

> <s_epik_cmdline>
J2VwaWtfcHl0aG9uJywgJy1waCcsICc3LjAnLCAnLXRuJywgJzgnLCAnLW1hJywgJzIwMCcsICctbWV0YWxfYmluZGluZycsICctaW1hZScsICc8aW5maWxlLm1hZT4nLCAnLW9tYWUnLCAnPG91dGZpbGUubWFlPic=

> <r_lp_tautomer_probability>
0.999537

> <r_epik_Ionization_Penalty>
0.10812

> <r_epik_Ionization_Penalty_Charging>
0.108119

> <r_epik_Ionization_Penalty_Neutral>
4.93006e-07

> <r_epik_State_Penalty>
0.0979238

> <r_epik_Charging_Adjusted_Penalty>
0.206043

> <i_epik_Tot_Q>
0

> <i_epik_Tot_abs_Q>
0

> <r_epik_Metal_State_Penalty>
3.07911

> <b_epik_Metal_Only>
0

> <s_epik_Chemistry_Notes>
This compound contains an acetal/aminal-like group ( X-CH(R)-Y where X, Y are N, S, or O) that may be acid/base labile, releasing an aldehyde.

> <s_lp_Force_Field>
OPLS_2005

> <r_lp_Energy>
38.9756

> <b_lp_Chiralities_Consistent>
1

> <s_lp_Variant>
AV-unprocessed.smi:35-2

> <Gold.Version>
5.8.1

> <Gold.Id.Protein>
6NUR|6NUR_protein|mol2

> <Gold.PLP.Fitness>
33.6623

> <Gold.PLP.PLP>
-23.6487

> <Gold.PLP.part.hbond>
-5.3966

> <Gold.PLP.part.metal>
0.0000

> <Gold.PLP.part.buried>
-0.6105

> <Gold.PLP.part.nonpolar>
-18.4485

> <Gold.PLP.part.repulsive>
0.8695

> <Gold.PLP.ligand.clash>
0.0000

> <Gold.PLP.ligand.torsion>
0.3685

> <Gold.PLP.Chemscore.Hbond>
3.5763

> <Gold.PLP.Chemscore.CHOScore>
0.0000

> <Gold.PLP.Chemscore.Metal>
0.0000

> <Gold.Chemscore.Hbonds>
donor molecule, donor type, donor heavy atom, donor atom, acceptor molecule, acceptor atom, score
      L1  H    11    24       P1  7948  1.00
      L1  H    15    28       P1  8028  0.73
      P1  H  6896  6909       L1     1  0.65
      P1  H  7997  8008       L1     5  1.00

> <Gold.PLP.Chemscore.Internal.Correction>
0.0219

> <Gold.Rescore>
     Score         DG    S(hbond)    S(metal)    S(lipo)     H(rot)  DE(clash)    DE(int)     intcor
      9.96     -11.72       3.43        0.00      35.77       3.67       1.41       0.35       ----

> <Gold.Chemscore.Fitness>
9.9616

> <Gold.Chemscore.DG>
-11.7234

> <Gold.Chemscore.ZeroCoef>
-5.4800

> <Gold.Chemscore.Hbond>
3.4292

> <Gold.Chemscore.Metal>
0.0000

> <Gold.Chemscore.Lipo>
35.7707

> <Gold.Chemscore.Internal_Hbond>
0.0000

> <Gold.Chemscore.DEClash>
1.4108

> <Gold.Chemscore.DEInternal>
0.3510

> <Gold.Chemscore.Rot>
3.6701

> <Gold.Chemscore.Internal.Correction>
   9.000000E+99

> <Gold.Chemscore.Hbonds>
donor molecule, donor type, donor heavy atom, donor atom, acceptor molecule, acceptor atom, score
      L1  H    11    24       P1  7948  0.95
      L1  H    15    28       P1  8028  0.71
      P1  H  6896  6909       L1     1  0.65
      P1  H  7997  8008       L1     5  0.98

> <Gold.Chemscore.Hbond.Weighted>
-11.4536

> <Gold.Chemscore.Metal.Weighted>
-0.0000

> <Gold.Chemscore.Lipo.Weighted>
-4.1852

> <Gold.Chemscore.Internal_Hbond.Weighted>
0.0000

> <Gold.Chemscore.DEClash.Weighted>
1.4108

> <Gold.Chemscore.DEInternal.Weighted>
0.3510

> <Gold.Chemscore.Rot.Weighted>
9.3955

> <Gold.Chemscore.Internal.Correction.Weighted>
   9.000000E+99

> <Gold.Protein.RotatedTorsions>
[ 6907 6896 6895 6894 ] final  110.05 input  -60.11 | X-H torsion
[ 7974 7965 7964 7962 ] final -141.89 input  175.53 | X-H torsion
[ 8008 7997 7996 7995 ] final  -18.27 input   59.86 | X-H torsion
[ 10167 10162 10161 10158 ] final  -73.14 input  -65.29 | X-H torsion
[ 10718 10713 10712 10709 ] final  164.43 input   66.30 | X-H torsion
[ 10763 10752 10751 10750 ] final  133.97 input  -60.55 | X-H torsion
[ 11005 11000 10999 10996 ] final  166.32 input  -57.11 | X-H torsion

> <Gold.Protein.ActiveResidues>
 VAL166  LYS551  ARG553  GLY616  TRP617  ASP618  TYR619  PRO620  LYS621  CYS622 
 ASP623  PHE694  ASN695  SER759  ASP760  ASP761  ALA762  ILE779  LEU786  VAL792 
 PHE793  MET794  SER795  GLU796  ALA797  LYS798  CYS799  TRP800  GLU811  SER814 

> <Gold.Protein.RotatedAtoms>
  152.5038  133.8855  159.7367 H   0  0  0  0  0  0  0  0  0  0  0  0  # atno 6907 bound_to 6896
  150.9307  133.6761  159.2818 H   0  0  0  0  0  0  0  0  0  0  0  0  # atno 6908 bound_to 6896
  151.4107  135.0989  159.9637 H   0  0  0  0  0  0  0  0  0  0  0  0  # atno 6909 bound_to 6896
  144.8485  140.6024  143.5406 H   0  0  0  0  0  0  0  0  0  0  0  0  # atno 7974 bound_to 7965
  154.4918  140.2120  155.9531 H   0  0  0  0  0  0  0  0  0  0  0  0  # atno 8008 bound_to 7997
  156.1316  140.3196  155.8326 H   0  0  0  0  0  0  0  0  0  0  0  0  # atno 8009 bound_to 7997
  155.4286  140.0502  157.3011 H   0  0  0  0  0  0  0  0  0  0  0  0  # atno 8010 bound_to 7997
  140.5135  143.2341  151.7553 H   0  0  0  0  0  0  0  0  0  0  0  0  # atno 10167 bound_to 10162
  157.0944  131.0426  151.2524 H   0  0  0  0  0  0  0  0  0  0  0  0  # atno 10718 bound_to 10713
  153.8158  135.3123  155.3405 H   0  0  0  0  0  0  0  0  0  0  0  0  # atno 10763 bound_to 10752
  154.8033  135.4713  154.0332 H   0  0  0  0  0  0  0  0  0  0  0  0  # atno 10764 bound_to 10752
  153.1725  135.6880  153.8678 H   0  0  0  0  0  0  0  0  0  0  0  0  # atno 10765 bound_to 10752
  140.2652  134.7870  157.3626 H   0  0  0  0  0  0  0  0  0  0  0  0  # atno 11005 bound_to 11000
  145.4549  139.1519  143.3898 LP  0  0  0  0  0  0  0  0  0  0  0  0  # atno 17320 bound_to 7965
  146.2764  140.4676  142.8793 LP  0  0  0  0  0  0  0  0  0  0  0  0  # atno 17321 bound_to 7965
  139.4902  144.4357  151.9821 LP  0  0  0  0  0  0  0  0  0  0  0  0  # atno 17342 bound_to 10162
  140.3450  144.3157  150.5960 LP  0  0  0  0  0  0  0  0  0  0  0  0  # atno 17343 bound_to 10162
  157.4694  130.7699  149.7309 LP  0  0  0  0  0  0  0  0  0  0  0  0  # atno 17370 bound_to 10713
  155.9889  130.3955  150.3095 LP  0  0  0  0  0  0  0  0  0  0  0  0  # atno 17371 bound_to 10713
  140.1426  134.4952  155.8020 LP  0  0  0  0  0  0  0  0  0  0  0  0  # atno 17394 bound_to 11000
  141.2185  133.6831  156.7237 LP  0  0  0  0  0  0  0  0  0  0  0  0  # atno 17395 bound_to 11000

$$$$
