AV-unprocessed.smi:2390|AV-procd|sdf|9474|dock7
  -GOLD-   2272013103D 1   1.00000     0.00000
 Structure written by MMmdl.
 45 46  0  0  0  0  0  0  0  0  1 V2000
  153.5313  141.3949  160.6269 C   0  0  0  0  0  0  0  0  0  0  0  0
  152.7423  142.5245  159.9989 C   0  0  0  0  0  0  0  0  0  0  0  0
  152.6716  143.7898  160.6138 C   0  0  0  0  0  0  0  0  0  0  0  0
  151.9237  144.7956  159.9760 C   0  0  0  0  0  0  0  0  0  0  0  0
  151.2822  144.4973  158.7582 C   0  0  0  0  0  0  0  0  0  0  0  0
  151.4037  143.2014  158.2081 C   0  0  0  0  0  0  0  0  0  0  0  0
  150.7190  143.0000  156.9803 N   0  0  0  0  0  0  0  0  0  0  0  0
  150.2895  141.8409  156.4507 C   0  0  0  0  0  0  0  0  0  0  0  0
  150.4336  140.7286  156.9594 O   0  0  0  0  0  0  0  0  0  0  0  0
  149.6755  142.0409  155.2749 N   0  0  0  0  0  0  0  0  0  0  0  0
  149.0984  140.9907  154.4357 C   0  0  1  0  0  0  0  0  0  0  0  0
  150.0609  139.7904  154.4007 C   0  0  0  0  0  0  0  0  0  0  0  0
  147.6502  140.6149  154.8915 C   0  0  2  0  0  0  0  0  0  0  0  0
  147.0376  139.5853  153.9064 C   0  0  0  0  0  0  0  0  0  0  0  0
  146.7684  141.7817  155.1332 N   0  0  0  0  0  0  0  0  0  0  0  0
  145.4973  141.4111  155.7670 C   0  0  0  0  0  0  0  0  0  0  0  0
  144.5618  142.6134  155.9817 C   0  0  0  0  0  0  0  0  0  0  0  0
  144.3205  143.2630  154.7414 O   0  0  0  0  0  0  0  0  0  0  0  0
  145.5231  143.7113  154.1323 C   0  0  0  0  0  0  0  0  0  0  0  0
  146.4619  142.5154  153.9000 C   0  0  0  0  0  0  0  0  0  0  0  0
  152.1277  142.2384  158.8313 N   0  0  0  0  0  0  0  0  0  0  0  0
  153.8799  141.6628  161.6245 H   0  0  0  0  0  0  0  0  0  0  0  0
  154.4007  141.1558  160.0137 H   0  0  0  0  0  0  0  0  0  0  0  0
  152.9143  140.4999  160.7122 H   0  0  0  0  0  0  0  0  0  0  0  0
  153.1759  143.9869  161.5482 H   0  0  0  0  0  0  0  0  0  0  0  0
  151.8429  145.7800  160.4125 H   0  0  0  0  0  0  0  0  0  0  0  0
  150.7046  145.2591  158.2550 H   0  0  0  0  0  0  0  0  0  0  0  0
  150.5338  143.8349  156.4444 H   0  0  0  0  0  0  0  0  0  0  0  0
  149.6028  142.9871  154.9308 H   0  0  0  0  0  0  0  0  0  0  0  0
  149.0763  141.4101  153.4310 H   0  0  0  0  0  0  0  0  0  0  0  0
  149.6836  138.9991  153.7528 H   0  0  0  0  0  0  0  0  0  0  0  0
  150.2159  139.3640  155.3918 H   0  0  0  0  0  0  0  0  0  0  0  0
  151.0374  140.0858  154.0157 H   0  0  0  0  0  0  0  0  0  0  0  0
  147.7540  140.0929  155.8440 H   0  0  0  0  0  0  0  0  0  0  0  0
  147.7304  138.7824  153.6574 H   0  0  0  0  0  0  0  0  0  0  0  0
  146.7338  140.0581  152.9721 H   0  0  0  0  0  0  0  0  0  0  0  0
  146.1634  139.0906  154.3278 H   0  0  0  0  0  0  0  0  0  0  0  0
  144.9880  140.6586  155.1631 H   0  0  0  0  0  0  0  0  0  0  0  0
  145.6685  140.9699  156.7466 H   0  0  0  0  0  0  0  0  0  0  0  0
  143.6113  142.2824  156.4003 H   0  0  0  0  0  0  0  0  0  0  0  0
  144.9960  143.3184  156.6924 H   0  0  0  0  0  0  0  0  0  0  0  0
  145.2832  144.1931  153.1844 H   0  0  0  0  0  0  0  0  0  0  0  0
  146.0020  144.4634  154.7615 H   0  0  0  0  0  0  0  0  0  0  0  0
  147.3731  142.9063  153.4503 H   0  0  0  0  0  0  0  0  0  0  0  0
  146.0126  141.8401  153.1702 H   0  0  0  0  0  0  0  0  0  0  0  0
  1  2  1  0  0  0  0
  1 22  1  0  0  0  0
  1 23  1  0  0  0  0
  1 24  1  0  0  0  0
  2 21  1  0  0  0  0
  2  3  2  0  0  0  0
  3  4  1  0  0  0  0
  3 25  1  0  0  0  0
  4  5  2  0  0  0  0
  4 26  1  0  0  0  0
  5  6  1  0  0  0  0
  5 27  1  0  0  0  0
  6  7  1  0  0  0  0
  6 21  2  0  0  0  0
  7  8  1  0  0  0  0
  7 28  1  0  0  0  0
  8  9  2  0  0  0  0
  8 10  1  0  0  0  0
 10 11  1  0  0  0  0
 10 29  1  0  0  0  0
 11 12  1  0  0  0  0
 11 13  1  0  0  0  0
 11 30  1  0  0  0  0
 12 31  1  0  0  0  0
 12 32  1  0  0  0  0
 12 33  1  0  0  0  0
 13 14  1  0  0  0  0
 13 15  1  0  0  0  0
 13 34  1  0  0  0  0
 14 35  1  0  0  0  0
 14 36  1  0  0  0  0
 14 37  1  0  0  0  0
 15 20  1  0  0  0  0
 15 16  1  0  0  0  0
 16 17  1  0  0  0  0
 16 38  1  0  0  0  0
 16 39  1  0  0  0  0
 17 18  1  0  0  0  0
 17 40  1  0  0  0  0
 17 41  1  0  0  0  0
 18 19  1  0  0  0  0
 19 20  1  0  0  0  0
 19 42  1  0  0  0  0
 19 43  1  0  0  0  0
 20 44  1  0  0  0  0
 20 45  1  0  0  0  0
M  END
> <s_m_source_file>
AV-unprocessed.smi

> <i_m_source_file_index>
2390

> <i_lp_mmshare_version>
43012

> <i_f3d_flags>
0

> <s_epik_input>
W0NIM11jMVtjSF1bY0hdW2NIXWMobjEpW05IXUMoPU8pW05IXVtDQEhdKFtDSDNdKVtDQEhdKFtDSDNdKU4yW0NIMl1bQ0gyXU9bQ0gyXVtDSDJdMg==

> <s_epik_cmdline>
J2VwaWtfcHl0aG9uJywgJy1waCcsICc3LjAnLCAnLXRuJywgJzgnLCAnLW1hJywgJzIwMCcsICctbWV0YWxfYmluZGluZycsICctaW1hZScsICc8aW5maWxlLm1hZT4nLCAnLW9tYWUnLCAnPG91dGZpbGUubWFlPic=

> <r_epik_Ionization_Penalty>
0.266074

> <r_epik_Ionization_Penalty_Charging>
0

> <r_epik_Ionization_Penalty_Neutral>
0.266074

> <r_epik_State_Penalty>
0.257924

> <r_epik_Charging_Adjusted_Penalty>
0.257924

> <i_epik_Tot_Q>
0

> <i_epik_Tot_abs_Q>
0

> <r_epik_Metal_State_Penalty>
0.257919

> <b_epik_Metal_Only>
0

> <s_lp_Force_Field>
OPLS_2005

> <r_lp_Energy>
32.9653

> <b_lp_Chiralities_Consistent>
1

> <s_lp_Variant>
AV-unprocessed.smi:2390-2

> <Gold.Version>
5.8.1

> <Gold.Id.Protein>
6NUR|6NUR_protein|mol2

> <Gold.PLP.Fitness>
47.1288

> <Gold.PLP.PLP>
-43.6866

> <Gold.PLP.part.hbond>
-2.0000

> <Gold.PLP.part.metal>
0.0000

> <Gold.PLP.part.buried>
-7.0677

> <Gold.PLP.part.nonpolar>
-35.7183

> <Gold.PLP.part.repulsive>
0.5449

> <Gold.PLP.ligand.clash>
0.0000

> <Gold.PLP.ligand.torsion>
0.5114

> <Gold.PLP.Chemscore.Hbond>
1.4560

> <Gold.PLP.Chemscore.CHOScore>
0.0000

> <Gold.PLP.Chemscore.Metal>
0.0000

> <Gold.Chemscore.Hbonds>
donor molecule, donor type, donor heavy atom, donor atom, acceptor molecule, acceptor atom, score
      L1  H     7    28       P1  8028  0.74
      L1  H    10    29       P1  8028  0.72

> <Gold.PLP.Chemscore.Internal.Correction>
0.0970

> <Gold.Rescore>
     Score         DG    S(hbond)    S(metal)    S(lipo)     H(rot)  DE(clash)    DE(int)     intcor
     15.75     -18.98       1.83        0.00      94.68       1.44       0.00       3.23       ----

> <Gold.Chemscore.Fitness>
15.7517

> <Gold.Chemscore.DG>
-18.9782

> <Gold.Chemscore.ZeroCoef>
-5.4800

> <Gold.Chemscore.Hbond>
1.8281

> <Gold.Chemscore.Metal>
0.0000

> <Gold.Chemscore.Lipo>
94.6829

> <Gold.Chemscore.Internal_Hbond>
0.0000

> <Gold.Chemscore.DEClash>
0.0009

> <Gold.Chemscore.DEInternal>
3.2256

> <Gold.Chemscore.Rot>
1.4396

> <Gold.Chemscore.Internal.Correction>
   9.000000E+99

> <Gold.Chemscore.Hbonds>
donor molecule, donor type, donor heavy atom, donor atom, acceptor molecule, acceptor atom, score
      L1  H     7    28       P1  8028  0.70
      L1  H    10    29       P1  8028  0.69

> <Gold.Chemscore.Hbond.Weighted>
-6.1058

> <Gold.Chemscore.Metal.Weighted>
-0.0000

> <Gold.Chemscore.Lipo.Weighted>
-11.0779

> <Gold.Chemscore.Internal_Hbond.Weighted>
0.0000

> <Gold.Chemscore.DEClash.Weighted>
0.0009

> <Gold.Chemscore.DEInternal.Weighted>
3.2256

> <Gold.Chemscore.Rot.Weighted>
3.6855

> <Gold.Chemscore.Internal.Correction.Weighted>
   9.000000E+99

> <Gold.Protein.RotatedTorsions>
[ 6907 6896 6895 6894 ] final -100.87 input  -60.11 | X-H torsion
[ 7974 7965 7964 7962 ] final  123.64 input  175.53 | X-H torsion
[ 8008 7997 7996 7995 ] final  121.36 input   59.86 | X-H torsion
[ 10167 10162 10161 10158 ] final    4.75 input  -65.29 | X-H torsion
[ 10718 10713 10712 10709 ] final -132.58 input   66.30 | X-H torsion
[ 10763 10752 10751 10750 ] final  -87.65 input  -60.55 | X-H torsion
[ 11005 11000 10999 10996 ] final  -10.57 input  -57.11 | X-H torsion

> <Gold.Protein.ActiveResidues>
 VAL166  LYS551  ARG553  GLY616  TRP617  ASP618  TYR619  PRO620  LYS621  CYS622 
 ASP623  PHE694  ASN695  SER759  ASP760  ASP761  ALA762  ILE779  LEU786  VAL792 
 PHE793  MET794  SER795  GLU796  ALA797  LYS798  CYS799  TRP800  GLU811  SER814 

> <Gold.Protein.RotatedAtoms>
  150.7132  134.0822  159.3901 H   0  0  0  0  0  0  0  0  0  0  0  0  # atno 6907 bound_to 6896
  151.8806  135.0453  160.0497 H   0  0  0  0  0  0  0  0  0  0  0  0  # atno 6908 bound_to 6896
  152.2571  133.5229  159.5396 H   0  0  0  0  0  0  0  0  0  0  0  0  # atno 6909 bound_to 6896
  145.0935  139.3569  143.4848 H   0  0  0  0  0  0  0  0  0  0  0  0  # atno 7974 bound_to 7965
  156.2683  140.2810  156.1296 H   0  0  0  0  0  0  0  0  0  0  0  0  # atno 8008 bound_to 7997
  155.1069  140.0390  157.2730 H   0  0  0  0  0  0  0  0  0  0  0  0  # atno 8009 bound_to 7997
  154.6772  140.2601  155.6951 H   0  0  0  0  0  0  0  0  0  0  0  0  # atno 8010 bound_to 7997
  140.6518  143.7525  150.7588 H   0  0  0  0  0  0  0  0  0  0  0  0  # atno 10167 bound_to 10162
  156.2360  130.7067  151.0908 H   0  0  0  0  0  0  0  0  0  0  0  0  # atno 10718 bound_to 10713
  154.6359  135.5405  153.7734 H   0  0  0  0  0  0  0  0  0  0  0  0  # atno 10763 bound_to 10752
  153.0308  135.6447  154.1231 H   0  0  0  0  0  0  0  0  0  0  0  0  # atno 10764 bound_to 10752
  154.1159  135.2923  155.3200 H   0  0  0  0  0  0  0  0  0  0  0  0  # atno 10765 bound_to 10752
  140.7461  133.8630  155.9007 H   0  0  0  0  0  0  0  0  0  0  0  0  # atno 11005 bound_to 11000
  146.3531  140.0780  142.8619 LP  0  0  0  0  0  0  0  0  0  0  0  0  # atno 17320 bound_to 7965
  145.1038  140.9362  143.4697 LP  0  0  0  0  0  0  0  0  0  0  0  0  # atno 17321 bound_to 7965
  140.1177  143.4641  152.2332 LP  0  0  0  0  0  0  0  0  0  0  0  0  # atno 17342 bound_to 10162
  139.5735  144.7475  151.3828 LP  0  0  0  0  0  0  0  0  0  0  0  0  # atno 17343 bound_to 10162
  157.7154  131.0712  150.6345 LP  0  0  0  0  0  0  0  0  0  0  0  0  # atno 17370 bound_to 10713
  156.6415  130.4460  149.5750 LP  0  0  0  0  0  0  0  0  0  0  0  0  # atno 17371 bound_to 10713
  140.9793  134.1427  157.4509 LP  0  0  0  0  0  0  0  0  0  0  0  0  # atno 17394 bound_to 11000
  139.8796  135.0005  156.6014 LP  0  0  0  0  0  0  0  0  0  0  0  0  # atno 17395 bound_to 11000

$$$$
