AV-unprocessed.smi:1471|AV-procd|sdf|5962|dock7
  -GOLD-   22720 6 53D 1   1.00000     0.00000
 Structure written by MMmdl.
 42 43  0  0  0  0  0  0  0  0  1 V2000
  158.0395  138.0839  156.5035 C   0  0  0  0  0  0  0  0  0  0  0  0
  157.0663  137.2431  157.2842 C   0  0  0  0  0  0  0  0  0  0  0  0
  156.1407  137.8739  157.9286 N   0  0  0  0  0  0  0  0  0  0  0  0
  155.1731  137.2001  158.6510 N   0  0  0  0  0  0  0  0  0  0  0  0
  154.1727  138.0779  159.2846 C   0  0  0  0  0  0  0  0  0  0  0  0
  153.1405  138.6665  158.2931 C   0  0  2  0  0  0  0  0  0  0  0  0
  153.8042  139.2165  157.1742 O   0  0  0  0  0  0  0  0  0  0  0  0
  152.1922  139.7264  158.8824 C   0  0  0  0  0  0  0  0  0  0  0  0
  152.7272  141.0306  158.7047 O   0  0  0  0  0  0  0  0  0  0  0  0
  153.1037  141.6631  159.9201 C   0  0  0  0  0  0  0  0  0  0  0  0
  152.4511  143.0242  160.1038 C   0  0  0  0  0  0  0  0  0  0  0  0
  152.4821  143.9727  159.0589 C   0  0  0  0  0  0  0  0  0  0  0  0
  151.8715  145.2310  159.2228 C   0  0  0  0  0  0  0  0  0  0  0  0
  151.2387  145.5535  160.4381 C   0  0  0  0  0  0  0  0  0  0  0  0
  151.2153  144.6156  161.4876 C   0  0  0  0  0  0  0  0  0  0  0  0
  151.8129  143.3511  161.3204 C   0  0  0  0  0  0  0  0  0  0  0  0
  151.7656  142.4516  162.3322 F   0  0  0  0  0  0  0  0  0  0  0  0
  155.1298  135.8441  158.8028 C   0  0  0  0  0  0  0  0  0  0  0  0
  154.2719  135.2724  159.4766 O   0  0  0  0  0  0  0  0  0  0  0  0
  156.1944  135.1372  158.0872 C   0  0  0  0  0  0  0  0  0  0  0  0
  156.1823  133.7159  158.2186 C   0  0  0  0  0  0  0  0  0  0  0  0
  156.1541  132.5622  158.3113 N   0  0  0  0  0  0  0  0  0  0  0  0
  157.1238  135.7875  157.3442 C   0  0  0  0  0  0  0  0  0  0  0  0
  158.2362  135.0975  156.5671 C   0  0  0  0  0  0  0  0  0  0  0  0
  159.0490  137.9758  156.9004 H   0  0  0  0  0  0  0  0  0  0  0  0
  157.7820  139.1437  156.5400 H   0  0  0  0  0  0  0  0  0  0  0  0
  158.0533  137.7869  155.4548 H   0  0  0  0  0  0  0  0  0  0  0  0
  153.6251  137.5599  160.0731 H   0  0  0  0  0  0  0  0  0  0  0  0
  154.7004  138.8905  159.7859 H   0  0  0  0  0  0  0  0  0  0  0  0
  152.5272  137.8542  157.9018 H   0  0  0  0  0  0  0  0  0  0  0  0
  153.1523  139.5400  156.5711 H   0  0  0  0  0  0  0  0  0  0  0  0
  151.2004  139.6541  158.4326 H   0  0  0  0  0  0  0  0  0  0  0  0
  152.0661  139.5240  159.9455 H   0  0  0  0  0  0  0  0  0  0  0  0
  152.7946  141.0170  160.7419 H   0  0  0  0  0  0  0  0  0  0  0  0
  154.1892  141.7452  159.9980 H   0  0  0  0  0  0  0  0  0  0  0  0
  152.9688  143.7341  158.1247 H   0  0  0  0  0  0  0  0  0  0  0  0
  151.8912  145.9504  158.4175 H   0  0  0  0  0  0  0  0  0  0  0  0
  150.7715  146.5189  160.5656 H   0  0  0  0  0  0  0  0  0  0  0  0
  150.7282  144.8620  162.4196 H   0  0  0  0  0  0  0  0  0  0  0  0
  158.2231  134.0161  156.6991 H   0  0  0  0  0  0  0  0  0  0  0  0
  159.2130  135.4554  156.8942 H   0  0  0  0  0  0  0  0  0  0  0  0
  158.1348  135.2976  155.4999 H   0  0  0  0  0  0  0  0  0  0  0  0
  1  2  1  0  0  0  0
  1 25  1  0  0  0  0
  1 26  1  0  0  0  0
  1 27  1  0  0  0  0
  2 23  1  0  0  0  0
  2  3  2  0  0  0  0
  3  4  1  0  0  0  0
  4  5  1  0  0  0  0
  4 18  1  0  0  0  0
  5  6  1  0  0  0  0
  5 28  1  0  0  0  0
  5 29  1  0  0  0  0
  6  7  1  0  0  0  0
  6  8  1  0  0  0  0
  6 30  1  0  0  0  0
  7 31  1  0  0  0  0
  8  9  1  0  0  0  0
  8 32  1  0  0  0  0
  8 33  1  0  0  0  0
  9 10  1  0  0  0  0
 10 11  1  0  0  0  0
 10 34  1  0  0  0  0
 10 35  1  0  0  0  0
 11 16  1  0  0  0  0
 11 12  2  0  0  0  0
 12 13  1  0  0  0  0
 12 36  1  0  0  0  0
 13 14  2  0  0  0  0
 13 37  1  0  0  0  0
 14 15  1  0  0  0  0
 14 38  1  0  0  0  0
 15 16  2  0  0  0  0
 15 39  1  0  0  0  0
 16 17  1  0  0  0  0
 18 19  2  0  0  0  0
 18 20  1  0  0  0  0
 20 21  1  0  0  0  0
 20 23  2  0  0  0  0
 21 22  3  0  0  0  0
 23 24  1  0  0  0  0
 24 40  1  0  0  0  0
 24 41  1  0  0  0  0
 24 42  1  0  0  0  0
M  END
> <s_m_source_file>
AV-unprocessed.smi

> <i_m_source_file_index>
1471

> <i_lp_mmshare_version>
43012

> <i_f3d_flags>
0

> <s_epik_input>
TiNDYyhjMVtDSDNdKWMoPU8pbihuYzFbQ0gzXSlbQ0gyXVtDQEhdKFtPSF0pW0NIMl1PW0NIMl1jMltjSF1bY0hdW2NIXVtjSF1jMkY=

> <s_epik_cmdline>
J2VwaWtfcHl0aG9uJywgJy1waCcsICc3LjAnLCAnLXRuJywgJzgnLCAnLW1hJywgJzIwMCcsICctbWV0YWxfYmluZGluZycsICctaW1hZScsICc8aW5maWxlLm1hZT4nLCAnLW9tYWUnLCAnPG91dGZpbGUubWFlPic=

> <r_lp_tautomer_probability>
1

> <r_epik_Ionization_Penalty>
6.13319e-08

> <r_epik_Ionization_Penalty_Charging>
2.19172e-10

> <r_epik_Ionization_Penalty_Neutral>
6.11128e-08

> <r_epik_State_Penalty>
-0

> <r_epik_Charging_Adjusted_Penalty>
2.19172e-10

> <i_epik_Tot_Q>
0

> <i_epik_Tot_abs_Q>
0

> <r_epik_Metal_State_Penalty>
-0

> <b_epik_Metal_Only>
0

> <s_lp_Force_Field>
OPLS_2005

> <r_lp_Energy>
27.5477

> <b_lp_Chiralities_Consistent>
1

> <s_lp_Variant>
AV-unprocessed.smi:1471-1

> <Gold.Version>
5.8.1

> <Gold.Id.Protein>
6NUR|6NUR_protein|mol2

> <Gold.PLP.Fitness>
48.3690

> <Gold.PLP.PLP>
-45.1462

> <Gold.PLP.part.hbond>
-3.0973

> <Gold.PLP.part.metal>
0.0000

> <Gold.PLP.part.buried>
-4.7740

> <Gold.PLP.part.nonpolar>
-38.1870

> <Gold.PLP.part.repulsive>
0.0264

> <Gold.PLP.ligand.clash>
0.0000

> <Gold.PLP.ligand.torsion>
1.4316

> <Gold.PLP.Chemscore.Hbond>
2.0000

> <Gold.PLP.Chemscore.CHOScore>
0.0000

> <Gold.PLP.Chemscore.Metal>
0.0000

> <Gold.Chemscore.Hbonds>
donor molecule, donor type, donor heavy atom, donor atom, acceptor molecule, acceptor atom, score
      P1  H  6896  6907       L1    19  1.00

> <Gold.PLP.Chemscore.Internal.Correction>
0.0861

> <Gold.Rescore>
     Score         DG    S(hbond)    S(metal)    S(lipo)     H(rot)  DE(clash)    DE(int)     intcor
     16.99     -18.46       1.71        0.00     120.05       2.65       0.17       1.31       ----

> <Gold.Chemscore.Fitness>
16.9883

> <Gold.Chemscore.DG>
-18.4641

> <Gold.Chemscore.ZeroCoef>
-5.4800

> <Gold.Chemscore.Hbond>
1.7109

> <Gold.Chemscore.Metal>
0.0000

> <Gold.Chemscore.Lipo>
120.0500

> <Gold.Chemscore.Internal_Hbond>
0.0000

> <Gold.Chemscore.DEClash>
0.1679

> <Gold.Chemscore.DEInternal>
1.3079

> <Gold.Chemscore.Rot>
2.6470

> <Gold.Chemscore.Internal.Correction>
   9.000000E+99

> <Gold.Chemscore.Hbonds>
donor molecule, donor type, donor heavy atom, donor atom, acceptor molecule, acceptor atom, score
      P1  H  6896  6907       L1    19  0.99
      P1  H  7997  8009       L1     3  0.01

> <Gold.Chemscore.Hbond.Weighted>
-5.7145

> <Gold.Chemscore.Metal.Weighted>
-0.0000

> <Gold.Chemscore.Lipo.Weighted>
-14.0459

> <Gold.Chemscore.Internal_Hbond.Weighted>
0.0000

> <Gold.Chemscore.DEClash.Weighted>
0.1679

> <Gold.Chemscore.DEInternal.Weighted>
1.3079

> <Gold.Chemscore.Rot.Weighted>
6.7762

> <Gold.Chemscore.Internal.Correction.Weighted>
   9.000000E+99

> <Gold.Protein.RotatedTorsions>
[ 6907 6896 6895 6894 ] final   71.14 input  -60.11 | X-H torsion
[ 7974 7965 7964 7962 ] final   22.34 input  175.53 | X-H torsion
[ 8008 7997 7996 7995 ] final   47.74 input   59.86 | X-H torsion
[ 10167 10162 10161 10158 ] final   32.61 input  -65.29 | X-H torsion
[ 10718 10713 10712 10709 ] final  -73.01 input   66.30 | X-H torsion
[ 10763 10752 10751 10750 ] final  -30.13 input  -60.55 | X-H torsion
[ 11005 11000 10999 10996 ] final  -70.34 input  -57.11 | X-H torsion

> <Gold.Protein.ActiveResidues>
 VAL166  LYS551  ARG553  GLY616  TRP617  ASP618  TYR619  PRO620  LYS621  CYS622 
 ASP623  PHE694  ASN695  SER759  ASP760  ASP761  ALA762  ILE779  LEU786  VAL792 
 PHE793  MET794  SER795  GLU796  ALA797  LYS798  CYS799  TRP800  GLU811  SER814 

> <Gold.Protein.RotatedAtoms>
  152.4792  134.4764  159.9651 H   0  0  0  0  0  0  0  0  0  0  0  0  # atno 6907 bound_to 6896
  151.4774  133.3548  159.2840 H   0  0  0  0  0  0  0  0  0  0  0  0  # atno 6908 bound_to 6896
  150.8852  134.8275  159.7315 H   0  0  0  0  0  0  0  0  0  0  0  0  # atno 6909 bound_to 6896
  146.2033  139.7898  142.8745 H   0  0  0  0  0  0  0  0  0  0  0  0  # atno 7974 bound_to 7965
  155.3741  140.3425  155.4244 H   0  0  0  0  0  0  0  0  0  0  0  0  # atno 8008 bound_to 7997
  156.1646  140.1612  156.8587 H   0  0  0  0  0  0  0  0  0  0  0  0  # atno 8009 bound_to 7997
  154.5173  140.0775  156.8087 H   0  0  0  0  0  0  0  0  0  0  0  0  # atno 8010 bound_to 7997
  140.4483  144.1086  150.6186 H   0  0  0  0  0  0  0  0  0  0  0  0  # atno 10167 bound_to 10162
  156.0297  130.4384  150.2678 H   0  0  0  0  0  0  0  0  0  0  0  0  # atno 10718 bound_to 10713
  153.7759  135.6909  153.4897 H   0  0  0  0  0  0  0  0  0  0  0  0  # atno 10763 bound_to 10752
  153.1843  135.4494  155.0067 H   0  0  0  0  0  0  0  0  0  0  0  0  # atno 10764 bound_to 10752
  154.8100  135.3373  154.7265 H   0  0  0  0  0  0  0  0  0  0  0  0  # atno 10765 bound_to 10752
  141.1572  133.6787  156.6738 H   0  0  0  0  0  0  0  0  0  0  0  0  # atno 11005 bound_to 11000
  145.3409  141.0287  143.3393 LP  0  0  0  0  0  0  0  0  0  0  0  0  # atno 17320 bound_to 7965
  144.8732  139.5008  143.6758 LP  0  0  0  0  0  0  0  0  0  0  0  0  # atno 17321 bound_to 7965
  140.4237  143.2599  151.9683 LP  0  0  0  0  0  0  0  0  0  0  0  0  # atno 17342 bound_to 10162
  139.4794  144.5807  151.7937 LP  0  0  0  0  0  0  0  0  0  0  0  0  # atno 17343 bound_to 10162
  157.0780  131.0135  151.3166 LP  0  0  0  0  0  0  0  0  0  0  0  0  # atno 17370 bound_to 10713
  157.4949  130.7844  149.7545 LP  0  0  0  0  0  0  0  0  0  0  0  0  # atno 17371 bound_to 10713
  140.3155  134.8051  157.4210 LP  0  0  0  0  0  0  0  0  0  0  0  0  # atno 17394 bound_to 11000
  140.1142  134.5305  155.8239 LP  0  0  0  0  0  0  0  0  0  0  0  0  # atno 17395 bound_to 11000

$$$$
