#       Name:                AV-unprocessed.smi:1705
#       Creating user name   scv26
#       Creation time:       Fri Mar 27 08:09:00 2020


#       File generated by GOLD software.
#

@<TRIPOS>MOLECULE
AV-unprocessed.smi:1705
    45    46     1
SMALL
NO_CHARGES


@<TRIPOS>ATOM
      1 ****        -2.6245  -0.4872   0.2620 C.3            1 S1                 0.0000
      2 ****        -1.4844  -1.0244   1.1397 C.3            1 S1                 0.0000
      3 ****        -0.3932  -0.0605   1.1809 N.pl3          1 S1                 0.0000
      4 ****         0.9429  -0.2728   0.8514 C.2            1 S1                 0.0000
      5 ****         1.8767   0.7173   0.9366 C.2            1 S1                 0.0000
      6 ****         1.5975   2.0363   1.4109 C.1            1 S1                 0.0000
      7 ****         1.4051   3.1120   1.7943 N.1            1 S1                 0.0000
      8 ****         3.2766   0.4951   0.5800 C.2            1 S1                 0.0000
      9 ****         4.1455   1.3689   0.6330 O.2            1 S1                 0.0000
     10 ****         3.5787  -0.8134   0.1531 N.am           1 S1                 0.0000
     11 ****         4.9561  -1.0689  -0.2210 C.3            1 S1                 0.0000
     12 ****         2.6329  -1.8539   0.0493 C.2            1 S1                 0.0000
     13 ****         2.9457  -2.9767  -0.3587 O.2            1 S1                 0.0000
     14 ****         1.3005  -1.5572   0.4283 N.am           1 S1                 0.0000
     15 ****         0.3816  -2.6722   0.3094 C.3            1 S1                 0.0000
     16 ****        -1.9665  -1.3414   2.5673 C.3            1 S1                 0.0000
     17 ****        -0.9034  -1.9743   3.4670 C.3            1 S1                 0.0000
     18 ****        -1.7165  -2.7390   4.4990 C.3            1 S1                 0.0000
     19 ****        -3.1126  -2.8330   3.8775 C.3            1 S1                 0.0000
     20 ****        -2.9642  -2.3504   2.5495 O.3            1 S1                 0.0000
     21 ****        -3.4276  -1.2185   0.1682 H              1 S1                 0.0000
     22 ****        -2.2759  -0.2538  -0.7440 H              1 S1                 0.0000
     23 ****        -3.0518   0.4238   0.6822 H              1 S1                 0.0000
     24 ****        -1.1227  -1.9559   0.7064 H              1 S1                 0.0000
     25 ****        -0.5372   0.6453   1.8888 H              1 S1                 0.0000
     26 ****         5.1380  -2.1328  -0.3696 H              1 S1                 0.0000
     27 ****         5.5933  -0.7160   0.5924 H              1 S1                 0.0000
     28 ****         5.1440  -0.5157  -1.1425 H              1 S1                 0.0000
     29 ****         0.3110  -2.9224  -0.7506 H              1 S1                 0.0000
     30 ****        -0.5994  -2.4080   0.6975 H              1 S1                 0.0000
     31 ****         0.7845  -3.5004   0.8956 H              1 S1                 0.0000
     32 ****        -2.3748  -0.4476   3.0436 H              1 S1                 0.0000
     33 ****        -0.2911  -2.6721   2.8939 H              1 S1                 0.0000
     34 ****        -0.2378  -1.2370   3.9164 H              1 S1                 0.0000
     35 ****        -1.2865  -3.7238   4.6844 H              1 S1                 0.0000
     36 ****        -1.7563  -2.2050   5.4489 H              1 S1                 0.0000
     37 ****        -3.5050  -3.8502   3.8813 H              1 S1                 0.0000
     38 ****        -3.8151  -2.1950   4.4155 H              1 S1                 0.0000
     39 ****         1.2390   4.0408   2.1254 LP             1 S1                 0.0000
     40 ****         3.9081   2.2925   0.9337 LP             1 S1                 0.0000
     41 ****         5.0874   1.1536   0.3752 LP             1 S1                 0.0000
     42 ****         3.8906  -3.1664  -0.6256 LP             1 S1                 0.0000
     43 ****         2.2542  -3.6963  -0.4222 LP             1 S1                 0.0000
     44 ****        -2.6838  -3.0962   1.9452 LP             1 S1                 0.0000
     45 ****        -3.8301  -1.9678   2.2272 LP             1 S1                 0.0000
@<TRIPOS>BOND
    1    1    2 1     
    2    1   21 1     
    3    1   22 1     
    4    1   23 1     
    5    2    3 1     
    6    2   16 1     
    7    2   24 1     
    8    3    4 1     
    9    3   25 1     
   10    4   14 1     
   11    4    5 2     
   12    5    6 1     
   13    5    8 1     
   14    6    7 3     
   15    8    9 2     
   16    8   10 am    
   17   10   11 1     
   18   10   12 am    
   19   11   26 1     
   20   11   27 1     
   21   11   28 1     
   22   12   13 2     
   23   12   14 am    
   24   14   15 1     
   25   15   29 1     
   26   15   30 1     
   27   15   31 1     
   28   16   20 1     
   29   16   17 1     
   30   16   32 1     
   31   17   18 1     
   32   17   33 1     
   33   17   34 1     
   34   18   19 1     
   35   18   35 1     
   36   18   36 1     
   37   19   20 1     
   38   19   37 1     
   39   19   38 1     
   40    7   39 1     
   41    9   40 1     
   42    9   41 1     
   43   13   42 1     
   44   13   43 1     
   45   20   44 1     
   46   20   45 1     
@<TRIPOS>SUBSTRUCTURE
      1 S1             1
@<TRIPOS>SET
LONE_PAIRS      STATIC     ATOMS    <user>   **** ""
7 39 40 41 42 43 44 45
DONOR_HYDROGENS      STATIC     ATOMS    <user>   **** ""
1 25
ATOM$BLUE        STATIC     ATOMS    COLORGROUP SYSTEM
7 39 40 41 42 43 44 45
ATOM$RED        STATIC     ATOMS    COLORGROUP SYSTEM
1 25
