AV-unprocessed.smi:445|AV-procd|sdf|2589|dock1
  -GOLD-   2262022583D 1   1.00000     0.00000
 Structure written by MMmdl.
 44 45  0  0  0  0  0  0  0  0  3 V2000
  151.1960  145.2547  158.8847 C   0  0  0  0  0  0  0  0  0  0  0  0
  151.5007  144.0659  159.8143 C   0  0  2  0  0  0  0  0  0  0  0  0
  152.2009  144.5510  161.1001 C   0  0  0  0  0  0  0  0  0  0  0  0
  152.5112  143.3897  162.0562 C   0  0  0  0  0  0  0  0  0  0  0  0
  153.3569  142.3148  161.3605 C   0  0  0  0  0  0  0  0  0  0  0  0
  152.6653  141.8101  160.0860 C   0  0  0  0  0  0  0  0  0  0  0  0
  152.3403  142.9665  159.1166 C   0  0  1  0  0  0  0  0  0  0  0  0
  151.6299  142.4477  157.9498 N   0  0  0  0  0  0  0  0  0  0  0  0
  150.3132  142.1985  157.8875 C   0  0  0  0  0  0  0  0  0  0  0  0
  149.5410  142.4061  158.8244 O   0  0  0  0  0  0  0  0  0  0  0  0
  149.7961  141.6516  156.5496 C   0  0  0  0  0  0  0  0  0  0  0  0
  149.7116  140.1800  156.5195 N   0  0  0  0  0  0  0  0  0  0  0  0
  148.9174  139.5771  157.5109 C   0  0  0  0  0  0  0  0  0  0  0  0
  148.7649  138.2440  157.5953 C   0  0  0  0  0  0  0  0  0  0  0  0
  147.9472  137.6471  158.6296 N   0  3  0  0  0  0  0  0  0  0  0  0
  147.0775  138.3299  159.1612 O   0  0  0  0  0  0  0  0  0  0  0  0
  148.1460  136.4779  158.9460 O   0  5  0  0  0  0  0  0  0  0  0  0
  149.4491  137.4215  156.6191 C   0  0  0  0  0  0  0  0  0  0  0  0
  150.2257  137.9810  155.6563 C   0  0  0  0  0  0  0  0  0  0  0  0
  150.9425  137.1792  154.6390 C   0  0  0  0  0  0  0  0  0  0  0  0
  151.2043  137.8372  153.5024 N   0  0  0  0  0  0  0  0  0  0  0  0
  151.3055  136.0074  154.7414 O   0  0  0  0  0  0  0  0  0  0  0  0
  150.3943  139.4578  155.5765 C   0  0  0  0  0  0  0  0  0  0  0  0
  151.0882  140.0436  154.7408 O   0  0  0  0  0  0  0  0  0  0  0  0
  152.1144  145.7207  158.5260 H   0  0  0  0  0  0  0  0  0  0  0  0
  150.6170  146.0190  159.4036 H   0  0  0  0  0  0  0  0  0  0  0  0
  150.6167  144.9487  158.0134 H   0  0  0  0  0  0  0  0  0  0  0  0
  150.5452  143.6271  160.1067 H   0  0  0  0  0  0  0  0  0  0  0  0
  153.1283  145.0648  160.8427 H   0  0  0  0  0  0  0  0  0  0  0  0
  151.5757  145.2838  161.6115 H   0  0  0  0  0  0  0  0  0  0  0  0
  153.0354  143.7628  162.9366 H   0  0  0  0  0  0  0  0  0  0  0  0
  151.5794  142.9493  162.4136 H   0  0  0  0  0  0  0  0  0  0  0  0
  154.3359  142.7242  161.1085 H   0  0  0  0  0  0  0  0  0  0  0  0
  153.5348  141.4823  162.0418 H   0  0  0  0  0  0  0  0  0  0  0  0
  153.3041  141.0749  159.5950 H   0  0  0  0  0  0  0  0  0  0  0  0
  151.7471  141.2869  160.3575 H   0  0  0  0  0  0  0  0  0  0  0  0
  153.2787  143.4184  158.7886 H   0  0  0  0  0  0  0  0  0  0  0  0
  152.1869  142.2521  157.1306 H   0  0  0  0  0  0  0  0  0  0  0  0
  148.8188  142.0970  156.3585 H   0  0  0  0  0  0  0  0  0  0  0  0
  150.4311  142.0120  155.7377 H   0  0  0  0  0  0  0  0  0  0  0  0
  148.4534  140.2709  158.1971 H   0  0  0  0  0  0  0  0  0  0  0  0
  149.3217  136.3514  156.6818 H   0  0  0  0  0  0  0  0  0  0  0  0
  151.6908  137.3740  152.7488 H   0  0  0  0  0  0  0  0  0  0  0  0
  150.9130  138.7992  153.4043 H   0  0  0  0  0  0  0  0  0  0  0  0
  1  2  1  0  0  0  0
  1 25  1  0  0  0  0
  1 26  1  0  0  0  0
  1 27  1  0  0  0  0
  2  7  1  0  0  0  0
  2  3  1  0  0  0  0
  2 28  1  0  0  0  0
  3  4  1  0  0  0  0
  3 29  1  0  0  0  0
  3 30  1  0  0  0  0
  4  5  1  0  0  0  0
  4 31  1  0  0  0  0
  4 32  1  0  0  0  0
  5  6  1  0  0  0  0
  5 33  1  0  0  0  0
  5 34  1  0  0  0  0
  6  7  1  0  0  0  0
  6 35  1  0  0  0  0
  6 36  1  0  0  0  0
  7  8  1  0  0  0  0
  7 37  1  0  0  0  0
  8  9  1  0  0  0  0
  8 38  1  0  0  0  0
  9 10  2  0  0  0  0
  9 11  1  0  0  0  0
 11 12  1  0  0  0  0
 11 39  1  0  0  0  0
 11 40  1  0  0  0  0
 12 23  1  0  0  0  0
 12 13  1  0  0  0  0
 13 14  2  0  0  0  0
 13 41  1  0  0  0  0
 14 15  1  0  0  0  0
 14 18  1  0  0  0  0
 15 16  2  0  0  0  0
 15 17  1  0  0  0  0
 18 19  2  0  0  0  0
 18 42  1  0  0  0  0
 19 20  1  0  0  0  0
 19 23  1  0  0  0  0
 20 21  1  0  0  0  0
 20 22  2  0  0  0  0
 21 43  1  0  0  0  0
 21 44  1  0  0  0  0
 23 24  2  0  0  0  0
M  CHG  1  15   1
M  CHG  1  17  -1
M  END
> <s_m_source_file>
AV-unprocessed.smi

> <i_m_source_file_index>
445

> <i_lp_mmshare_version>
43012

> <i_f3d_flags>
0

> <s_epik_input>
W0NIM11bQ0BASF0xW0NIMl1bQ0gyXVtDSDJdW0NIMl1bQ0BIXTFbTkhdQyg9TylbQ0gyXW4yW2NIXWMoW04rXSg9TylbTy1dKVtjSF1jKGMyPU8pQyg9TylbTkgyXQ==

> <s_epik_cmdline>
J2VwaWtfcHl0aG9uJywgJy1waCcsICc3LjAnLCAnLXRuJywgJzgnLCAnLW1hJywgJzIwMCcsICctbWV0YWxfYmluZGluZycsICctaW1hZScsICc8aW5maWxlLm1hZT4nLCAnLW9tYWUnLCAnPG91dGZpbGUubWFlPic=

> <r_lp_tautomer_probability>
1

> <r_epik_Ionization_Penalty>
2.81321e-06

> <r_epik_Ionization_Penalty_Charging>
2.43777e-12

> <r_epik_Ionization_Penalty_Neutral>
2.81321e-06

> <r_epik_State_Penalty>
-0

> <r_epik_Charging_Adjusted_Penalty>
2.43777e-12

> <i_epik_Tot_Q>
0

> <i_epik_Tot_abs_Q>
2

> <r_epik_Metal_State_Penalty>
-0

> <b_epik_Metal_Only>
0

> <s_lp_Force_Field>
OPLS_2005

> <r_lp_Energy>
28.5082

> <b_lp_Chiralities_Consistent>
1

> <s_lp_Variant>
AV-unprocessed.smi:445-1

> <Gold.Version>
5.8.1

> <Gold.Id.Protein>
6NUR|6NUR_protein|mol2

> <Gold.PLP.Fitness>
48.4522

> <Gold.PLP.PLP>
-41.4025

> <Gold.PLP.part.hbond>
-5.4808

> <Gold.PLP.part.metal>
0.0000

> <Gold.PLP.part.buried>
-5.4613

> <Gold.PLP.part.nonpolar>
-31.9791

> <Gold.PLP.part.repulsive>
0.5018

> <Gold.PLP.ligand.clash>
0.0000

> <Gold.PLP.ligand.torsion>
1.1500

> <Gold.PLP.Chemscore.Hbond>
3.1040

> <Gold.PLP.Chemscore.CHOScore>
0.0000

> <Gold.PLP.Chemscore.Metal>
0.0000

> <Gold.Chemscore.Hbonds>
donor molecule, donor type, donor heavy atom, donor atom, acceptor molecule, acceptor atom, score
      L1  H    21    43       P1  7949  0.67
      P1  H  6934  6947       L1    16  0.42
      P1  H  7989  7998       L1    24  1.00
      P1  H 10752 10765       L1    22  1.00

> <Gold.PLP.Chemscore.Internal.Correction>
0.0377

> <Gold.Rescore>
     Score         DG    S(hbond)    S(metal)    S(lipo)     H(rot)  DE(clash)    DE(int)     intcor
     18.61     -22.92       3.23        0.00      94.23       1.71       0.13       4.19       ----

> <Gold.Chemscore.Fitness>
18.6086

> <Gold.Chemscore.DG>
-22.9243

> <Gold.Chemscore.ZeroCoef>
-5.4800

> <Gold.Chemscore.Hbond>
3.2343

> <Gold.Chemscore.Metal>
0.0000

> <Gold.Chemscore.Lipo>
94.2337

> <Gold.Chemscore.Internal_Hbond>
0.0000

> <Gold.Chemscore.DEClash>
0.1265

> <Gold.Chemscore.DEInternal>
4.1892

> <Gold.Chemscore.Rot>
1.7123

> <Gold.Chemscore.Internal.Correction>
   9.000000E+99

> <Gold.Chemscore.Hbonds>
donor molecule, donor type, donor heavy atom, donor atom, acceptor molecule, acceptor atom, score
      L1  H    21    43       P1  7949  0.66
      P1  H  6934  6947       L1    16  0.42
      P1  H  7989  7998       L1    24  0.98
      P1  H 10752 10765       L1    22  0.97

> <Gold.Chemscore.Hbond.Weighted>
-10.8024

> <Gold.Chemscore.Metal.Weighted>
-0.0000

> <Gold.Chemscore.Lipo.Weighted>
-11.0253

> <Gold.Chemscore.Internal_Hbond.Weighted>
0.0000

> <Gold.Chemscore.DEClash.Weighted>
0.1265

> <Gold.Chemscore.DEInternal.Weighted>
4.1892

> <Gold.Chemscore.Rot.Weighted>
4.3835

> <Gold.Chemscore.Internal.Correction.Weighted>
   9.000000E+99

> <Gold.Protein.RotatedTorsions>
[ 6907 6896 6895 6894 ] final  135.93 input  -60.11 | X-H torsion
[ 7974 7965 7964 7962 ] final  109.91 input  175.53 | X-H torsion
[ 8008 7997 7996 7995 ] final -168.41 input   59.86 | X-H torsion
[ 10167 10162 10161 10158 ] final  -49.09 input  -65.29 | X-H torsion
[ 10718 10713 10712 10709 ] final  175.68 input   66.30 | X-H torsion
[ 10763 10752 10751 10750 ] final  169.62 input  -60.55 | X-H torsion
[ 11005 11000 10999 10996 ] final   32.43 input  -57.11 | X-H torsion

> <Gold.Protein.ActiveResidues>
 VAL166  LYS551  ARG553  GLY616  TRP617  ASP618  TYR619  PRO620  LYS621  CYS622 
 ASP623  PHE694  ASN695  SER759  ASP760  ASP761  ALA762  ILE779  LEU786  VAL792 
 PHE793  MET794  SER795  GLU796  ALA797  LYS798  CYS799  TRP800  GLU811  SER814 

> <Gold.Protein.RotatedAtoms>
  152.2950  133.5599  159.5581 H   0  0  0  0  0  0  0  0  0  0  0  0  # atno 6907 bound_to 6896
  150.7252  134.0373  159.3763 H   0  0  0  0  0  0  0  0  0  0  0  0  # atno 6908 bound_to 6896
  151.8277  135.0632  160.0484 H   0  0  0  0  0  0  0  0  0  0  0  0  # atno 6909 bound_to 6896
  145.2617  139.2700  143.4013 H   0  0  0  0  0  0  0  0  0  0  0  0  # atno 7974 bound_to 7965
  155.8910  140.1025  157.1418 H   0  0  0  0  0  0  0  0  0  0  0  0  # atno 8008 bound_to 7997
  154.4015  140.1311  156.4379 H   0  0  0  0  0  0  0  0  0  0  0  0  # atno 8009 bound_to 7997
  155.7534  140.3464  155.5164 H   0  0  0  0  0  0  0  0  0  0  0  0  # atno 8010 bound_to 7997
  140.6701  143.2712  151.4165 H   0  0  0  0  0  0  0  0  0  0  0  0  # atno 10167 bound_to 10162
  156.9312  130.9971  151.2986 H   0  0  0  0  0  0  0  0  0  0  0  0  # atno 10718 bound_to 10713
  154.3857  135.2753  155.2184 H   0  0  0  0  0  0  0  0  0  0  0  0  # atno 10763 bound_to 10752
  154.4272  135.5986  153.6050 H   0  0  0  0  0  0  0  0  0  0  0  0  # atno 10764 bound_to 10752
  152.9833  135.5987  154.4106 H   0  0  0  0  0  0  0  0  0  0  0  0  # atno 10765 bound_to 10752
  140.2735  134.3055  155.7821 H   0  0  0  0  0  0  0  0  0  0  0  0  # atno 11005 bound_to 11000
  146.3273  140.3036  142.8622 LP  0  0  0  0  0  0  0  0  0  0  0  0  # atno 17320 bound_to 7965
  144.9412  140.8081  143.5629 LP  0  0  0  0  0  0  0  0  0  0  0  0  # atno 17321 bound_to 7965
  139.5966  144.1385  152.2150 LP  0  0  0  0  0  0  0  0  0  0  0  0  # atno 17342 bound_to 10162
  140.0756  144.5743  150.7160 LP  0  0  0  0  0  0  0  0  0  0  0  0  # atno 17343 bound_to 10162
  157.5845  130.8400  149.8570 LP  0  0  0  0  0  0  0  0  0  0  0  0  # atno 17370 bound_to 10713
  156.0446  130.3731  150.1349 LP  0  0  0  0  0  0  0  0  0  0  0  0  # atno 17371 bound_to 10713
  141.2174  133.7481  156.9371 LP  0  0  0  0  0  0  0  0  0  0  0  0  # atno 17394 bound_to 11000
  140.1350  134.9331  157.2390 LP  0  0  0  0  0  0  0  0  0  0  0  0  # atno 17395 bound_to 11000

$$$$
