#       Name:                AV-unprocessed.smi:903
#       Creating user name   scv26
#       Creation time:       Fri Mar 27 01:58:48 2020


#       File generated by GOLD software.
#

@<TRIPOS>MOLECULE
AV-unprocessed.smi:903
    37    38     1
SMALL
NO_CHARGES


@<TRIPOS>ATOM
      1 ****        -5.4050  -1.6534   0.2271 O.co2          1 S1                 0.0000
      2 ****        -4.1610  -1.5312   0.2208 C.2            1 S1                 0.0000
      3 ****        -3.4153  -2.5361   0.1622 O.co2          1 S1                -1.0000
      4 ****        -3.5201  -0.1606   0.2837 C.ar           1 S1                 0.0000
      5 ****        -2.1634  -0.1603   0.2605 N.ar           1 S1                 0.0000
      6 ****        -1.4844   1.0092   0.3113 C.ar           1 S1                 0.0000
      7 ****        -0.1052   0.9826   0.2847 O.3            1 S1                 0.0000
      8 ****         0.5460  -0.2804   0.1836 C.3            1 S1                 0.0000
      9 ****         2.0622  -0.0539   0.1552 C.3            1 S1                 0.0000
     10 ****         2.8747  -1.3381   0.3036 C.3            1 S1                 0.0000
     11 ****         4.1930  -0.9360  -0.3170 C.3            1 S1                 0.0000
     12 ****         3.7420  -0.0499  -1.4756 C.3            1 S1                 0.0000
     13 ****         2.4672   0.4717  -1.1060 O.3            1 S1                 0.0000
     14 ****        -2.1342   2.2526   0.3905 C.ar           1 S1                 0.0000
     15 ****        -3.5389   2.2721   0.4151 C.ar           1 S1                 0.0000
     16 ****        -4.2563   1.0601   0.3617 C.ar           1 S1                 0.0000
     17 ****        -5.9850   1.1658   0.3968 Cl             1 S1                 0.0000
     18 ****         0.2879  -0.8893   1.0518 H              1 S1                 0.0000
     19 ****         0.2291  -0.8189  -0.7113 H              1 S1                 0.0000
     20 ****         2.3580   0.6475   0.9372 H              1 S1                 0.0000
     21 ****         2.9704  -1.6640   1.3395 H              1 S1                 0.0000
     22 ****         2.4228  -2.1483  -0.2707 H              1 S1                 0.0000
     23 ****         4.7777  -0.3529   0.3959 H              1 S1                 0.0000
     24 ****         4.7949  -1.7863  -0.6385 H              1 S1                 0.0000
     25 ****         4.4528   0.7508  -1.6807 H              1 S1                 0.0000
     26 ****         3.6234  -0.6383  -2.3859 H              1 S1                 0.0000
     27 ****        -1.5682   3.1714   0.4301 H              1 S1                 0.0000
     28 ****        -4.0640   3.2141   0.4741 H              1 S1                 0.0000
     29 ****        -5.8183  -2.5630   0.1850 LP             1 S1                 0.0000
     30 ****        -5.9870  -0.8415   0.2742 LP             1 S1                 0.0000
     31 ****        -3.8135  -3.4524   0.1196 LP             1 S1                 0.0000
     32 ****        -2.4219  -2.4220   0.1580 LP             1 S1                 0.0000
     33 ****        -1.6647  -1.0253   0.2058 LP             1 S1                 0.0000
     34 ****         0.2151   1.4138   1.1282 LP             1 S1                 0.0000
     35 ****         0.1860   1.5291  -0.5005 LP             1 S1                 0.0000
     36 ****         2.5240   1.4682  -1.0448 LP             1 S1                 0.0000
     37 ****         1.7935   0.2183  -1.8003 LP             1 S1                 0.0000
@<TRIPOS>BOND
    1    1    2 ar    
    2    2    3 ar    
    3    2    4 1     
    4    4   16 ar    
    5    4    5 ar    
    6    5    6 ar    
    7    6    7 1     
    8    6   14 ar    
    9    7    8 1     
   10    8    9 1     
   11    8   18 1     
   12    8   19 1     
   13    9   13 1     
   14    9   10 1     
   15    9   20 1     
   16   10   11 1     
   17   10   21 1     
   18   10   22 1     
   19   11   12 1     
   20   11   23 1     
   21   11   24 1     
   22   12   13 1     
   23   12   25 1     
   24   12   26 1     
   25   14   15 ar    
   26   14   27 1     
   27   15   16 ar    
   28   15   28 1     
   29   16   17 1     
   30    1   29 1     
   31    1   30 1     
   32    3   31 1     
   33    3   32 1     
   34    5   33 1     
   35    7   34 1     
   36    7   35 1     
   37   13   36 1     
   38   13   37 1     
@<TRIPOS>SUBSTRUCTURE
      1 S1             1
@<TRIPOS>SET
LONE_PAIRS      STATIC     ATOMS    <user>   **** ""
9 29 30 31 32 33 34 35 36 37
ATOM$BLUE        STATIC     ATOMS    COLORGROUP SYSTEM
9 29 30 31 32 33 34 35 36 37
