AV-unprocessed.smi:1558|AV-procd|sdf|6273|dock3
  -GOLD-   22720 6463D 1   1.00000     0.00000
 Structure written by MMmdl.
 36 37  0  0  0  0  0  0  0  0  1 V2000
  151.1219  140.5174  157.1094 N   0  0  0  0  0  0  0  0  0  0  0  0
  150.7922  140.6102  155.8183 C   0  0  0  0  0  0  0  0  0  0  0  0
  151.4505  140.0711  154.9315 O   0  0  0  0  0  0  0  0  0  0  0  0
  149.5443  141.4249  155.4727 C   0  0  0  0  0  0  0  0  0  0  0  0
  148.6726  140.6926  154.5712 N   0  0  0  0  0  0  0  0  0  0  0  0
  148.7477  139.3628  154.2045 C   0  0  0  0  0  0  0  0  0  0  0  0
  147.7070  139.1559  153.3440 C   0  0  0  0  0  0  0  0  0  0  0  0
  147.3189  137.9697  152.6713 N   0  0  0  0  0  0  0  0  0  0  0  0
  146.0693  137.5330  152.4453 C   0  0  0  0  0  0  0  0  0  0  0  0
  145.0425  138.1133  152.7991 O   0  0  0  0  0  0  0  0  0  0  0  0
  146.0736  136.3723  151.7746 N   0  0  0  0  0  0  0  0  0  0  0  0
  144.8831  135.6484  151.3434 C   0  0  0  0  0  0  0  0  0  0  0  0
  145.1081  134.1280  151.3769 C   0  0  1  0  0  0  0  0  0  0  0  0
  143.9140  133.3203  150.8745 C   0  0  0  0  0  0  0  0  0  0  0  0
  144.5706  132.0101  150.5033 C   0  0  0  0  0  0  0  0  0  0  0  0
  145.9085  132.4724  149.9297 C   0  0  0  0  0  0  0  0  0  0  0  0
  146.1754  133.7453  150.5139 O   0  0  0  0  0  0  0  0  0  0  0  0
  147.0447  140.4058  153.2305 C   0  0  0  0  0  0  0  0  0  0  0  0
  147.6335  141.3294  153.9750 N   0  0  0  0  0  0  0  0  0  0  0  0
  151.9401  139.9910  157.3800 H   0  0  0  0  0  0  0  0  0  0  0  0
  150.5565  140.9741  157.8101 H   0  0  0  0  0  0  0  0  0  0  0  0
  149.0006  141.6728  156.3858 H   0  0  0  0  0  0  0  0  0  0  0  0
  149.8236  142.3681  155.0013 H   0  0  0  0  0  0  0  0  0  0  0  0
  149.5165  138.7065  154.5845 H   0  0  0  0  0  0  0  0  0  0  0  0
  148.0719  137.3981  152.3173 H   0  0  0  0  0  0  0  0  0  0  0  0
  146.9651  135.9685  151.5275 H   0  0  0  0  0  0  0  0  0  0  0  0
  144.0734  135.9117  152.0242 H   0  0  0  0  0  0  0  0  0  0  0  0
  144.5664  135.9707  150.3500 H   0  0  0  0  0  0  0  0  0  0  0  0
  145.3568  133.8044  152.3890 H   0  0  0  0  0  0  0  0  0  0  0  0
  143.1294  133.2090  151.6234 H   0  0  0  0  0  0  0  0  0  0  0  0
  143.4794  133.7848  149.9880 H   0  0  0  0  0  0  0  0  0  0  0  0
  144.7339  131.4095  151.3990 H   0  0  0  0  0  0  0  0  0  0  0  0
  143.9852  131.4195  149.7983 H   0  0  0  0  0  0  0  0  0  0  0  0
  146.7102  131.7648  150.1414 H   0  0  0  0  0  0  0  0  0  0  0  0
  145.8426  132.5958  148.8482 H   0  0  0  0  0  0  0  0  0  0  0  0
  146.1749  140.6688  152.6468 H   0  0  0  0  0  0  0  0  0  0  0  0
  1  2  1  0  0  0  0
  1 20  1  0  0  0  0
  1 21  1  0  0  0  0
  2  3  2  0  0  0  0
  2  4  1  0  0  0  0
  4  5  1  0  0  0  0
  4 22  1  0  0  0  0
  4 23  1  0  0  0  0
  5 19  1  0  0  0  0
  5  6  1  0  0  0  0
  6  7  2  0  0  0  0
  6 24  1  0  0  0  0
  7  8  1  0  0  0  0
  7 18  1  0  0  0  0
  8  9  1  0  0  0  0
  8 25  1  0  0  0  0
  9 10  2  0  0  0  0
  9 11  1  0  0  0  0
 11 12  1  0  0  0  0
 11 26  1  0  0  0  0
 12 13  1  0  0  0  0
 12 27  1  0  0  0  0
 12 28  1  0  0  0  0
 13 17  1  0  0  0  0
 13 14  1  0  0  0  0
 13 29  1  0  0  0  0
 14 15  1  0  0  0  0
 14 30  1  0  0  0  0
 14 31  1  0  0  0  0
 15 16  1  0  0  0  0
 15 32  1  0  0  0  0
 15 33  1  0  0  0  0
 16 17  1  0  0  0  0
 16 34  1  0  0  0  0
 16 35  1  0  0  0  0
 18 19  2  0  0  0  0
 18 36  1  0  0  0  0
M  END
> <s_m_source_file>
AV-unprocessed.smi

> <i_m_source_file_index>
1558

> <i_lp_mmshare_version>
43012

> <i_f3d_flags>
0

> <s_epik_input>
W05IMl1DKD1PKVtDSDJdbjFbY0hdYyhbY0hdbjEpW05IXUMoPU8pW05IXVtDSDJdW0NAQEhdMltDSDJdW0NIMl1bQ0gyXU8y

> <s_epik_cmdline>
J2VwaWtfcHl0aG9uJywgJy1waCcsICc3LjAnLCAnLXRuJywgJzgnLCAnLW1hJywgJzIwMCcsICctbWV0YWxfYmluZGluZycsICctaW1hZScsICc8aW5maWxlLm1hZT4nLCAnLW9tYWUnLCAnPG91dGZpbGUubWFlPic=

> <r_lp_tautomer_probability>
1

> <r_epik_Ionization_Penalty>
4.01684e-05

> <r_epik_Ionization_Penalty_Charging>
0

> <r_epik_Ionization_Penalty_Neutral>
4.01684e-05

> <r_epik_State_Penalty>
-0

> <r_epik_Charging_Adjusted_Penalty>
0

> <i_epik_Tot_Q>
0

> <i_epik_Tot_abs_Q>
0

> <r_epik_Metal_State_Penalty>
-0

> <b_epik_Metal_Only>
0

> <s_lp_Force_Field>
OPLS_2005

> <r_lp_Energy>
20.8688

> <b_lp_Chiralities_Consistent>
1

> <s_lp_Variant>
AV-unprocessed.smi:1558-2

> <Gold.Version>
5.8.1

> <Gold.Id.Protein>
6NUR|6NUR_protein|mol2

> <Gold.PLP.Fitness>
41.6255

> <Gold.PLP.PLP>
-31.5414

> <Gold.PLP.part.hbond>
-2.9253

> <Gold.PLP.part.metal>
0.0000

> <Gold.PLP.part.buried>
-4.9232

> <Gold.PLP.part.nonpolar>
-28.2072

> <Gold.PLP.part.repulsive>
3.7118

> <Gold.PLP.ligand.clash>
0.0000

> <Gold.PLP.ligand.torsion>
0.7063

> <Gold.PLP.Chemscore.Hbond>
2.8230

> <Gold.PLP.Chemscore.CHOScore>
1.0000

> <Gold.PLP.Chemscore.Metal>
0.0000

> <Gold.Chemscore.Hbonds>
donor molecule, donor type, donor heavy atom, donor atom, acceptor molecule, acceptor atom, score
      L1  H     8    25       P1  7948  0.96
      L1  H    11    26       P1  7948  0.83
      P1  H  7989  7998       L1     3  1.00
      L1  C    18    36       P1 10175  1.00

> <Gold.PLP.Chemscore.Internal.Correction>
0.0278

> <Gold.Rescore>
     Score         DG    S(hbond)    S(metal)    S(lipo)     H(rot)  DE(clash)    DE(int)     intcor
     12.99     -16.42       2.87        0.00      62.73       2.33       1.49       1.95       ----

> <Gold.Chemscore.Fitness>
12.9880

> <Gold.Chemscore.DG>
-16.4234

> <Gold.Chemscore.ZeroCoef>
-5.4800

> <Gold.Chemscore.Hbond>
2.8650

> <Gold.Chemscore.Metal>
0.0000

> <Gold.Chemscore.Lipo>
62.7339

> <Gold.Chemscore.Internal_Hbond>
0.0000

> <Gold.Chemscore.DEClash>
1.4872

> <Gold.Chemscore.DEInternal>
1.9482

> <Gold.Chemscore.Rot>
2.3303

> <Gold.Chemscore.Internal.Correction>
   9.000000E+99

> <Gold.Chemscore.Hbonds>
donor molecule, donor type, donor heavy atom, donor atom, acceptor molecule, acceptor atom, score
      L1  H     8    25       P1  7948  0.91
      L1  H    11    26       P1  7948  0.80
      P1  H  7989  7998       L1     3  0.95

> <Gold.Chemscore.Hbond.Weighted>
-9.5691

> <Gold.Chemscore.Metal.Weighted>
-0.0000

> <Gold.Chemscore.Lipo.Weighted>
-7.3399

> <Gold.Chemscore.Internal_Hbond.Weighted>
0.0000

> <Gold.Chemscore.DEClash.Weighted>
1.4872

> <Gold.Chemscore.DEInternal.Weighted>
1.9482

> <Gold.Chemscore.Rot.Weighted>
5.9656

> <Gold.Chemscore.Internal.Correction.Weighted>
   9.000000E+99

> <Gold.Protein.RotatedTorsions>
[ 6907 6896 6895 6894 ] final   49.98 input  -60.11 | X-H torsion
[ 7974 7965 7964 7962 ] final   35.13 input  175.53 | X-H torsion
[ 8008 7997 7996 7995 ] final    1.62 input   59.86 | X-H torsion
[ 10167 10162 10161 10158 ] final  159.91 input  -65.29 | X-H torsion
[ 10718 10713 10712 10709 ] final  143.71 input   66.30 | X-H torsion
[ 10763 10752 10751 10750 ] final   42.12 input  -60.55 | X-H torsion
[ 11005 11000 10999 10996 ] final   55.30 input  -57.11 | X-H torsion

> <Gold.Protein.ActiveResidues>
 VAL166  LYS551  ARG553  GLY616  TRP617  ASP618  TYR619  PRO620  LYS621  CYS622 
 ASP623  PHE694  ASN695  SER759  ASP760  ASP761  ALA762  ILE779  LEU786  VAL792 
 PHE793  MET794  SER795  GLU796  ALA797  LYS798  CYS799  TRP800  GLU811  SER814 

> <Gold.Protein.RotatedAtoms>
  152.2968  134.7658  160.0366 H   0  0  0  0  0  0  0  0  0  0  0  0  # atno 6907 bound_to 6896
  151.8185  133.3386  159.3585 H   0  0  0  0  0  0  0  0  0  0  0  0  # atno 6908 bound_to 6896
  150.7255  134.5526  159.5846 H   0  0  0  0  0  0  0  0  0  0  0  0  # atno 6909 bound_to 6896
  146.1305  139.6182  142.9230 H   0  0  0  0  0  0  0  0  0  0  0  0  # atno 7974 bound_to 7965
  154.6819  140.2634  155.6900 H   0  0  0  0  0  0  0  0  0  0  0  0  # atno 8008 bound_to 7997
  156.2700  140.2808  156.1288 H   0  0  0  0  0  0  0  0  0  0  0  0  # atno 8009 bound_to 7997
  155.1020  140.0374  157.2689 H   0  0  0  0  0  0  0  0  0  0  0  0  # atno 8010 bound_to 7997
  139.4836  144.4684  151.8609 H   0  0  0  0  0  0  0  0  0  0  0  0  # atno 10167 bound_to 10162
  157.3657  131.0971  151.0874 H   0  0  0  0  0  0  0  0  0  0  0  0  # atno 10718 bound_to 10713
  152.9891  135.6141  154.2899 H   0  0  0  0  0  0  0  0  0  0  0  0  # atno 10763 bound_to 10752
  154.2624  135.2782  155.2774 H   0  0  0  0  0  0  0  0  0  0  0  0  # atno 10764 bound_to 10752
  154.5194  135.5819  153.6725 H   0  0  0  0  0  0  0  0  0  0  0  0  # atno 10765 bound_to 10752
  140.0618  134.5592  155.9144 H   0  0  0  0  0  0  0  0  0  0  0  0  # atno 11005 bound_to 11000
  145.5272  141.0429  143.2403 LP  0  0  0  0  0  0  0  0  0  0  0  0  # atno 17320 bound_to 7965
  144.7685  139.6789  143.7204 LP  0  0  0  0  0  0  0  0  0  0  0  0  # atno 17321 bound_to 7965
  140.4152  144.2317  150.5888 LP  0  0  0  0  0  0  0  0  0  0  0  0  # atno 17342 bound_to 10162
  140.4928  143.2342  151.8793 LP  0  0  0  0  0  0  0  0  0  0  0  0  # atno 17343 bound_to 10162
  157.1997  130.6389  149.5734 LP  0  0  0  0  0  0  0  0  0  0  0  0  # atno 17370 bound_to 10713
  155.9746  130.4695  150.6396 LP  0  0  0  0  0  0  0  0  0  0  0  0  # atno 17371 bound_to 10713
  141.1976  133.6597  156.5750 LP  0  0  0  0  0  0  0  0  0  0  0  0  # atno 17394 bound_to 11000
  140.3759  134.7565  157.4629 LP  0  0  0  0  0  0  0  0  0  0  0  0  # atno 17395 bound_to 11000

$$$$
