AV-unprocessed.smi:2694|AV-procd|sdf|10405|dock8
  -GOLD-   2272014443D 1   1.00000     0.00000
 Structure written by MMmdl.
 42 44  0  0  0  0  0  0  0  0  1 V2000
  150.5873  140.1317  154.4723 O   0  0  0  0  0  0  0  0  0  0  0  0
  151.0956  140.2638  155.5855 C   0  0  0  0  0  0  0  0  0  0  0  0
  150.9612  141.4896  156.3727 C   0  0  0  0  0  0  0  0  0  0  0  0
  151.5396  141.5977  157.5932 C   0  0  0  0  0  0  0  0  0  0  0  0
  151.4568  142.8674  158.4295 C   0  0  0  0  0  0  0  0  0  0  0  0
  151.5227  144.2023  157.6677 C   0  0  0  0  0  0  0  0  0  0  0  0
  152.3951  144.7390  158.8076 C   0  0  0  0  0  0  0  0  0  0  0  0
  152.7623  143.2857  159.1261 C   0  0  0  0  0  0  0  0  0  0  0  0
  152.2783  140.5360  158.1268 N   0  0  0  0  0  0  0  0  0  0  0  0
  152.4082  139.4388  157.4522 C   0  0  0  0  0  0  0  0  0  0  0  0
  151.8328  139.2789  156.1759 N   0  0  0  0  0  0  0  0  0  0  0  0
  152.0710  137.9926  155.4973 C   0  0  0  0  0  0  0  0  0  0  0  0
  151.4701  136.7821  156.2514 C   0  0  2  0  0  0  0  0  0  0  0  0
  152.5380  135.9931  156.7336 O   0  0  0  0  0  0  0  0  0  0  0  0
  150.5559  135.8910  155.3907 C   0  0  0  0  0  0  0  0  0  0  0  0
  150.7458  134.5361  155.7763 O   0  0  0  0  0  0  0  0  0  0  0  0
  150.0809  133.5476  155.0825 C   0  0  0  0  0  0  0  0  0  0  0  0
  149.0272  133.7951  154.1665 C   0  0  0  0  0  0  0  0  0  0  0  0
  148.3866  132.7268  153.5090 C   0  0  0  0  0  0  0  0  0  0  0  0
  148.7908  131.4020  153.7542 C   0  0  0  0  0  0  0  0  0  0  0  0
  149.8418  131.1464  154.6534 C   0  0  0  0  0  0  0  0  0  0  0  0
  150.4853  132.2132  155.3101 C   0  0  0  0  0  0  0  0  0  0  0  0
  151.7820  131.8726  156.3979 Cl  0  0  0  0  0  0  0  0  0  0  0  0
  150.3978  142.3144  155.9617 H   0  0  0  0  0  0  0  0  0  0  0  0
  150.6169  142.8387  159.1261 H   0  0  0  0  0  0  0  0  0  0  0  0
  152.0664  144.1462  156.7235 H   0  0  0  0  0  0  0  0  0  0  0  0
  150.5640  144.7081  157.5503 H   0  0  0  0  0  0  0  0  0  0  0  0
  153.2312  145.3621  158.4889 H   0  0  0  0  0  0  0  0  0  0  0  0
  151.8132  145.2128  159.5998 H   0  0  0  0  0  0  0  0  0  0  0  0
  152.8095  143.0482  160.1891 H   0  0  0  0  0  0  0  0  0  0  0  0
  153.6610  142.9581  158.5997 H   0  0  0  0  0  0  0  0  0  0  0  0
  152.9748  138.5834  157.8238 H   0  0  0  0  0  0  0  0  0  0  0  0
  151.6843  138.0122  154.4763 H   0  0  0  0  0  0  0  0  0  0  0  0
  153.1466  137.8479  155.3776 H   0  0  0  0  0  0  0  0  0  0  0  0
  150.9155  137.1242  157.1262 H   0  0  0  0  0  0  0  0  0  0  0  0
  153.1236  136.5465  157.2274 H   0  0  0  0  0  0  0  0  0  0  0  0
  149.5195  136.2102  155.5115 H   0  0  0  0  0  0  0  0  0  0  0  0
  150.8162  135.9845  154.3350 H   0  0  0  0  0  0  0  0  0  0  0  0
  148.6919  134.7972  153.9475 H   0  0  0  0  0  0  0  0  0  0  0  0
  147.5835  132.9253  152.8148 H   0  0  0  0  0  0  0  0  0  0  0  0
  148.2985  130.5833  153.2503 H   0  0  0  0  0  0  0  0  0  0  0  0
  150.1557  130.1296  154.8386 H   0  0  0  0  0  0  0  0  0  0  0  0
  1  2  2  0  0  0  0
  2 11  1  0  0  0  0
  2  3  1  0  0  0  0
  3  4  2  0  0  0  0
  3 24  1  0  0  0  0
  4  5  1  0  0  0  0
  4  9  1  0  0  0  0
  5  8  1  0  0  0  0
  5  6  1  0  0  0  0
  5 25  1  0  0  0  0
  6  7  1  0  0  0  0
  6 26  1  0  0  0  0
  6 27  1  0  0  0  0
  7  8  1  0  0  0  0
  7 28  1  0  0  0  0
  7 29  1  0  0  0  0
  8 30  1  0  0  0  0
  8 31  1  0  0  0  0
  9 10  2  0  0  0  0
 10 11  1  0  0  0  0
 10 32  1  0  0  0  0
 11 12  1  0  0  0  0
 12 13  1  0  0  0  0
 12 33  1  0  0  0  0
 12 34  1  0  0  0  0
 13 14  1  0  0  0  0
 13 15  1  0  0  0  0
 13 35  1  0  0  0  0
 14 36  1  0  0  0  0
 15 16  1  0  0  0  0
 15 37  1  0  0  0  0
 15 38  1  0  0  0  0
 16 17  1  0  0  0  0
 17 22  1  0  0  0  0
 17 18  2  0  0  0  0
 18 19  1  0  0  0  0
 18 39  1  0  0  0  0
 19 20  2  0  0  0  0
 19 40  1  0  0  0  0
 20 21  1  0  0  0  0
 20 41  1  0  0  0  0
 21 22  2  0  0  0  0
 21 42  1  0  0  0  0
 22 23  1  0  0  0  0
M  END
> <s_m_source_file>
AV-unprocessed.smi

> <i_m_source_file_index>
2694

> <i_lp_mmshare_version>
43012

> <i_f3d_flags>
0

> <s_epik_input>
W0NIMl0xW0NIMl1bQ0gyXVtDSF0xYyhbY0hdYzI9TyluW2NIXW4yW0NIMl1bQ0BIXShbT0hdKVtDSDJdT2MzW2NIXVtjSF1bY0hdW2NIXWMzQ2w=

> <s_epik_cmdline>
J2VwaWtfcHl0aG9uJywgJy1waCcsICc3LjAnLCAnLXRuJywgJzgnLCAnLW1hJywgJzIwMCcsICctbWV0YWxfYmluZGluZycsICctaW1hZScsICc8aW5maWxlLm1hZT4nLCAnLW9tYWUnLCAnPG91dGZpbGUubWFlPic=

> <r_lp_tautomer_probability>
1

> <r_epik_Ionization_Penalty>
1.78212e-05

> <r_epik_Ionization_Penalty_Charging>
5.61663e-08

> <r_epik_Ionization_Penalty_Neutral>
1.7765e-05

> <r_epik_State_Penalty>
-0

> <r_epik_Charging_Adjusted_Penalty>
5.61663e-08

> <i_epik_Tot_Q>
0

> <i_epik_Tot_abs_Q>
0

> <r_epik_Metal_State_Penalty>
-0

> <b_epik_Metal_Only>
0

> <s_lp_Force_Field>
OPLS_2005

> <r_lp_Energy>
26.4785

> <b_lp_Chiralities_Consistent>
1

> <s_lp_Variant>
AV-unprocessed.smi:2694-1

> <Gold.Version>
5.8.1

> <Gold.Id.Protein>
6NUR|6NUR_protein|mol2

> <Gold.PLP.Fitness>
52.3141

> <Gold.PLP.PLP>
-49.7885

> <Gold.PLP.part.hbond>
-1.9633

> <Gold.PLP.part.metal>
0.0000

> <Gold.PLP.part.buried>
-4.0256

> <Gold.PLP.part.nonpolar>
-43.3947

> <Gold.PLP.part.repulsive>
0.1484

> <Gold.PLP.ligand.clash>
0.0000

> <Gold.PLP.ligand.torsion>
1.9380

> <Gold.PLP.Chemscore.Hbond>
2.0000

> <Gold.PLP.Chemscore.CHOScore>
0.0000

> <Gold.PLP.Chemscore.Metal>
0.0000

> <Gold.Chemscore.Hbonds>
donor molecule, donor type, donor heavy atom, donor atom, acceptor molecule, acceptor atom, score
      P1  H  7989  7998       L1     1  1.00
      P1  H 10752 10763       L1    14  1.00

> <Gold.PLP.Chemscore.Internal.Correction>
0.4016

> <Gold.Rescore>
     Score         DG    S(hbond)    S(metal)    S(lipo)     H(rot)  DE(clash)    DE(int)     intcor
     15.99     -17.81       1.41        0.00     118.16       2.42       0.03       1.79       ----

> <Gold.Chemscore.Fitness>
15.9903

> <Gold.Chemscore.DG>
-17.8052

> <Gold.Chemscore.ZeroCoef>
-5.4800

> <Gold.Chemscore.Hbond>
1.4095

> <Gold.Chemscore.Metal>
0.0000

> <Gold.Chemscore.Lipo>
118.1554

> <Gold.Chemscore.Internal_Hbond>
0.0000

> <Gold.Chemscore.DEClash>
0.0257

> <Gold.Chemscore.DEInternal>
1.7892

> <Gold.Chemscore.Rot>
2.4245

> <Gold.Chemscore.Internal.Correction>
   9.000000E+99

> <Gold.Chemscore.Hbonds>
donor molecule, donor type, donor heavy atom, donor atom, acceptor molecule, acceptor atom, score
      P1  H  7989  7998       L1     1  0.44
      P1  H 10752 10763       L1    14  0.35

> <Gold.Chemscore.Hbond.Weighted>
-4.7076

> <Gold.Chemscore.Metal.Weighted>
-0.0000

> <Gold.Chemscore.Lipo.Weighted>
-13.8242

> <Gold.Chemscore.Internal_Hbond.Weighted>
0.0000

> <Gold.Chemscore.DEClash.Weighted>
0.0257

> <Gold.Chemscore.DEInternal.Weighted>
1.7892

> <Gold.Chemscore.Rot.Weighted>
6.2066

> <Gold.Chemscore.Internal.Correction.Weighted>
   9.000000E+99

> <Gold.Protein.RotatedTorsions>
[ 6907 6896 6895 6894 ] final  -84.95 input  -60.11 | X-H torsion
[ 7974 7965 7964 7962 ] final   94.53 input  175.53 | X-H torsion
[ 8008 7997 7996 7995 ] final   45.89 input   59.86 | X-H torsion
[ 10167 10162 10161 10158 ] final  -45.25 input  -65.29 | X-H torsion
[ 10718 10713 10712 10709 ] final  114.08 input   66.30 | X-H torsion
[ 10763 10752 10751 10750 ] final  107.19 input  -60.55 | X-H torsion
[ 11005 11000 10999 10996 ] final -173.47 input  -57.11 | X-H torsion

> <Gold.Protein.ActiveResidues>
 VAL166  LYS551  ARG553  GLY616  TRP617  ASP618  TYR619  PRO620  LYS621  CYS622 
 ASP623  PHE694  ASN695  SER759  ASP760  ASP761  ALA762  ILE779  LEU786  VAL792 
 PHE793  MET794  SER795  GLU796  ALA797  LYS798  CYS799  TRP800  GLU811  SER814 

> <Gold.Protein.RotatedAtoms>
  150.6873  134.3280  159.4814 H   0  0  0  0  0  0  0  0  0  0  0  0  # atno 6907 bound_to 6896
  152.1148  134.9246  160.0574 H   0  0  0  0  0  0  0  0  0  0  0  0  # atno 6908 bound_to 6896
  152.0475  133.3969  159.4400 H   0  0  0  0  0  0  0  0  0  0  0  0  # atno 6909 bound_to 6896
  145.4643  139.2285  143.2970 H   0  0  0  0  0  0  0  0  0  0  0  0  # atno 7974 bound_to 7965
  155.3434  140.3409  155.4239 H   0  0  0  0  0  0  0  0  0  0  0  0  # atno 8008 bound_to 7997
  156.1801  140.1661  156.8325 H   0  0  0  0  0  0  0  0  0  0  0  0  # atno 8009 bound_to 7997
  154.5325  140.0742  156.8352 H   0  0  0  0  0  0  0  0  0  0  0  0  # atno 8010 bound_to 7997
  140.6865  143.2889  151.3612 H   0  0  0  0  0  0  0  0  0  0  0  0  # atno 10167 bound_to 10162
  157.6302  131.0993  150.7134 H   0  0  0  0  0  0  0  0  0  0  0  0  # atno 10718 bound_to 10713
  153.4034  135.3852  155.2002 H   0  0  0  0  0  0  0  0  0  0  0  0  # atno 10763 bound_to 10752
  154.8731  135.3777  154.4591 H   0  0  0  0  0  0  0  0  0  0  0  0  # atno 10764 bound_to 10752
  153.5090  135.7087  153.5853 H   0  0  0  0  0  0  0  0  0  0  0  0  # atno 10765 bound_to 10752
  140.4854  134.6036  157.4935 H   0  0  0  0  0  0  0  0  0  0  0  0  # atno 11005 bound_to 11000
  146.2433  140.5415  142.8925 LP  0  0  0  0  0  0  0  0  0  0  0  0  # atno 17320 bound_to 7965
  144.7983  140.6166  143.6495 LP  0  0  0  0  0  0  0  0  0  0  0  0  # atno 17321 bound_to 7965
  139.6228  144.0872  152.2407 LP  0  0  0  0  0  0  0  0  0  0  0  0  # atno 17342 bound_to 10162
  140.0322  144.6072  150.7478 LP  0  0  0  0  0  0  0  0  0  0  0  0  # atno 17343 bound_to 10162
  156.7474  130.4758  149.5464 LP  0  0  0  0  0  0  0  0  0  0  0  0  # atno 17370 bound_to 10713
  156.1500  130.6303  151.0583 LP  0  0  0  0  0  0  0  0  0  0  0  0  # atno 17371 bound_to 10713
  139.9801  134.7151  155.9875 LP  0  0  0  0  0  0  0  0  0  0  0  0  # atno 17394 bound_to 11000
  141.1511  133.6548  156.4015 LP  0  0  0  0  0  0  0  0  0  0  0  0  # atno 17395 bound_to 11000

$$$$
