AV-unprocessed.smi:1273|AV-procd|sdf|5339|dock9
  -GOLD-   22720 4473D 1   1.00000     0.00000
 Structure written by MMmdl.
 40 41  0  0  0  0  0  0  0  0  1 V2000
  143.0224  146.2455  154.3488 C   0  0  0  0  0  0  0  0  0  0  0  0
  142.9247  144.7521  154.7011 C   0  0  1  0  0  0  0  0  0  0  0  0
  144.2490  144.2120  155.2585 C   0  0  0  0  0  0  0  0  0  0  0  0
  144.7032  144.6649  156.3092 O   0  0  0  0  0  0  0  0  0  0  0  0
  144.8314  143.2339  154.5400 N   0  0  0  0  0  0  0  0  0  0  0  0
  146.0565  142.5650  154.8005 C   0  0  0  0  0  0  0  0  0  0  0  0
  146.7809  142.0497  153.7085 C   0  0  0  0  0  0  0  0  0  0  0  0
  148.0106  141.4052  153.9414 C   0  0  0  0  0  0  0  0  0  0  0  0
  148.4945  141.2999  155.2670 C   0  0  0  0  0  0  0  0  0  0  0  0
  149.7254  140.6586  155.5262 N   0  0  0  0  0  0  0  0  0  0  0  0
  150.7056  141.4475  156.2687 C   0  0  0  0  0  0  0  0  0  0  0  0
  151.8633  140.5536  156.7463 C   0  0  0  0  0  0  0  0  0  0  0  0
  152.4316  139.8643  155.6379 O   0  0  0  0  0  0  0  0  0  0  0  0
  151.4836  139.0140  155.0018 C   0  0  0  0  0  0  0  0  0  0  0  0
  150.3176  139.8560  154.4572 C   0  0  0  0  0  0  0  0  0  0  0  0
  147.8062  141.8166  156.3146 N   0  0  0  0  0  0  0  0  0  0  0  0
  146.6258  142.4298  156.0882 C   0  0  0  0  0  0  0  0  0  0  0  0
  141.5574  144.4805  155.9239 S   0  0  0  0  0  0  0  0  0  0  0  0
  140.9050  146.1801  156.2079 C   0  0  0  0  0  0  0  0  0  0  0  0
  140.4956  143.6857  155.2874 O   0  0  0  0  0  0  0  0  0  0  0  0
  142.1585  144.0048  157.1794 O   0  0  0  0  0  0  0  0  0  0  0  0
  143.8501  146.4396  153.6657 H   0  0  0  0  0  0  0  0  0  0  0  0
  143.1709  146.8584  155.2388 H   0  0  0  0  0  0  0  0  0  0  0  0
  142.1094  146.5895  153.8626 H   0  0  0  0  0  0  0  0  0  0  0  0
  142.6624  144.2003  153.7976 H   0  0  0  0  0  0  0  0  0  0  0  0
  144.3068  142.8872  153.7502 H   0  0  0  0  0  0  0  0  0  0  0  0
  146.4014  142.1440  152.7014 H   0  0  0  0  0  0  0  0  0  0  0  0
  148.5721  141.0172  153.1047 H   0  0  0  0  0  0  0  0  0  0  0  0
  151.0875  142.2353  155.6181 H   0  0  0  0  0  0  0  0  0  0  0  0
  150.2590  141.9385  157.1320 H   0  0  0  0  0  0  0  0  0  0  0  0
  152.6352  141.1610  157.2192 H   0  0  0  0  0  0  0  0  0  0  0  0
  151.5185  139.8382  157.4948 H   0  0  0  0  0  0  0  0  0  0  0  0
  151.9740  138.4812  154.1870 H   0  0  0  0  0  0  0  0  0  0  0  0
  151.1245  138.2604  155.7048 H   0  0  0  0  0  0  0  0  0  0  0  0
  149.5680  139.1943  154.0211 H   0  0  0  0  0  0  0  0  0  0  0  0
  150.6726  140.5156  153.6641 H   0  0  0  0  0  0  0  0  0  0  0  0
  146.1514  142.8377  156.9672 H   0  0  0  0  0  0  0  0  0  0  0  0
  140.1471  146.1462  156.9904 H   0  0  0  0  0  0  0  0  0  0  0  0
  140.4530  146.5633  155.2936 H   0  0  0  0  0  0  0  0  0  0  0  0
  141.7159  146.8372  156.5208 H   0  0  0  0  0  0  0  0  0  0  0  0
  1  2  1  0  0  0  0
  1 22  1  0  0  0  0
  1 23  1  0  0  0  0
  1 24  1  0  0  0  0
  2  3  1  0  0  0  0
  2 18  1  0  0  0  0
  2 25  1  0  0  0  0
  3  4  2  0  0  0  0
  3  5  1  0  0  0  0
  5  6  1  0  0  0  0
  5 26  1  0  0  0  0
  6 17  1  0  0  0  0
  6  7  2  0  0  0  0
  7  8  1  0  0  0  0
  7 27  1  0  0  0  0
  8  9  2  0  0  0  0
  8 28  1  0  0  0  0
  9 10  1  0  0  0  0
  9 16  1  0  0  0  0
 10 15  1  0  0  0  0
 10 11  1  0  0  0  0
 11 12  1  0  0  0  0
 11 29  1  0  0  0  0
 11 30  1  0  0  0  0
 12 13  1  0  0  0  0
 12 31  1  0  0  0  0
 12 32  1  0  0  0  0
 13 14  1  0  0  0  0
 14 15  1  0  0  0  0
 14 33  1  0  0  0  0
 14 34  1  0  0  0  0
 15 35  1  0  0  0  0
 15 36  1  0  0  0  0
 16 17  2  0  0  0  0
 17 37  1  0  0  0  0
 18 19  1  0  0  0  0
 18 20  2  0  0  0  0
 18 21  2  0  0  0  0
 19 38  1  0  0  0  0
 19 39  1  0  0  0  0
 19 40  1  0  0  0  0
M  END
> <s_m_source_file>
AV-unprocessed.smi

> <i_m_source_file_index>
1273

> <i_lp_mmshare_version>
43012

> <i_f3d_flags>
0

> <s_epik_input>
W0NIM11TKD1PKSg9TylbQ0BIXShbQ0gzXSlDKD1PKVtOSF1jMVtjSF1bY0hdYyhuW2NIXTEpTjJbQ0gyXVtDSDJdT1tDSDJdW0NIMl0y

> <s_epik_cmdline>
J2VwaWtfcHl0aG9uJywgJy1waCcsICc3LjAnLCAnLXRuJywgJzgnLCAnLW1hJywgJzIwMCcsICctbWV0YWxfYmluZGluZycsICctaW1hZScsICc8aW5maWxlLm1hZT4nLCAnLW9tYWUnLCAnPG91dGZpbGUubWFlPic=

> <r_lp_tautomer_probability>
1

> <r_epik_Ionization_Penalty>
0.000253983

> <r_epik_Ionization_Penalty_Charging>
0

> <r_epik_Ionization_Penalty_Neutral>
0.000253983

> <r_epik_State_Penalty>
-0

> <r_epik_Charging_Adjusted_Penalty>
0

> <i_epik_Tot_Q>
0

> <i_epik_Tot_abs_Q>
0

> <r_epik_Metal_State_Penalty>
-0

> <b_epik_Metal_Only>
0

> <s_lp_Force_Field>
OPLS_2005

> <r_lp_Energy>
19.0029

> <b_lp_Chiralities_Consistent>
1

> <s_lp_Variant>
AV-unprocessed.smi:1273-2

> <Gold.Version>
5.8.1

> <Gold.Id.Protein>
6NUR|6NUR_protein|mol2

> <Gold.PLP.Fitness>
34.3343

> <Gold.PLP.PLP>
-31.3197

> <Gold.PLP.part.hbond>
-1.1937

> <Gold.PLP.part.metal>
0.0000

> <Gold.PLP.part.buried>
-3.9927

> <Gold.PLP.part.nonpolar>
-27.0862

> <Gold.PLP.part.repulsive>
0.4022

> <Gold.PLP.ligand.clash>
0.0000

> <Gold.PLP.ligand.torsion>
0.4190

> <Gold.PLP.Chemscore.Hbond>
1.1235

> <Gold.PLP.Chemscore.CHOScore>
0.0000

> <Gold.PLP.Chemscore.Metal>
0.0000

> <Gold.Chemscore.Hbonds>
donor molecule, donor type, donor heavy atom, donor atom, acceptor molecule, acceptor atom, score
      L1  H     5    26       P1 10174  0.10
      P1  H  7997  8008       L1    13  0.85

> <Gold.PLP.Chemscore.Internal.Correction>
0.4822

> <Gold.Rescore>
     Score         DG    S(hbond)    S(metal)    S(lipo)     H(rot)  DE(clash)    DE(int)     intcor
      9.72     -12.71       0.94        0.00      68.99       1.56       0.05       2.93       ----

> <Gold.Chemscore.Fitness>
9.7250

> <Gold.Chemscore.DG>
-12.7068

> <Gold.Chemscore.ZeroCoef>
-5.4800

> <Gold.Chemscore.Hbond>
0.9445

> <Gold.Chemscore.Metal>
0.0000

> <Gold.Chemscore.Lipo>
68.9901

> <Gold.Chemscore.Internal_Hbond>
0.0000

> <Gold.Chemscore.DEClash>
0.0510

> <Gold.Chemscore.DEInternal>
2.9308

> <Gold.Chemscore.Rot>
1.5624

> <Gold.Chemscore.Internal.Correction>
   9.000000E+99

> <Gold.Chemscore.Hbonds>
donor molecule, donor type, donor heavy atom, donor atom, acceptor molecule, acceptor atom, score
      P1  H  7997  8008       L1    13  0.14

> <Gold.Chemscore.Hbond.Weighted>
-3.1546

> <Gold.Chemscore.Metal.Weighted>
-0.0000

> <Gold.Chemscore.Lipo.Weighted>
-8.0718

> <Gold.Chemscore.Internal_Hbond.Weighted>
0.0000

> <Gold.Chemscore.DEClash.Weighted>
0.0510

> <Gold.Chemscore.DEInternal.Weighted>
2.9308

> <Gold.Chemscore.Rot.Weighted>
3.9996

> <Gold.Chemscore.Internal.Correction.Weighted>
   9.000000E+99

> <Gold.Protein.RotatedTorsions>
[ 6907 6896 6895 6894 ] final -106.31 input  -60.11 | X-H torsion
[ 7974 7965 7964 7962 ] final  -48.80 input  175.53 | X-H torsion
[ 8008 7997 7996 7995 ] final  -29.30 input   59.86 | X-H torsion
[ 10167 10162 10161 10158 ] final  -61.97 input  -65.29 | X-H torsion
[ 10718 10713 10712 10709 ] final  -13.06 input   66.30 | X-H torsion
[ 10763 10752 10751 10750 ] final   78.22 input  -60.55 | X-H torsion
[ 11005 11000 10999 10996 ] final -129.76 input  -57.11 | X-H torsion

> <Gold.Protein.ActiveResidues>
 VAL166  LYS551  ARG553  GLY616  TRP617  ASP618  TYR619  PRO620  LYS621  CYS622 
 ASP623  PHE694  ASN695  SER759  ASP760  ASP761  ALA762  ILE779  LEU786  VAL792 
 PHE793  MET794  SER795  GLU796  ALA797  LYS798  CYS799  TRP800  GLU811  SER814 

> <Gold.Protein.RotatedAtoms>
  150.7382  133.9996  159.3633 H   0  0  0  0  0  0  0  0  0  0  0  0  # atno 6907 bound_to 6896
  151.7949  135.0723  160.0401 H   0  0  0  0  0  0  0  0  0  0  0  0  # atno 6908 bound_to 6896
  152.3182  133.5788  159.5762 H   0  0  0  0  0  0  0  0  0  0  0  0  # atno 6909 bound_to 6896
  145.9473  140.7605  142.9522 H   0  0  0  0  0  0  0  0  0  0  0  0  # atno 7974 bound_to 7965
  154.4296  140.1822  156.1225 H   0  0  0  0  0  0  0  0  0  0  0  0  # atno 8008 bound_to 7997
  156.0131  140.3348  155.6936 H   0  0  0  0  0  0  0  0  0  0  0  0  # atno 8009 bound_to 7997
  155.6082  140.0647  157.2704 H   0  0  0  0  0  0  0  0  0  0  0  0  # atno 8010 bound_to 7997
  140.5970  143.2353  151.6013 H   0  0  0  0  0  0  0  0  0  0  0  0  # atno 10167 bound_to 10162
  156.6356  130.4914  149.6113 H   0  0  0  0  0  0  0  0  0  0  0  0  # atno 10718 bound_to 10713
  153.0858  135.4885  154.8593 H   0  0  0  0  0  0  0  0  0  0  0  0  # atno 10763 bound_to 10752
  154.7208  135.3039  154.9052 H   0  0  0  0  0  0  0  0  0  0  0  0  # atno 10764 bound_to 10752
  153.9717  135.6800  153.4800 H   0  0  0  0  0  0  0  0  0  0  0  0  # atno 10765 bound_to 10752
  140.9404  134.1201  157.4156 H   0  0  0  0  0  0  0  0  0  0  0  0  # atno 11005 bound_to 11000
  144.6789  140.2378  143.7347 LP  0  0  0  0  0  0  0  0  0  0  0  0  # atno 17320 bound_to 7965
  145.8218  139.2047  143.1933 LP  0  0  0  0  0  0  0  0  0  0  0  0  # atno 17321 bound_to 7965
  139.5265  144.3043  152.1047 LP  0  0  0  0  0  0  0  0  0  0  0  0  # atno 17342 bound_to 10162
  140.2218  144.4459  150.6339 LP  0  0  0  0  0  0  0  0  0  0  0  0  # atno 17343 bound_to 10162
  156.2199  130.6731  151.1358 LP  0  0  0  0  0  0  0  0  0  0  0  0  # atno 17370 bound_to 10713
  157.7186  131.0695  150.6226 LP  0  0  0  0  0  0  0  0  0  0  0  0  # atno 17371 bound_to 10713
  139.8819  135.0034  156.6188 LP  0  0  0  0  0  0  0  0  0  0  0  0  # atno 17394 bound_to 11000
  140.7742  133.8713  155.8515 LP  0  0  0  0  0  0  0  0  0  0  0  0  # atno 17395 bound_to 11000

$$$$
