#       Name:                AV-unprocessed.smi:2928
#       Creating user name   scv26
#       Creation time:       Fri Mar 27 16:12:58 2020


#       File generated by GOLD software.
#

@<TRIPOS>MOLECULE
AV-unprocessed.smi:2928
    59    62     1
SMALL
NO_CHARGES


@<TRIPOS>ATOM
      1 ****        -4.7388  -3.0961  -0.5484 C.3            1 S1                 0.0000
      2 ****        -4.1328  -1.7432  -0.5324 N.4            1 S1                 1.0000
      3 ****        -3.3473  -1.3982  -1.7415 C.3            1 S1                 0.0000
      4 ****        -2.0312  -2.2143  -1.8136 C.3            1 S1                 0.0000
      5 ****        -1.1862  -2.1729  -0.5265 C.3            1 S1                 0.0000
      6 ****        -2.0412  -2.2477   0.7514 C.3            1 S1                 0.0000
      7 ****        -3.3530  -1.4258   0.6875 C.3            1 S1                 0.0000
      8 ****        -3.1757   0.1071   0.7906 C.3            1 S1                 0.0000
      9 ****        -2.6997   0.8211  -0.5051 C.3            1 S1                 0.0000
     10 ****        -1.2605   1.0674  -0.5305 N.am           1 S1                 0.0000
     11 ****        -0.6004   1.9621   0.2185 C.2            1 S1                 0.0000
     12 ****        -1.1477   2.7191   1.0194 O.2            1 S1                 0.0000
     13 ****         0.7214   1.8949  -0.0065 N.am           1 S1                 0.0000
     14 ****         1.7611   2.5974   0.6639 C.ar           1 S1                 0.0000
     15 ****         1.5884   3.9045   1.1856 C.ar           1 S1                 0.0000
     16 ****         2.6679   4.5487   1.8224 C.ar           1 S1                 0.0000
     17 ****         3.9030   3.8812   1.9204 C.ar           1 S1                 0.0000
     18 ****         4.0388   2.6438   1.3993 N.pl3          1 S1                 1.0000
     19 ****         3.0333   1.9816   0.7764 C.ar           1 S1                 0.0000
     20 ****         3.2760   0.6939   0.2679 N.3            1 S1                 0.0000
     21 ****         4.2830   0.6133  -0.7766 C.3            1 S1                 0.0000
     22 ****         4.6346  -0.8726  -0.8882 C.3            1 S1                 0.0000
     23 ****         4.2052  -1.4822   0.4523 C.3            1 S1                 0.0000
     24 ****         3.6398  -0.3081   1.2553 C.3            1 S1                 0.0000
     25 ****        -3.1789   0.1382  -1.8113 C.3            1 S1                 0.0000
     26 ****        -3.9889  -3.8864  -0.5618 H              1 S1                 0.0000
     27 ****        -5.3729  -3.2177  -1.4269 H              1 S1                 0.0000
     28 ****        -5.3657  -3.2413   0.3317 H              1 S1                 0.0000
     29 ****        -3.9410  -1.6775  -2.6132 H              1 S1                 0.0000
     30 ****        -2.2788  -3.2550  -2.0248 H              1 S1                 0.0000
     31 ****        -1.4295  -1.8850  -2.6612 H              1 S1                 0.0000
     32 ****        -0.4753  -2.9997  -0.5339 H              1 S1                 0.0000
     33 ****        -0.5616  -1.2867  -0.5106 H              1 S1                 0.0000
     34 ****        -2.2930  -3.2927   0.9339 H              1 S1                 0.0000
     35 ****        -1.4465  -1.9404   1.6122 H              1 S1                 0.0000
     36 ****        -3.9533  -1.7201   1.5498 H              1 S1                 0.0000
     37 ****        -4.1535   0.5218   1.0396 H              1 S1                 0.0000
     38 ****        -2.5426   0.3579   1.6422 H              1 S1                 0.0000
     39 ****        -3.1487   1.8164  -0.5025 H              1 S1                 0.0000
     40 ****        -0.7191   0.4948  -1.1615 H              1 S1                 0.0000
     41 ****         1.0269   1.1690  -0.6380 H              1 S1                 0.0000
     42 ****         0.6494   4.4293   1.0965 H              1 S1                 0.0000
     43 ****         2.5499   5.5436   2.2262 H              1 S1                 0.0000
     44 ****         4.7816   4.2984   2.3910 H              1 S1                 0.0000
     45 ****         3.9032   1.0072  -1.7199 H              1 S1                 0.0000
     46 ****         5.1679   1.1892  -0.5022 H              1 S1                 0.0000
     47 ****         4.0752  -1.3354  -1.7022 H              1 S1                 0.0000
     48 ****         5.6962  -1.0192  -1.0901 H              1 S1                 0.0000
     49 ****         3.4332  -2.2349   0.2870 H              1 S1                 0.0000
     50 ****         5.0323  -1.9642   0.9743 H              1 S1                 0.0000
     51 ****         4.3992   0.0813   1.9350 H              1 S1                 0.0000
     52 ****         2.7759  -0.6069   1.8498 H              1 S1                 0.0000
     53 ****        -2.5438   0.4166  -2.6534 H              1 S1                 0.0000
     54 ****        -4.1593   0.5540  -2.0490 H              1 S1                 0.0000
     55 ****        -4.9206  -1.1108  -0.5270 H              1 S1                 0.0000
     56 ****         4.9455   2.1830   1.4798 H              1 S1                 0.0000
     57 ****        -2.1400   2.6874   1.1394 LP             1 S1                 0.0000
     58 ****        -0.6002   3.3659   1.5503 LP             1 S1                 0.0000
     59 ****         2.3722   0.4933  -0.1103 LP             1 S1                 0.0000
@<TRIPOS>BOND
    1    1    2 1     
    2    1   26 1     
    3    1   27 1     
    4    1   28 1     
    5    2    7 1     
    6    2    3 1     
    7    2   55 1     
    8    3   25 1     
    9    3    4 1     
   10    3   29 1     
   11    4    5 1     
   12    4   30 1     
   13    4   31 1     
   14    5    6 1     
   15    5   32 1     
   16    5   33 1     
   17    6    7 1     
   18    6   34 1     
   19    6   35 1     
   20    7    8 1     
   21    7   36 1     
   22    8    9 1     
   23    8   37 1     
   24    8   38 1     
   25    9   10 1     
   26    9   25 1     
   27    9   39 1     
   28   10   11 am    
   29   10   40 1     
   30   11   12 2     
   31   11   13 am    
   32   13   14 1     
   33   13   41 1     
   34   14   19 ar    
   35   14   15 ar    
   36   15   16 ar    
   37   15   42 1     
   38   16   17 ar    
   39   16   43 1     
   40   17   18 ar    
   41   17   44 1     
   42   18   19 ar    
   43   18   56 1     
   44   19   20 1     
   45   20   24 1     
   46   20   21 1     
   47   21   22 1     
   48   21   45 1     
   49   21   46 1     
   50   22   23 1     
   51   22   47 1     
   52   22   48 1     
   53   23   24 1     
   54   23   49 1     
   55   23   50 1     
   56   24   51 1     
   57   24   52 1     
   58   25   53 1     
   59   25   54 1     
   60   12   57 1     
   61   12   58 1     
   62   20   59 1     
@<TRIPOS>SUBSTRUCTURE
      1 S1             1
@<TRIPOS>SET
LONE_PAIRS      STATIC     ATOMS    <user>   **** ""
3 57 58 59
DONOR_HYDROGENS      STATIC     ATOMS    <user>   **** ""
4 55 40 41 56
ATOM$BLUE        STATIC     ATOMS    COLORGROUP SYSTEM
3 57 58 59
ATOM$RED        STATIC     ATOMS    COLORGROUP SYSTEM
4 55 40 41 56
