AV-unprocessed.smi:2247|AV-procd|sdf|9086|dock4
  -GOLD-   2272012293D 1   1.00000     0.00000
 Structure written by MMmdl.
 34 35  0  0  0  0  0  0  0  0  1 V2000
  149.0535  140.1786  157.2097 C   0  0  0  0  0  0  0  0  0  0  0  0
  149.4875  140.3162  155.7395 C   0  0  0  0  0  0  0  0  0  0  0  0
  150.0411  141.7165  155.4317 C   0  0  0  0  0  0  0  0  0  0  0  0
  148.4111  139.9758  154.7996 N   0  0  0  0  0  0  0  0  0  0  0  0
  147.9184  140.9145  153.8043 C   0  0  0  0  0  0  0  0  0  0  0  0
  147.0964  140.0553  152.8389 C   0  0  0  0  0  0  0  0  0  0  0  0
  146.7334  138.7785  153.6144 C   0  0  1  0  0  0  0  0  0  0  0  0
  146.8712  137.6070  152.7511 N   0  0  0  0  0  0  0  0  0  0  0  0
  145.8735  136.7772  152.4120 C   0  0  0  0  0  0  0  0  0  0  0  0
  144.7050  136.9388  152.7653 O   0  0  0  0  0  0  0  0  0  0  0  0
  146.3192  135.7627  151.6523 N   0  0  0  0  0  0  0  0  0  0  0  0
  145.5671  134.6800  151.1309 C   0  0  0  0  0  0  0  0  0  0  0  0
  144.2383  134.6056  151.0401 N   0  0  0  0  0  0  0  0  0  0  0  0
  143.9956  133.3630  150.4731 C   0  0  0  0  0  0  0  0  0  0  0  0
  145.2026  132.7516  150.2495 C   0  0  0  0  0  0  0  0  0  0  0  0
  146.2123  133.5787  150.6633 O   0  0  0  0  0  0  0  0  0  0  0  0
  147.8020  138.7856  154.7085 C   0  0  0  0  0  0  0  0  0  0  0  0
  148.0416  137.8038  155.4116 O   0  0  0  0  0  0  0  0  0  0  0  0
  149.8997  140.3387  157.8786 H   0  0  0  0  0  0  0  0  0  0  0  0
  148.6610  139.1819  157.4135 H   0  0  0  0  0  0  0  0  0  0  0  0
  148.2862  140.9052  157.4774 H   0  0  0  0  0  0  0  0  0  0  0  0
  150.2987  139.6013  155.5891 H   0  0  0  0  0  0  0  0  0  0  0  0
  150.8751  141.9620  156.0895 H   0  0  0  0  0  0  0  0  0  0  0  0
  149.2762  142.4822  155.5649 H   0  0  0  0  0  0  0  0  0  0  0  0
  150.4040  141.7827  154.4055 H   0  0  0  0  0  0  0  0  0  0  0  0
  147.2872  141.6603  154.2893 H   0  0  0  0  0  0  0  0  0  0  0  0
  148.7318  141.4292  153.2915 H   0  0  0  0  0  0  0  0  0  0  0  0
  146.2114  140.5807  152.4782 H   0  0  0  0  0  0  0  0  0  0  0  0
  147.7079  139.8184  151.9661 H   0  0  0  0  0  0  0  0  0  0  0  0
  145.7420  138.8576  154.0642 H   0  0  0  0  0  0  0  0  0  0  0  0
  147.8001  137.3968  152.4171 H   0  0  0  0  0  0  0  0  0  0  0  0
  147.3047  135.7541  151.4356 H   0  0  0  0  0  0  0  0  0  0  0  0
  142.9929  133.0143  150.2744 H   0  0  0  0  0  0  0  0  0  0  0  0
  145.4947  131.7984  149.8343 H   0  0  0  0  0  0  0  0  0  0  0  0
  1  2  1  0  0  0  0
  1 19  1  0  0  0  0
  1 20  1  0  0  0  0
  1 21  1  0  0  0  0
  2  3  1  0  0  0  0
  2  4  1  0  0  0  0
  2 22  1  0  0  0  0
  3 23  1  0  0  0  0
  3 24  1  0  0  0  0
  3 25  1  0  0  0  0
  4 17  1  0  0  0  0
  4  5  1  0  0  0  0
  5  6  1  0  0  0  0
  5 26  1  0  0  0  0
  5 27  1  0  0  0  0
  6  7  1  0  0  0  0
  6 28  1  0  0  0  0
  6 29  1  0  0  0  0
  7  8  1  0  0  0  0
  7 17  1  0  0  0  0
  7 30  1  0  0  0  0
  8  9  1  0  0  0  0
  8 31  1  0  0  0  0
  9 10  2  0  0  0  0
  9 11  1  0  0  0  0
 11 12  1  0  0  0  0
 11 32  1  0  0  0  0
 12 16  1  0  0  0  0
 12 13  2  0  0  0  0
 13 14  1  0  0  0  0
 14 15  2  0  0  0  0
 14 33  1  0  0  0  0
 15 16  1  0  0  0  0
 15 34  1  0  0  0  0
 17 18  2  0  0  0  0
M  END
> <s_m_source_file>
AV-unprocessed.smi

> <i_m_source_file_index>
2247

> <i_lp_mmshare_version>
43012

> <i_f3d_flags>
0

> <s_epik_input>
W0NIM11bQ0hdKFtDSDNdKU4xW0NIMl1bQ0gyXVtDQEhdKEMxPU8pW05IXUMoPU8pW05IXWMybltjSF1bY0hdbzI=

> <s_epik_cmdline>
J2VwaWtfcHl0aG9uJywgJy1waCcsICc3LjAnLCAnLXRuJywgJzgnLCAnLW1hJywgJzIwMCcsICctbWV0YWxfYmluZGluZycsICctaW1hZScsICc8aW5maWxlLm1hZT4nLCAnLW9tYWUnLCAnPG91dGZpbGUubWFlPic=

> <r_lp_tautomer_probability>
0.785861

> <r_epik_Ionization_Penalty>
5.15801e-05

> <r_epik_Ionization_Penalty_Charging>
0

> <r_epik_Ionization_Penalty_Neutral>
5.15801e-05

> <r_epik_State_Penalty>
0.0205761

> <r_epik_Charging_Adjusted_Penalty>
0.0205761

> <i_epik_Tot_Q>
0

> <i_epik_Tot_abs_Q>
0

> <r_epik_Metal_State_Penalty>
0.0168939

> <b_epik_Metal_Only>
0

> <s_lp_Force_Field>
OPLS_2005

> <r_lp_Energy>
20.5401

> <b_lp_Chiralities_Consistent>
1

> <s_lp_Variant>
AV-unprocessed.smi:2247-1

> <Gold.Version>
5.8.1

> <Gold.Id.Protein>
6NUR|6NUR_protein|mol2

> <Gold.PLP.Fitness>
31.5562

> <Gold.PLP.PLP>
-22.8756

> <Gold.PLP.part.hbond>
-2.0000

> <Gold.PLP.part.metal>
0.0000

> <Gold.PLP.part.buried>
-2.4605

> <Gold.PLP.part.nonpolar>
-18.8225

> <Gold.PLP.part.repulsive>
0.7429

> <Gold.PLP.ligand.clash>
0.0000

> <Gold.PLP.ligand.torsion>
0.1409

> <Gold.PLP.Chemscore.Hbond>
2.0000

> <Gold.PLP.Chemscore.CHOScore>
0.9601

> <Gold.PLP.Chemscore.Metal>
0.0000

> <Gold.Chemscore.Hbonds>
donor molecule, donor type, donor heavy atom, donor atom, acceptor molecule, acceptor atom, score
      L1  H     8    31       P1  7948  1.00
      L1  H    11    32       P1  7948  1.00
      L1  C    14    33       P1 10186  0.92

> <Gold.PLP.Chemscore.Internal.Correction>
0.0821

> <Gold.Rescore>
     Score         DG    S(hbond)    S(metal)    S(lipo)     H(rot)  DE(clash)    DE(int)     intcor
     13.14     -14.49       1.95        0.00      50.52       1.33       0.02       1.33       ----

> <Gold.Chemscore.Fitness>
13.1379

> <Gold.Chemscore.DG>
-14.4875

> <Gold.Chemscore.ZeroCoef>
-5.4800

> <Gold.Chemscore.Hbond>
1.9494

> <Gold.Chemscore.Metal>
0.0000

> <Gold.Chemscore.Lipo>
50.5203

> <Gold.Chemscore.Internal_Hbond>
0.0000

> <Gold.Chemscore.DEClash>
0.0183

> <Gold.Chemscore.DEInternal>
1.3313

> <Gold.Chemscore.Rot>
1.3338

> <Gold.Chemscore.Internal.Correction>
   9.000000E+99

> <Gold.Chemscore.Hbonds>
donor molecule, donor type, donor heavy atom, donor atom, acceptor molecule, acceptor atom, score
      L1  H     8    31       P1  7948  0.94
      L1  H    11    32       P1  7948  0.94

> <Gold.Chemscore.Hbond.Weighted>
-6.5111

> <Gold.Chemscore.Metal.Weighted>
-0.0000

> <Gold.Chemscore.Lipo.Weighted>
-5.9109

> <Gold.Chemscore.Internal_Hbond.Weighted>
0.0000

> <Gold.Chemscore.DEClash.Weighted>
0.0183

> <Gold.Chemscore.DEInternal.Weighted>
1.3313

> <Gold.Chemscore.Rot.Weighted>
3.4145

> <Gold.Chemscore.Internal.Correction.Weighted>
   9.000000E+99

> <Gold.Protein.RotatedTorsions>
[ 6907 6896 6895 6894 ] final   90.56 input  -60.11 | X-H torsion
[ 7974 7965 7964 7962 ] final  104.78 input  175.53 | X-H torsion
[ 8008 7997 7996 7995 ] final  130.67 input   59.86 | X-H torsion
[ 10167 10162 10161 10158 ] final -162.81 input  -65.29 | X-H torsion
[ 10718 10713 10712 10709 ] final  110.20 input   66.30 | X-H torsion
[ 10763 10752 10751 10750 ] final  176.11 input  -60.55 | X-H torsion
[ 11005 11000 10999 10996 ] final  -51.27 input  -57.11 | X-H torsion

> <Gold.Protein.ActiveResidues>
 VAL166  LYS551  ARG553  GLY616  TRP617  ASP618  TYR619  PRO620  LYS621  CYS622 
 ASP623  PHE694  ASN695  SER759  ASP760  ASP761  ALA762  ILE779  LEU786  VAL792 
 PHE793  MET794  SER795  GLU796  ALA797  LYS798  CYS799  TRP800  GLU811  SER814 

> <Gold.Protein.RotatedAtoms>
  152.5445  134.1792  159.8628 H   0  0  0  0  0  0  0  0  0  0  0  0  # atno 6907 bound_to 6896
  151.1796  133.4726  159.2601 H   0  0  0  0  0  0  0  0  0  0  0  0  # atno 6908 bound_to 6896
  151.1192  135.0081  159.8586 H   0  0  0  0  0  0  0  0  0  0  0  0  # atno 6909 bound_to 6896
  145.3283  139.2493  143.3674 H   0  0  0  0  0  0  0  0  0  0  0  0  # atno 7974 bound_to 7965
  156.2958  140.2590  156.2800 H   0  0  0  0  0  0  0  0  0  0  0  0  # atno 8008 bound_to 7997
  154.9611  140.0392  157.2209 H   0  0  0  0  0  0  0  0  0  0  0  0  # atno 8009 bound_to 7997
  154.7946  140.2817  155.5971 H   0  0  0  0  0  0  0  0  0  0  0  0  # atno 8010 bound_to 7997
  139.6365  144.0339  152.2058 H   0  0  0  0  0  0  0  0  0  0  0  0  # atno 10167 bound_to 10162
  157.6506  131.0928  150.6566 H   0  0  0  0  0  0  0  0  0  0  0  0  # atno 10718 bound_to 10713
  154.4767  135.2773  155.1602 H   0  0  0  0  0  0  0  0  0  0  0  0  # atno 10763 bound_to 10752
  154.3329  135.6186  153.5563 H   0  0  0  0  0  0  0  0  0  0  0  0  # atno 10764 bound_to 10752
  152.9870  135.5770  154.5159 H   0  0  0  0  0  0  0  0  0  0  0  0  # atno 10765 bound_to 10752
  141.0862  133.6642  156.3853 H   0  0  0  0  0  0  0  0  0  0  0  0  # atno 11005 bound_to 11000
  146.3055  140.3856  142.8688 LP  0  0  0  0  0  0  0  0  0  0  0  0  # atno 17320 bound_to 7965
  144.8884  140.7492  143.5942 LP  0  0  0  0  0  0  0  0  0  0  0  0  # atno 17321 bound_to 7965
  140.0018  144.6288  150.7723 LP  0  0  0  0  0  0  0  0  0  0  0  0  # atno 17342 bound_to 10162
  140.7468  143.2897  151.3366 LP  0  0  0  0  0  0  0  0  0  0  0  0  # atno 17343 bound_to 10162
  156.6878  130.4586  149.5609 LP  0  0  0  0  0  0  0  0  0  0  0  0  # atno 17370 bound_to 10713
  156.1883  130.6543  151.1032 LP  0  0  0  0  0  0  0  0  0  0  0  0  # atno 17371 bound_to 10713
  140.5358  134.6168  157.5364 LP  0  0  0  0  0  0  0  0  0  0  0  0  # atno 17394 bound_to 11000
  139.9680  134.7340  156.0098 LP  0  0  0  0  0  0  0  0  0  0  0  0  # atno 17395 bound_to 11000

$$$$
