AV-unprocessed.smi:2675|AV-procd|sdf|10363|dock6
  -GOLD-   2272014393D 1   1.00000     0.00000
 Structure written by MMmdl.
 36 37  0  0  0  0  0  0  0  0  1 V2000
  150.1531  143.2329  158.5659 C   0  0  0  0  0  0  0  0  0  0  0  0
  151.2743  142.4024  159.1113 C   0  0  0  0  0  0  0  0  0  0  0  0
  151.6463  141.2167  158.4822 N   0  0  0  0  0  0  0  0  0  0  0  0
  152.6459  140.7634  159.2242 C   0  0  0  0  0  0  0  0  0  0  0  0
  152.9575  141.5386  160.2721 N   0  0  0  0  0  0  0  0  0  0  0  0
  153.9978  141.2836  161.2545 C   0  0  0  0  0  0  0  0  0  0  0  0
  154.5054  139.8451  161.1539 C   0  0  0  0  0  0  0  0  0  0  0  0
  155.3963  139.5664  160.3530 O   0  0  0  0  0  0  0  0  0  0  0  0
  153.9240  138.9528  161.9746 N   0  0  0  0  0  0  0  0  0  0  0  0
  154.2247  137.5240  162.1329 C   0  0  2  0  0  0  0  0  0  0  0  0
  155.7415  137.4359  162.3722 C   0  0  0  0  0  0  0  0  0  0  0  0
  153.9208  136.7628  160.9051 C   0  0  0  0  0  0  0  0  0  0  0  0
  153.6806  136.1682  159.9414 N   0  0  0  0  0  0  0  0  0  0  0  0
  153.5095  136.8307  163.2950 C   0  0  0  0  0  0  0  0  0  0  0  0
  153.9466  136.9271  164.7403 C   0  0  0  0  0  0  0  0  0  0  0  0
  154.0851  135.6191  163.9934 C   0  0  0  0  0  0  0  0  0  0  0  0
  152.0725  142.6147  160.2176 C   0  0  0  0  0  0  0  0  0  0  0  0
  152.0771  143.7269  161.2183 C   0  0  0  0  0  0  0  0  0  0  0  0
  149.9770  144.1265  159.1634 H   0  0  0  0  0  0  0  0  0  0  0  0
  149.2221  142.6661  158.5431 H   0  0  0  0  0  0  0  0  0  0  0  0
  150.3666  143.5581  157.5474 H   0  0  0  0  0  0  0  0  0  0  0  0
  153.1623  139.8409  159.0024 H   0  0  0  0  0  0  0  0  0  0  0  0
  154.8191  141.9837  161.0936 H   0  0  0  0  0  0  0  0  0  0  0  0
  153.6083  141.4772  162.2545 H   0  0  0  0  0  0  0  0  0  0  0  0
  153.1992  139.3087  162.5806 H   0  0  0  0  0  0  0  0  0  0  0  0
  156.0686  136.3997  162.4670 H   0  0  0  0  0  0  0  0  0  0  0  0
  156.0318  137.9567  163.2857 H   0  0  0  0  0  0  0  0  0  0  0  0
  156.3004  137.8788  161.5464 H   0  0  0  0  0  0  0  0  0  0  0  0
  152.4294  136.8120  163.1598 H   0  0  0  0  0  0  0  0  0  0  0  0
  154.8635  137.4551  164.9860 H   0  0  0  0  0  0  0  0  0  0  0  0
  153.1642  136.9928  165.4934 H   0  0  0  0  0  0  0  0  0  0  0  0
  153.3972  134.8170  164.2528 H   0  0  0  0  0  0  0  0  0  0  0  0
  155.0914  135.2996  163.7310 H   0  0  0  0  0  0  0  0  0  0  0  0
  151.2824  144.4459  161.0239 H   0  0  0  0  0  0  0  0  0  0  0  0
  153.0241  144.2657  161.1931 H   0  0  0  0  0  0  0  0  0  0  0  0
  151.9338  143.3417  162.2279 H   0  0  0  0  0  0  0  0  0  0  0  0
  1  2  1  0  0  0  0
  1 19  1  0  0  0  0
  1 20  1  0  0  0  0
  1 21  1  0  0  0  0
  2 17  2  0  0  0  0
  2  3  1  0  0  0  0
  3  4  2  0  0  0  0
  4  5  1  0  0  0  0
  4 22  1  0  0  0  0
  5  6  1  0  0  0  0
  5 17  1  0  0  0  0
  6  7  1  0  0  0  0
  6 23  1  0  0  0  0
  6 24  1  0  0  0  0
  7  8  2  0  0  0  0
  7  9  1  0  0  0  0
  9 10  1  0  0  0  0
  9 25  1  0  0  0  0
 10 11  1  0  0  0  0
 10 12  1  0  0  0  0
 10 14  1  0  0  0  0
 11 26  1  0  0  0  0
 11 27  1  0  0  0  0
 11 28  1  0  0  0  0
 12 13  3  0  0  0  0
 14 16  1  0  0  0  0
 14 15  1  0  0  0  0
 14 29  1  0  0  0  0
 15 16  1  0  0  0  0
 15 30  1  0  0  0  0
 15 31  1  0  0  0  0
 16 32  1  0  0  0  0
 16 33  1  0  0  0  0
 17 18  1  0  0  0  0
 18 34  1  0  0  0  0
 18 35  1  0  0  0  0
 18 36  1  0  0  0  0
M  END
> <s_m_source_file>
AV-unprocessed.smi

> <i_m_source_file_index>
2675

> <i_lp_mmshare_version>
43012

> <i_f3d_flags>
0

> <s_epik_input>
W0NIM11jMW5bY0hdbihjMVtDSDNdKVtDSDJdQyg9TylbTkhdW0NAQF0oW0NIM10pKEMjTilbQ0hdMltDSDJdW0NIMl0y

> <s_epik_cmdline>
J2VwaWtfcHl0aG9uJywgJy1waCcsICc3LjAnLCAnLXRuJywgJzgnLCAnLW1hJywgJzIwMCcsICctbWV0YWxfYmluZGluZycsICctaW1hZScsICc8aW5maWxlLm1hZT4nLCAnLW9tYWUnLCAnPG91dGZpbGUubWFlPic=

> <r_lp_tautomer_probability>
1

> <r_epik_Ionization_Penalty>
0.876174

> <r_epik_Ionization_Penalty_Charging>
0.876172

> <r_epik_Ionization_Penalty_Neutral>
2.64295e-06

> <r_epik_State_Penalty>
0.913958

> <r_epik_Charging_Adjusted_Penalty>
1.79013

> <i_epik_Tot_Q>
0

> <i_epik_Tot_abs_Q>
0

> <r_epik_Metal_State_Penalty>
0.359336

> <b_epik_Metal_Only>
0

> <s_lp_Force_Field>
OPLS_2005

> <r_lp_Energy>
15.5339

> <b_lp_Chiralities_Consistent>
1

> <s_lp_Variant>
AV-unprocessed.smi:2675-4

> <Gold.Version>
5.8.1

> <Gold.Id.Protein>
6NUR|6NUR_protein|mol2

> <Gold.PLP.Fitness>
39.5164

> <Gold.PLP.PLP>
-37.6966

> <Gold.PLP.part.hbond>
-1.0000

> <Gold.PLP.part.metal>
0.0000

> <Gold.PLP.part.buried>
-4.2097

> <Gold.PLP.part.nonpolar>
-32.6852

> <Gold.PLP.part.repulsive>
0.0149

> <Gold.PLP.ligand.clash>
0.0000

> <Gold.PLP.ligand.torsion>
1.3364

> <Gold.PLP.Chemscore.Hbond>
1.0000

> <Gold.PLP.Chemscore.CHOScore>
0.0000

> <Gold.PLP.Chemscore.Metal>
0.0000

> <Gold.Chemscore.Hbonds>
donor molecule, donor type, donor heavy atom, donor atom, acceptor molecule, acceptor atom, score
      P1  H  6896  6909       L1    13  1.00

> <Gold.PLP.Chemscore.Internal.Correction>
1.4925

> <Gold.Rescore>
     Score         DG    S(hbond)    S(metal)    S(lipo)     H(rot)  DE(clash)    DE(int)     intcor
     12.73     -14.87       1.00        0.00      89.87       1.74       0.04       2.10       ----

> <Gold.Chemscore.Fitness>
12.7285

> <Gold.Chemscore.DG>
-14.8657

> <Gold.Chemscore.ZeroCoef>
-5.4800

> <Gold.Chemscore.Hbond>
0.9977

> <Gold.Chemscore.Metal>
0.0000

> <Gold.Chemscore.Lipo>
89.8737

> <Gold.Chemscore.Internal_Hbond>
0.0000

> <Gold.Chemscore.DEClash>
0.0368

> <Gold.Chemscore.DEInternal>
2.1004

> <Gold.Chemscore.Rot>
1.7429

> <Gold.Chemscore.Internal.Correction>
   9.000000E+99

> <Gold.Chemscore.Hbonds>
donor molecule, donor type, donor heavy atom, donor atom, acceptor molecule, acceptor atom, score
      P1  H  6896  6909       L1    13  0.96

> <Gold.Chemscore.Hbond.Weighted>
-3.3322

> <Gold.Chemscore.Metal.Weighted>
-0.0000

> <Gold.Chemscore.Lipo.Weighted>
-10.5152

> <Gold.Chemscore.Internal_Hbond.Weighted>
0.0000

> <Gold.Chemscore.DEClash.Weighted>
0.0368

> <Gold.Chemscore.DEInternal.Weighted>
2.1004

> <Gold.Chemscore.Rot.Weighted>
4.4617

> <Gold.Chemscore.Internal.Correction.Weighted>
   9.000000E+99

> <Gold.Protein.RotatedTorsions>
[ 6907 6896 6895 6894 ] final -178.04 input  -60.11 | X-H torsion
[ 7974 7965 7964 7962 ] final   54.96 input  175.53 | X-H torsion
[ 8008 7997 7996 7995 ] final   30.02 input   59.86 | X-H torsion
[ 10167 10162 10161 10158 ] final  -18.30 input  -65.29 | X-H torsion
[ 10718 10713 10712 10709 ] final  137.23 input   66.30 | X-H torsion
[ 10763 10752 10751 10750 ] final  -46.89 input  -60.55 | X-H torsion
[ 11005 11000 10999 10996 ] final  -83.07 input  -57.11 | X-H torsion

> <Gold.Protein.ActiveResidues>
 VAL166  LYS551  ARG553  GLY616  TRP617  ASP618  TYR619  PRO620  LYS621  CYS622 
 ASP623  PHE694  ASN695  SER759  ASP760  ASP761  ALA762  ILE779  LEU786  VAL792 
 PHE793  MET794  SER795  GLU796  ALA797  LYS798  CYS799  TRP800  GLU811  SER814 

> <Gold.Protein.RotatedAtoms>
  151.6308  133.3332  159.3108 H   0  0  0  0  0  0  0  0  0  0  0  0  # atno 6907 bound_to 6896
  150.8058  134.7185  159.6654 H   0  0  0  0  0  0  0  0  0  0  0  0  # atno 6908 bound_to 6896
  152.4153  134.6057  160.0063 H   0  0  0  0  0  0  0  0  0  0  0  0  # atno 6909 bound_to 6896
  145.9554  139.4010  143.0281 H   0  0  0  0  0  0  0  0  0  0  0  0  # atno 7974 bound_to 7965
  155.0837  140.3213  155.4594 H   0  0  0  0  0  0  0  0  0  0  0  0  # atno 8008 bound_to 7997
  156.2760  140.2090  156.5910 H   0  0  0  0  0  0  0  0  0  0  0  0  # atno 8009 bound_to 7997
  154.6958  140.0512  157.0396 H   0  0  0  0  0  0  0  0  0  0  0  0  # atno 8010 bound_to 7997
  140.7257  143.4930  150.9968 H   0  0  0  0  0  0  0  0  0  0  0  0  # atno 10167 bound_to 10162
  157.4383  131.1055  151.0173 H   0  0  0  0  0  0  0  0  0  0  0  0  # atno 10718 bound_to 10713
  154.0523  135.6629  153.4802 H   0  0  0  0  0  0  0  0  0  0  0  0  # atno 10763 bound_to 10752
  153.0459  135.5115  154.7738 H   0  0  0  0  0  0  0  0  0  0  0  0  # atno 10764 bound_to 10752
  154.6749  135.3035  154.9659 H   0  0  0  0  0  0  0  0  0  0  0  0  # atno 10765 bound_to 10752
  141.1660  133.7276  156.8665 H   0  0  0  0  0  0  0  0  0  0  0  0  # atno 11005 bound_to 11000
  145.8114  140.9724  143.0947 LP  0  0  0  0  0  0  0  0  0  0  0  0  # atno 17320 bound_to 7965
  144.6804  139.9926  143.7484 LP  0  0  0  0  0  0  0  0  0  0  0  0  # atno 17321 bound_to 7965
  139.8635  143.7284  152.3172 LP  0  0  0  0  0  0  0  0  0  0  0  0  # atno 17342 bound_to 10162
  139.7508  144.7535  151.0510 LP  0  0  0  0  0  0  0  0  0  0  0  0  # atno 17343 bound_to 10162
  157.1045  130.5995  149.5467 LP  0  0  0  0  0  0  0  0  0  0  0  0  # atno 17370 bound_to 10713
  155.9939  130.5001  150.7397 LP  0  0  0  0  0  0  0  0  0  0  0  0  # atno 17371 bound_to 10713
  140.1812  134.9032  157.2950 LP  0  0  0  0  0  0  0  0  0  0  0  0  # atno 17394 bound_to 11000
  140.2393  134.3814  155.7487 LP  0  0  0  0  0  0  0  0  0  0  0  0  # atno 17395 bound_to 11000

$$$$
