AV-unprocessed.smi:568|AV-procd|sdf|2958|dock1
  -GOLD-   2262023463D 1   1.00000     0.00000
 Structure written by MMmdl.
 35 36  0  0  0  0  0  0  0  0  1 V2000
  153.9534  141.0687  160.7585 C   0  0  0  0  0  0  0  0  0  0  0  0
  153.2079  142.3612  160.9301 C   0  0  0  0  0  0  0  0  0  0  0  0
  153.1327  142.9076  162.1318 N   0  0  0  0  0  0  0  0  0  0  0  0
  152.3899  144.0812  161.9739 O   0  0  0  0  0  0  0  0  0  0  0  0
  152.0416  144.1969  160.6676 C   0  0  0  0  0  0  0  0  0  0  0  0
  151.2397  145.3991  160.2999 C   0  0  0  0  0  0  0  0  0  0  0  0
  152.5265  143.1384  159.9486 C   0  0  0  0  0  0  0  0  0  0  0  0
  152.3836  142.8551  158.4752 C   0  0  0  0  0  0  0  0  0  0  0  0
  151.5778  141.5710  158.2769 C   0  0  0  0  0  0  0  0  0  0  0  0
  151.2693  140.8830  159.2498 O   0  0  0  0  0  0  0  0  0  0  0  0
  151.2497  141.2585  157.0135 N   0  0  0  0  0  0  0  0  0  0  0  0
  150.5040  140.0743  156.5985 C   0  0  0  0  0  0  0  0  0  0  0  0
  151.0802  139.4498  155.3135 C   0  0  1  0  0  0  0  0  0  0  0  0
  152.5838  139.5864  155.1879 C   0  0  0  0  0  0  0  0  0  0  0  0
  152.9160  138.5293  154.1382 C   0  0  0  0  0  0  0  0  0  0  0  0
  151.9254  137.5144  154.2758 O   0  0  0  0  0  0  0  0  0  0  0  0
  150.9239  137.9325  155.1976 C   0  0  0  0  0  0  0  0  0  0  0  0
  154.1670  140.8668  159.7091 H   0  0  0  0  0  0  0  0  0  0  0  0
  153.3749  140.2301  161.1462 H   0  0  0  0  0  0  0  0  0  0  0  0
  154.9064  141.0898  161.2875 H   0  0  0  0  0  0  0  0  0  0  0  0
  151.1793  145.5159  159.2180 H   0  0  0  0  0  0  0  0  0  0  0  0
  151.6890  146.3035  160.7105 H   0  0  0  0  0  0  0  0  0  0  0  0
  150.2245  145.3187  160.6884 H   0  0  0  0  0  0  0  0  0  0  0  0
  151.8756  143.6717  157.9611 H   0  0  0  0  0  0  0  0  0  0  0  0
  153.3560  142.7578  157.9910 H   0  0  0  0  0  0  0  0  0  0  0  0
  151.5479  141.8860  156.2808 H   0  0  0  0  0  0  0  0  0  0  0  0
  150.5626  139.3496  157.4108 H   0  0  0  0  0  0  0  0  0  0  0  0
  149.4447  140.3057  156.4750 H   0  0  0  0  0  0  0  0  0  0  0  0
  150.6176  139.9180  154.4428 H   0  0  0  0  0  0  0  0  0  0  0  0
  152.9015  140.5876  154.8955 H   0  0  0  0  0  0  0  0  0  0  0  0
  153.0687  139.3372  156.1331 H   0  0  0  0  0  0  0  0  0  0  0  0
  152.8421  138.9514  153.1352 H   0  0  0  0  0  0  0  0  0  0  0  0
  153.9207  138.1242  154.2615 H   0  0  0  0  0  0  0  0  0  0  0  0
  151.1174  137.4500  156.1568 H   0  0  0  0  0  0  0  0  0  0  0  0
  149.9290  137.6363  154.8642 H   0  0  0  0  0  0  0  0  0  0  0  0
  1  2  1  0  0  0  0
  1 18  1  0  0  0  0
  1 19  1  0  0  0  0
  1 20  1  0  0  0  0
  2  7  1  0  0  0  0
  2  3  2  0  0  0  0
  3  4  1  0  0  0  0
  4  5  1  0  0  0  0
  5  6  1  0  0  0  0
  5  7  2  0  0  0  0
  6 21  1  0  0  0  0
  6 22  1  0  0  0  0
  6 23  1  0  0  0  0
  7  8  1  0  0  0  0
  8  9  1  0  0  0  0
  8 24  1  0  0  0  0
  8 25  1  0  0  0  0
  9 10  2  0  0  0  0
  9 11  1  0  0  0  0
 11 12  1  0  0  0  0
 11 26  1  0  0  0  0
 12 13  1  0  0  0  0
 12 27  1  0  0  0  0
 12 28  1  0  0  0  0
 13 17  1  0  0  0  0
 13 14  1  0  0  0  0
 13 29  1  0  0  0  0
 14 15  1  0  0  0  0
 14 30  1  0  0  0  0
 14 31  1  0  0  0  0
 15 16  1  0  0  0  0
 15 32  1  0  0  0  0
 15 33  1  0  0  0  0
 16 17  1  0  0  0  0
 17 34  1  0  0  0  0
 17 35  1  0  0  0  0
M  END
> <s_m_source_file>
AV-unprocessed.smi

> <i_m_source_file_index>
568

> <i_lp_mmshare_version>
43012

> <i_f3d_flags>
0

> <s_epik_input>
W0NIM11jMW5vYyhbQ0gzXSljMVtDSDJdQyg9TylbTkhdW0NIMl1bQ0BASF0yW0NIMl1bQ0gyXU9bQ0gyXTI=

> <s_epik_cmdline>
J2VwaWtfcHl0aG9uJywgJy1waCcsICc3LjAnLCAnLXRuJywgJzgnLCAnLW1hJywgJzIwMCcsICctbWV0YWxfYmluZGluZycsICctaW1hZScsICc8aW5maWxlLm1hZT4nLCAnLW9tYWUnLCAnPG91dGZpbGUubWFlPic=

> <r_lp_tautomer_probability>
1

> <r_epik_Ionization_Penalty>
2.07075e-08

> <r_epik_Ionization_Penalty_Charging>
0

> <r_epik_Ionization_Penalty_Neutral>
2.07075e-08

> <r_epik_State_Penalty>
-0

> <r_epik_Charging_Adjusted_Penalty>
0

> <i_epik_Tot_Q>
0

> <i_epik_Tot_abs_Q>
0

> <r_epik_Metal_State_Penalty>
-0

> <b_epik_Metal_Only>
0

> <s_lp_Force_Field>
OPLS_2005

> <r_lp_Energy>
12.1953

> <b_lp_Chiralities_Consistent>
1

> <s_lp_Variant>
AV-unprocessed.smi:568-2

> <Gold.Version>
5.8.1

> <Gold.Id.Protein>
6NUR|6NUR_protein|mol2

> <Gold.PLP.Fitness>
38.4152

> <Gold.PLP.PLP>
-36.6167

> <Gold.PLP.part.hbond>
-1.3264

> <Gold.PLP.part.metal>
0.0000

> <Gold.PLP.part.buried>
-4.8104

> <Gold.PLP.part.nonpolar>
-31.5731

> <Gold.PLP.part.repulsive>
0.6845

> <Gold.PLP.ligand.clash>
0.0000

> <Gold.PLP.ligand.torsion>
0.5482

> <Gold.PLP.Chemscore.Hbond>
0.9600

> <Gold.PLP.Chemscore.CHOScore>
0.0000

> <Gold.PLP.Chemscore.Metal>
0.0000

> <Gold.Chemscore.Hbonds>
donor molecule, donor type, donor heavy atom, donor atom, acceptor molecule, acceptor atom, score
      P1  H 10752 10765       L1    16  0.74

> <Gold.PLP.Chemscore.Internal.Correction>
0.0150

> <Gold.Rescore>
     Score         DG    S(hbond)    S(metal)    S(lipo)     H(rot)  DE(clash)    DE(int)     intcor
     13.17     -16.08       0.74        0.00     103.38       1.56       1.44       1.47       ----

> <Gold.Chemscore.Fitness>
13.1665

> <Gold.Chemscore.DG>
-16.0781

> <Gold.Chemscore.ZeroCoef>
-5.4800

> <Gold.Chemscore.Hbond>
0.7435

> <Gold.Chemscore.Metal>
0.0000

> <Gold.Chemscore.Lipo>
103.3833

> <Gold.Chemscore.Internal_Hbond>
0.0000

> <Gold.Chemscore.DEClash>
1.4427

> <Gold.Chemscore.DEInternal>
1.4689

> <Gold.Chemscore.Rot>
1.5551

> <Gold.Chemscore.Internal.Correction>
   9.000000E+99

> <Gold.Chemscore.Hbonds>
donor molecule, donor type, donor heavy atom, donor atom, acceptor molecule, acceptor atom, score
      P1  H 10752 10765       L1    16  0.39

> <Gold.Chemscore.Hbond.Weighted>
-2.4832

> <Gold.Chemscore.Metal.Weighted>
-0.0000

> <Gold.Chemscore.Lipo.Weighted>
-12.0958

> <Gold.Chemscore.Internal_Hbond.Weighted>
0.0000

> <Gold.Chemscore.DEClash.Weighted>
1.4427

> <Gold.Chemscore.DEInternal.Weighted>
1.4689

> <Gold.Chemscore.Rot.Weighted>
3.9809

> <Gold.Chemscore.Internal.Correction.Weighted>
   9.000000E+99

> <Gold.Protein.RotatedTorsions>
[ 6907 6896 6895 6894 ] final -124.77 input  -60.11 | X-H torsion
[ 7974 7965 7964 7962 ] final -155.89 input  175.53 | X-H torsion
[ 8008 7997 7996 7995 ] final -169.40 input   59.86 | X-H torsion
[ 10167 10162 10161 10158 ] final -138.03 input  -65.29 | X-H torsion
[ 10718 10713 10712 10709 ] final  165.74 input   66.30 | X-H torsion
[ 10763 10752 10751 10750 ] final  164.45 input  -60.55 | X-H torsion
[ 11005 11000 10999 10996 ] final  133.88 input  -57.11 | X-H torsion

> <Gold.Protein.ActiveResidues>
 VAL166  LYS551  ARG553  GLY616  TRP617  ASP618  TYR619  PRO620  LYS621  CYS622 
 ASP623  PHE694  ASN695  SER759  ASP760  ASP761  ALA762  ILE779  LEU786  VAL792 
 PHE793  MET794  SER795  GLU796  ALA797  LYS798  CYS799  TRP800  GLU811  SER814 

> <Gold.Protein.RotatedAtoms>
  150.8801  133.7384  159.2934 H   0  0  0  0  0  0  0  0  0  0  0  0  # atno 6907 bound_to 6896
  151.4968  135.1058  159.9828 H   0  0  0  0  0  0  0  0  0  0  0  0  # atno 6908 bound_to 6896
  152.4754  133.8080  159.7044 H   0  0  0  0  0  0  0  0  0  0  0  0  # atno 6909 bound_to 6896
  144.7618  140.4186  143.5971 H   0  0  0  0  0  0  0  0  0  0  0  0  # atno 7974 bound_to 7965
  155.9044  140.1046  157.1326 H   0  0  0  0  0  0  0  0  0  0  0  0  # atno 8008 bound_to 7997
  154.4030  140.1286  156.4542 H   0  0  0  0  0  0  0  0  0  0  0  0  # atno 8009 bound_to 7997
  155.7384  140.3467  155.5095 H   0  0  0  0  0  0  0  0  0  0  0  0  # atno 8010 bound_to 7997
  139.8518  143.7188  152.2657 H   0  0  0  0  0  0  0  0  0  0  0  0  # atno 10167 bound_to 10162
  157.0758  131.0378  151.2594 H   0  0  0  0  0  0  0  0  0  0  0  0  # atno 10718 bound_to 10713
  154.3092  135.2757  155.2574 H   0  0  0  0  0  0  0  0  0  0  0  0  # atno 10763 bound_to 10752
  154.4977  135.5816  153.6510 H   0  0  0  0  0  0  0  0  0  0  0  0  # atno 10764 bound_to 10752
  152.9890  135.6150  154.3268 H   0  0  0  0  0  0  0  0  0  0  0  0  # atno 10765 bound_to 10752
  139.9879  134.9525  156.9787 H   0  0  0  0  0  0  0  0  0  0  0  0  # atno 11005 bound_to 11000
  145.6594  139.1578  143.2817 LP  0  0  0  0  0  0  0  0  0  0  0  0  # atno 17320 bound_to 7965
  146.1689  140.6676  142.9242 LP  0  0  0  0  0  0  0  0  0  0  0  0  # atno 17321 bound_to 7965
  139.7458  144.7547  151.0583 LP  0  0  0  0  0  0  0  0  0  0  0  0  # atno 17342 bound_to 10162
  140.7786  143.4919  150.9883 LP  0  0  0  0  0  0  0  0  0  0  0  0  # atno 17343 bound_to 10162
  157.4840  130.7782  149.7442 LP  0  0  0  0  0  0  0  0  0  0  0  0  # atno 17370 bound_to 10713
  155.9937  130.3922  150.2888 LP  0  0  0  0  0  0  0  0  0  0  0  0  # atno 17371 bound_to 10713
  140.4965  134.1140  155.7242 LP  0  0  0  0  0  0  0  0  0  0  0  0  # atno 17394 bound_to 11000
  141.1541  133.8915  157.2023 LP  0  0  0  0  0  0  0  0  0  0  0  0  # atno 17395 bound_to 11000

$$$$
