AV-unprocessed.smi:3287|AV-procd|sdf|12591|dock8
  -GOLD-   2272018513D 1   1.00000     0.00000
 Structure written by MMmdl.
 43 44  0  0  0  0  0  0  0  0  2 V2000
  152.6264  143.1537  161.6293 C   0  0  0  0  0  0  0  0  0  0  0  0
  153.0118  143.3254  160.1461 C   0  0  1  0  0  0  0  0  0  0  0  0
  153.3703  141.9757  159.4915 C   0  0  0  0  0  0  0  0  0  0  0  0
  152.1309  141.0993  159.2429 C   0  0  0  0  0  0  0  0  0  0  0  0
  151.0793  141.8349  158.3934 C   0  0  1  0  0  0  0  0  0  0  0  0
  149.8926  140.9715  158.2064 N   0  3  0  0  0  0  0  0  0  0  0  0
  149.1029  141.2392  156.9847 C   0  0  0  0  0  0  0  0  0  0  0  0
  150.0064  141.3558  155.7450 C   0  0  2  0  0  0  0  0  0  0  0  0
  149.2434  141.8729  154.6717 O   0  0  0  0  0  0  0  0  0  0  0  0
  150.6345  140.0149  155.3980 C   0  0  0  0  0  0  0  0  0  0  0  0
  149.8505  138.9794  154.8473 C   0  0  0  0  0  0  0  0  0  0  0  0
  150.4750  137.7556  154.5328 C   0  0  0  0  0  0  0  0  0  0  0  0
  151.7899  137.5218  154.7302 N   0  0  0  0  0  0  0  0  0  0  0  0
  152.5367  138.5165  155.2550 C   0  0  0  0  0  0  0  0  0  0  0  0
  152.0113  139.7769  155.6029 C   0  0  0  0  0  0  0  0  0  0  0  0
  150.7038  143.1827  159.0453 C   0  0  0  0  0  0  0  0  0  0  0  0
  151.9466  144.0620  159.2941 C   0  0  1  0  0  0  0  0  0  0  0  0
  151.5669  145.4422  159.8554 C   0  0  0  0  0  0  0  0  0  0  0  0
  151.6895  142.6116  161.7523 H   0  0  0  0  0  0  0  0  0  0  0  0
  152.5198  144.1169  162.1283 H   0  0  0  0  0  0  0  0  0  0  0  0
  153.3970  142.6026  162.1692 H   0  0  0  0  0  0  0  0  0  0  0  0
  153.9178  143.9335  160.1343 H   0  0  0  0  0  0  0  0  0  0  0  0
  153.8695  142.1610  158.5394 H   0  0  0  0  0  0  0  0  0  0  0  0
  154.0909  141.4364  160.1073 H   0  0  0  0  0  0  0  0  0  0  0  0
  152.4347  140.1796  158.7413 H   0  0  0  0  0  0  0  0  0  0  0  0
  151.6965  140.7958  160.1963 H   0  0  0  0  0  0  0  0  0  0  0  0
  151.5193  142.0249  157.4131 H   0  0  0  0  0  0  0  0  0  0  0  0
  150.2162  140.0168  158.1408 H   0  0  0  0  0  0  0  0  0  0  0  0
  148.3894  140.4285  156.8357 H   0  0  0  0  0  0  0  0  0  0  0  0
  148.5245  142.1550  157.1157 H   0  0  0  0  0  0  0  0  0  0  0  0
  150.8072  142.0688  155.9471 H   0  0  0  0  0  0  0  0  0  0  0  0
  148.9455  142.7392  154.9063 H   0  0  0  0  0  0  0  0  0  0  0  0
  148.7942  139.1140  154.6672 H   0  0  0  0  0  0  0  0  0  0  0  0
  149.9028  136.9430  154.1100 H   0  0  0  0  0  0  0  0  0  0  0  0
  153.5853  138.3034  155.4007 H   0  0  0  0  0  0  0  0  0  0  0  0
  152.6550  140.5394  156.0164 H   0  0  0  0  0  0  0  0  0  0  0  0
  150.0107  143.7272  158.4040 H   0  0  0  0  0  0  0  0  0  0  0  0
  150.1753  143.0084  159.9835 H   0  0  0  0  0  0  0  0  0  0  0  0
  152.4010  144.2475  158.3194 H   0  0  0  0  0  0  0  0  0  0  0  0
  151.0244  145.3614  160.7974 H   0  0  0  0  0  0  0  0  0  0  0  0
  150.9272  145.9837  159.1579 H   0  0  0  0  0  0  0  0  0  0  0  0
  152.4528  146.0537  160.0287 H   0  0  0  0  0  0  0  0  0  0  0  0
  149.2957  141.0506  159.0172 H   0  0  0  0  0  0  0  0  0  0  0  0
  1  2  1  0  0  0  0
  1 19  1  0  0  0  0
  1 20  1  0  0  0  0
  1 21  1  0  0  0  0
  2 17  1  0  0  0  0
  2  3  1  0  0  0  0
  2 22  1  0  0  0  0
  3  4  1  0  0  0  0
  3 23  1  0  0  0  0
  3 24  1  0  0  0  0
  4  5  1  0  0  0  0
  4 25  1  0  0  0  0
  4 26  1  0  0  0  0
  5  6  1  0  0  0  0
  5 16  1  0  0  0  0
  5 27  1  0  0  0  0
  6  7  1  0  0  0  0
  6 28  1  0  0  0  0
  6 43  1  0  0  0  0
  7  8  1  0  0  0  0
  7 29  1  0  0  0  0
  7 30  1  0  0  0  0
  8  9  1  0  0  0  0
  8 10  1  0  0  0  0
  8 31  1  0  0  0  0
  9 32  1  0  0  0  0
 10 15  1  0  0  0  0
 10 11  2  0  0  0  0
 11 12  1  0  0  0  0
 11 33  1  0  0  0  0
 12 13  2  0  0  0  0
 12 34  1  0  0  0  0
 13 14  1  0  0  0  0
 14 15  2  0  0  0  0
 14 35  1  0  0  0  0
 15 36  1  0  0  0  0
 16 17  1  0  0  0  0
 16 37  1  0  0  0  0
 16 38  1  0  0  0  0
 17 18  1  0  0  0  0
 17 39  1  0  0  0  0
 18 40  1  0  0  0  0
 18 41  1  0  0  0  0
 18 42  1  0  0  0  0
M  CHG  1   6   1
M  END
> <s_m_source_file>
AV-unprocessed.smi

> <i_m_source_file_index>
3287

> <i_lp_mmshare_version>
43012

> <i_f3d_flags>
0

> <s_epik_input>
W0NIM11bQ0BASF0xW0NIMl1bQ0gyXVtDQEhdKFtDSDJdW0NASF0xW0NIM10pW05IXVtDSDJdW0NASF0oW09IXSljMltjSF1bY0hdbltjSF1bY0hdMg==

> <s_epik_cmdline>
J2VwaWtfcHl0aG9uJywgJy1waCcsICc3LjAnLCAnLXRuJywgJzgnLCAnLW1hJywgJzIwMCcsICctbWV0YWxfYmluZGluZycsICctaW1hZScsICc8aW5maWxlLm1hZT4nLCAnLW9tYWUnLCAnPG91dGZpbGUubWFlPic=

> <r_lp_tautomer_probability>
1

> <r_epik_Ionization_Penalty>
0.00537262

> <r_epik_Ionization_Penalty_Charging>
0.00321624

> <r_epik_Ionization_Penalty_Neutral>
0.00215638

> <r_epik_State_Penalty>
-0

> <r_epik_Charging_Adjusted_Penalty>
0.00321624

> <i_epik_Tot_Q>
1

> <i_epik_Tot_abs_Q>
1

> <r_epik_Metal_State_Penalty>
-0

> <b_epik_Metal_Only>
0

> <s_lp_Force_Field>
OPLS_2005

> <r_lp_Energy>
17.4427

> <b_lp_Chiralities_Consistent>
1

> <s_lp_Variant>
AV-unprocessed.smi:3287-2

> <Gold.Version>
5.8.1

> <Gold.Id.Protein>
6NUR|6NUR_protein|mol2

> <Gold.PLP.Fitness>
53.6462

> <Gold.PLP.PLP>
-47.1040

> <Gold.PLP.part.hbond>
-3.8849

> <Gold.PLP.part.metal>
0.0000

> <Gold.PLP.part.buried>
-2.2952

> <Gold.PLP.part.nonpolar>
-40.5711

> <Gold.PLP.part.repulsive>
0.2677

> <Gold.PLP.ligand.clash>
0.0000

> <Gold.PLP.ligand.torsion>
0.5754

> <Gold.PLP.Chemscore.Hbond>
1.5215

> <Gold.PLP.Chemscore.CHOScore>
1.0280

> <Gold.PLP.Chemscore.Metal>
0.0000

> <Gold.Chemscore.Hbonds>
donor molecule, donor type, donor heavy atom, donor atom, acceptor molecule, acceptor atom, score
      L1  H     9    32       P1  8028  0.81
      P1  H 10752 10765       L1    13  0.51
      L1  C    12    34       P1  7948  1.00

> <Gold.PLP.Chemscore.Internal.Correction>
0.0443

> <Gold.Rescore>
     Score         DG    S(hbond)    S(metal)    S(lipo)     H(rot)  DE(clash)    DE(int)     intcor
     19.92     -20.38       1.41        0.00     128.75       1.90       0.08       0.38       ----

> <Gold.Chemscore.Fitness>
19.9201

> <Gold.Chemscore.DG>
-20.3818

> <Gold.Chemscore.ZeroCoef>
-5.4800

> <Gold.Chemscore.Hbond>
1.4106

> <Gold.Chemscore.Metal>
0.0000

> <Gold.Chemscore.Lipo>
128.7455

> <Gold.Chemscore.Internal_Hbond>
0.0000

> <Gold.Chemscore.DEClash>
0.0825

> <Gold.Chemscore.DEInternal>
0.3792

> <Gold.Chemscore.Rot>
1.9035

> <Gold.Chemscore.Internal.Correction>
   9.000000E+99

> <Gold.Chemscore.Hbonds>
donor molecule, donor type, donor heavy atom, donor atom, acceptor molecule, acceptor atom, score
      L1  H     9    32       P1  8028  0.80
      P1  H 10752 10765       L1    13  0.42

> <Gold.Chemscore.Hbond.Weighted>
-4.7115

> <Gold.Chemscore.Metal.Weighted>
-0.0000

> <Gold.Chemscore.Lipo.Weighted>
-15.0632

> <Gold.Chemscore.Internal_Hbond.Weighted>
0.0000

> <Gold.Chemscore.DEClash.Weighted>
0.0825

> <Gold.Chemscore.DEInternal.Weighted>
0.3792

> <Gold.Chemscore.Rot.Weighted>
4.8729

> <Gold.Chemscore.Internal.Correction.Weighted>
   9.000000E+99

> <Gold.Protein.RotatedTorsions>
[ 6907 6896 6895 6894 ] final   99.57 input  -60.11 | X-H torsion
[ 7974 7965 7964 7962 ] final  120.66 input  175.53 | X-H torsion
[ 8008 7997 7996 7995 ] final   77.47 input   59.86 | X-H torsion
[ 10167 10162 10161 10158 ] final   16.67 input  -65.29 | X-H torsion
[ 10718 10713 10712 10709 ] final   52.31 input   66.30 | X-H torsion
[ 10763 10752 10751 10750 ] final  166.35 input  -60.55 | X-H torsion
[ 11005 11000 10999 10996 ] final  155.06 input  -57.11 | X-H torsion

> <Gold.Protein.ActiveResidues>
 VAL166  LYS551  ARG553  GLY616  TRP617  ASP618  TYR619  PRO620  LYS621  CYS622 
 ASP623  PHE694  ASN695  SER759  ASP760  ASP761  ALA762  ILE779  LEU786  VAL792 
 PHE793  MET794  SER795  GLU796  ALA797  LYS798  CYS799  TRP800  GLU811  SER814 

> <Gold.Protein.RotatedAtoms>
  152.5389  134.0408  159.8066 H   0  0  0  0  0  0  0  0  0  0  0  0  # atno 6907 bound_to 6896
  151.0565  133.5572  159.2645 H   0  0  0  0  0  0  0  0  0  0  0  0  # atno 6908 bound_to 6896
  151.2487  135.0622  159.9107 H   0  0  0  0  0  0  0  0  0  0  0  0  # atno 6909 bound_to 6896
  145.1285  139.3343  143.4677 H   0  0  0  0  0  0  0  0  0  0  0  0  # atno 7974 bound_to 7965
  155.8420  140.3462  155.5638 H   0  0  0  0  0  0  0  0  0  0  0  0  # atno 8008 bound_to 7997
  155.8130  140.0901  157.1912 H   0  0  0  0  0  0  0  0  0  0  0  0  # atno 8009 bound_to 7997
  154.4005  140.1444  156.3397 H   0  0  0  0  0  0  0  0  0  0  0  0  # atno 8010 bound_to 7997
  140.5781  143.9034  150.6766 H   0  0  0  0  0  0  0  0  0  0  0  0  # atno 10167 bound_to 10162
  157.5063  130.8471  149.8378 H   0  0  0  0  0  0  0  0  0  0  0  0  # atno 10718 bound_to 10713
  154.3377  135.2754  155.2439 H   0  0  0  0  0  0  0  0  0  0  0  0  # atno 10763 bound_to 10752
  154.4723  135.5880  153.6333 H   0  0  0  0  0  0  0  0  0  0  0  0  # atno 10764 bound_to 10752
  152.9860  135.6091  154.3576 H   0  0  0  0  0  0  0  0  0  0  0  0  # atno 10765 bound_to 10752
  140.1547  134.8651  157.2499 H   0  0  0  0  0  0  0  0  0  0  0  0  # atno 11005 bound_to 11000
  146.3516  140.1273  142.8598 LP  0  0  0  0  0  0  0  0  0  0  0  0  # atno 17320 bound_to 7965
  145.0662  140.9123  143.4909 LP  0  0  0  0  0  0  0  0  0  0  0  0  # atno 17321 bound_to 7965
  140.2526  143.3582  152.1392 LP  0  0  0  0  0  0  0  0  0  0  0  0  # atno 17342 bound_to 10162
  139.5154  144.6962  151.5623 LP  0  0  0  0  0  0  0  0  0  0  0  0  # atno 17343 bound_to 10162
  156.0260  130.3779  150.1822 LP  0  0  0  0  0  0  0  0  0  0  0  0  # atno 17370 bound_to 10713
  157.0011  130.9922  151.3390 LP  0  0  0  0  0  0  0  0  0  0  0  0  # atno 17371 bound_to 10713
  140.2562  134.3624  155.7423 LP  0  0  0  0  0  0  0  0  0  0  0  0  # atno 17394 bound_to 11000
  141.2203  133.7344  156.9011 LP  0  0  0  0  0  0  0  0  0  0  0  0  # atno 17395 bound_to 11000

$$$$
