#       Name:                AV-unprocessed.smi:1322
#       Creating user name   scv26
#       Creation time:       Fri Mar 27 05:03:17 2020


#       File generated by GOLD software.
#

@<TRIPOS>MOLECULE
AV-unprocessed.smi:1322
    35    36     1
SMALL
NO_CHARGES


@<TRIPOS>ATOM
      1 ****        -0.1960  -1.5435   1.3438 C.3            1 S1                 0.0000
      2 ****         0.3422  -0.8455   0.0804 C.3            1 S1                 0.0000
      3 ****         1.8780  -0.9195  -0.0412 C.3            1 S1                 0.0000
      4 ****         2.3829  -2.2808  -0.0537 N.pl3          1 S1                 0.0000
      5 ****         3.0922  -2.9424   0.9268 C.2            1 S1                 0.0000
      6 ****         3.3552  -4.1985   0.4605 C.2            1 S1                 0.0000
      7 ****         2.7627  -4.2094  -0.8333 C.2            1 S1                 0.0000
      8 ****         2.1839  -3.0595  -1.1390 N.2            1 S1                 0.0000
      9 ****        -0.0680   0.5561   0.0597 N.am           1 S1                 0.0000
     10 ****        -1.2648   1.0139  -0.3387 C.2            1 S1                 0.0000
     11 ****        -2.1761   0.2793  -0.7221 O.2            1 S1                 0.0000
     12 ****        -1.4461   2.5371  -0.2992 C.3            1 S1                 0.0000
     13 ****        -2.6570   3.0121   0.5224 C.3            1 S1                 0.0000
     14 ****        -2.9757   4.0047  -0.5997 C.3            1 S1                 0.0000
     15 ****        -2.1299   3.1406  -1.5398 C.3            1 S1                 0.0000
     16 ****         0.0461  -2.6063   1.3462 H              1 S1                 0.0000
     17 ****        -1.2814  -1.4633   1.4093 H              1 S1                 0.0000
     18 ****         0.2252  -1.1037   2.2483 H              1 S1                 0.0000
     19 ****        -0.0862  -1.3422  -0.7923 H              1 S1                 0.0000
     20 ****         2.2103  -0.4247  -0.9552 H              1 S1                 0.0000
     21 ****         2.3477  -0.3876   0.7876 H              1 S1                 0.0000
     22 ****         3.3461  -2.4703   1.8645 H              1 S1                 0.0000
     23 ****         3.8904  -4.9888   0.9656 H              1 S1                 0.0000
     24 ****         2.7373  -5.0126  -1.5549 H              1 S1                 0.0000
     25 ****         0.6182   1.2336   0.3586 H              1 S1                 0.0000
     26 ****        -0.5352   3.0772  -0.0338 H              1 S1                 0.0000
     27 ****        -3.4348   2.2571   0.6511 H              1 S1                 0.0000
     28 ****        -2.3995   3.4833   1.4713 H              1 S1                 0.0000
     29 ****        -4.0313   4.0683  -0.8652 H              1 S1                 0.0000
     30 ****        -2.5406   4.9904  -0.4273 H              1 S1                 0.0000
     31 ****        -1.4640   3.7119  -2.1871 H              1 S1                 0.0000
     32 ****        -2.7310   2.4338  -2.1146 H              1 S1                 0.0000
     33 ****         1.7061  -2.8206  -1.9843 LP             1 S1                 0.0000
     34 ****        -2.0427  -0.7115  -0.7471 LP             1 S1                 0.0000
     35 ****        -3.0494   0.6736  -1.0083 LP             1 S1                 0.0000
@<TRIPOS>BOND
    1    1    2 1     
    2    1   16 1     
    3    1   17 1     
    4    1   18 1     
    5    2    3 1     
    6    2    9 1     
    7    2   19 1     
    8    3    4 1     
    9    3   20 1     
   10    3   21 1     
   11    4    8 1     
   12    4    5 1     
   13    5    6 2     
   14    5   22 1     
   15    6    7 1     
   16    6   23 1     
   17    7    8 2     
   18    7   24 1     
   19    9   10 am    
   20    9   25 1     
   21   10   11 2     
   22   10   12 1     
   23   12   15 1     
   24   12   13 1     
   25   12   26 1     
   26   13   14 1     
   27   13   27 1     
   28   13   28 1     
   29   14   15 1     
   30   14   29 1     
   31   14   30 1     
   32   15   31 1     
   33   15   32 1     
   34    8   33 1     
   35   11   34 1     
   36   11   35 1     
@<TRIPOS>SUBSTRUCTURE
      1 S1             1
@<TRIPOS>SET
LONE_PAIRS      STATIC     ATOMS    <user>   **** ""
3 33 34 35
DONOR_HYDROGENS      STATIC     ATOMS    <user>   **** ""
1 25
ATOM$BLUE        STATIC     ATOMS    COLORGROUP SYSTEM
3 33 34 35
ATOM$RED        STATIC     ATOMS    COLORGROUP SYSTEM
1 25
