AV-unprocessed.smi:101|AV-procd|sdf|927|dock3
  -GOLD-   2262017443D 1   1.00000     0.00000
 Structure written by MMmdl.
 44 46  0  0  0  0  0  0  0  0  1 V2000
  145.1021  140.3117  157.8026 C   0  0  0  0  0  0  0  0  0  0  0  0
  145.5840  139.8489  156.4378 C   0  0  0  0  0  0  0  0  0  0  0  0
  146.8550  140.0532  156.0073 C   0  0  0  0  0  0  0  0  0  0  0  0
  147.3231  139.6478  154.7656 N   0  0  0  0  0  0  0  0  0  0  0  0
  148.7554  139.9129  154.3546 C   0  0  2  0  0  0  0  0  0  0  0  0
  149.5975  139.3177  155.2933 O   0  0  0  0  0  0  0  0  0  0  0  0
  150.7221  140.1598  155.5100 C   0  0  2  0  0  0  0  0  0  0  0  0
  151.4157  139.8215  156.8370 C   0  0  0  0  0  0  0  0  0  0  0  0
  151.7408  141.0276  157.5079 O   0  0  0  0  0  0  0  0  0  0  0  0
  152.5725  141.0073  158.5670 C   0  0  0  0  0  0  0  0  0  0  0  0
  153.4015  140.1167  158.7658 O   0  0  0  0  0  0  0  0  0  0  0  0
  152.3845  142.1753  159.4752 C   0  0  0  0  0  0  0  0  0  0  0  0
  152.7317  142.0540  160.8408 C   0  0  0  0  0  0  0  0  0  0  0  0
  152.5659  143.1397  161.7225 C   0  0  0  0  0  0  0  0  0  0  0  0
  152.0511  144.3606  161.2490 C   0  0  0  0  0  0  0  0  0  0  0  0
  151.7032  144.4948  159.8923 C   0  0  0  0  0  0  0  0  0  0  0  0
  151.8680  143.4100  159.0091 C   0  0  0  0  0  0  0  0  0  0  0  0
  150.1411  141.5759  155.4014 C   0  0  2  0  0  0  0  0  0  0  0  0
  149.5695  141.9879  156.6323 O   0  0  0  0  0  0  0  0  0  0  0  0
  149.1055  141.4165  154.2894 C   0  0  2  0  0  0  0  0  0  0  0  0
  148.0113  142.3122  154.4004 O   0  0  0  0  0  0  0  0  0  0  0  0
  146.4462  138.9929  153.8757 C   0  0  0  0  0  0  0  0  0  0  0  0
  146.7809  138.6236  152.7507 O   0  0  0  0  0  0  0  0  0  0  0  0
  145.1425  138.7774  154.3194 N   0  0  0  0  0  0  0  0  0  0  0  0
  144.6314  139.1613  155.5618 C   0  0  0  0  0  0  0  0  0  0  0  0
  143.4593  138.9125  155.8394 O   0  0  0  0  0  0  0  0  0  0  0  0
  144.5114  138.3081  153.6866 H   0  0  0  0  0  0  0  0  0  0  0  0
  145.8916  140.8163  158.3602 H   0  0  0  0  0  0  0  0  0  0  0  0
  144.7637  139.4617  158.3961 H   0  0  0  0  0  0  0  0  0  0  0  0
  144.2704  141.0091  157.6963 H   0  0  0  0  0  0  0  0  0  0  0  0
  147.5388  140.5645  156.6686 H   0  0  0  0  0  0  0  0  0  0  0  0
  148.9211  139.4073  153.4020 H   0  0  0  0  0  0  0  0  0  0  0  0
  151.4196  140.0109  154.6833 H   0  0  0  0  0  0  0  0  0  0  0  0
  150.7454  139.2352  157.4672 H   0  0  0  0  0  0  0  0  0  0  0  0
  152.3137  139.2267  156.6627 H   0  0  0  0  0  0  0  0  0  0  0  0
  153.1294  141.1267  161.2279 H   0  0  0  0  0  0  0  0  0  0  0  0
  152.8342  143.0348  162.7633 H   0  0  0  0  0  0  0  0  0  0  0  0
  151.9237  145.1929  161.9254 H   0  0  0  0  0  0  0  0  0  0  0  0
  151.3089  145.4318  159.5273 H   0  0  0  0  0  0  0  0  0  0  0  0
  151.5919  143.5474  157.9739 H   0  0  0  0  0  0  0  0  0  0  0  0
  150.9082  142.3022  155.1306 H   0  0  0  0  0  0  0  0  0  0  0  0
  149.1670  142.8343  156.5114 H   0  0  0  0  0  0  0  0  0  0  0  0
  149.5901  141.5899  153.3276 H   0  0  0  0  0  0  0  0  0  0  0  0
  148.1928  142.9230  155.0977 H   0  0  0  0  0  0  0  0  0  0  0  0
  1  2  1  0  0  0  0
  1 28  1  0  0  0  0
  1 29  1  0  0  0  0
  1 30  1  0  0  0  0
  2 25  1  0  0  0  0
  2  3  2  0  0  0  0
  3  4  1  0  0  0  0
  3 31  1  0  0  0  0
  4  5  1  0  0  0  0
  4 22  1  0  0  0  0
  5 20  1  0  0  0  0
  5  6  1  0  0  0  0
  5 32  1  0  0  0  0
  6  7  1  0  0  0  0
  7  8  1  0  0  0  0
  7 18  1  0  0  0  0
  7 33  1  0  0  0  0
  8  9  1  0  0  0  0
  8 34  1  0  0  0  0
  8 35  1  0  0  0  0
  9 10  1  0  0  0  0
 10 11  2  0  0  0  0
 10 12  1  0  0  0  0
 12 17  1  0  0  0  0
 12 13  2  0  0  0  0
 13 14  1  0  0  0  0
 13 36  1  0  0  0  0
 14 15  2  0  0  0  0
 14 37  1  0  0  0  0
 15 16  1  0  0  0  0
 15 38  1  0  0  0  0
 16 17  2  0  0  0  0
 16 39  1  0  0  0  0
 17 40  1  0  0  0  0
 18 19  1  0  0  0  0
 18 20  1  0  0  0  0
 18 41  1  0  0  0  0
 19 42  1  0  0  0  0
 20 21  1  0  0  0  0
 20 43  1  0  0  0  0
 21 44  1  0  0  0  0
 22 23  2  0  0  0  0
 22 24  1  0  0  0  0
 24 27  1  0  0  0  0
 24 25  1  0  0  0  0
 25 26  2  0  0  0  0
M  END
> <s_m_source_file>
AV-unprocessed.smi

> <i_m_source_file_index>
101

> <i_lp_mmshare_version>
43012

> <i_f3d_flags>
0

> <s_epik_input>
Tz1jMVtuSF1jKD1PKW4oW2NIXWMxW0NIM10pW0NAQEhdMk9bQ0BIXShbQ0BASF0oW09IXSlbQ0BIXTJbT0hdKVtDSDJdT0MoPU8pYzNbY0hdW2NIXVtjSF1bY0hdW2NIXTM=

> <s_epik_cmdline>
J2VwaWtfcHl0aG9uJywgJy1waCcsICc3LjAnLCAnLXRuJywgJzgnLCAnLW1hJywgJzIwMCcsICctbWV0YWxfYmluZGluZycsICctaW1hZScsICc8aW5maWxlLm1hZT4nLCAnLW9tYWUnLCAnPG91dGZpbGUubWFlPic=

> <r_lp_tautomer_probability>
0.999537

> <r_epik_Ionization_Penalty>
0.00263537

> <r_epik_Ionization_Penalty_Charging>
0.00263428

> <r_epik_Ionization_Penalty_Neutral>
1.09111e-06

> <r_epik_State_Penalty>
0.00183335

> <r_epik_Charging_Adjusted_Penalty>
0.00446763

> <i_epik_Tot_Q>
0

> <i_epik_Tot_abs_Q>
0

> <r_epik_Metal_State_Penalty>
1.00528

> <b_epik_Metal_Only>
0

> <s_epik_Chemistry_Notes>
This compound has an ester and may undergo hydrolysis at high or low pH. This compound contains an acetal/aminal-like group ( X-CH(R)-Y where X, Y are N, S, or O) that may be acid/base labile, releasing an aldehyde.

> <s_lp_Force_Field>
OPLS_2005

> <r_lp_Energy>
42.5315

> <b_lp_Chiralities_Consistent>
1

> <s_lp_Variant>
AV-unprocessed.smi:101-15

> <Gold.Version>
5.8.1

> <Gold.Id.Protein>
6NUR|6NUR_protein|mol2

> <Gold.PLP.Fitness>
48.3894

> <Gold.PLP.PLP>
-42.0914

> <Gold.PLP.part.hbond>
-4.6822

> <Gold.PLP.part.metal>
0.0000

> <Gold.PLP.part.buried>
-2.6201

> <Gold.PLP.part.nonpolar>
-33.5839

> <Gold.PLP.part.repulsive>
0.4158

> <Gold.PLP.ligand.clash>
0.0000

> <Gold.PLP.ligand.torsion>
1.2736

> <Gold.PLP.Chemscore.Hbond>
2.8897

> <Gold.PLP.Chemscore.CHOScore>
0.0000

> <Gold.PLP.Chemscore.Metal>
0.0000

> <Gold.Chemscore.Hbonds>
donor molecule, donor type, donor heavy atom, donor atom, acceptor molecule, acceptor atom, score
      L1  H    19    42       P1  8028  0.86
      L1  H    21    44       P1  8028  0.96
      P1  H  7997  8010       L1    11  0.75

> <Gold.PLP.Chemscore.Internal.Correction>
0.1761

> <Gold.Rescore>
     Score         DG    S(hbond)    S(metal)    S(lipo)     H(rot)  DE(clash)    DE(int)     intcor
     13.67     -17.95       2.80        0.00      99.16       3.32       0.40       3.88       ----

> <Gold.Chemscore.Fitness>
13.6664

> <Gold.Chemscore.DG>
-17.9483

> <Gold.Chemscore.ZeroCoef>
-5.4800

> <Gold.Chemscore.Hbond>
2.8018

> <Gold.Chemscore.Metal>
0.0000

> <Gold.Chemscore.Lipo>
99.1645

> <Gold.Chemscore.Internal_Hbond>
0.0000

> <Gold.Chemscore.DEClash>
0.3990

> <Gold.Chemscore.DEInternal>
3.8829

> <Gold.Chemscore.Rot>
3.3172

> <Gold.Chemscore.Internal.Correction>
   9.000000E+99

> <Gold.Chemscore.Hbonds>
donor molecule, donor type, donor heavy atom, donor atom, acceptor molecule, acceptor atom, score
      L1  H    19    42       P1  8028  0.83
      L1  H    21    44       P1  8028  0.88
      P1  H  7997  8010       L1    11  0.60

> <Gold.Chemscore.Hbond.Weighted>
-9.3581

> <Gold.Chemscore.Metal.Weighted>
-0.0000

> <Gold.Chemscore.Lipo.Weighted>
-11.6022

> <Gold.Chemscore.Internal_Hbond.Weighted>
0.0000

> <Gold.Chemscore.DEClash.Weighted>
0.3990

> <Gold.Chemscore.DEInternal.Weighted>
3.8829

> <Gold.Chemscore.Rot.Weighted>
8.4920

> <Gold.Chemscore.Internal.Correction.Weighted>
   9.000000E+99

> <Gold.Protein.RotatedTorsions>
[ 6907 6896 6895 6894 ] final   90.32 input  -60.11 | X-H torsion
[ 7974 7965 7964 7962 ] final  -30.30 input  175.53 | X-H torsion
[ 8008 7997 7996 7995 ] final   15.36 input   59.86 | X-H torsion
[ 10167 10162 10161 10158 ] final -177.03 input  -65.29 | X-H torsion
[ 10718 10713 10712 10709 ] final  -86.54 input   66.30 | X-H torsion
[ 10763 10752 10751 10750 ] final   70.78 input  -60.55 | X-H torsion
[ 11005 11000 10999 10996 ] final   28.03 input  -57.11 | X-H torsion

> <Gold.Protein.ActiveResidues>
 VAL166  LYS551  ARG553  GLY616  TRP617  ASP618  TYR619  PRO620  LYS621  CYS622 
 ASP623  PHE694  ASN695  SER759  ASP760  ASP761  ALA762  ILE779  LEU786  VAL792 
 PHE793  MET794  SER795  GLU796  ALA797  LYS798  CYS799  TRP800  GLU811  SER814 

> <Gold.Protein.RotatedAtoms>
  152.5443  134.1830  159.8643 H   0  0  0  0  0  0  0  0  0  0  0  0  # atno 6907 bound_to 6896
  151.1831  133.4705  159.2602 H   0  0  0  0  0  0  0  0  0  0  0  0  # atno 6908 bound_to 6896
  151.1158  135.0064  159.8570 H   0  0  0  0  0  0  0  0  0  0  0  0  # atno 6909 bound_to 6896
  146.1153  140.5523  142.8760 H   0  0  0  0  0  0  0  0  0  0  0  0  # atno 7974 bound_to 7965
  154.8615  140.2945  155.5536 H   0  0  0  0  0  0  0  0  0  0  0  0  # atno 8008 bound_to 7997
  156.3020  140.2477  156.3523 H   0  0  0  0  0  0  0  0  0  0  0  0  # atno 8009 bound_to 7997
  154.8913  140.0394  157.1829 H   0  0  0  0  0  0  0  0  0  0  0  0  # atno 8010 bound_to 7997
  139.5500  144.2134  152.1060 H   0  0  0  0  0  0  0  0  0  0  0  0  # atno 10167 bound_to 10162
  155.9989  130.4768  150.4730 H   0  0  0  0  0  0  0  0  0  0  0  0  # atno 10718 bound_to 10713
  153.0361  135.5161  154.7493 H   0  0  0  0  0  0  0  0  0  0  0  0  # atno 10763 bound_to 10752
  154.6468  135.2919  155.0038 H   0  0  0  0  0  0  0  0  0  0  0  0  # atno 10764 bound_to 10752
  154.0936  135.6646  153.4909 H   0  0  0  0  0  0  0  0  0  0  0  0  # atno 10765 bound_to 10752
  140.3199  134.2555  155.7719 H   0  0  0  0  0  0  0  0  0  0  0  0  # atno 11005 bound_to 11000
  144.7547  140.5278  143.6777 LP  0  0  0  0  0  0  0  0  0  0  0  0  # atno 17320 bound_to 7965
  145.5580  139.1478  143.3357 LP  0  0  0  0  0  0  0  0  0  0  0  0  # atno 17321 bound_to 7965
  140.1627  144.5010  150.6623 LP  0  0  0  0  0  0  0  0  0  0  0  0  # atno 17342 bound_to 10162
  140.6760  143.2305  151.5506 LP  0  0  0  0  0  0  0  0  0  0  0  0  # atno 17343 bound_to 10162
  157.2743  131.0594  151.2239 LP  0  0  0  0  0  0  0  0  0  0  0  0  # atno 17370 bound_to 10713
  157.3308  130.6984  149.6323 LP  0  0  0  0  0  0  0  0  0  0  0  0  # atno 17371 bound_to 10713
  141.2089  133.7765  157.0031 LP  0  0  0  0  0  0  0  0  0  0  0  0  # atno 17394 bound_to 11000
  140.0951  134.9569  157.1836 LP  0  0  0  0  0  0  0  0  0  0  0  0  # atno 17395 bound_to 11000

$$$$
