AV-unprocessed.smi:1375|AV-procd|sdf|5589|dock8
  -GOLD-   22720 5193D 1   1.00000     0.00000
 Structure written by MMmdl.
 36 37  0  0  0  0  0  0  0  0  1 V2000
  153.4393  142.7326  163.5226 C   0  0  0  0  0  0  0  0  0  0  0  0
  152.9964  142.6925  162.1002 C   0  0  0  0  0  0  0  0  0  0  0  0
  152.0314  143.4708  161.6036 N   0  0  0  0  0  0  0  0  0  0  0  0
  151.8018  143.2422  160.2431 C   0  0  0  0  0  0  0  0  0  0  0  0
  150.7547  144.0305  159.5168 C   0  0  0  0  0  0  0  0  0  0  0  0
  149.7193  144.6419  160.4753 C   0  0  0  0  0  0  0  0  0  0  0  0
  148.6978  145.3931  159.7553 N   0  0  0  0  0  0  0  0  0  0  0  0
  147.7990  146.2148  160.3233 C   0  0  0  0  0  0  0  0  0  0  0  0
  147.7386  146.4199  161.5342 O   0  0  0  0  0  0  0  0  0  0  0  0
  146.9616  146.8155  159.4590 N   0  0  0  0  0  0  0  0  0  0  0  0
  145.8810  147.7580  159.7582 C   0  0  0  0  0  0  0  0  0  0  0  0
  145.3469  148.4476  158.4840 C   0  0  0  0  0  0  0  0  0  0  0  0
  145.3319  149.9472  158.7851 C   0  0  0  0  0  0  0  0  0  0  0  0
  146.4602  150.1395  159.7928 C   0  0  0  0  0  0  0  0  0  0  0  0
  146.3930  148.8888  160.6694 C   0  0  0  0  0  0  0  0  0  0  0  0
  152.6169  142.2736  159.7125 C   0  0  0  0  0  0  0  0  0  0  0  0
  153.7012  141.6117  160.9043 S   0  0  0  0  0  0  0  0  0  0  0  0
  152.7622  143.3449  164.1193 H   0  0  0  0  0  0  0  0  0  0  0  0
  154.4423  143.1544  163.5879 H   0  0  0  0  0  0  0  0  0  0  0  0
  153.4546  141.7245  163.9370 H   0  0  0  0  0  0  0  0  0  0  0  0
  151.2294  144.8220  158.9354 H   0  0  0  0  0  0  0  0  0  0  0  0
  150.2472  143.3928  158.7917 H   0  0  0  0  0  0  0  0  0  0  0  0
  149.2219  143.8526  161.0394 H   0  0  0  0  0  0  0  0  0  0  0  0
  150.2095  145.2856  161.2077 H   0  0  0  0  0  0  0  0  0  0  0  0
  148.6754  145.2870  158.7515 H   0  0  0  0  0  0  0  0  0  0  0  0
  147.0988  146.6039  158.4812 H   0  0  0  0  0  0  0  0  0  0  0  0
  145.0742  147.2364  160.2763 H   0  0  0  0  0  0  0  0  0  0  0  0
  146.0126  148.2634  157.6393 H   0  0  0  0  0  0  0  0  0  0  0  0
  144.3601  148.0802  158.2005 H   0  0  0  0  0  0  0  0  0  0  0  0
  145.4589  150.5563  157.8897 H   0  0  0  0  0  0  0  0  0  0  0  0
  144.3806  150.2216  159.2430 H   0  0  0  0  0  0  0  0  0  0  0  0
  147.4178  150.1728  159.2714 H   0  0  0  0  0  0  0  0  0  0  0  0
  146.3598  151.0610  160.3668 H   0  0  0  0  0  0  0  0  0  0  0  0
  145.6740  149.0547  161.4728 H   0  0  0  0  0  0  0  0  0  0  0  0
  147.3516  148.6670  161.1410 H   0  0  0  0  0  0  0  0  0  0  0  0
  152.6460  141.9122  158.6952 H   0  0  0  0  0  0  0  0  0  0  0  0
  1  2  1  0  0  0  0
  1 18  1  0  0  0  0
  1 19  1  0  0  0  0
  1 20  1  0  0  0  0
  2 17  1  0  0  0  0
  2  3  2  0  0  0  0
  3  4  1  0  0  0  0
  4  5  1  0  0  0  0
  4 16  2  0  0  0  0
  5  6  1  0  0  0  0
  5 21  1  0  0  0  0
  5 22  1  0  0  0  0
  6  7  1  0  0  0  0
  6 23  1  0  0  0  0
  6 24  1  0  0  0  0
  7  8  1  0  0  0  0
  7 25  1  0  0  0  0
  8  9  2  0  0  0  0
  8 10  1  0  0  0  0
 10 11  1  0  0  0  0
 10 26  1  0  0  0  0
 11 15  1  0  0  0  0
 11 12  1  0  0  0  0
 11 27  1  0  0  0  0
 12 13  1  0  0  0  0
 12 28  1  0  0  0  0
 12 29  1  0  0  0  0
 13 14  1  0  0  0  0
 13 30  1  0  0  0  0
 13 31  1  0  0  0  0
 14 15  1  0  0  0  0
 14 32  1  0  0  0  0
 14 33  1  0  0  0  0
 15 34  1  0  0  0  0
 15 35  1  0  0  0  0
 16 17  1  0  0  0  0
 16 36  1  0  0  0  0
M  END
> <s_m_source_file>
AV-unprocessed.smi

> <i_m_source_file_index>
1375

> <i_lp_mmshare_version>
43012

> <i_f3d_flags>
0

> <s_epik_input>
W0NIM11jMW5jKFtjSF1zMSlbQ0gyXVtDSDJdW05IXUMoPU8pW05IXVtDSF0yW0NIMl1bQ0gyXVtDSDJdW0NIMl0y

> <s_epik_cmdline>
J2VwaWtfcHl0aG9uJywgJy1waCcsICc3LjAnLCAnLXRuJywgJzgnLCAnLW1hJywgJzIwMCcsICctbWV0YWxfYmluZGluZycsICctaW1hZScsICc8aW5maWxlLm1hZT4nLCAnLW9tYWUnLCAnPG91dGZpbGUubWFlPic=

> <r_epik_Ionization_Penalty>
0.00202185

> <r_epik_Ionization_Penalty_Charging>
0

> <r_epik_Ionization_Penalty_Neutral>
0.00202185

> <r_epik_State_Penalty>
0.00133629

> <r_epik_Charging_Adjusted_Penalty>
0.00133629

> <i_epik_Tot_Q>
0

> <i_epik_Tot_abs_Q>
0

> <r_epik_Metal_State_Penalty>
-0

> <b_epik_Metal_Only>
0

> <s_lp_Force_Field>
OPLS_2005

> <r_lp_Energy>
21.3593

> <b_lp_Chiralities_Consistent>
1

> <s_lp_Variant>
AV-unprocessed.smi:1375-1

> <Gold.Version>
5.8.1

> <Gold.Id.Protein>
6NUR|6NUR_protein|mol2

> <Gold.PLP.Fitness>
42.8289

> <Gold.PLP.PLP>
-38.1943

> <Gold.PLP.part.hbond>
-4.0456

> <Gold.PLP.part.metal>
0.0000

> <Gold.PLP.part.buried>
0.7003

> <Gold.PLP.part.nonpolar>
-36.8672

> <Gold.PLP.part.repulsive>
2.0843

> <Gold.PLP.ligand.clash>
0.0000

> <Gold.PLP.ligand.torsion>
0.4629

> <Gold.PLP.Chemscore.Hbond>
1.8480

> <Gold.PLP.Chemscore.CHOScore>
0.0000

> <Gold.PLP.Chemscore.Metal>
0.0000

> <Gold.Chemscore.Hbonds>
donor molecule, donor type, donor heavy atom, donor atom, acceptor molecule, acceptor atom, score
      L1  H     7    25       P1  8029  0.83
      L1  H    10    26       P1  8029  1.00

> <Gold.PLP.Chemscore.Internal.Correction>
0.0163

> <Gold.Rescore>
     Score         DG    S(hbond)    S(metal)    S(lipo)     H(rot)  DE(clash)    DE(int)     intcor
     15.46     -21.33       1.83        0.00     116.33       1.51       4.89       0.99       ----

> <Gold.Chemscore.Fitness>
15.4590

> <Gold.Chemscore.DG>
-21.3318

> <Gold.Chemscore.ZeroCoef>
-5.4800

> <Gold.Chemscore.Hbond>
1.8252

> <Gold.Chemscore.Metal>
0.0000

> <Gold.Chemscore.Lipo>
116.3320

> <Gold.Chemscore.Internal_Hbond>
0.0000

> <Gold.Chemscore.DEClash>
4.8859

> <Gold.Chemscore.DEInternal>
0.9869

> <Gold.Chemscore.Rot>
1.5060

> <Gold.Chemscore.Internal.Correction>
   9.000000E+99

> <Gold.Chemscore.Hbonds>
donor molecule, donor type, donor heavy atom, donor atom, acceptor molecule, acceptor atom, score
      L1  H     7    25       P1  8029  0.83
      L1  H    10    26       P1  8029  0.92

> <Gold.Chemscore.Hbond.Weighted>
-6.0963

> <Gold.Chemscore.Metal.Weighted>
-0.0000

> <Gold.Chemscore.Lipo.Weighted>
-13.6108

> <Gold.Chemscore.Internal_Hbond.Weighted>
0.0000

> <Gold.Chemscore.DEClash.Weighted>
4.8859

> <Gold.Chemscore.DEInternal.Weighted>
0.9869

> <Gold.Chemscore.Rot.Weighted>
3.8553

> <Gold.Chemscore.Internal.Correction.Weighted>
   9.000000E+99

> <Gold.Protein.RotatedTorsions>
[ 6907 6896 6895 6894 ] final  -45.09 input  -60.11 | X-H torsion
[ 7974 7965 7964 7962 ] final -131.78 input  175.53 | X-H torsion
[ 8008 7997 7996 7995 ] final   21.26 input   59.86 | X-H torsion
[ 10167 10162 10161 10158 ] final -155.61 input  -65.29 | X-H torsion
[ 10718 10713 10712 10709 ] final  157.48 input   66.30 | X-H torsion
[ 10763 10752 10751 10750 ] final -141.16 input  -60.55 | X-H torsion
[ 11005 11000 10999 10996 ] final   85.25 input  -57.11 | X-H torsion

> <Gold.Protein.ActiveResidues>
 VAL166  LYS551  ARG553  GLY616  TRP617  ASP618  TYR619  PRO620  LYS621  CYS622 
 ASP623  PHE694  ASN695  SER759  ASP760  ASP761  ALA762  ILE779  LEU786  VAL792 
 PHE793  MET794  SER795  GLU796  ALA797  LYS798  CYS799  TRP800  GLU811  SER814 

> <Gold.Protein.RotatedAtoms>
  150.9257  134.8673  159.7517 H   0  0  0  0  0  0  0  0  0  0  0  0  # atno 6907 bound_to 6896
  152.5014  134.4153  159.9472 H   0  0  0  0  0  0  0  0  0  0  0  0  # atno 6908 bound_to 6896
  151.4184  133.3666  159.2788 H   0  0  0  0  0  0  0  0  0  0  0  0  # atno 6909 bound_to 6896
  144.9347  140.7169  143.4884 H   0  0  0  0  0  0  0  0  0  0  0  0  # atno 7974 bound_to 7965
  154.9479  140.3062  155.5089 H   0  0  0  0  0  0  0  0  0  0  0  0  # atno 8008 bound_to 7997
  156.2990  140.2324  156.4492 H   0  0  0  0  0  0  0  0  0  0  0  0  # atno 8009 bound_to 7997
  154.8082  140.0430  157.1312 H   0  0  0  0  0  0  0  0  0  0  0  0  # atno 8010 bound_to 7997
  139.6917  143.9409  152.2388 H   0  0  0  0  0  0  0  0  0  0  0  0  # atno 10167 bound_to 10162
  157.1909  131.0654  151.2080 H   0  0  0  0  0  0  0  0  0  0  0  0  # atno 10718 bound_to 10713
  154.8555  135.3532  154.5823 H   0  0  0  0  0  0  0  0  0  0  0  0  # atno 10763 bound_to 10752
  153.6433  135.6997  153.5238 H   0  0  0  0  0  0  0  0  0  0  0  0  # atno 10764 bound_to 10752
  153.2953  135.4222  155.1162 H   0  0  0  0  0  0  0  0  0  0  0  0  # atno 10765 bound_to 10752
  139.8977  134.8273  156.2557 H   0  0  0  0  0  0  0  0  0  0  0  0  # atno 11005 bound_to 11000
  145.3086  139.1826  143.4651 LP  0  0  0  0  0  0  0  0  0  0  0  0  # atno 17320 bound_to 7965
  146.3261  140.3087  142.8625 LP  0  0  0  0  0  0  0  0  0  0  0  0  # atno 17321 bound_to 7965
  139.9227  144.6790  150.8445 LP  0  0  0  0  0  0  0  0  0  0  0  0  # atno 17342 bound_to 10162
  140.7684  143.3364  151.2301 LP  0  0  0  0  0  0  0  0  0  0  0  0  # atno 17343 bound_to 10162
  157.3861  130.7257  149.6664 LP  0  0  0  0  0  0  0  0  0  0  0  0  # atno 17370 bound_to 10713
  155.9712  130.4159  150.4204 LP  0  0  0  0  0  0  0  0  0  0  0  0  # atno 17371 bound_to 10713
  141.0195  133.7049  156.1245 LP  0  0  0  0  0  0  0  0  0  0  0  0  # atno 17394 bound_to 11000
  140.7253  134.4313  157.5571 LP  0  0  0  0  0  0  0  0  0  0  0  0  # atno 17395 bound_to 11000

$$$$
