#       Name:                AV-unprocessed.smi:994
#       Creating user name   scv26
#       Creation time:       Fri Mar 27 02:24:18 2020


#       File generated by GOLD software.
#

@<TRIPOS>MOLECULE
AV-unprocessed.smi:994
    44    45     1
SMALL
NO_CHARGES


@<TRIPOS>ATOM
      1 ****         0.7125   1.4268   0.0626 O.2            1 S1                 0.0000
      2 ****         0.3064   0.4157   0.6370 C.2            1 S1                 0.0000
      3 ****         1.1200  -0.5199   1.1526 N.am           1 S1                 0.0000
      4 ****         2.5819  -0.5202   1.0984 C.3            1 S1                 0.0000
      5 ****         3.1042  -1.3153  -0.1191 C.3            1 S1                 0.0000
      6 ****         2.6794  -0.7803  -1.4646 C.2            1 S1                 0.0000
      7 ****         3.2373   0.2478  -2.1966 C.2            1 S1                 0.0000
      8 ****         2.4689   0.3714  -3.3403 N.pl3          1 S1                 0.0000
      9 ****         1.5085  -0.5507  -3.2671 C.2            1 S1                 0.0000
     10 ****         1.5767  -1.2851  -2.1649 N.2            1 S1                 0.0000
     11 ****         3.1511  -1.0108   2.4329 C.2            1 S1                 0.0000
     12 ****         2.8496  -2.1707   2.7929 O.co2          1 S1                 0.0000
     13 ****         3.8758  -0.2186   3.0744 O.co2          1 S1                -1.0000
     14 ****        -1.1996   0.1612   0.7770 C.3            1 S1                 0.0000
     15 ****        -1.8539  -0.0055  -0.6115 C.3            1 S1                 0.0000
     16 ****        -3.3684  -0.2402  -0.4935 C.3            1 S1                 0.0000
     17 ****        -4.0468   0.8895   0.2974 C.3            1 S1                 0.0000
     18 ****        -3.4005   1.0642   1.6808 C.3            1 S1                 0.0000
     19 ****        -1.8857   1.3000   1.5616 C.3            1 S1                 0.0000
     20 ****         2.6038   1.0396  -4.0855 H              1 S1                 0.0000
     21 ****         0.6961  -1.3099   1.6171 H              1 S1                 0.0000
     22 ****         2.9240   0.5104   0.9826 H              1 S1                 0.0000
     23 ****         4.1948  -1.3180  -0.1004 H              1 S1                 0.0000
     24 ****         2.7997  -2.3606  -0.0501 H              1 S1                 0.0000
     25 ****         4.0841   0.8870  -1.9948 H              1 S1                 0.0000
     26 ****         0.7523  -0.6858  -4.0263 H              1 S1                 0.0000
     27 ****        -1.3412  -0.7676   1.3332 H              1 S1                 0.0000
     28 ****        -1.6753   0.8818  -1.2213 H              1 S1                 0.0000
     29 ****        -1.3960  -0.8409  -1.1433 H              1 S1                 0.0000
     30 ****        -3.8110  -0.3165  -1.4870 H              1 S1                 0.0000
     31 ****        -3.5523  -1.1947   0.0012 H              1 S1                 0.0000
     32 ****        -3.9709   1.8230  -0.2617 H              1 S1                 0.0000
     33 ****        -5.1112   0.6801   0.4073 H              1 S1                 0.0000
     34 ****        -3.8662   1.8983   2.2062 H              1 S1                 0.0000
     35 ****        -3.5854   0.1757   2.2858 H              1 S1                 0.0000
     36 ****        -1.4504   1.3834   2.5584 H              1 S1                 0.0000
     37 ****        -1.7105   2.2572   1.0677 H              1 S1                 0.0000
     38 ****         1.6948   1.5837  -0.0388 LP             1 S1                 0.0000
     39 ****         0.0598   2.0907  -0.3023 LP             1 S1                 0.0000
     40 ****         0.9731  -2.0349  -1.8934 LP             1 S1                 0.0000
     41 ****         3.1964  -2.5316   3.6586 LP             1 S1                 0.0000
     42 ****         2.2618  -2.7368   2.2149 LP             1 S1                 0.0000
     43 ****         4.2660  -0.4969   3.9521 LP             1 S1                 0.0000
     44 ****         4.0649   0.6930   2.7097 LP             1 S1                 0.0000
@<TRIPOS>BOND
    1    1    2 2     
    2    2    3 am    
    3    2   14 1     
    4    3    4 1     
    5    3   21 1     
    6    4    5 1     
    7    4   11 1     
    8    4   22 1     
    9    5    6 1     
   10    5   23 1     
   11    5   24 1     
   12    6   10 1     
   13    6    7 2     
   14    7    8 1     
   15    7   25 1     
   16    8   20 1     
   17    8    9 1     
   18    9   10 2     
   19    9   26 1     
   20   11   12 ar    
   21   11   13 ar    
   22   14   19 1     
   23   14   15 1     
   24   14   27 1     
   25   15   16 1     
   26   15   28 1     
   27   15   29 1     
   28   16   17 1     
   29   16   30 1     
   30   16   31 1     
   31   17   18 1     
   32   17   32 1     
   33   17   33 1     
   34   18   19 1     
   35   18   34 1     
   36   18   35 1     
   37   19   36 1     
   38   19   37 1     
   39    1   38 1     
   40    1   39 1     
   41   10   40 1     
   42   12   41 1     
   43   12   42 1     
   44   13   43 1     
   45   13   44 1     
@<TRIPOS>SUBSTRUCTURE
      1 S1             1
@<TRIPOS>SET
LONE_PAIRS      STATIC     ATOMS    <user>   **** ""
7 38 39 40 41 42 43 44
DONOR_HYDROGENS      STATIC     ATOMS    <user>   **** ""
2 21 20
ATOM$BLUE        STATIC     ATOMS    COLORGROUP SYSTEM
7 38 39 40 41 42 43 44
ATOM$RED        STATIC     ATOMS    COLORGROUP SYSTEM
2 21 20
