#       Name:                AV-unprocessed.smi:735
#       Creating user name   scv26
#       Creation time:       Fri Mar 27 00:52:43 2020


#       File generated by GOLD software.
#

@<TRIPOS>MOLECULE
AV-unprocessed.smi:735
    25    25     1
SMALL
NO_CHARGES


@<TRIPOS>ATOM
      1 ****        -2.3512   1.1824  -2.9402 O.co2          1 S1                 0.0000
      2 ****        -1.8830   0.6345  -1.9173 C.2            1 S1                 0.0000
      3 ****        -2.4648  -0.2556  -1.2561 O.co2          1 S1                -1.0000
      4 ****        -0.4957   1.1073  -1.4482 C.3            1 S1                 0.0000
      5 ****         0.3366   0.9894  -2.4859 F              1 S1                 0.0000
      6 ****        -0.5798   2.4106  -1.1710 F              1 S1                 0.0000
      7 ****         0.0476   0.2985  -0.2609 C.2            1 S1                 0.0000
      8 ****         0.6549  -0.9041  -0.4525 C.2            1 S1                 0.0000
      9 ****         1.1890  -1.6557   0.5726 N.am           1 S1                 0.0000
     10 ****         1.1431  -1.2072   1.8909 C.2            1 S1                 0.0000
     11 ****         1.6166  -1.8645   2.8145 O.2            1 S1                 0.0000
     12 ****         0.5321   0.0264   2.1053 N.am           1 S1                 0.0000
     13 ****        -0.0336   0.8356   1.1115 C.2            1 S1                 0.0000
     14 ****        -0.5565   1.8975   1.4456 O.2            1 S1                 0.0000
     15 ****         1.6257  -2.5470   0.3869 H              1 S1                 0.0000
     16 ****         0.4869   0.3630   3.0559 H              1 S1                 0.0000
     17 ****         0.7313  -1.3105  -1.4506 H              1 S1                 0.0000
     18 ****        -3.2518   0.9151  -3.2828 LP             1 S1                 0.0000
     19 ****        -1.8246   1.8875  -3.4152 LP             1 S1                 0.0000
     20 ****        -3.3696  -0.5759  -1.5366 LP             1 S1                 0.0000
     21 ****        -2.0245  -0.6462  -0.4476 LP             1 S1                 0.0000
     22 ****         2.0496  -2.7468   2.6297 LP             1 S1                 0.0000
     23 ****         1.5691  -1.5173   3.7510 LP             1 S1                 0.0000
     24 ****        -0.9792   2.4854   0.7559 LP             1 S1                 0.0000
     25 ****        -0.5589   2.1729   2.4069 LP             1 S1                 0.0000
@<TRIPOS>BOND
    1    1    2 ar    
    2    2    3 ar    
    3    2    4 1     
    4    4    5 1     
    5    4    6 1     
    6    4    7 1     
    7    7   13 1     
    8    7    8 2     
    9    8    9 1     
   10    8   17 1     
   11    9   15 1     
   12    9   10 1     
   13   10   11 2     
   14   10   12 1     
   15   12   16 1     
   16   12   13 1     
   17   13   14 2     
   18    1   18 1     
   19    1   19 1     
   20    3   20 1     
   21    3   21 1     
   22   11   22 1     
   23   11   23 1     
   24   14   24 1     
   25   14   25 1     
@<TRIPOS>SUBSTRUCTURE
      1 S1             1
@<TRIPOS>SET
LONE_PAIRS      STATIC     ATOMS    <user>   **** ""
8 18 19 20 21 22 23 24 25
DONOR_HYDROGENS      STATIC     ATOMS    <user>   **** ""
2 15 16
ATOM$BLUE        STATIC     ATOMS    COLORGROUP SYSTEM
8 18 19 20 21 22 23 24 25
ATOM$RED        STATIC     ATOMS    COLORGROUP SYSTEM
2 15 16
