AV-unprocessed.smi:849|AV-procd|sdf|3944|dock6
  -GOLD-   22720 1413D 1   1.00000     0.00000
 Structure written by MMmdl.
 36 38  0  0  0  0  0  0  0  0  1 V2000
  152.8357  139.4386  156.6007 O   0  0  0  0  0  0  0  0  0  0  0  0
  152.2096  139.5010  157.8662 C   0  0  0  0  0  0  0  0  0  0  0  0
  152.1059  140.8900  158.4302 C   0  0  0  0  0  0  0  0  0  0  0  0
  152.6659  141.2449  159.5893 N   0  0  0  0  0  0  0  0  0  0  0  0
  152.3260  142.5780  159.7002 C   0  0  0  0  0  0  0  0  0  0  0  0
  152.6203  143.5199  160.7117 C   0  0  0  0  0  0  0  0  0  0  0  0
  152.1568  144.8477  160.6069 C   0  0  0  0  0  0  0  0  0  0  0  0
  151.3955  145.2520  159.4913 C   0  0  0  0  0  0  0  0  0  0  0  0
  151.0920  144.3291  158.4719 C   0  0  0  0  0  0  0  0  0  0  0  0
  151.5556  143.0045  158.5825 C   0  0  0  0  0  0  0  0  0  0  0  0
  151.4287  141.8728  157.7827 N   0  0  0  0  0  0  0  0  0  0  0  0
  150.7122  141.8021  156.5159 C   0  0  0  0  0  0  0  0  0  0  0  0
  149.2308  141.4069  156.6930 C   0  0  1  0  0  0  0  0  0  0  0  0
  148.5813  142.4546  157.3853 O   0  0  0  0  0  0  0  0  0  0  0  0
  148.5473  141.0804  155.3653 C   0  0  0  0  0  0  0  0  0  0  0  0
  147.3503  141.7517  155.0229 C   0  0  0  0  0  0  0  0  0  0  0  0
  146.7029  141.4906  153.8008 C   0  0  0  0  0  0  0  0  0  0  0  0
  147.2470  140.5541  152.9043 C   0  0  0  0  0  0  0  0  0  0  0  0
  148.4381  139.8814  153.2320 C   0  0  0  0  0  0  0  0  0  0  0  0
  149.0916  140.1379  154.4541 C   0  0  0  0  0  0  0  0  0  0  0  0
  150.5563  139.2818  154.7886 Cl  0  0  0  0  0  0  0  0  0  0  0  0
  152.1846  139.2172  155.9531 H   0  0  0  0  0  0  0  0  0  0  0  0
  151.2100  139.0754  157.7777 H   0  0  0  0  0  0  0  0  0  0  0  0
  152.7746  138.8744  158.5546 H   0  0  0  0  0  0  0  0  0  0  0  0
  153.2028  143.2193  161.5698 H   0  0  0  0  0  0  0  0  0  0  0  0
  152.3864  145.5592  161.3866 H   0  0  0  0  0  0  0  0  0  0  0  0
  151.0435  146.2706  159.4190 H   0  0  0  0  0  0  0  0  0  0  0  0
  150.5064  144.6346  157.6176 H   0  0  0  0  0  0  0  0  0  0  0  0
  150.7768  142.7892  156.0553 H   0  0  0  0  0  0  0  0  0  0  0  0
  151.2192  141.1196  155.8341 H   0  0  0  0  0  0  0  0  0  0  0  0
  149.1666  140.5505  157.3624 H   0  0  0  0  0  0  0  0  0  0  0  0
  148.7129  143.2584  156.9065 H   0  0  0  0  0  0  0  0  0  0  0  0
  146.9238  142.4807  155.6959 H   0  0  0  0  0  0  0  0  0  0  0  0
  145.7899  142.0108  153.5508 H   0  0  0  0  0  0  0  0  0  0  0  0
  146.7526  140.3521  151.9655 H   0  0  0  0  0  0  0  0  0  0  0  0
  148.8536  139.1641  152.5394 H   0  0  0  0  0  0  0  0  0  0  0  0
  1  2  1  0  0  0  0
  1 22  1  0  0  0  0
  2  3  1  0  0  0  0
  2 23  1  0  0  0  0
  2 24  1  0  0  0  0
  3 11  1  0  0  0  0
  3  4  2  0  0  0  0
  4  5  1  0  0  0  0
  5 10  2  0  0  0  0
  5  6  1  0  0  0  0
  6  7  2  0  0  0  0
  6 25  1  0  0  0  0
  7  8  1  0  0  0  0
  7 26  1  0  0  0  0
  8  9  2  0  0  0  0
  8 27  1  0  0  0  0
  9 10  1  0  0  0  0
  9 28  1  0  0  0  0
 10 11  1  0  0  0  0
 11 12  1  0  0  0  0
 12 13  1  0  0  0  0
 12 29  1  0  0  0  0
 12 30  1  0  0  0  0
 13 14  1  0  0  0  0
 13 15  1  0  0  0  0
 13 31  1  0  0  0  0
 14 32  1  0  0  0  0
 15 20  1  0  0  0  0
 15 16  2  0  0  0  0
 16 17  1  0  0  0  0
 16 33  1  0  0  0  0
 17 18  2  0  0  0  0
 17 34  1  0  0  0  0
 18 19  1  0  0  0  0
 18 35  1  0  0  0  0
 19 20  2  0  0  0  0
 19 36  1  0  0  0  0
 20 21  1  0  0  0  0
M  END
> <s_m_source_file>
AV-unprocessed.smi

> <i_m_source_file_index>
849

> <i_lp_mmshare_version>
43012

> <i_f3d_flags>
0

> <s_epik_input>
W2NIXTFbY0hdW2NIXVtjSF1jKGMxMiluKGMobjIpW0NIMl1bT0hdKVtDSDJdW0NASF0oW09IXSljM1tjSF1bY0hdW2NIXVtjSF1jM0Ns

> <s_epik_cmdline>
J2VwaWtfcHl0aG9uJywgJy1waCcsICc3LjAnLCAnLXRuJywgJzgnLCAnLW1hJywgJzIwMCcsICctbWV0YWxfYmluZGluZycsICctaW1hZScsICc8aW5maWxlLm1hZT4nLCAnLW9tYWUnLCAnPG91dGZpbGUubWFlPic=

> <r_epik_Ionization_Penalty>
0.0634742

> <r_epik_Ionization_Penalty_Charging>
0

> <r_epik_Ionization_Penalty_Neutral>
0.0634742

> <r_epik_State_Penalty>
0.0551572

> <r_epik_Charging_Adjusted_Penalty>
0.0551572

> <i_epik_Tot_Q>
0

> <i_epik_Tot_abs_Q>
0

> <r_epik_Metal_State_Penalty>
5.78034e-05

> <b_epik_Metal_Only>
0

> <s_lp_Force_Field>
OPLS_2005

> <r_lp_Energy>
13.628

> <b_lp_Chiralities_Consistent>
1

> <s_lp_Variant>
AV-unprocessed.smi:849-2

> <Gold.Version>
5.8.1

> <Gold.Id.Protein>
6NUR|6NUR_protein|mol2

> <Gold.PLP.Fitness>
51.2684

> <Gold.PLP.PLP>
-46.2111

> <Gold.PLP.part.hbond>
-2.0000

> <Gold.PLP.part.metal>
0.0000

> <Gold.PLP.part.buried>
-0.4730

> <Gold.PLP.part.nonpolar>
-42.9159

> <Gold.PLP.part.repulsive>
0.0000

> <Gold.PLP.ligand.clash>
0.0000

> <Gold.PLP.ligand.torsion>
0.4818

> <Gold.PLP.Chemscore.Hbond>
2.0000

> <Gold.PLP.Chemscore.CHOScore>
0.0000

> <Gold.PLP.Chemscore.Metal>
0.0000

> <Gold.Chemscore.Hbonds>
donor molecule, donor type, donor heavy atom, donor atom, acceptor molecule, acceptor atom, score
      L1  H    14    32       P1  8028  1.00
      P1  H  7997  8008       L1     1  1.00

> <Gold.PLP.Chemscore.Internal.Correction>
0.0209

> <Gold.Rescore>
     Score         DG    S(hbond)    S(metal)    S(lipo)     H(rot)  DE(clash)    DE(int)     intcor
     18.24     -19.15       1.69        0.00     125.89       2.62       0.47       0.44       ----

> <Gold.Chemscore.Fitness>
18.2389

> <Gold.Chemscore.DG>
-19.1490

> <Gold.Chemscore.ZeroCoef>
-5.4800

> <Gold.Chemscore.Hbond>
1.6931

> <Gold.Chemscore.Metal>
0.0000

> <Gold.Chemscore.Lipo>
125.8922

> <Gold.Chemscore.Internal_Hbond>
0.0000

> <Gold.Chemscore.DEClash>
0.4722

> <Gold.Chemscore.DEInternal>
0.4379

> <Gold.Chemscore.Rot>
2.6232

> <Gold.Chemscore.Internal.Correction>
   9.000000E+99

> <Gold.Chemscore.Hbonds>
donor molecule, donor type, donor heavy atom, donor atom, acceptor molecule, acceptor atom, score
      L1  H    14    32       P1  8028  0.60
      P1  H  7997  8008       L1     1  0.74

> <Gold.Chemscore.Hbond.Weighted>
-5.6551

> <Gold.Chemscore.Metal.Weighted>
-0.0000

> <Gold.Chemscore.Lipo.Weighted>
-14.7294

> <Gold.Chemscore.Internal_Hbond.Weighted>
0.0000

> <Gold.Chemscore.DEClash.Weighted>
0.4722

> <Gold.Chemscore.DEInternal.Weighted>
0.4379

> <Gold.Chemscore.Rot.Weighted>
6.7154

> <Gold.Chemscore.Internal.Correction.Weighted>
   9.000000E+99

> <Gold.Protein.RotatedTorsions>
[ 6907 6896 6895 6894 ] final  146.30 input  -60.11 | X-H torsion
[ 7974 7965 7964 7962 ] final  -34.90 input  175.53 | X-H torsion
[ 8008 7997 7996 7995 ] final  -64.50 input   59.86 | X-H torsion
[ 10167 10162 10161 10158 ] final -169.98 input  -65.29 | X-H torsion
[ 10718 10713 10712 10709 ] final   94.40 input   66.30 | X-H torsion
[ 10763 10752 10751 10750 ] final  -35.22 input  -60.55 | X-H torsion
[ 11005 11000 10999 10996 ] final  -30.44 input  -57.11 | X-H torsion

> <Gold.Protein.ActiveResidues>
 VAL166  LYS551  ARG553  GLY616  TRP617  ASP618  TYR619  PRO620  LYS621  CYS622 
 ASP623  PHE694  ASN695  SER759  ASP760  ASP761  ALA762  ILE779  LEU786  VAL792 
 PHE793  MET794  SER795  GLU796  ALA797  LYS798  CYS799  TRP800  GLU811  SER814 

> <Gold.Protein.RotatedAtoms>
  152.1696  133.4635  159.4902 H   0  0  0  0  0  0  0  0  0  0  0  0  # atno 6907 bound_to 6896
  150.6918  134.1969  159.4316 H   0  0  0  0  0  0  0  0  0  0  0  0  # atno 6908 bound_to 6896
  151.9875  134.9996  160.0611 H   0  0  0  0  0  0  0  0  0  0  0  0  # atno 6909 bound_to 6896
  146.0791  140.6095  142.8917 H   0  0  0  0  0  0  0  0  0  0  0  0  # atno 7974 bound_to 7965
  154.4616  140.0952  156.6907 H   0  0  0  0  0  0  0  0  0  0  0  0  # atno 8008 bound_to 7997
  155.4979  140.3473  155.4347 H   0  0  0  0  0  0  0  0  0  0  0  0  # atno 8009 bound_to 7997
  156.0880  140.1390  156.9617 H   0  0  0  0  0  0  0  0  0  0  0  0  # atno 8010 bound_to 7997
  139.5889  144.1256  152.1610 H   0  0  0  0  0  0  0  0  0  0  0  0  # atno 10167 bound_to 10162
  157.6948  131.0511  150.4181 H   0  0  0  0  0  0  0  0  0  0  0  0  # atno 10718 bound_to 10713
  153.8597  135.6841  153.4784 H   0  0  0  0  0  0  0  0  0  0  0  0  # atno 10763 bound_to 10752
  153.1349  135.4682  154.9404 H   0  0  0  0  0  0  0  0  0  0  0  0  # atno 10764 bound_to 10752
  154.7764  135.3255  154.8031 H   0  0  0  0  0  0  0  0  0  0  0  0  # atno 10765 bound_to 10752
  140.9383  133.7295  156.1038 H   0  0  0  0  0  0  0  0  0  0  0  0  # atno 11005 bound_to 11000
  144.7281  140.4588  143.6958 LP  0  0  0  0  0  0  0  0  0  0  0  0  # atno 17320 bound_to 7965
  145.6251  139.1529  143.3000 LP  0  0  0  0  0  0  0  0  0  0  0  0  # atno 17321 bound_to 7965
  140.0826  144.5688  150.7111 LP  0  0  0  0  0  0  0  0  0  0  0  0  # atno 17342 bound_to 10162
  140.7156  143.2542  151.4444 LP  0  0  0  0  0  0  0  0  0  0  0  0  # atno 17343 bound_to 10162
  156.4559  130.4021  149.6607 LP  0  0  0  0  0  0  0  0  0  0  0  0  # atno 17370 bound_to 10713
  156.3739  130.7545  151.2531 LP  0  0  0  0  0  0  0  0  0  0  0  0  # atno 17371 bound_to 10713
  140.7769  134.3769  157.5496 LP  0  0  0  0  0  0  0  0  0  0  0  0  # atno 17394 bound_to 11000
  139.8813  134.9057  156.2906 LP  0  0  0  0  0  0  0  0  0  0  0  0  # atno 17395 bound_to 11000

$$$$
