AV-unprocessed.smi:1128|AV-procd|sdf|4844|dock1
  -GOLD-   22720 3413D 1   1.00000     0.00000
 Structure written by MMmdl.
 37 38  0  0  0  0  0  0  0  0  2 V2000
  153.8332  139.6470  159.3569 O   0  0  0  0  0  0  0  0  0  0  0  0
  152.6496  139.3289  159.2480 C   0  0  0  0  0  0  0  0  0  0  0  0
  151.7434  140.0810  158.6065 N   0  0  0  0  0  0  0  0  0  0  0  0
  152.0026  141.3650  157.9607 C   0  0  0  0  0  0  0  0  0  0  0  0
  151.8007  142.5540  158.9224 C   0  0  2  0  0  0  0  0  0  0  0  0
  152.2805  143.8968  158.3213 C   0  0  0  0  0  0  0  0  0  0  0  0
  152.3515  145.0100  159.3513 C   0  0  0  0  0  0  0  0  0  0  0  0
  152.3118  144.7964  160.6768 C   0  0  0  0  0  0  0  0  0  0  0  0
  152.2000  143.4154  161.2948 C   0  0  0  0  0  0  0  0  0  0  0  0
  152.4892  142.2963  160.2769 C   0  0  0  0  0  0  0  0  0  0  0  0
  152.0769  138.2144  159.7391 N   0  0  0  0  0  0  0  0  0  0  0  0
  152.6367  137.1563  160.4777 C   0  0  0  0  0  0  0  0  0  0  0  0
  152.4321  136.9276  161.8051 C   0  0  0  0  0  0  0  0  0  0  0  0
  153.0448  135.8068  162.5079 C   0  0  0  0  0  0  0  0  0  0  0  0
  152.9017  135.5682  164.0008 C   0  0  0  0  0  0  0  0  0  0  0  0
  152.0684  136.4519  164.5507 F   0  0  0  0  0  0  0  0  0  0  0  0
  152.4369  134.3431  164.2466 F   0  0  0  0  0  0  0  0  0  0  0  0
  154.0876  135.6903  164.5953 F   0  0  0  0  0  0  0  0  0  0  0  0
  153.8545  135.0500  161.6839 C   0  0  0  0  0  0  0  0  0  0  0  0
  154.1011  135.1990  160.3643 N   0  5  0  0  0  0  0  0  0  0  0  0
  153.5157  136.2447  159.7149 C   0  0  0  0  0  0  0  0  0  0  0  0
  153.7044  136.4415  158.5138 O   0  0  0  0  0  0  0  0  0  0  0  0
  150.7940  139.7397  158.5671 H   0  0  0  0  0  0  0  0  0  0  0  0
  153.0359  141.3474  157.6132 H   0  0  0  0  0  0  0  0  0  0  0  0
  151.3873  141.4894  157.0679 H   0  0  0  0  0  0  0  0  0  0  0  0
  150.7305  142.6413  159.1185 H   0  0  0  0  0  0  0  0  0  0  0  0
  153.2721  143.7853  157.8813 H   0  0  0  0  0  0  0  0  0  0  0  0
  151.6117  144.2094  157.5191 H   0  0  0  0  0  0  0  0  0  0  0  0
  152.4479  146.0171  158.9727 H   0  0  0  0  0  0  0  0  0  0  0  0
  152.3499  145.6342  161.3578 H   0  0  0  0  0  0  0  0  0  0  0  0
  152.8906  143.3397  162.1351 H   0  0  0  0  0  0  0  0  0  0  0  0
  151.1936  143.3069  161.6999 H   0  0  0  0  0  0  0  0  0  0  0  0
  152.1710  141.3394  160.6921 H   0  0  0  0  0  0  0  0  0  0  0  0
  153.5663  142.2188  160.1216 H   0  0  0  0  0  0  0  0  0  0  0  0
  151.0858  138.1156  159.5737 H   0  0  0  0  0  0  0  0  0  0  0  0
  151.8051  137.5754  162.3933 H   0  0  0  0  0  0  0  0  0  0  0  0
  154.3881  134.1982  162.1572 H   0  0  0  0  0  0  0  0  0  0  0  0
  1  2  2  0  0  0  0
  2  3  1  0  0  0  0
  2 11  1  0  0  0  0
  3  4  1  0  0  0  0
  3 23  1  0  0  0  0
  4  5  1  0  0  0  0
  4 24  1  0  0  0  0
  4 25  1  0  0  0  0
  5 10  1  0  0  0  0
  5  6  1  0  0  0  0
  5 26  1  0  0  0  0
  6  7  1  0  0  0  0
  6 27  1  0  0  0  0
  6 28  1  0  0  0  0
  7  8  2  0  0  0  0
  7 29  1  0  0  0  0
  8  9  1  0  0  0  0
  8 30  1  0  0  0  0
  9 10  1  0  0  0  0
  9 31  1  0  0  0  0
  9 32  1  0  0  0  0
 10 33  1  0  0  0  0
 10 34  1  0  0  0  0
 11 12  1  0  0  0  0
 11 35  1  0  0  0  0
 12 21  1  0  0  0  0
 12 13  2  0  0  0  0
 13 14  1  0  0  0  0
 13 36  1  0  0  0  0
 14 15  1  0  0  0  0
 14 19  2  0  0  0  0
 15 16  1  0  0  0  0
 15 17  1  0  0  0  0
 15 18  1  0  0  0  0
 19 20  1  0  0  0  0
 19 37  1  0  0  0  0
 20 21  1  0  0  0  0
 21 22  2  0  0  0  0
M  CHG  1  20  -1
M  END
> <s_m_source_file>
AV-unprocessed.smi

> <i_m_source_file_index>
1128

> <i_lp_mmshare_version>
43012

> <i_f3d_flags>
0

> <s_epik_input>
Tz1jMVtuSF1bY0hdYyhDKEYpKEYpRilbY0hdYzFbTkhdQyg9TylbTkhdW0NIMl1bQ0BASF0yW0NIMl1bQ0hdPVtDSF1bQ0gyXVtDSDJdMg==

> <s_epik_cmdline>
J2VwaWtfcHl0aG9uJywgJy1waCcsICc3LjAnLCAnLXRuJywgJzgnLCAnLW1hJywgJzIwMCcsICctbWV0YWxfYmluZGluZycsICctaW1hZScsICc8aW5maWxlLm1hZT4nLCAnLW9tYWUnLCAnPG91dGZpbGUubWFlPic=

> <r_lp_tautomer_probability>
1

> <r_epik_Ionization_Penalty>
3.16664

> <r_epik_Ionization_Penalty_Charging>
0.172425

> <r_epik_Ionization_Penalty_Neutral>
2.99422

> <r_epik_State_Penalty>
2.99038

> <r_epik_Charging_Adjusted_Penalty>
3.16281

> <i_epik_Tot_Q>
-1

> <i_epik_Tot_abs_Q>
1

> <r_epik_Metal_State_Penalty>
0.453031

> <b_epik_Metal_Only>
1

> <s_lp_Force_Field>
OPLS_2005

> <r_lp_Energy>
22.3955

> <b_lp_Chiralities_Consistent>
1

> <s_lp_Variant>
AV-unprocessed.smi:1128-3

> <Gold.Version>
5.8.1

> <Gold.Id.Protein>
6NUR|6NUR_protein|mol2

> <Gold.PLP.Fitness>
48.0542

> <Gold.PLP.PLP>
-46.9027

> <Gold.PLP.part.hbond>
-1.0000

> <Gold.PLP.part.metal>
0.0000

> <Gold.PLP.part.buried>
-5.3963

> <Gold.PLP.part.nonpolar>
-40.5812

> <Gold.PLP.part.repulsive>
0.2157

> <Gold.PLP.ligand.clash>
0.0000

> <Gold.PLP.ligand.torsion>
0.9733

> <Gold.PLP.Chemscore.Hbond>
0.9920

> <Gold.PLP.Chemscore.CHOScore>
0.0000

> <Gold.PLP.Chemscore.Metal>
0.0000

> <Gold.Chemscore.Hbonds>
donor molecule, donor type, donor heavy atom, donor atom, acceptor molecule, acceptor atom, score
      P1  H  7997  8009       L1     1  0.11

> <Gold.PLP.Chemscore.Internal.Correction>
0.1221

> <Gold.Rescore>
     Score         DG    S(hbond)    S(metal)    S(lipo)     H(rot)  DE(clash)    DE(int)     intcor
     16.66     -17.74       0.94        0.00     106.38       1.29       0.02       1.06       ----

> <Gold.Chemscore.Fitness>
16.6636

> <Gold.Chemscore.DG>
-17.7377

> <Gold.Chemscore.ZeroCoef>
-5.4800

> <Gold.Chemscore.Hbond>
0.9356

> <Gold.Chemscore.Metal>
0.0000

> <Gold.Chemscore.Lipo>
106.3768

> <Gold.Chemscore.Internal_Hbond>
0.0000

> <Gold.Chemscore.DEClash>
0.0187

> <Gold.Chemscore.DEInternal>
1.0554

> <Gold.Chemscore.Rot>
1.2943

> <Gold.Chemscore.Internal.Correction>
   9.000000E+99

> <Gold.Chemscore.Hbonds>
donor molecule, donor type, donor heavy atom, donor atom, acceptor molecule, acceptor atom, score
      P1  H  7997  8009       L1     1  0.13

> <Gold.Chemscore.Hbond.Weighted>
-3.1249

> <Gold.Chemscore.Metal.Weighted>
-0.0000

> <Gold.Chemscore.Lipo.Weighted>
-12.4461

> <Gold.Chemscore.Internal_Hbond.Weighted>
0.0000

> <Gold.Chemscore.DEClash.Weighted>
0.0187

> <Gold.Chemscore.DEInternal.Weighted>
1.0554

> <Gold.Chemscore.Rot.Weighted>
3.3133

> <Gold.Chemscore.Internal.Correction.Weighted>
   9.000000E+99

> <Gold.Protein.RotatedTorsions>
[ 6907 6896 6895 6894 ] final   30.80 input  -60.11 | X-H torsion
[ 7974 7965 7964 7962 ] final  -95.06 input  175.53 | X-H torsion
[ 8008 7997 7996 7995 ] final  125.43 input   59.86 | X-H torsion
[ 10167 10162 10161 10158 ] final   30.22 input  -65.29 | X-H torsion
[ 10718 10713 10712 10709 ] final -127.90 input   66.30 | X-H torsion
[ 10763 10752 10751 10750 ] final  134.53 input  -60.55 | X-H torsion
[ 11005 11000 10999 10996 ] final  107.33 input  -57.11 | X-H torsion

> <Gold.Protein.ActiveResidues>
 VAL166  LYS551  ARG553  GLY616  TRP617  ASP618  TYR619  PRO620  LYS621  CYS622 
 ASP623  PHE694  ASN695  SER759  ASP760  ASP761  ALA762  ILE779  LEU786  VAL792 
 PHE793  MET794  SER795  GLU796  ALA797  LYS798  CYS799  TRP800  GLU811  SER814 

> <Gold.Protein.RotatedAtoms>
  152.0511  134.9653  160.0574 H   0  0  0  0  0  0  0  0  0  0  0  0  # atno 6907 bound_to 6896
  152.1053  133.4267  159.4614 H   0  0  0  0  0  0  0  0  0  0  0  0  # atno 6908 bound_to 6896
  150.6841  134.2631  159.4601 H   0  0  0  0  0  0  0  0  0  0  0  0  # atno 6909 bound_to 6896
  145.3651  140.9497  143.2479 H   0  0  0  0  0  0  0  0  0  0  0  0  # atno 7974 bound_to 7965
  156.2834  140.2716  156.1949 H   0  0  0  0  0  0  0  0  0  0  0  0  # atno 8008 bound_to 7997
  155.0420  140.0386  157.2531 H   0  0  0  0  0  0  0  0  0  0  0  0  # atno 8009 bound_to 7997
  154.7266  140.2698  155.6499 H   0  0  0  0  0  0  0  0  0  0  0  0  # atno 8010 bound_to 7997
  140.4697  144.0781  150.6234 H   0  0  0  0  0  0  0  0  0  0  0  0  # atno 10167 bound_to 10162
  156.1900  130.6789  151.0412 H   0  0  0  0  0  0  0  0  0  0  0  0  # atno 10718 bound_to 10713
  153.8252  135.3111  155.3414 H   0  0  0  0  0  0  0  0  0  0  0  0  # atno 10763 bound_to 10752
  154.7996  135.4734  154.0247 H   0  0  0  0  0  0  0  0  0  0  0  0  # atno 10764 bound_to 10752
  153.1669  135.6871  153.8753 H   0  0  0  0  0  0  0  0  0  0  0  0  # atno 10765 bound_to 10752
  139.8826  134.9397  156.5803 H   0  0  0  0  0  0  0  0  0  0  0  0  # atno 11005 bound_to 11000
  144.8617  139.5167  143.6809 LP  0  0  0  0  0  0  0  0  0  0  0  0  # atno 17320 bound_to 7965
  146.2910  139.7140  142.9161 LP  0  0  0  0  0  0  0  0  0  0  0  0  # atno 17321 bound_to 7965
  140.3992  143.2712  151.9968 LP  0  0  0  0  0  0  0  0  0  0  0  0  # atno 17342 bound_to 10162
  139.4817  144.6012  151.7603 LP  0  0  0  0  0  0  0  0  0  0  0  0  # atno 17343 bound_to 10162
  157.6923  131.0806  150.7072 LP  0  0  0  0  0  0  0  0  0  0  0  0  # atno 17370 bound_to 10713
  156.7129  130.4657  149.5542 LP  0  0  0  0  0  0  0  0  0  0  0  0  # atno 17371 bound_to 10713
  140.8032  133.8489  155.8745 LP  0  0  0  0  0  0  0  0  0  0  0  0  # atno 17394 bound_to 11000
  140.9574  134.1700  157.4681 LP  0  0  0  0  0  0  0  0  0  0  0  0  # atno 17395 bound_to 11000

$$$$
