AV-unprocessed.smi:2074|AV-procd|sdf|8453|dock6
  -GOLD-   2272011153D 1   1.00000     0.00000
 Structure written by MMmdl.
 43 44  0  0  0  0  0  0  0  0  1 V2000
  153.1575  141.0422  159.4852 C   0  0  0  0  0  0  0  0  0  0  0  0
  152.5126  142.3157  159.9512 C   0  0  0  0  0  0  0  0  0  0  0  0
  152.5272  142.6267  161.2367 N   0  0  0  0  0  0  0  0  0  0  0  0
  151.8519  143.8467  161.3427 O   0  0  0  0  0  0  0  0  0  0  0  0
  151.4528  144.2261  160.1022 C   0  0  0  0  0  0  0  0  0  0  0  0
  150.7021  145.5106  160.0059 C   0  0  0  0  0  0  0  0  0  0  0  0
  151.8435  143.3024  159.1721 C   0  0  0  0  0  0  0  0  0  0  0  0
  151.6216  143.3118  157.6793 C   0  0  0  0  0  0  0  0  0  0  0  0
  150.8625  142.0662  157.2048 C   0  0  0  0  0  0  0  0  0  0  0  0
  151.2632  140.9313  157.4684 O   0  0  0  0  0  0  0  0  0  0  0  0
  149.7470  142.3015  156.4979 N   0  0  0  0  0  0  0  0  0  0  0  0
  148.8567  141.2740  155.9641 C   0  0  0  0  0  0  0  0  0  0  0  0
  148.1423  141.6935  154.6457 C   0  0  1  0  0  0  0  0  0  0  0  0
  147.6912  140.4168  153.8913 C   0  0  0  0  0  0  0  0  0  0  0  0
  147.0341  142.6531  154.8616 N   0  0  0  0  0  0  0  0  0  0  0  0
  146.0706  142.1842  155.8646 C   0  0  0  0  0  0  0  0  0  0  0  0
  144.9014  143.1618  156.0749 C   0  0  0  0  0  0  0  0  0  0  0  0
  144.2417  143.3907  154.8378 O   0  0  0  0  0  0  0  0  0  0  0  0
  145.1209  143.9210  153.8560 C   0  0  0  0  0  0  0  0  0  0  0  0
  146.2937  142.9514  153.6296 C   0  0  0  0  0  0  0  0  0  0  0  0
  152.4351  140.4074  158.9714 H   0  0  0  0  0  0  0  0  0  0  0  0
  153.5707  140.4689  160.3158 H   0  0  0  0  0  0  0  0  0  0  0  0
  153.9703  141.2501  158.7895 H   0  0  0  0  0  0  0  0  0  0  0  0
  150.1027  145.5446  159.0959 H   0  0  0  0  0  0  0  0  0  0  0  0
  151.3877  146.3578  159.9925 H   0  0  0  0  0  0  0  0  0  0  0  0
  150.0293  145.6316  160.8551 H   0  0  0  0  0  0  0  0  0  0  0  0
  151.0575  144.1948  157.3767 H   0  0  0  0  0  0  0  0  0  0  0  0
  152.5702  143.3615  157.1438 H   0  0  0  0  0  0  0  0  0  0  0  0
  149.4895  143.2622  156.3240 H   0  0  0  0  0  0  0  0  0  0  0  0
  149.4453  140.3719  155.7948 H   0  0  0  0  0  0  0  0  0  0  0  0
  148.1477  141.0336  156.7552 H   0  0  0  0  0  0  0  0  0  0  0  0
  148.8883  142.1840  154.0185 H   0  0  0  0  0  0  0  0  0  0  0  0
  148.4967  139.6919  153.7785 H   0  0  0  0  0  0  0  0  0  0  0  0
  147.3631  140.6321  152.8753 H   0  0  0  0  0  0  0  0  0  0  0  0
  146.8731  139.9190  154.4128 H   0  0  0  0  0  0  0  0  0  0  0  0
  145.6785  141.2086  155.5731 H   0  0  0  0  0  0  0  0  0  0  0  0
  146.5541  142.0552  156.8312 H   0  0  0  0  0  0  0  0  0  0  0  0
  144.1872  142.7493  156.7876 H   0  0  0  0  0  0  0  0  0  0  0  0
  145.2565  144.1069  156.4884 H   0  0  0  0  0  0  0  0  0  0  0  0
  144.5688  144.0695  152.9280 H   0  0  0  0  0  0  0  0  0  0  0  0
  145.4844  144.9003  154.1718 H   0  0  0  0  0  0  0  0  0  0  0  0
  146.9441  143.4138  152.8903 H   0  0  0  0  0  0  0  0  0  0  0  0
  145.9191  142.0260  153.1896 H   0  0  0  0  0  0  0  0  0  0  0  0
  1  2  1  0  0  0  0
  1 21  1  0  0  0  0
  1 22  1  0  0  0  0
  1 23  1  0  0  0  0
  2  7  1  0  0  0  0
  2  3  2  0  0  0  0
  3  4  1  0  0  0  0
  4  5  1  0  0  0  0
  5  6  1  0  0  0  0
  5  7  2  0  0  0  0
  6 24  1  0  0  0  0
  6 25  1  0  0  0  0
  6 26  1  0  0  0  0
  7  8  1  0  0  0  0
  8  9  1  0  0  0  0
  8 27  1  0  0  0  0
  8 28  1  0  0  0  0
  9 10  2  0  0  0  0
  9 11  1  0  0  0  0
 11 12  1  0  0  0  0
 11 29  1  0  0  0  0
 12 13  1  0  0  0  0
 12 30  1  0  0  0  0
 12 31  1  0  0  0  0
 13 14  1  0  0  0  0
 13 15  1  0  0  0  0
 13 32  1  0  0  0  0
 14 33  1  0  0  0  0
 14 34  1  0  0  0  0
 14 35  1  0  0  0  0
 15 20  1  0  0  0  0
 15 16  1  0  0  0  0
 16 17  1  0  0  0  0
 16 36  1  0  0  0  0
 16 37  1  0  0  0  0
 17 18  1  0  0  0  0
 17 38  1  0  0  0  0
 17 39  1  0  0  0  0
 18 19  1  0  0  0  0
 19 20  1  0  0  0  0
 19 40  1  0  0  0  0
 19 41  1  0  0  0  0
 20 42  1  0  0  0  0
 20 43  1  0  0  0  0
M  END
> <s_m_source_file>
AV-unprocessed.smi

> <i_m_source_file_index>
2074

> <i_lp_mmshare_version>
43012

> <i_f3d_flags>
0

> <s_epik_input>
W0NIM11jMW5vYyhbQ0gzXSljMVtDSDJdQyg9TylbTkhdW0NIMl1bQ0BIXShbQ0gzXSlOMltDSDJdW0NIMl1PW0NIMl1bQ0gyXTI=

> <s_epik_cmdline>
J2VwaWtfcHl0aG9uJywgJy1waCcsICc3LjAnLCAnLXRuJywgJzgnLCAnLW1hJywgJzIwMCcsICctbWV0YWxfYmluZGluZycsICctaW1hZScsICc8aW5maWxlLm1hZT4nLCAnLW9tYWUnLCAnPG91dGZpbGUubWFlPic=

> <r_epik_Ionization_Penalty>
0.234179

> <r_epik_Ionization_Penalty_Charging>
0

> <r_epik_Ionization_Penalty_Neutral>
0.234179

> <r_epik_State_Penalty>
0.224936

> <r_epik_Charging_Adjusted_Penalty>
0.224936

> <i_epik_Tot_Q>
0

> <i_epik_Tot_abs_Q>
0

> <r_epik_Metal_State_Penalty>
0.224936

> <b_epik_Metal_Only>
0

> <s_lp_Force_Field>
OPLS_2005

> <r_lp_Energy>
23.5804

> <b_lp_Chiralities_Consistent>
1

> <s_lp_Variant>
AV-unprocessed.smi:2074-2

> <Gold.Version>
5.8.1

> <Gold.Id.Protein>
6NUR|6NUR_protein|mol2

> <Gold.PLP.Fitness>
41.0083

> <Gold.PLP.PLP>
-38.8747

> <Gold.PLP.part.hbond>
-1.0000

> <Gold.PLP.part.metal>
0.0000

> <Gold.PLP.part.buried>
-8.3992

> <Gold.PLP.part.nonpolar>
-31.3514

> <Gold.PLP.part.repulsive>
2.1069

> <Gold.PLP.ligand.clash>
0.0000

> <Gold.PLP.ligand.torsion>
0.4638

> <Gold.PLP.Chemscore.Hbond>
1.0000

> <Gold.PLP.Chemscore.CHOScore>
0.0000

> <Gold.PLP.Chemscore.Metal>
0.0000

> <Gold.Chemscore.Hbonds>
donor molecule, donor type, donor heavy atom, donor atom, acceptor molecule, acceptor atom, score
      L1  H    11    29       P1  8028  1.00

> <Gold.PLP.Chemscore.Internal.Correction>
0.0612

> <Gold.Rescore>
     Score         DG    S(hbond)    S(metal)    S(lipo)     H(rot)  DE(clash)    DE(int)     intcor
     13.67     -15.79       1.00        0.00      97.16       1.72       0.27       1.85       ----

> <Gold.Chemscore.Fitness>
13.6707

> <Gold.Chemscore.DG>
-15.7857

> <Gold.Chemscore.ZeroCoef>
-5.4800

> <Gold.Chemscore.Hbond>
0.9998

> <Gold.Chemscore.Metal>
0.0000

> <Gold.Chemscore.Lipo>
97.1626

> <Gold.Chemscore.Internal_Hbond>
0.0000

> <Gold.Chemscore.DEClash>
0.2696

> <Gold.Chemscore.DEInternal>
1.8453

> <Gold.Chemscore.Rot>
1.7195

> <Gold.Chemscore.Internal.Correction>
   9.000000E+99

> <Gold.Chemscore.Hbonds>
donor molecule, donor type, donor heavy atom, donor atom, acceptor molecule, acceptor atom, score
      L1  H    11    29       P1  8028  1.00

> <Gold.Chemscore.Hbond.Weighted>
-3.3395

> <Gold.Chemscore.Metal.Weighted>
-0.0000

> <Gold.Chemscore.Lipo.Weighted>
-11.3680

> <Gold.Chemscore.Internal_Hbond.Weighted>
0.0000

> <Gold.Chemscore.DEClash.Weighted>
0.2696

> <Gold.Chemscore.DEInternal.Weighted>
1.8453

> <Gold.Chemscore.Rot.Weighted>
4.4018

> <Gold.Chemscore.Internal.Correction.Weighted>
   9.000000E+99

> <Gold.Protein.RotatedTorsions>
[ 6907 6896 6895 6894 ] final  156.03 input  -60.11 | X-H torsion
[ 7974 7965 7964 7962 ] final   43.71 input  175.53 | X-H torsion
[ 8008 7997 7996 7995 ] final -100.57 input   59.86 | X-H torsion
[ 10167 10162 10161 10158 ] final -123.80 input  -65.29 | X-H torsion
[ 10718 10713 10712 10709 ] final -153.80 input   66.30 | X-H torsion
[ 10763 10752 10751 10750 ] final   62.10 input  -60.55 | X-H torsion
[ 11005 11000 10999 10996 ] final  -20.58 input  -57.11 | X-H torsion

> <Gold.Protein.ActiveResidues>
 VAL166  LYS551  ARG553  GLY616  TRP617  ASP618  TYR619  PRO620  LYS621  CYS622 
 ASP623  PHE694  ASN695  SER759  ASP760  ASP761  ALA762  ILE779  LEU786  VAL792 
 PHE793  MET794  SER795  GLU796  ALA797  LYS798  CYS799  TRP800  GLU811  SER814 

> <Gold.Protein.RotatedAtoms>
  152.0356  133.3955  159.4314 H   0  0  0  0  0  0  0  0  0  0  0  0  # atno 6907 bound_to 6896
  150.6879  134.3472  159.4903 H   0  0  0  0  0  0  0  0  0  0  0  0  # atno 6908 bound_to 6896
  152.1264  134.9167  160.0611 H   0  0  0  0  0  0  0  0  0  0  0  0  # atno 6909 bound_to 6896
  146.0631  139.5155  142.9645 H   0  0  0  0  0  0  0  0  0  0  0  0  # atno 7974 bound_to 7965
  154.8305  140.0440  157.1473 H   0  0  0  0  0  0  0  0  0  0  0  0  # atno 8008 bound_to 7997
  154.9158  140.3020  155.5222 H   0  0  0  0  0  0  0  0  0  0  0  0  # atno 8009 bound_to 7997
  156.2986  140.2350  156.4202 H   0  0  0  0  0  0  0  0  0  0  0  0  # atno 8010 bound_to 7997
  139.9996  143.5554  152.2309 H   0  0  0  0  0  0  0  0  0  0  0  0  # atno 10167 bound_to 10162
  156.4907  130.8346  151.2569 H   0  0  0  0  0  0  0  0  0  0  0  0  # atno 10718 bound_to 10713
  152.9971  135.5477  154.6139 H   0  0  0  0  0  0  0  0  0  0  0  0  # atno 10763 bound_to 10752
  154.5454  135.2823  155.1060 H   0  0  0  0  0  0  0  0  0  0  0  0  # atno 10764 bound_to 10752
  154.2321  135.6432  153.5231 H   0  0  0  0  0  0  0  0  0  0  0  0  # atno 10765 bound_to 10752
  140.8479  133.7878  155.9933 H   0  0  0  0  0  0  0  0  0  0  0  0  # atno 11005 bound_to 11000
  145.6524  141.0260  143.1753 LP  0  0  0  0  0  0  0  0  0  0  0  0  # atno 17320 bound_to 7965
  144.7187  139.8107  143.7390 LP  0  0  0  0  0  0  0  0  0  0  0  0  # atno 17321 bound_to 7965
  139.6281  144.7640  151.2595 LP  0  0  0  0  0  0  0  0  0  0  0  0  # atno 17342 bound_to 10162
  140.7424  143.6528  150.8233 LP  0  0  0  0  0  0  0  0  0  0  0  0  # atno 17343 bound_to 10162
  157.7474  131.0014  150.2963 LP  0  0  0  0  0  0  0  0  0  0  0  0  # atno 17370 bound_to 10713
  156.3429  130.3818  149.7394 LP  0  0  0  0  0  0  0  0  0  0  0  0  # atno 17371 bound_to 10713
  140.8823  134.2596  157.5137 LP  0  0  0  0  0  0  0  0  0  0  0  0  # atno 17394 bound_to 11000
  139.8703  134.9621  156.4418 LP  0  0  0  0  0  0  0  0  0  0  0  0  # atno 17395 bound_to 11000

$$$$
