AV-unprocessed.smi:2172|AV-procd|sdf|8835|dock4
  -GOLD-   2272012 23D 1   1.00000     0.00000
 Structure written by MMmdl.
 36 38  0  0  0  0  0  0  0  0  1 V2000
  153.4616  139.5123  154.6992 O   0  0  0  0  0  0  0  0  0  0  0  0
  152.4727  138.9662  155.5456 C   0  0  0  0  0  0  0  0  0  0  0  0
  151.1727  139.7075  155.4702 C   0  0  0  0  0  0  0  0  0  0  0  0
  150.4252  139.7084  154.3661 N   0  0  0  0  0  0  0  0  0  0  0  0
  149.3417  140.4827  154.7329 C   0  0  0  0  0  0  0  0  0  0  0  0
  148.1933  140.8601  154.0007 C   0  0  0  0  0  0  0  0  0  0  0  0
  147.2029  141.6700  154.5939 C   0  0  0  0  0  0  0  0  0  0  0  0
  147.3457  142.1130  155.9249 C   0  0  0  0  0  0  0  0  0  0  0  0
  148.4821  141.7480  156.6722 C   0  0  0  0  0  0  0  0  0  0  0  0
  149.4680  140.9392  156.0755 C   0  0  0  0  0  0  0  0  0  0  0  0
  150.6777  140.4126  156.5186 N   0  0  0  0  0  0  0  0  0  0  0  0
  151.2649  140.5908  157.8399 C   0  0  0  0  0  0  0  0  0  0  0  0
  152.0234  141.9254  157.9852 C   0  0  1  0  0  0  0  0  0  0  0  0
  151.2371  142.9892  157.4833 O   0  0  0  0  0  0  0  0  0  0  0  0
  152.4584  142.1528  159.4248 C   0  0  0  0  0  0  0  0  0  0  0  0
  153.3279  141.2460  160.0713 C   0  0  0  0  0  0  0  0  0  0  0  0
  153.7329  141.4761  161.4006 C   0  0  0  0  0  0  0  0  0  0  0  0
  153.2751  142.6157  162.0899 C   0  0  0  0  0  0  0  0  0  0  0  0
  153.7728  142.8983  163.7176 Cl  0  0  0  0  0  0  0  0  0  0  0  0
  152.4125  143.5255  161.4486 C   0  0  0  0  0  0  0  0  0  0  0  0
  152.0063  143.2949  160.1200 C   0  0  0  0  0  0  0  0  0  0  0  0
  153.0926  140.2555  154.2472 H   0  0  0  0  0  0  0  0  0  0  0  0
  152.3196  137.9176  155.2932 H   0  0  0  0  0  0  0  0  0  0  0  0
  152.8416  138.9894  156.5716 H   0  0  0  0  0  0  0  0  0  0  0  0
  148.0743  140.5252  152.9809 H   0  0  0  0  0  0  0  0  0  0  0  0
  146.3296  141.9531  154.0248 H   0  0  0  0  0  0  0  0  0  0  0  0
  146.5828  142.7335  156.3718 H   0  0  0  0  0  0  0  0  0  0  0  0
  148.5966  142.0882  157.6908 H   0  0  0  0  0  0  0  0  0  0  0  0
  150.4707  140.5245  158.5847 H   0  0  0  0  0  0  0  0  0  0  0  0
  151.9330  139.7529  158.0408 H   0  0  0  0  0  0  0  0  0  0  0  0
  152.9203  141.8943  157.3665 H   0  0  0  0  0  0  0  0  0  0  0  0
  150.7073  143.3286  158.1883 H   0  0  0  0  0  0  0  0  0  0  0  0
  153.6908  140.3725  159.5497 H   0  0  0  0  0  0  0  0  0  0  0  0
  154.3967  140.7781  161.8895 H   0  0  0  0  0  0  0  0  0  0  0  0
  152.0629  144.4024  161.9736 H   0  0  0  0  0  0  0  0  0  0  0  0
  151.3480  144.0008  159.6349 H   0  0  0  0  0  0  0  0  0  0  0  0
  1  2  1  0  0  0  0
  1 22  1  0  0  0  0
  2  3  1  0  0  0  0
  2 23  1  0  0  0  0
  2 24  1  0  0  0  0
  3 11  1  0  0  0  0
  3  4  2  0  0  0  0
  4  5  1  0  0  0  0
  5 10  2  0  0  0  0
  5  6  1  0  0  0  0
  6  7  2  0  0  0  0
  6 25  1  0  0  0  0
  7  8  1  0  0  0  0
  7 26  1  0  0  0  0
  8  9  2  0  0  0  0
  8 27  1  0  0  0  0
  9 10  1  0  0  0  0
  9 28  1  0  0  0  0
 10 11  1  0  0  0  0
 11 12  1  0  0  0  0
 12 13  1  0  0  0  0
 12 29  1  0  0  0  0
 12 30  1  0  0  0  0
 13 14  1  0  0  0  0
 13 15  1  0  0  0  0
 13 31  1  0  0  0  0
 14 32  1  0  0  0  0
 15 21  1  0  0  0  0
 15 16  2  0  0  0  0
 16 17  1  0  0  0  0
 16 33  1  0  0  0  0
 17 18  2  0  0  0  0
 17 34  1  0  0  0  0
 18 19  1  0  0  0  0
 18 20  1  0  0  0  0
 20 21  2  0  0  0  0
 20 35  1  0  0  0  0
 21 36  1  0  0  0  0
M  END
> <s_m_source_file>
AV-unprocessed.smi

> <i_m_source_file_index>
2172

> <i_lp_mmshare_version>
43012

> <i_f3d_flags>
0

> <s_epik_input>
W2NIXTFbY0hdW2NIXVtjSF1jKGMxMiluKGMobjIpW0NIMl1bT0hdKVtDSDJdW0NASF0oW09IXSljM1tjSF1bY0hdYyhDbClbY0hdW2NIXTM=

> <s_epik_cmdline>
J2VwaWtfcHl0aG9uJywgJy1waCcsICc3LjAnLCAnLXRuJywgJzgnLCAnLW1hJywgJzIwMCcsICctbWV0YWxfYmluZGluZycsICctaW1hZScsICc8aW5maWxlLm1hZT4nLCAnLW9tYWUnLCAnPG91dGZpbGUubWFlPic=

> <r_epik_Ionization_Penalty>
0.0634726

> <r_epik_Ionization_Penalty_Charging>
0

> <r_epik_Ionization_Penalty_Neutral>
0.0634726

> <r_epik_State_Penalty>
0.0551572

> <r_epik_Charging_Adjusted_Penalty>
0.0551572

> <i_epik_Tot_Q>
0

> <i_epik_Tot_abs_Q>
0

> <r_epik_Metal_State_Penalty>
5.78034e-05

> <b_epik_Metal_Only>
0

> <s_lp_Force_Field>
OPLS_2005

> <r_lp_Energy>
11.6759

> <b_lp_Chiralities_Consistent>
1

> <s_lp_Variant>
AV-unprocessed.smi:2172-2

> <Gold.Version>
5.8.1

> <Gold.Id.Protein>
6NUR|6NUR_protein|mol2

> <Gold.PLP.Fitness>
54.5869

> <Gold.PLP.PLP>
-50.6092

> <Gold.PLP.part.hbond>
-3.0000

> <Gold.PLP.part.metal>
0.0000

> <Gold.PLP.part.buried>
-3.9641

> <Gold.PLP.part.nonpolar>
-42.9632

> <Gold.PLP.part.repulsive>
0.1289

> <Gold.PLP.ligand.clash>
0.0000

> <Gold.PLP.ligand.torsion>
0.4304

> <Gold.PLP.Chemscore.Hbond>
1.6000

> <Gold.PLP.Chemscore.CHOScore>
0.0000

> <Gold.PLP.Chemscore.Metal>
0.0000

> <Gold.Chemscore.Hbonds>
donor molecule, donor type, donor heavy atom, donor atom, acceptor molecule, acceptor atom, score
      P1  H  7989  7998       L1     4  0.60
      P1  H  7997  8010       L1     1  1.00

> <Gold.PLP.Chemscore.Internal.Correction>
0.0385

> <Gold.Rescore>
     Score         DG    S(hbond)    S(metal)    S(lipo)     H(rot)  DE(clash)    DE(int)     intcor
     16.34     -16.81       0.90        0.00     128.58       2.62       0.01       0.46       ----

> <Gold.Chemscore.Fitness>
16.3361

> <Gold.Chemscore.DG>
-16.8094

> <Gold.Chemscore.ZeroCoef>
-5.4800

> <Gold.Chemscore.Hbond>
0.8986

> <Gold.Chemscore.Metal>
0.0000

> <Gold.Chemscore.Lipo>
128.5764

> <Gold.Chemscore.Internal_Hbond>
0.0000

> <Gold.Chemscore.DEClash>
0.0104

> <Gold.Chemscore.DEInternal>
0.4630

> <Gold.Chemscore.Rot>
2.6232

> <Gold.Chemscore.Internal.Correction>
   9.000000E+99

> <Gold.Chemscore.Hbonds>
donor molecule, donor type, donor heavy atom, donor atom, acceptor molecule, acceptor atom, score
      P1  H  7989  7998       L1     4  0.02
      P1  H  7997  8010       L1     1  0.21

> <Gold.Chemscore.Hbond.Weighted>
-3.0014

> <Gold.Chemscore.Metal.Weighted>
-0.0000

> <Gold.Chemscore.Lipo.Weighted>
-15.0434

> <Gold.Chemscore.Internal_Hbond.Weighted>
0.0000

> <Gold.Chemscore.DEClash.Weighted>
0.0104

> <Gold.Chemscore.DEInternal.Weighted>
0.4630

> <Gold.Chemscore.Rot.Weighted>
6.7154

> <Gold.Chemscore.Internal.Correction.Weighted>
   9.000000E+99

> <Gold.Protein.RotatedTorsions>
[ 6907 6896 6895 6894 ] final  105.11 input  -60.11 | X-H torsion
[ 7974 7965 7964 7962 ] final  132.71 input  175.53 | X-H torsion
[ 8008 7997 7996 7995 ] final  118.95 input   59.86 | X-H torsion
[ 10167 10162 10161 10158 ] final  118.83 input  -65.29 | X-H torsion
[ 10718 10713 10712 10709 ] final   24.91 input   66.30 | X-H torsion
[ 10763 10752 10751 10750 ] final  105.62 input  -60.55 | X-H torsion
[ 11005 11000 10999 10996 ] final   23.75 input  -57.11 | X-H torsion

> <Gold.Protein.ActiveResidues>
 VAL166  LYS551  ARG553  GLY616  TRP617  ASP618  TYR619  PRO620  LYS621  CYS622 
 ASP623  PHE694  ASN695  SER759  ASP760  ASP761  ALA762  ILE779  LEU786  VAL792 
 PHE793  MET794  SER795  GLU796  ALA797  LYS798  CYS799  TRP800  GLU811  SER814 

> <Gold.Protein.RotatedAtoms>
  152.5242  133.9577  159.7702 H   0  0  0  0  0  0  0  0  0  0  0  0  # atno 6907 bound_to 6896
  150.9874  133.6175  159.2720 H   0  0  0  0  0  0  0  0  0  0  0  0  # atno 6908 bound_to 6896
  151.3331  135.0852  159.9398 H   0  0  0  0  0  0  0  0  0  0  0  0  # atno 6909 bound_to 6896
  144.9940  139.4378  143.5325 H   0  0  0  0  0  0  0  0  0  0  0  0  # atno 7974 bound_to 7965
  156.2572  140.2863  156.0914 H   0  0  0  0  0  0  0  0  0  0  0  0  # atno 8008 bound_to 7997
  155.1458  140.0396  157.2827 H   0  0  0  0  0  0  0  0  0  0  0  0  # atno 8009 bound_to 7997
  154.6496  140.2541  155.7235 H   0  0  0  0  0  0  0  0  0  0  0  0  # atno 8010 bound_to 7997
  139.6085  144.7076  151.2897 H   0  0  0  0  0  0  0  0  0  0  0  0  # atno 10167 bound_to 10162
  157.1862  130.6825  149.6132 H   0  0  0  0  0  0  0  0  0  0  0  0  # atno 10718 bound_to 10713
  153.3819  135.3904  155.1862 H   0  0  0  0  0  0  0  0  0  0  0  0  # atno 10763 bound_to 10752
  154.8708  135.3727  154.4847 H   0  0  0  0  0  0  0  0  0  0  0  0  # atno 10764 bound_to 10752
  153.5324  135.7085  153.5737 H   0  0  0  0  0  0  0  0  0  0  0  0  # atno 10765 bound_to 10752
  140.3662  134.2072  155.7669 H   0  0  0  0  0  0  0  0  0  0  0  0  # atno 11005 bound_to 11000
  146.3438  139.9289  142.8756 LP  0  0  0  0  0  0  0  0  0  0  0  0  # atno 17320 bound_to 7965
  145.2246  140.9949  143.4026 LP  0  0  0  0  0  0  0  0  0  0  0  0  # atno 17321 bound_to 7965
  140.7302  143.6885  150.7941 LP  0  0  0  0  0  0  0  0  0  0  0  0  # atno 17342 bound_to 10162
  140.0476  143.5283  152.2689 LP  0  0  0  0  0  0  0  0  0  0  0  0  # atno 17343 bound_to 10162
  155.9718  130.4630  150.6166 LP  0  0  0  0  0  0  0  0  0  0  0  0  # atno 17370 bound_to 10713
  157.3905  131.0795  151.1398 LP  0  0  0  0  0  0  0  0  0  0  0  0  # atno 17371 bound_to 10713
  141.1969  133.8072  157.0652 LP  0  0  0  0  0  0  0  0  0  0  0  0  # atno 17394 bound_to 11000
  140.0588  134.9766  157.1267 LP  0  0  0  0  0  0  0  0  0  0  0  0  # atno 17395 bound_to 11000

$$$$
