AV-unprocessed.smi:1124|AV-procd|sdf|4833|dock9
  -GOLD-   22720 3393D 1   1.00000     0.00000
 Structure written by MMmdl.
 52 53  0  0  0  0  0  0  0  0  2 V2000
  145.5227  139.0096  154.5070 C   0  0  0  0  0  0  0  0  0  0  0  0
  146.1493  139.4550  153.2423 N   0  3  0  0  0  0  0  0  0  0  0  0
  146.1708  138.3794  152.2265 C   0  0  0  0  0  0  0  0  0  0  0  0
  147.4785  140.0929  153.4417 C   0  0  0  0  0  0  0  0  0  0  0  0
  147.3918  141.4717  154.1526 C   0  0  0  0  0  0  0  0  0  0  0  0
  146.2689  142.3203  153.5187 C   0  0  0  0  0  0  0  0  0  0  0  0
  147.1016  141.2904  155.6590 C   0  0  0  0  0  0  0  0  0  0  0  0
  148.7221  142.2525  153.9685 C   0  0  0  0  0  0  0  0  0  0  0  0
  149.5308  142.3372  155.1833 N   0  0  0  0  0  0  0  0  0  0  0  0
  150.6707  141.6656  155.4139 C   0  0  0  0  0  0  0  0  0  0  0  0
  151.1740  140.8848  154.6058 O   0  0  0  0  0  0  0  0  0  0  0  0
  151.3210  141.9493  156.7428 C   0  0  0  0  0  0  0  0  0  0  0  0
  151.3978  143.2841  157.2047 C   0  0  0  0  0  0  0  0  0  0  0  0
  151.9583  143.5531  158.4654 C   0  0  0  0  0  0  0  0  0  0  0  0
  152.4198  142.4698  159.2318 C   0  0  0  0  0  0  0  0  0  0  0  0
  152.3532  141.1905  158.8126 N   0  0  0  0  0  0  0  0  0  0  0  0
  151.8178  140.9189  157.5962 C   0  0  0  0  0  0  0  0  0  0  0  0
  151.8157  139.5667  157.1984 N   0  0  0  0  0  0  0  0  0  0  0  0
  150.5524  138.8412  157.2865 C   0  0  0  0  0  0  0  0  0  0  0  0
  150.6851  137.4768  156.5888 C   0  0  0  0  0  0  0  0  0  0  0  0
  151.7711  136.7521  157.1602 O   0  0  0  0  0  0  0  0  0  0  0  0
  153.0125  137.4344  157.0041 C   0  0  0  0  0  0  0  0  0  0  0  0
  152.9456  138.7999  157.7090 C   0  0  0  0  0  0  0  0  0  0  0  0
  146.0999  138.2074  154.9687 H   0  0  0  0  0  0  0  0  0  0  0  0
  144.5117  138.6429  154.3267 H   0  0  0  0  0  0  0  0  0  0  0  0
  145.4544  139.8341  155.2173 H   0  0  0  0  0  0  0  0  0  0  0  0
  146.8017  137.5498  152.5480 H   0  0  0  0  0  0  0  0  0  0  0  0
  146.5540  138.7547  151.2770 H   0  0  0  0  0  0  0  0  0  0  0  0
  145.1652  137.9963  152.0494 H   0  0  0  0  0  0  0  0  0  0  0  0
  148.1191  139.4150  154.0071 H   0  0  0  0  0  0  0  0  0  0  0  0
  147.9785  140.2192  152.4796 H   0  0  0  0  0  0  0  0  0  0  0  0
  146.2240  143.3146  153.9646 H   0  0  0  0  0  0  0  0  0  0  0  0
  145.2868  141.8666  153.6543 H   0  0  0  0  0  0  0  0  0  0  0  0
  146.4259  142.4498  152.4471 H   0  0  0  0  0  0  0  0  0  0  0  0
  147.1162  142.2476  156.1815 H   0  0  0  0  0  0  0  0  0  0  0  0
  147.8373  140.6434  156.1382 H   0  0  0  0  0  0  0  0  0  0  0  0
  146.1203  140.8474  155.8298 H   0  0  0  0  0  0  0  0  0  0  0  0
  149.3053  141.8225  153.1520 H   0  0  0  0  0  0  0  0  0  0  0  0
  148.5070  143.2771  153.6631 H   0  0  0  0  0  0  0  0  0  0  0  0
  149.2052  142.9694  155.9006 H   0  0  0  0  0  0  0  0  0  0  0  0
  151.0217  144.1023  156.6074 H   0  0  0  0  0  0  0  0  0  0  0  0
  152.0265  144.5642  158.8391 H   0  0  0  0  0  0  0  0  0  0  0  0
  152.8539  142.6336  160.2070 H   0  0  0  0  0  0  0  0  0  0  0  0
  150.2825  138.6939  158.3333 H   0  0  0  0  0  0  0  0  0  0  0  0
  149.7559  139.4240  156.8223 H   0  0  0  0  0  0  0  0  0  0  0  0
  149.7681  136.9003  156.7118 H   0  0  0  0  0  0  0  0  0  0  0  0
  150.8424  137.6018  155.5161 H   0  0  0  0  0  0  0  0  0  0  0  0
  153.8088  136.8274  157.4348 H   0  0  0  0  0  0  0  0  0  0  0  0
  153.2421  137.5563  155.9440 H   0  0  0  0  0  0  0  0  0  0  0  0
  153.8805  139.3404  157.5599 H   0  0  0  0  0  0  0  0  0  0  0  0
  152.8260  138.6607  158.7843 H   0  0  0  0  0  0  0  0  0  0  0  0
  145.5499  140.1773  152.8696 H   0  0  0  0  0  0  0  0  0  0  0  0
  1  2  1  0  0  0  0
  1 24  1  0  0  0  0
  1 25  1  0  0  0  0
  1 26  1  0  0  0  0
  2  3  1  0  0  0  0
  2  4  1  0  0  0  0
  2 52  1  0  0  0  0
  3 27  1  0  0  0  0
  3 28  1  0  0  0  0
  3 29  1  0  0  0  0
  4  5  1  0  0  0  0
  4 30  1  0  0  0  0
  4 31  1  0  0  0  0
  5  6  1  0  0  0  0
  5  7  1  0  0  0  0
  5  8  1  0  0  0  0
  6 32  1  0  0  0  0
  6 33  1  0  0  0  0
  6 34  1  0  0  0  0
  7 35  1  0  0  0  0
  7 36  1  0  0  0  0
  7 37  1  0  0  0  0
  8  9  1  0  0  0  0
  8 38  1  0  0  0  0
  8 39  1  0  0  0  0
  9 10  1  0  0  0  0
  9 40  1  0  0  0  0
 10 11  2  0  0  0  0
 10 12  1  0  0  0  0
 12 17  1  0  0  0  0
 12 13  2  0  0  0  0
 13 14  1  0  0  0  0
 13 41  1  0  0  0  0
 14 15  2  0  0  0  0
 14 42  1  0  0  0  0
 15 16  1  0  0  0  0
 15 43  1  0  0  0  0
 16 17  2  0  0  0  0
 17 18  1  0  0  0  0
 18 23  1  0  0  0  0
 18 19  1  0  0  0  0
 19 20  1  0  0  0  0
 19 44  1  0  0  0  0
 19 45  1  0  0  0  0
 20 21  1  0  0  0  0
 20 46  1  0  0  0  0
 20 47  1  0  0  0  0
 21 22  1  0  0  0  0
 22 23  1  0  0  0  0
 22 48  1  0  0  0  0
 22 49  1  0  0  0  0
 23 50  1  0  0  0  0
 23 51  1  0  0  0  0
M  CHG  1   2   1
M  END
> <s_m_source_file>
AV-unprocessed.smi

> <i_m_source_file_index>
1124

> <i_lp_mmshare_version>
43012

> <i_f3d_flags>
0

> <s_epik_input>
W0NIM11OKFtDSDNdKVtDSDJdQyhbQ0gzXSkoW0NIM10pW0NIMl1bTkhdQyg9TyljMVtjSF1bY0hdW2NIXW5jMU4yW0NIMl1bQ0gyXU9bQ0gyXVtDSDJdMg==

> <s_epik_cmdline>
J2VwaWtfcHl0aG9uJywgJy1waCcsICc3LjAnLCAnLXRuJywgJzgnLCAnLW1hJywgJzIwMCcsICctbWV0YWxfYmluZGluZycsICctaW1hZScsICc8aW5maWxlLm1hZT4nLCAnLW9tYWUnLCAnPG91dGZpbGUubWFlPic=

> <r_lp_tautomer_probability>
1

> <r_epik_Ionization_Penalty>
0.000493047

> <r_epik_Ionization_Penalty_Charging>
0.000482013

> <r_epik_Ionization_Penalty_Neutral>
1.10333e-05

> <r_epik_State_Penalty>
0.000299147

> <r_epik_Charging_Adjusted_Penalty>
0.000781161

> <i_epik_Tot_Q>
1

> <i_epik_Tot_abs_Q>
1

> <r_epik_Metal_State_Penalty>
-0

> <b_epik_Metal_Only>
0

> <s_lp_Force_Field>
OPLS_2005

> <r_lp_Energy>
38.5131

> <b_lp_Chiralities_Consistent>
1

> <s_lp_Variant>
AV-unprocessed.smi:1124-1

> <Gold.Version>
5.8.1

> <Gold.Id.Protein>
6NUR|6NUR_protein|mol2

> <Gold.PLP.Fitness>
43.3710

> <Gold.PLP.PLP>
-36.1675

> <Gold.PLP.part.hbond>
-4.0000

> <Gold.PLP.part.metal>
0.0000

> <Gold.PLP.part.buried>
-5.2909

> <Gold.PLP.part.nonpolar>
-28.6339

> <Gold.PLP.part.repulsive>
0.2039

> <Gold.PLP.ligand.clash>
2.2424

> <Gold.PLP.ligand.torsion>
2.6892

> <Gold.PLP.Chemscore.Hbond>
4.6871

> <Gold.PLP.Chemscore.CHOScore>
0.0000

> <Gold.PLP.Chemscore.Metal>
0.0000

> <Gold.Chemscore.Hbonds>
donor molecule, donor type, donor heavy atom, donor atom, acceptor molecule, acceptor atom, score
      L1  H     2    52       P1 10175  1.60
      L1  H     9    40       P1  8028  0.50
      P1  H  7989  7998       L1    11  0.11

> <Gold.PLP.Chemscore.Internal.Correction>
0.7630

> <Gold.Rescore>
     Score         DG    S(hbond)    S(metal)    S(lipo)     H(rot)  DE(clash)    DE(int)     intcor
     15.68     -20.89       2.74        0.00      91.35       1.73       0.38       4.83       ----

> <Gold.Chemscore.Fitness>
15.6796

> <Gold.Chemscore.DG>
-20.8877

> <Gold.Chemscore.ZeroCoef>
-5.4800

> <Gold.Chemscore.Hbond>
2.7426

> <Gold.Chemscore.Metal>
0.0000

> <Gold.Chemscore.Lipo>
91.3530

> <Gold.Chemscore.Internal_Hbond>
0.0000

> <Gold.Chemscore.DEClash>
0.3815

> <Gold.Chemscore.DEInternal>
4.8266

> <Gold.Chemscore.Rot>
1.7347

> <Gold.Chemscore.Internal.Correction>
   9.000000E+99

> <Gold.Chemscore.Hbonds>
donor molecule, donor type, donor heavy atom, donor atom, acceptor molecule, acceptor atom, score
      L1  H     2    52       P1 10175  0.77
      L1  H     9    40       P1  8028  0.50
      P1  H  7989  7998       L1    11  0.12

> <Gold.Chemscore.Hbond.Weighted>
-9.1602

> <Gold.Chemscore.Metal.Weighted>
-0.0000

> <Gold.Chemscore.Lipo.Weighted>
-10.6883

> <Gold.Chemscore.Internal_Hbond.Weighted>
0.0000

> <Gold.Chemscore.DEClash.Weighted>
0.3815

> <Gold.Chemscore.DEInternal.Weighted>
4.8266

> <Gold.Chemscore.Rot.Weighted>
4.4408

> <Gold.Chemscore.Internal.Correction.Weighted>
   9.000000E+99

> <Gold.Protein.RotatedTorsions>
[ 6907 6896 6895 6894 ] final -147.64 input  -60.11 | X-H torsion
[ 7974 7965 7964 7962 ] final  -14.49 input  175.53 | X-H torsion
[ 8008 7997 7996 7995 ] final   61.15 input   59.86 | X-H torsion
[ 10167 10162 10161 10158 ] final  -78.15 input  -65.29 | X-H torsion
[ 10718 10713 10712 10709 ] final  -55.98 input   66.30 | X-H torsion
[ 10763 10752 10751 10750 ] final  -68.90 input  -60.55 | X-H torsion
[ 11005 11000 10999 10996 ] final  169.66 input  -57.11 | X-H torsion

> <Gold.Protein.ActiveResidues>
 VAL166  LYS551  ARG553  GLY616  TRP617  ASP618  TYR619  PRO620  LYS621  CYS622 
 ASP623  PHE694  ASN695  SER759  ASP760  ASP761  ALA762  ILE779  LEU786  VAL792 
 PHE793  MET794  SER795  GLU796  ALA797  LYS798  CYS799  TRP800  GLU811  SER814 

> <Gold.Protein.RotatedAtoms>
  151.1585  133.4860  159.2594 H   0  0  0  0  0  0  0  0  0  0  0  0  # atno 6907 bound_to 6896
  151.1479  135.0212  159.8665 H   0  0  0  0  0  0  0  0  0  0  0  0  # atno 6908 bound_to 6896
  152.5463  134.1472  159.8556 H   0  0  0  0  0  0  0  0  0  0  0  0  # atno 6909 bound_to 6896
  146.2072  140.3356  142.8403 H   0  0  0  0  0  0  0  0  0  0  0  0  # atno 7974 bound_to 7965
  155.5937  140.3493  155.4574 H   0  0  0  0  0  0  0  0  0  0  0  0  # atno 8008 bound_to 7997
  156.0281  140.1268  157.0311 H   0  0  0  0  0  0  0  0  0  0  0  0  # atno 8009 bound_to 7997
  154.4341  140.1049  156.6046 H   0  0  0  0  0  0  0  0  0  0  0  0  # atno 8010 bound_to 7997
  140.4707  143.2427  151.8209 H   0  0  0  0  0  0  0  0  0  0  0  0  # atno 10167 bound_to 10162
  156.1325  130.4158  150.0243 H   0  0  0  0  0  0  0  0  0  0  0  0  # atno 10718 bound_to 10713
  154.3957  135.6042  153.5868 H   0  0  0  0  0  0  0  0  0  0  0  0  # atno 10763 bound_to 10752
  152.9787  135.5894  154.4245 H   0  0  0  0  0  0  0  0  0  0  0  0  # atno 10764 bound_to 10752
  154.4035  135.2843  155.2059 H   0  0  0  0  0  0  0  0  0  0  0  0  # atno 10765 bound_to 10752
  140.3001  134.7602  157.3909 H   0  0  0  0  0  0  0  0  0  0  0  0  # atno 11005 bound_to 11000
  144.8821  140.7414  143.5980 LP  0  0  0  0  0  0  0  0  0  0  0  0  # atno 17320 bound_to 7965
  145.3277  139.1769  143.4554 LP  0  0  0  0  0  0  0  0  0  0  0  0  # atno 17321 bound_to 7965
  139.4818  144.4895  151.9203 LP  0  0  0  0  0  0  0  0  0  0  0  0  # atno 17342 bound_to 10162
  140.3980  144.2530  150.5895 LP  0  0  0  0  0  0  0  0  0  0  0  0  # atno 17343 bound_to 10162
  156.8152  130.9339  151.3643 LP  0  0  0  0  0  0  0  0  0  0  0  0  # atno 17370 bound_to 10713
  157.6501  130.8877  149.9617 LP  0  0  0  0  0  0  0  0  0  0  0  0  # atno 17371 bound_to 10713
  140.1117  134.5336  155.8260 LP  0  0  0  0  0  0  0  0  0  0  0  0  # atno 17394 bound_to 11000
  141.2130  133.6727  156.6702 LP  0  0  0  0  0  0  0  0  0  0  0  0  # atno 17395 bound_to 11000

$$$$
