#       Name:                AV-unprocessed.smi:842
#       Creating user name   scv26
#       Creation time:       Fri Mar 27 01:38:09 2020


#       File generated by GOLD software.
#

@<TRIPOS>MOLECULE
AV-unprocessed.smi:842
    48    49     1
SMALL
NO_CHARGES


@<TRIPOS>ATOM
      1 ****        -4.4376  -1.9164  -2.5220 C.3            1 S1                 0.0000
      2 ****        -4.7707  -2.6902  -1.2383 C.3            1 S1                 0.0000
      3 ****        -4.2785  -1.9961   0.0493 C.3            1 S1                 0.0000
      4 ****        -4.7546  -2.6801   1.3461 C.3            1 S1                 0.0000
      5 ****        -4.4665  -4.0640   1.3466 O.3            1 S1                 0.0000
      6 ****        -2.8209  -1.8678   0.0625 N.am           1 S1                 0.0000
      7 ****        -2.1275  -0.7200   0.0900 C.2            1 S1                 0.0000
      8 ****        -2.6507   0.3936   0.1178 O.2            1 S1                 0.0000
      9 ****        -0.8042  -0.9554   0.1013 N.am           1 S1                 0.0000
     10 ****         0.2615  -0.0148   0.1016 C.ar           1 S1                 0.0000
     11 ****         0.1452   1.3215  -0.3501 C.ar           1 S1                 0.0000
     12 ****         1.2818   2.1519  -0.3198 C.ar           1 S1                 0.0000
     13 ****         2.4997   1.6245   0.1556 C.ar           1 S1                 0.0000
     14 ****         3.6297   2.4559   0.1823 N.3            1 S1                 0.0000
     15 ****         4.2659   2.6163   1.4795 C.3            1 S1                 0.0000
     16 ****         5.6402   3.2224   1.1850 C.3            1 S1                 0.0000
     17 ****         5.9271   2.8536  -0.2759 C.3            1 S1                 0.0000
     18 ****         4.6900   2.0771  -0.7363 C.3            1 S1                 0.0000
     19 ****         2.6213   0.3428   0.5762 N.ar           1 S1                 0.0000
     20 ****         1.5287  -0.4492   0.5422 C.ar           1 S1                 0.0000
     21 ****        -4.8470  -2.4234  -3.3957 H              1 S1                 0.0000
     22 ****        -3.3610  -1.8271  -2.6681 H              1 S1                 0.0000
     23 ****        -4.8568  -0.9105  -2.4949 H              1 S1                 0.0000
     24 ****        -5.8521  -2.8199  -1.1816 H              1 S1                 0.0000
     25 ****        -4.3474  -3.6927  -1.3107 H              1 S1                 0.0000
     26 ****        -4.7224  -0.9992   0.0571 H              1 S1                 0.0000
     27 ****        -4.3008  -2.2140   2.2216 H              1 S1                 0.0000
     28 ****        -5.8336  -2.5628   1.4510 H              1 S1                 0.0000
     29 ****        -4.7923  -4.4384   2.1508 H              1 S1                 0.0000
     30 ****        -2.2996  -2.7322   0.0507 H              1 S1                 0.0000
     31 ****        -0.5265  -1.9240   0.1639 H              1 S1                 0.0000
     32 ****        -0.7816   1.7210  -0.7309 H              1 S1                 0.0000
     33 ****         1.2176   3.1754  -0.6595 H              1 S1                 0.0000
     34 ****         3.6737   3.2602   2.1303 H              1 S1                 0.0000
     35 ****         4.3818   1.6514   1.9751 H              1 S1                 0.0000
     36 ****         5.6060   4.3073   1.2932 H              1 S1                 0.0000
     37 ****         6.4013   2.8437   1.8676 H              1 S1                 0.0000
     38 ****         6.0499   3.7599  -0.8701 H              1 S1                 0.0000
     39 ****         6.8352   2.2598  -0.3829 H              1 S1                 0.0000
     40 ****         4.8779   1.0037  -0.6801 H              1 S1                 0.0000
     41 ****         4.4240   2.3195  -1.7656 H              1 S1                 0.0000
     42 ****         1.6726  -1.4643   0.8832 H              1 S1                 0.0000
     43 ****        -3.4780  -4.2026   1.2864 LP             1 S1                 0.0000
     44 ****        -4.9126  -4.5015   0.5660 LP             1 S1                 0.0000
     45 ****        -3.6471   0.4780   0.1208 LP             1 S1                 0.0000
     46 ****        -2.0794   1.2141   0.1374 LP             1 S1                 0.0000
     47 ****         3.2092   3.3189  -0.0978 LP             1 S1                 0.0000
     48 ****         3.4986  -0.0080   0.9038 LP             1 S1                 0.0000
@<TRIPOS>BOND
    1    1    2 1     
    2    1   21 1     
    3    1   22 1     
    4    1   23 1     
    5    2    3 1     
    6    2   24 1     
    7    2   25 1     
    8    3    4 1     
    9    3    6 1     
   10    3   26 1     
   11    4    5 1     
   12    4   27 1     
   13    4   28 1     
   14    5   29 1     
   15    6    7 am    
   16    6   30 1     
   17    7    8 2     
   18    7    9 am    
   19    9   10 1     
   20    9   31 1     
   21   10   20 ar    
   22   10   11 ar    
   23   11   12 ar    
   24   11   32 1     
   25   12   13 ar    
   26   12   33 1     
   27   13   14 1     
   28   13   19 ar    
   29   14   18 1     
   30   14   15 1     
   31   15   16 1     
   32   15   34 1     
   33   15   35 1     
   34   16   17 1     
   35   16   36 1     
   36   16   37 1     
   37   17   18 1     
   38   17   38 1     
   39   17   39 1     
   40   18   40 1     
   41   18   41 1     
   42   19   20 ar    
   43   20   42 1     
   44    5   43 1     
   45    5   44 1     
   46    8   45 1     
   47    8   46 1     
   48   14   47 1     
   49   19   48 1     
@<TRIPOS>SUBSTRUCTURE
      1 S1             1
@<TRIPOS>SET
LONE_PAIRS      STATIC     ATOMS    <user>   **** ""
6 43 44 45 46 47 48
DONOR_HYDROGENS      STATIC     ATOMS    <user>   **** ""
3 29 30 31
ATOM$BLUE        STATIC     ATOMS    COLORGROUP SYSTEM
6 43 44 45 46 47 48
ATOM$RED        STATIC     ATOMS    COLORGROUP SYSTEM
3 29 30 31
