AV-unprocessed.smi:830|AV-procd|sdf|3871|dock8
  -GOLD-   22720 1323D 1   1.00000     0.00000
 Structure written by MMmdl.
 52 54  0  0  0  0  0  0  0  0  1 V2000
  150.0509  133.5045  155.8838 C   0  0  0  0  0  0  0  0  0  0  0  0
  149.7514  134.3478  154.6330 C   0  0  1  0  0  0  0  0  0  0  0  0
  148.3148  134.2804  154.3718 N   0  0  0  0  0  0  0  0  0  0  0  0
  147.7487  133.6293  153.3448 C   0  0  0  0  0  0  0  0  0  0  0  0
  148.3889  132.9673  152.5280 O   0  0  0  0  0  0  0  0  0  0  0  0
  146.4149  133.7925  153.3451 N   0  0  0  0  0  0  0  0  0  0  0  0
  145.4435  133.2587  152.4486 C   0  0  0  0  0  0  0  0  0  0  0  0
  145.7031  132.1271  151.6356 C   0  0  0  0  0  0  0  0  0  0  0  0
  144.6925  131.6365  150.7912 C   0  0  0  0  0  0  0  0  0  0  0  0
  143.4531  132.2967  150.7845 C   0  0  0  0  0  0  0  0  0  0  0  0
  143.1957  133.3863  151.5344 N   0  0  0  0  0  0  0  0  0  0  0  0
  144.1660  133.8804  152.3423 C   0  0  0  0  0  0  0  0  0  0  0  0
  143.8534  135.0450  153.0797 N   0  0  0  0  0  0  0  0  0  0  0  0
  143.8303  136.3124  152.3550 C   0  0  0  0  0  0  0  0  0  0  0  0
  142.6738  137.1278  152.9431 C   0  0  0  0  0  0  0  0  0  0  0  0
  142.4561  136.5033  154.3175 C   0  0  0  0  0  0  0  0  0  0  0  0
  142.7709  135.0327  154.0583 C   0  0  0  0  0  0  0  0  0  0  0  0
  150.1659  135.7991  154.9210 C   0  0  0  0  0  0  0  0  0  0  0  0
  151.2976  136.0566  155.3349 O   0  0  0  0  0  0  0  0  0  0  0  0
  149.2381  136.7384  154.6833 N   0  0  0  0  0  0  0  0  0  0  0  0
  149.4205  138.1717  154.8943 C   0  0  0  0  0  0  0  0  0  0  0  0
  150.6255  138.6953  154.0892 C   0  0  0  0  0  0  0  0  0  0  0  0
  151.4532  139.5346  155.0640 C   0  0  0  0  0  0  0  0  0  0  0  0
  151.1942  138.8956  156.4248 C   0  0  0  0  0  0  0  0  0  0  0  0
  149.7206  138.4913  156.3726 C   0  0  0  0  0  0  0  0  0  0  0  0
  151.1125  133.5300  156.1332 H   0  0  0  0  0  0  0  0  0  0  0  0
  149.7821  132.4603  155.7213 H   0  0  0  0  0  0  0  0  0  0  0  0
  149.4957  133.8548  156.7556 H   0  0  0  0  0  0  0  0  0  0  0  0
  150.3095  133.9511  153.7823 H   0  0  0  0  0  0  0  0  0  0  0  0
  147.7152  134.7982  154.9972 H   0  0  0  0  0  0  0  0  0  0  0  0
  146.0352  134.3006  154.1305 H   0  0  0  0  0  0  0  0  0  0  0  0
  146.6595  131.6283  151.6345 H   0  0  0  0  0  0  0  0  0  0  0  0
  144.8638  130.7731  150.1658 H   0  0  0  0  0  0  0  0  0  0  0  0
  142.6491  131.9469  150.1538 H   0  0  0  0  0  0  0  0  0  0  0  0
  144.7742  136.8308  152.5254 H   0  0  0  0  0  0  0  0  0  0  0  0
  143.7112  136.1708  151.2797 H   0  0  0  0  0  0  0  0  0  0  0  0
  142.8875  138.1959  152.9878 H   0  0  0  0  0  0  0  0  0  0  0  0
  141.7800  136.9891  152.3331 H   0  0  0  0  0  0  0  0  0  0  0  0
  143.1672  136.9185  155.0330 H   0  0  0  0  0  0  0  0  0  0  0  0
  141.4495  136.6618  154.7057 H   0  0  0  0  0  0  0  0  0  0  0  0
  141.8847  134.5403  153.6561 H   0  0  0  0  0  0  0  0  0  0  0  0
  143.0671  134.5142  154.9705 H   0  0  0  0  0  0  0  0  0  0  0  0
  148.3359  136.4379  154.3438 H   0  0  0  0  0  0  0  0  0  0  0  0
  148.5204  138.7055  154.5827 H   0  0  0  0  0  0  0  0  0  0  0  0
  151.2370  137.8669  153.7273 H   0  0  0  0  0  0  0  0  0  0  0  0
  150.3173  139.2716  153.2159 H   0  0  0  0  0  0  0  0  0  0  0  0
  152.5119  139.5585  154.8039 H   0  0  0  0  0  0  0  0  0  0  0  0
  151.0870  140.5621  155.0665 H   0  0  0  0  0  0  0  0  0  0  0  0
  151.8160  138.0064  156.5376 H   0  0  0  0  0  0  0  0  0  0  0  0
  151.4167  139.5669  157.2548 H   0  0  0  0  0  0  0  0  0  0  0  0
  149.1054  139.3351  156.6876 H   0  0  0  0  0  0  0  0  0  0  0  0
  149.4993  137.6660  157.0511 H   0  0  0  0  0  0  0  0  0  0  0  0
  1  2  1  0  0  0  0
  1 26  1  0  0  0  0
  1 27  1  0  0  0  0
  1 28  1  0  0  0  0
  2  3  1  0  0  0  0
  2 18  1  0  0  0  0
  2 29  1  0  0  0  0
  3  4  1  0  0  0  0
  3 30  1  0  0  0  0
  4  5  2  0  0  0  0
  4  6  1  0  0  0  0
  6  7  1  0  0  0  0
  6 31  1  0  0  0  0
  7 12  1  0  0  0  0
  7  8  2  0  0  0  0
  8  9  1  0  0  0  0
  8 32  1  0  0  0  0
  9 10  2  0  0  0  0
  9 33  1  0  0  0  0
 10 11  1  0  0  0  0
 10 34  1  0  0  0  0
 11 12  2  0  0  0  0
 12 13  1  0  0  0  0
 13 17  1  0  0  0  0
 13 14  1  0  0  0  0
 14 15  1  0  0  0  0
 14 35  1  0  0  0  0
 14 36  1  0  0  0  0
 15 16  1  0  0  0  0
 15 37  1  0  0  0  0
 15 38  1  0  0  0  0
 16 17  1  0  0  0  0
 16 39  1  0  0  0  0
 16 40  1  0  0  0  0
 17 41  1  0  0  0  0
 17 42  1  0  0  0  0
 18 19  2  0  0  0  0
 18 20  1  0  0  0  0
 20 21  1  0  0  0  0
 20 43  1  0  0  0  0
 21 25  1  0  0  0  0
 21 22  1  0  0  0  0
 21 44  1  0  0  0  0
 22 23  1  0  0  0  0
 22 45  1  0  0  0  0
 22 46  1  0  0  0  0
 23 24  1  0  0  0  0
 23 47  1  0  0  0  0
 23 48  1  0  0  0  0
 24 25  1  0  0  0  0
 24 49  1  0  0  0  0
 24 50  1  0  0  0  0
 25 51  1  0  0  0  0
 25 52  1  0  0  0  0
M  END
> <s_m_source_file>
AV-unprocessed.smi

> <i_m_source_file_index>
830

> <i_lp_mmshare_version>
43012

> <i_f3d_flags>
0

> <s_epik_input>
W0NIMl0xW0NIMl1bQ0gyXVtDSDJdW0NIXTFbTkhdQyg9TylbQ0BIXShbQ0gzXSlbTkhdQyg9TylbTkhdYzJbY0hdW2NIXVtjSF1uYzJOM1tDSDJdW0NIMl1bQ0gyXVtDSDJdMw==

> <s_epik_cmdline>
J2VwaWtfcHl0aG9uJywgJy1waCcsICc3LjAnLCAnLXRuJywgJzgnLCAnLW1hJywgJzIwMCcsICctbWV0YWxfYmluZGluZycsICctaW1hZScsICc8aW5maWxlLm1hZT4nLCAnLW9tYWUnLCAnPG91dGZpbGUubWFlPic=

> <r_lp_tautomer_probability>
1

> <r_epik_Ionization_Penalty>
0.0827694

> <r_epik_Ionization_Penalty_Charging>
0

> <r_epik_Ionization_Penalty_Neutral>
0.0827694

> <r_epik_State_Penalty>
0.0729202

> <r_epik_Charging_Adjusted_Penalty>
0.0729202

> <i_epik_Tot_Q>
0

> <i_epik_Tot_abs_Q>
0

> <r_epik_Metal_State_Penalty>
0.0639723

> <b_epik_Metal_Only>
0

> <s_lp_Force_Field>
OPLS_2005

> <r_lp_Energy>
46.8553

> <b_lp_Chiralities_Consistent>
1

> <s_lp_Variant>
AV-unprocessed.smi:830-2

> <Gold.Version>
5.8.1

> <Gold.Id.Protein>
6NUR|6NUR_protein|mol2

> <Gold.PLP.Fitness>
42.9389

> <Gold.PLP.PLP>
-37.7794

> <Gold.PLP.part.hbond>
-2.3047

> <Gold.PLP.part.metal>
0.0000

> <Gold.PLP.part.buried>
-6.7181

> <Gold.PLP.part.nonpolar>
-30.0945

> <Gold.PLP.part.repulsive>
0.7437

> <Gold.PLP.ligand.clash>
0.0000

> <Gold.PLP.ligand.torsion>
0.5644

> <Gold.PLP.Chemscore.Hbond>
1.0000

> <Gold.PLP.Chemscore.CHOScore>
0.9861

> <Gold.PLP.Chemscore.Metal>
0.0000

> <Gold.Chemscore.Hbonds>
donor molecule, donor type, donor heavy atom, donor atom, acceptor molecule, acceptor atom, score
      P1  H 10752 10763       L1    19  1.00
      L1  C    10    34       P1 10952  1.00

> <Gold.PLP.Chemscore.Internal.Correction>
0.3300

> <Gold.Rescore>
     Score         DG    S(hbond)    S(metal)    S(lipo)     H(rot)  DE(clash)    DE(int)     intcor
     11.28     -14.22       1.00        0.00      82.00       1.64       0.03       2.90       ----

> <Gold.Chemscore.Fitness>
11.2829

> <Gold.Chemscore.DG>
-14.2202

> <Gold.Chemscore.ZeroCoef>
-5.4800

> <Gold.Chemscore.Hbond>
1.0000

> <Gold.Chemscore.Metal>
0.0000

> <Gold.Chemscore.Lipo>
81.9985

> <Gold.Chemscore.Internal_Hbond>
0.0000

> <Gold.Chemscore.DEClash>
0.0345

> <Gold.Chemscore.DEInternal>
2.9028

> <Gold.Chemscore.Rot>
1.6382

> <Gold.Chemscore.Internal.Correction>
   9.000000E+99

> <Gold.Chemscore.Hbonds>
donor molecule, donor type, donor heavy atom, donor atom, acceptor molecule, acceptor atom, score
      P1  H 10752 10763       L1    19  1.00

> <Gold.Chemscore.Hbond.Weighted>
-3.3400

> <Gold.Chemscore.Metal.Weighted>
-0.0000

> <Gold.Chemscore.Lipo.Weighted>
-9.5938

> <Gold.Chemscore.Internal_Hbond.Weighted>
0.0000

> <Gold.Chemscore.DEClash.Weighted>
0.0345

> <Gold.Chemscore.DEInternal.Weighted>
2.9028

> <Gold.Chemscore.Rot.Weighted>
4.1937

> <Gold.Chemscore.Internal.Correction.Weighted>
   9.000000E+99

> <Gold.Protein.RotatedTorsions>
[ 6907 6896 6895 6894 ] final  -24.56 input  -60.11 | X-H torsion
[ 7974 7965 7964 7962 ] final -160.46 input  175.53 | X-H torsion
[ 8008 7997 7996 7995 ] final   56.57 input   59.86 | X-H torsion
[ 10167 10162 10161 10158 ] final   41.89 input  -65.29 | X-H torsion
[ 10718 10713 10712 10709 ] final  104.22 input   66.30 | X-H torsion
[ 10763 10752 10751 10750 ] final   65.87 input  -60.55 | X-H torsion
[ 11005 11000 10999 10996 ] final  151.51 input  -57.11 | X-H torsion

> <Gold.Protein.ActiveResidues>
 VAL166  LYS551  ARG553  GLY616  TRP617  ASP618  TYR619  PRO620  LYS621  CYS622 
 ASP623  PHE694  ASN695  SER759  ASP760  ASP761  ALA762  ILE779  LEU786  VAL792 
 PHE793  MET794  SER795  GLU796  ALA797  LYS798  CYS799  TRP800  GLU811  SER814 

> <Gold.Protein.RotatedAtoms>
  151.1878  135.0389  159.8819 H   0  0  0  0  0  0  0  0  0  0  0  0  # atno 6907 bound_to 6896
  152.5441  134.0990  159.8320 H   0  0  0  0  0  0  0  0  0  0  0  0  # atno 6908 bound_to 6896
  151.1115  133.5122  159.2637 H   0  0  0  0  0  0  0  0  0  0  0  0  # atno 6909 bound_to 6896
  144.7426  140.3538  143.6110 H   0  0  0  0  0  0  0  0  0  0  0  0  # atno 7974 bound_to 7965
  155.5195  140.3479  155.4404 H   0  0  0  0  0  0  0  0  0  0  0  0  # atno 8008 bound_to 7997
  156.0794  140.1382  156.9758 H   0  0  0  0  0  0  0  0  0  0  0  0  # atno 8009 bound_to 7997
  154.4571  140.0949  156.6765 H   0  0  0  0  0  0  0  0  0  0  0  0  # atno 8010 bound_to 7997
  140.3599  144.2242  150.6139 H   0  0  0  0  0  0  0  0  0  0  0  0  # atno 10167 bound_to 10162
  157.6747  131.0798  150.5673 H   0  0  0  0  0  0  0  0  0  0  0  0  # atno 10718 bound_to 10713
  153.0115  135.5341  154.6736 H   0  0  0  0  0  0  0  0  0  0  0  0  # atno 10763 bound_to 10752
  154.5914  135.2859  155.0634 H   0  0  0  0  0  0  0  0  0  0  0  0  # atno 10764 bound_to 10752
  154.1725  135.6529  153.5065 H   0  0  0  0  0  0  0  0  0  0  0  0  # atno 10765 bound_to 10752
  140.1225  134.8854  157.2092 H   0  0  0  0  0  0  0  0  0  0  0  0  # atno 11005 bound_to 11000
  145.7248  139.1720  143.2464 LP  0  0  0  0  0  0  0  0  0  0  0  0  # atno 17320 bound_to 7965
  146.1250  140.7260  142.9439 LP  0  0  0  0  0  0  0  0  0  0  0  0  # atno 17321 bound_to 7965
  140.5137  143.2283  151.8495 LP  0  0  0  0  0  0  0  0  0  0  0  0  # atno 17342 bound_to 10162
  139.4815  144.4919  151.9174 LP  0  0  0  0  0  0  0  0  0  0  0  0  # atno 17343 bound_to 10162
  156.5975  130.4345  149.5911 LP  0  0  0  0  0  0  0  0  0  0  0  0  # atno 17370 bound_to 10713
  156.2533  130.6920  151.1665 LP  0  0  0  0  0  0  0  0  0  0  0  0  # atno 17371 bound_to 10713
  140.2947  134.3200  155.7305 LP  0  0  0  0  0  0  0  0  0  0  0  0  # atno 17394 bound_to 11000
  141.2154  133.7555  156.9554 LP  0  0  0  0  0  0  0  0  0  0  0  0  # atno 17395 bound_to 11000

$$$$
