#       Name:                AV-unprocessed.smi:1401
#       Creating user name   scv26
#       Creation time:       Fri Mar 27 05:31:55 2020


#       File generated by GOLD software.
#

@<TRIPOS>MOLECULE
AV-unprocessed.smi:1401
    54    56     1
SMALL
NO_CHARGES


@<TRIPOS>ATOM
      1 ****        -5.8759   0.0115   2.1156 C.3            1 S1                 0.0000
      2 ****        -4.4575  -0.4911   2.0988 C.2            1 S1                 0.0000
      3 ****        -3.5336   0.3836   1.8706 N.2            1 S1                 0.0000
      4 ****        -2.1998   0.0262   1.8283 N.am           1 S1                 0.0000
      5 ****        -1.2867   1.1402   1.5349 C.3            1 S1                 0.0000
      6 ****        -0.7982   1.1421   0.0798 C.2            1 S1                 0.0000
      7 ****        -1.5485   0.7919  -0.8320 O.2            1 S1                 0.0000
      8 ****         0.4625   1.5562  -0.1175 N.am           1 S1                 0.0000
      9 ****         1.1524   1.6076  -1.4053 C.3            1 S1                 0.0000
     10 ****         1.0258   3.0306  -1.9767 C.3            1 S1                 0.0000
     11 ****         2.6231   1.1594  -1.2190 C.3            1 S1                 0.0000
     12 ****         2.7710  -0.2462  -0.5814 C.3            1 S1                 0.0000
     13 ****         3.6851  -0.9912  -1.5694 C.3            1 S1                 0.0000
     14 ****         5.1041  -0.3972  -1.5093 C.3            1 S1                 0.0000
     15 ****         4.9291   0.9653  -2.2054 C.3            1 S1                 0.0000
     16 ****         3.4239   0.9888  -2.5351 C.3            1 S1                 0.0000
     17 ****         3.1752  -0.4701  -2.9058 C.3            1 S1                 0.0000
     18 ****        -1.7275  -1.2383   2.0287 C.2            1 S1                 0.0000
     19 ****        -0.5262  -1.5106   1.9913 O.2            1 S1                 0.0000
     20 ****        -2.7798  -2.2235   2.2865 C.2            1 S1                 0.0000
     21 ****        -2.3285  -3.5615   2.4947 C.1            1 S1                 0.0000
     22 ****        -1.9821  -4.6525   2.6682 N.1            1 S1                 0.0000
     23 ****        -4.0932  -1.8866   2.3229 C.2            1 S1                 0.0000
     24 ****        -5.2240  -2.8716   2.5857 C.3            1 S1                 0.0000
     25 ****        -6.3446  -0.1848   3.0798 H              1 S1                 0.0000
     26 ****        -6.4686  -0.4800   1.3441 H              1 S1                 0.0000
     27 ****        -5.9299   1.0863   1.9367 H              1 S1                 0.0000
     28 ****        -1.7770   2.0964   1.7269 H              1 S1                 0.0000
     29 ****        -0.4334   1.1073   2.2154 H              1 S1                 0.0000
     30 ****         0.9987   1.8315   0.6925 H              1 S1                 0.0000
     31 ****         0.6711   0.9172  -2.1000 H              1 S1                 0.0000
     32 ****         1.4514   3.1063  -2.9764 H              1 S1                 0.0000
     33 ****         1.5319   3.7594  -1.3429 H              1 S1                 0.0000
     34 ****        -0.0203   3.3293  -2.0539 H              1 S1                 0.0000
     35 ****         3.1195   1.8966  -0.5856 H              1 S1                 0.0000
     36 ****         3.1921  -0.2033   0.4235 H              1 S1                 0.0000
     37 ****         1.8112  -0.7608  -0.5130 H              1 S1                 0.0000
     38 ****         3.6578  -2.0754  -1.4565 H              1 S1                 0.0000
     39 ****         5.4667  -0.2987  -0.4855 H              1 S1                 0.0000
     40 ****         5.8119  -1.0200  -2.0579 H              1 S1                 0.0000
     41 ****         5.2331   1.8005  -1.5733 H              1 S1                 0.0000
     42 ****         5.5247   1.0061  -3.1183 H              1 S1                 0.0000
     43 ****         3.1761   1.7043  -3.3180 H              1 S1                 0.0000
     44 ****         3.7695  -0.8082  -3.7566 H              1 S1                 0.0000
     45 ****         2.1252  -0.7028  -3.0900 H              1 S1                 0.0000
     46 ****        -4.8607  -3.8879   2.7360 H              1 S1                 0.0000
     47 ****        -5.9161  -2.8933   1.7433 H              1 S1                 0.0000
     48 ****        -5.7790  -2.5871   3.4802 H              1 S1                 0.0000
     49 ****        -3.7896   1.3387   1.7216 LP             1 S1                 0.0000
     50 ****        -2.4838   0.5034  -0.6270 LP             1 S1                 0.0000
     51 ****        -1.2224   0.7960  -1.7773 LP             1 S1                 0.0000
     52 ****         0.1440  -0.7914   1.8085 LP             1 S1                 0.0000
     53 ****        -0.2217  -2.4509   2.1437 LP             1 S1                 0.0000
     54 ****        -1.6829  -5.5949   2.8181 LP             1 S1                 0.0000
@<TRIPOS>BOND
    1    1    2 1     
    2    1   25 1     
    3    1   26 1     
    4    1   27 1     
    5    2   23 1     
    6    2    3 2     
    7    3    4 1     
    8    4    5 1     
    9    4   18 am    
   10    5    6 1     
   11    5   28 1     
   12    5   29 1     
   13    6    7 2     
   14    6    8 am    
   15    8    9 1     
   16    8   30 1     
   17    9   10 1     
   18    9   11 1     
   19    9   31 1     
   20   10   32 1     
   21   10   33 1     
   22   10   34 1     
   23   11   16 1     
   24   11   12 1     
   25   11   35 1     
   26   12   13 1     
   27   12   36 1     
   28   12   37 1     
   29   13   17 1     
   30   13   14 1     
   31   13   38 1     
   32   14   15 1     
   33   14   39 1     
   34   14   40 1     
   35   15   16 1     
   36   15   41 1     
   37   15   42 1     
   38   16   17 1     
   39   16   43 1     
   40   17   44 1     
   41   17   45 1     
   42   18   19 2     
   43   18   20 1     
   44   20   21 1     
   45   20   23 2     
   46   21   22 3     
   47   23   24 1     
   48   24   46 1     
   49   24   47 1     
   50   24   48 1     
   51    3   49 1     
   52    7   50 1     
   53    7   51 1     
   54   19   52 1     
   55   19   53 1     
   56   22   54 1     
@<TRIPOS>SUBSTRUCTURE
      1 S1             1
@<TRIPOS>SET
LONE_PAIRS      STATIC     ATOMS    <user>   **** ""
6 49 50 51 52 53 54
DONOR_HYDROGENS      STATIC     ATOMS    <user>   **** ""
1 30
ATOM$BLUE        STATIC     ATOMS    COLORGROUP SYSTEM
6 49 50 51 52 53 54
ATOM$RED        STATIC     ATOMS    COLORGROUP SYSTEM
1 30
