AV-unprocessed.smi:1381|AV-procd|sdf|5608|dock4
  -GOLD-   22720 5213D 1   1.00000     0.00000
 Structure written by MMmdl.
 43 44  0  0  0  0  0  0  0  0  2 V2000
  143.6461  132.3775  149.0233 C   0  0  0  0  0  0  0  0  0  0  0  0
  144.5396  132.7702  150.1494 C   0  0  0  0  0  0  0  0  0  0  0  0
  145.2256  133.9166  150.4359 C   0  0  0  0  0  0  0  0  0  0  0  0
  145.8757  133.6007  151.6646 C   0  0  0  0  0  0  0  0  0  0  0  0
  146.7292  134.4555  152.4092 N   0  0  0  0  0  0  0  0  0  0  0  0
  146.5168  135.0021  153.6180 C   0  0  0  0  0  0  0  0  0  0  0  0
  145.5082  134.8460  154.3060 O   0  0  0  0  0  0  0  0  0  0  0  0
  147.5592  135.7534  154.0024 N   0  0  0  0  0  0  0  0  0  0  0  0
  147.6417  136.4870  155.2603 C   0  0  0  0  0  0  0  0  0  0  0  0
  149.0363  137.1102  155.4626 C   0  0  0  0  0  0  0  0  0  0  0  0
  149.5216  137.8157  154.2466 N   0  3  1  0  0  0  0  0  0  0  0  0
  148.9472  139.1730  154.0783 C   0  0  0  0  0  0  0  0  0  0  0  0
  149.6281  140.1900  155.0173 C   0  0  2  0  0  0  0  0  0  0  0  0
  149.1078  141.6145  154.7973 C   0  0  0  0  0  0  0  0  0  0  0  0
  151.0289  140.1860  154.7625 O   0  0  0  0  0  0  0  0  0  0  0  0
  151.6349  138.9231  155.0170 C   0  0  2  0  0  0  0  0  0  0  0  0
  153.1428  139.0614  154.7794 C   0  0  0  0  0  0  0  0  0  0  0  0
  150.9990  137.8587  154.0965 C   0  0  0  0  0  0  0  0  0  0  0  0
  145.6092  132.3768  152.0813 N   0  0  0  0  0  0  0  0  0  0  0  0
  144.7522  131.8365  151.1153 O   0  0  0  0  0  0  0  0  0  0  0  0
  143.3529  133.2485  148.4369 H   0  0  0  0  0  0  0  0  0  0  0  0
  142.7392  131.9008  149.3958 H   0  0  0  0  0  0  0  0  0  0  0  0
  144.1497  131.6756  148.3586 H   0  0  0  0  0  0  0  0  0  0  0  0
  145.2473  134.8224  149.8493 H   0  0  0  0  0  0  0  0  0  0  0  0
  147.6101  134.6722  151.9666 H   0  0  0  0  0  0  0  0  0  0  0  0
  148.3479  135.8295  153.3766 H   0  0  0  0  0  0  0  0  0  0  0  0
  146.8720  137.2572  155.2339 H   0  0  0  0  0  0  0  0  0  0  0  0
  147.3928  135.8275  156.0934 H   0  0  0  0  0  0  0  0  0  0  0  0
  148.9728  137.8296  156.2799 H   0  0  0  0  0  0  0  0  0  0  0  0
  149.7512  136.3523  155.7824 H   0  0  0  0  0  0  0  0  0  0  0  0
  149.0957  139.4788  153.0416 H   0  0  0  0  0  0  0  0  0  0  0  0
  147.8683  139.1545  154.2376 H   0  0  0  0  0  0  0  0  0  0  0  0
  149.4500  139.9171  156.0587 H   0  0  0  0  0  0  0  0  0  0  0  0
  148.0361  141.6751  154.9889 H   0  0  0  0  0  0  0  0  0  0  0  0
  149.2848  141.9470  153.7740 H   0  0  0  0  0  0  0  0  0  0  0  0
  149.6043  142.3179  155.4661 H   0  0  0  0  0  0  0  0  0  0  0  0
  151.4814  138.6578  156.0638 H   0  0  0  0  0  0  0  0  0  0  0  0
  153.6582  138.1194  154.9684 H   0  0  0  0  0  0  0  0  0  0  0  0
  153.5741  139.8133  155.4408 H   0  0  0  0  0  0  0  0  0  0  0  0
  153.3562  139.3598  153.7524 H   0  0  0  0  0  0  0  0  0  0  0  0
  151.4414  136.8797  154.2761 H   0  0  0  0  0  0  0  0  0  0  0  0
  151.2222  138.1031  153.0568 H   0  0  0  0  0  0  0  0  0  0  0  0
  149.1681  137.2722  153.4717 H   0  0  0  0  0  0  0  0  0  0  0  0
  1  2  1  0  0  0  0
  1 21  1  0  0  0  0
  1 22  1  0  0  0  0
  1 23  1  0  0  0  0
  2 20  1  0  0  0  0
  2  3  2  0  0  0  0
  3  4  1  0  0  0  0
  3 24  1  0  0  0  0
  4  5  1  0  0  0  0
  4 19  2  0  0  0  0
  5  6  1  0  0  0  0
  5 25  1  0  0  0  0
  6  7  2  0  0  0  0
  6  8  1  0  0  0  0
  8  9  1  0  0  0  0
  8 26  1  0  0  0  0
  9 10  1  0  0  0  0
  9 27  1  0  0  0  0
  9 28  1  0  0  0  0
 10 11  1  0  0  0  0
 10 29  1  0  0  0  0
 10 30  1  0  0  0  0
 11 18  1  0  0  0  0
 11 12  1  0  0  0  0
 11 43  1  0  0  0  0
 12 13  1  0  0  0  0
 12 31  1  0  0  0  0
 12 32  1  0  0  0  0
 13 14  1  0  0  0  0
 13 15  1  0  0  0  0
 13 33  1  0  0  0  0
 14 34  1  0  0  0  0
 14 35  1  0  0  0  0
 14 36  1  0  0  0  0
 15 16  1  0  0  0  0
 16 17  1  0  0  0  0
 16 18  1  0  0  0  0
 16 37  1  0  0  0  0
 17 38  1  0  0  0  0
 17 39  1  0  0  0  0
 17 40  1  0  0  0  0
 18 41  1  0  0  0  0
 18 42  1  0  0  0  0
 19 20  1  0  0  0  0
M  CHG  1  11   1
M  END
> <s_m_source_file>
AV-unprocessed.smi

> <i_m_source_file_index>
1381

> <i_lp_mmshare_version>
43012

> <i_f3d_flags>
0

> <s_epik_input>
W0NIM11jMVtjSF1jKG5vMSlbTkhdQyg9TylbTkhdW0NIMl1bQ0gyXU4yW0NIMl1bQ0BASF0oW0NIM10pT1tDQEBIXShbQ0gzXSlbQ0gyXTI=

> <s_epik_cmdline>
J2VwaWtfcHl0aG9uJywgJy1waCcsICc3LjAnLCAnLXRuJywgJzgnLCAnLW1hJywgJzIwMCcsICctbWV0YWxfYmluZGluZycsICctaW1hZScsICc8aW5maWxlLm1hZT4nLCAnLW9tYWUnLCAnPG91dGZpbGUubWFlPic=

> <r_epik_Ionization_Penalty>
0.707076

> <r_epik_Ionization_Penalty_Charging>
0.707039

> <r_epik_Ionization_Penalty_Neutral>
3.6548e-05

> <r_epik_State_Penalty>
0.730276

> <r_epik_Charging_Adjusted_Penalty>
1.43732

> <i_epik_Tot_Q>
1

> <i_epik_Tot_abs_Q>
1

> <r_epik_Metal_State_Penalty>
0.743132

> <b_epik_Metal_Only>
0

> <s_lp_Force_Field>
OPLS_2005

> <r_lp_Energy>
17.699

> <b_lp_Chiralities_Consistent>
1

> <s_lp_Variant>
AV-unprocessed.smi:1381-7

> <Gold.Version>
5.8.1

> <Gold.Id.Protein>
6NUR|6NUR_protein|mol2

> <Gold.PLP.Fitness>
44.8667

> <Gold.PLP.PLP>
-32.2829

> <Gold.PLP.part.hbond>
-4.0000

> <Gold.PLP.part.metal>
0.0000

> <Gold.PLP.part.buried>
0.8567

> <Gold.PLP.part.nonpolar>
-29.0517

> <Gold.PLP.part.repulsive>
0.4078

> <Gold.PLP.ligand.clash>
0.0000

> <Gold.PLP.ligand.torsion>
0.9654

> <Gold.PLP.Chemscore.Hbond>
4.8320

> <Gold.PLP.Chemscore.CHOScore>
0.0000

> <Gold.PLP.Chemscore.Metal>
0.0000

> <Gold.Chemscore.Hbonds>
donor molecule, donor type, donor heavy atom, donor atom, acceptor molecule, acceptor atom, score
      L1  H     5    25       P1  7948  0.82
      L1  H     8    26       P1  7948  1.00
      L1  H    11    43       P1  7948  2.00
      P1  H  7989  7998       L1    15  1.00

> <Gold.PLP.Chemscore.Internal.Correction>
0.0186

> <Gold.Rescore>
     Score         DG    S(hbond)    S(metal)    S(lipo)     H(rot)  DE(clash)    DE(int)     intcor
     20.87     -22.35       3.50        0.00      79.42       1.61       0.47       1.01       ----

> <Gold.Chemscore.Fitness>
20.8658

> <Gold.Chemscore.DG>
-22.3451

> <Gold.Chemscore.ZeroCoef>
-5.4800

> <Gold.Chemscore.Hbond>
3.5000

> <Gold.Chemscore.Metal>
0.0000

> <Gold.Chemscore.Lipo>
79.4162

> <Gold.Chemscore.Internal_Hbond>
0.0000

> <Gold.Chemscore.DEClash>
0.4672

> <Gold.Chemscore.DEInternal>
1.0122

> <Gold.Chemscore.Rot>
1.6081

> <Gold.Chemscore.Internal.Correction>
   9.000000E+99

> <Gold.Chemscore.Hbonds>
donor molecule, donor type, donor heavy atom, donor atom, acceptor molecule, acceptor atom, score
      L1  H     5    25       P1  7948  0.47
      L1  H     8    26       P1  7948  0.94
      L1  H    11    43       P1  7948  0.99
      P1  H  7989  7998       L1    15  0.78

> <Gold.Chemscore.Hbond.Weighted>
-11.6901

> <Gold.Chemscore.Metal.Weighted>
-0.0000

> <Gold.Chemscore.Lipo.Weighted>
-9.2917

> <Gold.Chemscore.Internal_Hbond.Weighted>
0.0000

> <Gold.Chemscore.DEClash.Weighted>
0.4672

> <Gold.Chemscore.DEInternal.Weighted>
1.0122

> <Gold.Chemscore.Rot.Weighted>
4.1167

> <Gold.Chemscore.Internal.Correction.Weighted>
   9.000000E+99

> <Gold.Protein.RotatedTorsions>
[ 6907 6896 6895 6894 ] final -104.17 input  -60.11 | X-H torsion
[ 7974 7965 7964 7962 ] final -145.44 input  175.53 | X-H torsion
[ 8008 7997 7996 7995 ] final -175.93 input   59.86 | X-H torsion
[ 10167 10162 10161 10158 ] final   88.66 input  -65.29 | X-H torsion
[ 10718 10713 10712 10709 ] final -160.65 input   66.30 | X-H torsion
[ 10763 10752 10751 10750 ] final -105.35 input  -60.55 | X-H torsion
[ 11005 11000 10999 10996 ] final  -51.23 input  -57.11 | X-H torsion

> <Gold.Protein.ActiveResidues>
 VAL166  LYS551  ARG553  GLY616  TRP617  ASP618  TYR619  PRO620  LYS621  CYS622 
 ASP623  PHE694  ASN695  SER759  ASP760  ASP761  ALA762  ILE779  LEU786  VAL792 
 PHE793  MET794  SER795  GLU796  ALA797  LYS798  CYS799  TRP800  GLU811  SER814 

> <Gold.Protein.RotatedAtoms>
  150.7274  134.0318  159.3735 H   0  0  0  0  0  0  0  0  0  0  0  0  # atno 6907 bound_to 6896
  151.8288  135.0626  160.0443 H   0  0  0  0  0  0  0  0  0  0  0  0  # atno 6908 bound_to 6896
  152.2949  133.5562  159.5617 H   0  0  0  0  0  0  0  0  0  0  0  0  # atno 6909 bound_to 6896
  144.8228  140.5584  143.5567 H   0  0  0  0  0  0  0  0  0  0  0  0  # atno 7974 bound_to 7965
  155.9886  140.1196  157.0660 H   0  0  0  0  0  0  0  0  0  0  0  0  # atno 8008 bound_to 7997
  154.4204  140.1130  156.5602 H   0  0  0  0  0  0  0  0  0  0  0  0  # atno 8009 bound_to 7997
  155.6374  140.3473  155.4705 H   0  0  0  0  0  0  0  0  0  0  0  0  # atno 8010 bound_to 7997
  139.8650  144.6523  150.9014 H   0  0  0  0  0  0  0  0  0  0  0  0  # atno 10167 bound_to 10162
  156.5852  130.8746  151.2875 H   0  0  0  0  0  0  0  0  0  0  0  0  # atno 10718 bound_to 10713
  154.7940  135.4752  154.0119 H   0  0  0  0  0  0  0  0  0  0  0  0  # atno 10763 bound_to 10752
  153.1675  135.6819  153.8661 H   0  0  0  0  0  0  0  0  0  0  0  0  # atno 10764 bound_to 10752
  153.8254  135.3198  155.3392 H   0  0  0  0  0  0  0  0  0  0  0  0  # atno 10765 bound_to 10752
  141.0860  133.6642  156.3847 H   0  0  0  0  0  0  0  0  0  0  0  0  # atno 11005 bound_to 11000
  145.5068  139.1481  143.3627 LP  0  0  0  0  0  0  0  0  0  0  0  0  # atno 17320 bound_to 7965
  146.2533  140.5208  142.8884 LP  0  0  0  0  0  0  0  0  0  0  0  0  # atno 17321 bound_to 7965
  140.7769  143.3711  151.1647 LP  0  0  0  0  0  0  0  0  0  0  0  0  # atno 17342 bound_to 10162
  139.7337  143.9032  152.3028 LP  0  0  0  0  0  0  0  0  0  0  0  0  # atno 17343 bound_to 10162
  157.7317  130.9704  150.1893 LP  0  0  0  0  0  0  0  0  0  0  0  0  # atno 17370 bound_to 10713
  156.2597  130.3709  149.8143 LP  0  0  0  0  0  0  0  0  0  0  0  0  # atno 17371 bound_to 10713
  140.5363  134.6164  157.5366 LP  0  0  0  0  0  0  0  0  0  0  0  0  # atno 17394 bound_to 11000
  139.9678  134.7344  156.0103 LP  0  0  0  0  0  0  0  0  0  0  0  0  # atno 17395 bound_to 11000

$$$$
