AV-unprocessed.smi:706|AV-procd|sdf|3452|dock5
  -GOLD-   22720 0433D 1   1.00000     0.00000
 Structure written by MMmdl.
 27 27  0  0  0  0  0  0  0  0  1 V2000
  152.0874  143.4717  158.5862 C   0  0  0  0  0  0  0  0  0  0  0  0
  150.8871  142.8290  157.8876 C   0  0  0  0  0  0  0  0  0  0  0  0
  151.2641  141.5401  157.4260 O   0  0  0  0  0  0  0  0  0  0  0  0
  150.2568  140.8738  156.6784 C   0  0  0  0  0  0  0  0  0  0  0  0
  149.9584  141.6040  155.3557 C   0  0  0  0  0  0  0  0  0  0  0  0
  149.0308  140.8727  154.5187 N   0  0  0  0  0  0  0  0  0  0  0  0
  147.7664  141.3478  154.1610 C   0  0  0  0  0  0  0  0  0  0  0  0
  147.3546  142.5882  154.6152 N   0  0  0  0  0  0  0  0  0  0  0  0
  146.9357  140.6271  153.3652 C   0  0  0  0  0  0  0  0  0  0  0  0
  147.3260  139.3237  152.8393 C   0  0  0  0  0  0  0  0  0  0  0  0
  146.6277  138.6106  152.1222 O   0  0  0  0  0  0  0  0  0  0  0  0
  148.6051  138.9090  153.2100 N   0  0  0  0  0  0  0  0  0  0  0  0
  149.4848  139.6271  154.0175 C   0  0  0  0  0  0  0  0  0  0  0  0
  150.6007  139.1648  154.2580 O   0  0  0  0  0  0  0  0  0  0  0  0
  148.9228  138.0175  152.8584 H   0  0  0  0  0  0  0  0  0  0  0  0
  151.8369  144.4660  158.9564 H   0  0  0  0  0  0  0  0  0  0  0  0
  152.9302  143.5721  157.9021 H   0  0  0  0  0  0  0  0  0  0  0  0
  152.4137  142.8709  159.4356 H   0  0  0  0  0  0  0  0  0  0  0  0
  150.0527  142.7494  158.5860 H   0  0  0  0  0  0  0  0  0  0  0  0
  150.5656  143.4602  157.0593 H   0  0  0  0  0  0  0  0  0  0  0  0
  150.6282  139.8730  156.4556 H   0  0  0  0  0  0  0  0  0  0  0  0
  149.3541  140.7405  157.2767 H   0  0  0  0  0  0  0  0  0  0  0  0
  149.5517  142.6052  155.5038 H   0  0  0  0  0  0  0  0  0  0  0  0
  150.8672  141.7495  154.7729 H   0  0  0  0  0  0  0  0  0  0  0  0
  147.9428  143.1644  155.2005 H   0  0  0  0  0  0  0  0  0  0  0  0
  146.4394  142.9577  154.4000 H   0  0  0  0  0  0  0  0  0  0  0  0
  145.9615  141.0175  153.1047 H   0  0  0  0  0  0  0  0  0  0  0  0
  1  2  1  0  0  0  0
  1 16  1  0  0  0  0
  1 17  1  0  0  0  0
  1 18  1  0  0  0  0
  2  3  1  0  0  0  0
  2 19  1  0  0  0  0
  2 20  1  0  0  0  0
  3  4  1  0  0  0  0
  4  5  1  0  0  0  0
  4 21  1  0  0  0  0
  4 22  1  0  0  0  0
  5  6  1  0  0  0  0
  5 23  1  0  0  0  0
  5 24  1  0  0  0  0
  6 13  1  0  0  0  0
  6  7  1  0  0  0  0
  7  8  1  0  0  0  0
  7  9  2  0  0  0  0
  8 25  1  0  0  0  0
  8 26  1  0  0  0  0
  9 10  1  0  0  0  0
  9 27  1  0  0  0  0
 10 11  2  0  0  0  0
 10 12  1  0  0  0  0
 12 15  1  0  0  0  0
 12 13  1  0  0  0  0
 13 14  2  0  0  0  0
M  END
> <s_m_source_file>
AV-unprocessed.smi

> <i_m_source_file_index>
706

> <i_lp_mmshare_version>
43012

> <i_f3d_flags>
0

> <s_epik_input>
W0NIM11bQ0gyXU9bQ0gyXVtDSDJdbjFjKFtOSDJdKVtjSF1jKD1PKVtuSF1jMT1P

> <s_epik_cmdline>
J2VwaWtfcHl0aG9uJywgJy1waCcsICc3LjAnLCAnLXRuJywgJzgnLCAnLW1hJywgJzIwMCcsICctbWV0YWxfYmluZGluZycsICctaW1hZScsICc8aW5maWxlLm1hZT4nLCAnLW9tYWUnLCAnPG91dGZpbGUubWFlPic=

> <r_lp_tautomer_probability>
1

> <r_epik_Ionization_Penalty>
6.92057e-06

> <r_epik_Ionization_Penalty_Charging>
2.18399e-06

> <r_epik_Ionization_Penalty_Neutral>
4.73657e-06

> <r_epik_State_Penalty>
-0

> <r_epik_Charging_Adjusted_Penalty>
2.18399e-06

> <i_epik_Tot_Q>
0

> <i_epik_Tot_abs_Q>
0

> <r_epik_Metal_State_Penalty>
-0

> <b_epik_Metal_Only>
0

> <s_epik_Chemistry_Notes>
This compound has an imine and may undergo hydrolysis.

> <s_lp_Force_Field>
OPLS_2005

> <r_lp_Energy>
11.2939

> <b_lp_Chiralities_Consistent>
1

> <s_lp_Variant>
AV-unprocessed.smi:706-1

> <Gold.Version>
5.8.1

> <Gold.Id.Protein>
6NUR|6NUR_protein|mol2

> <Gold.PLP.Fitness>
34.8935

> <Gold.PLP.PLP>
-26.2699

> <Gold.PLP.part.hbond>
-4.0000

> <Gold.PLP.part.metal>
0.0000

> <Gold.PLP.part.buried>
0.9444

> <Gold.PLP.part.nonpolar>
-23.5560

> <Gold.PLP.part.repulsive>
0.7723

> <Gold.PLP.ligand.clash>
0.0000

> <Gold.PLP.ligand.torsion>
0.0403

> <Gold.PLP.Chemscore.Hbond>
2.9000

> <Gold.PLP.Chemscore.CHOScore>
0.0000

> <Gold.PLP.Chemscore.Metal>
0.0000

> <Gold.Chemscore.Hbonds>
donor molecule, donor type, donor heavy atom, donor atom, acceptor molecule, acceptor atom, score
      L1  H     8    25       P1  8028  1.00
      L1  H    12    15       P1  7948  1.00
      P1  H  7989  7998       L1    14  0.53

> <Gold.PLP.Chemscore.Internal.Correction>
0.0042

> <Gold.Rescore>
     Score         DG    S(hbond)    S(metal)    S(lipo)     H(rot)  DE(clash)    DE(int)     intcor
      9.73     -11.13       1.90        0.00      40.66       2.12       0.13       1.27       ----

> <Gold.Chemscore.Fitness>
9.7264

> <Gold.Chemscore.DG>
-11.1309

> <Gold.Chemscore.ZeroCoef>
-5.4800

> <Gold.Chemscore.Hbond>
1.8964

> <Gold.Chemscore.Metal>
0.0000

> <Gold.Chemscore.Lipo>
40.6571

> <Gold.Chemscore.Internal_Hbond>
0.0000

> <Gold.Chemscore.DEClash>
0.1325

> <Gold.Chemscore.DEInternal>
1.2720

> <Gold.Chemscore.Rot>
2.1250

> <Gold.Chemscore.Internal.Correction>
   9.000000E+99

> <Gold.Chemscore.Hbonds>
donor molecule, donor type, donor heavy atom, donor atom, acceptor molecule, acceptor atom, score
      L1  H     8    25       P1  8028  0.77
      L1  H    12    15       P1  7948  0.94
      P1  H  7989  7998       L1    14  0.06

> <Gold.Chemscore.Hbond.Weighted>
-6.3340

> <Gold.Chemscore.Metal.Weighted>
-0.0000

> <Gold.Chemscore.Lipo.Weighted>
-4.7569

> <Gold.Chemscore.Internal_Hbond.Weighted>
0.0000

> <Gold.Chemscore.DEClash.Weighted>
0.1325

> <Gold.Chemscore.DEInternal.Weighted>
1.2720

> <Gold.Chemscore.Rot.Weighted>
5.4399

> <Gold.Chemscore.Internal.Correction.Weighted>
   9.000000E+99

> <Gold.Protein.RotatedTorsions>
[ 6907 6896 6895 6894 ] final   83.19 input  -60.11 | X-H torsion
[ 7974 7965 7964 7962 ] final   54.00 input  175.53 | X-H torsion
[ 8008 7997 7996 7995 ] final  163.83 input   59.86 | X-H torsion
[ 10167 10162 10161 10158 ] final   71.51 input  -65.29 | X-H torsion
[ 10718 10713 10712 10709 ] final  168.99 input   66.30 | X-H torsion
[ 10763 10752 10751 10750 ] final   20.39 input  -60.55 | X-H torsion
[ 11005 11000 10999 10996 ] final   44.81 input  -57.11 | X-H torsion

> <Gold.Protein.ActiveResidues>
 VAL166  LYS551  ARG553  GLY616  TRP617  ASP618  TYR619  PRO620  LYS621  CYS622 
 ASP623  PHE694  ASN695  SER759  ASP760  ASP761  ALA762  ILE779  LEU786  VAL792 
 PHE793  MET794  SER795  GLU796  ALA797  LYS798  CYS799  TRP800  GLU811  SER814 

> <Gold.Protein.RotatedAtoms>
  152.5320  134.2933  159.9051 H   0  0  0  0  0  0  0  0  0  0  0  0  # atno 6907 bound_to 6896
  151.2885  133.4170  159.2639 H   0  0  0  0  0  0  0  0  0  0  0  0  # atno 6908 bound_to 6896
  151.0221  134.9493  159.8122 H   0  0  0  0  0  0  0  0  0  0  0  0  # atno 6909 bound_to 6896
  145.9654  139.4098  143.0222 H   0  0  0  0  0  0  0  0  0  0  0  0  # atno 7974 bound_to 7965
  156.1927  140.1713  156.8061 H   0  0  0  0  0  0  0  0  0  0  0  0  # atno 8008 bound_to 7997
  154.5491  140.0721  156.8669 H   0  0  0  0  0  0  0  0  0  0  0  0  # atno 8009 bound_to 7997
  155.3064  140.3365  155.4248 H   0  0  0  0  0  0  0  0  0  0  0  0  # atno 8010 bound_to 7997
  140.0453  144.5356  150.7403 H   0  0  0  0  0  0  0  0  0  0  0  0  # atno 10167 bound_to 10162
  157.0291  131.0254  151.2750 H   0  0  0  0  0  0  0  0  0  0  0  0  # atno 10718 bound_to 10713
  153.1082  135.6690  153.9549 H   0  0  0  0  0  0  0  0  0  0  0  0  # atno 10763 bound_to 10752
  153.9100  135.3026  155.3450 H   0  0  0  0  0  0  0  0  0  0  0  0  # atno 10764 bound_to 10752
  154.7502  135.5038  153.9352 H   0  0  0  0  0  0  0  0  0  0  0  0  # atno 10765 bound_to 10752
  140.1517  134.4453  155.8377 H   0  0  0  0  0  0  0  0  0  0  0  0  # atno 11005 bound_to 11000
  145.7981  140.9784  143.1013 LP  0  0  0  0  0  0  0  0  0  0  0  0  # atno 17320 bound_to 7965
  144.6824  139.9767  143.7483 LP  0  0  0  0  0  0  0  0  0  0  0  0  # atno 17321 bound_to 7965
  140.7241  143.2618  151.4178 LP  0  0  0  0  0  0  0  0  0  0  0  0  # atno 17342 bound_to 10162
  139.5987  144.1341  152.2174 LP  0  0  0  0  0  0  0  0  0  0  0  0  # atno 17343 bound_to 10162
  157.5191  130.7987  149.7789 LP  0  0  0  0  0  0  0  0  0  0  0  0  # atno 17370 bound_to 10713
  156.0076  130.3848  150.2377 LP  0  0  0  0  0  0  0  0  0  0  0  0  # atno 17371 bound_to 10713
  141.2200  133.6875  156.7434 LP  0  0  0  0  0  0  0  0  0  0  0  0  # atno 17394 bound_to 11000
  140.2596  134.8477  157.3746 LP  0  0  0  0  0  0  0  0  0  0  0  0  # atno 17395 bound_to 11000

$$$$
