AV-unprocessed.smi:1376|AV-procd|sdf|5591|dock10
  -GOLD-   22720 5193D 1   1.00000     0.00000
 Structure written by MMmdl.
 42 43  0  0  0  0  0  0  0  0  1 V2000
  151.6727  141.4391  156.9573 O   0  0  0  0  0  0  0  0  0  0  0  0
  151.0289  142.4699  157.1564 C   0  0  0  0  0  0  0  0  0  0  0  0
  151.6906  143.6909  157.8098 C   0  0  0  0  0  0  0  0  0  0  0  0
  152.1648  143.4241  159.1777 N   0  0  0  0  0  0  0  0  0  0  0  0
  152.8923  142.2354  159.3867 C   0  0  0  0  0  0  0  0  0  0  0  0
  153.3683  141.8977  160.5955 C   0  0  0  0  0  0  0  0  0  0  0  0
  153.1172  142.7902  161.7018 C   0  0  0  0  0  0  0  0  0  0  0  0
  152.4264  143.9320  161.5123 C   0  0  0  0  0  0  0  0  0  0  0  0
  151.9065  144.3067  160.1921 C   0  0  0  0  0  0  0  0  0  0  0  0
  151.2766  145.3490  160.0092 O   0  0  0  0  0  0  0  0  0  0  0  0
  149.7297  142.5985  156.8477 N   0  0  0  0  0  0  0  0  0  0  0  0
  148.9052  141.5759  156.2109 C   0  0  1  0  0  0  0  0  0  0  0  0
  149.2234  141.4866  154.7053 C   0  0  0  0  0  0  0  0  0  0  0  0
  148.4282  140.3575  154.0313 C   0  0  0  0  0  0  0  0  0  0  0  0
  148.6694  139.0116  154.7324 C   0  0  0  0  0  0  0  0  0  0  0  0
  148.3324  139.0923  156.2310 C   0  0  1  0  0  0  0  0  0  0  0  0
  148.6465  137.8306  156.8063 O   0  0  0  0  0  0  0  0  0  0  0  0
  148.2767  137.6959  158.1722 C   0  0  0  0  0  0  0  0  0  0  0  0
  149.1764  136.6504  158.8413 C   0  0  0  0  0  0  0  0  0  0  0  0
  150.4171  137.1289  158.9274 F   0  0  0  0  0  0  0  0  0  0  0  0
  148.7354  136.3820  160.0699 F   0  0  0  0  0  0  0  0  0  0  0  0
  149.1991  135.5309  158.1188 F   0  0  0  0  0  0  0  0  0  0  0  0
  149.1400  140.2212  156.9047 C   0  0  0  0  0  0  0  0  0  0  0  0
  152.5198  144.0384  157.1901 H   0  0  0  0  0  0  0  0  0  0  0  0
  150.9695  144.5093  157.8053 H   0  0  0  0  0  0  0  0  0  0  0  0
  153.0428  141.6264  158.5070 H   0  0  0  0  0  0  0  0  0  0  0  0
  153.9277  140.9846  160.7361 H   0  0  0  0  0  0  0  0  0  0  0  0
  153.4865  142.5427  162.6862 H   0  0  0  0  0  0  0  0  0  0  0  0
  152.2493  144.5881  162.3518 H   0  0  0  0  0  0  0  0  0  0  0  0
  149.2801  143.4780  157.0571 H   0  0  0  0  0  0  0  0  0  0  0  0
  147.8514  141.8350  156.3328 H   0  0  0  0  0  0  0  0  0  0  0  0
  148.9990  142.4349  154.2154 H   0  0  0  0  0  0  0  0  0  0  0  0
  150.2907  141.3100  154.5631 H   0  0  0  0  0  0  0  0  0  0  0  0
  147.3642  140.5960  154.0541 H   0  0  0  0  0  0  0  0  0  0  0  0
  148.7062  140.2839  152.9794 H   0  0  0  0  0  0  0  0  0  0  0  0
  148.0684  138.2349  154.2582 H   0  0  0  0  0  0  0  0  0  0  0  0
  149.7119  138.7164  154.6050 H   0  0  0  0  0  0  0  0  0  0  0  0
  147.2636  139.2909  156.3310 H   0  0  0  0  0  0  0  0  0  0  0  0
  148.3710  138.6473  158.6957 H   0  0  0  0  0  0  0  0  0  0  0  0
  147.2336  137.3847  158.2466 H   0  0  0  0  0  0  0  0  0  0  0  0
  150.2017  139.9718  156.8760 H   0  0  0  0  0  0  0  0  0  0  0  0
  148.8714  140.3066  157.9575 H   0  0  0  0  0  0  0  0  0  0  0  0
  1  2  2  0  0  0  0
  2  3  1  0  0  0  0
  2 11  1  0  0  0  0
  3  4  1  0  0  0  0
  3 24  1  0  0  0  0
  3 25  1  0  0  0  0
  4  9  1  0  0  0  0
  4  5  1  0  0  0  0
  5  6  2  0  0  0  0
  5 26  1  0  0  0  0
  6  7  1  0  0  0  0
  6 27  1  0  0  0  0
  7  8  2  0  0  0  0
  7 28  1  0  0  0  0
  8  9  1  0  0  0  0
  8 29  1  0  0  0  0
  9 10  2  0  0  0  0
 11 12  1  0  0  0  0
 11 30  1  0  0  0  0
 12 23  1  0  0  0  0
 12 13  1  0  0  0  0
 12 31  1  0  0  0  0
 13 14  1  0  0  0  0
 13 32  1  0  0  0  0
 13 33  1  0  0  0  0
 14 15  1  0  0  0  0
 14 34  1  0  0  0  0
 14 35  1  0  0  0  0
 15 16  1  0  0  0  0
 15 36  1  0  0  0  0
 15 37  1  0  0  0  0
 16 17  1  0  0  0  0
 16 23  1  0  0  0  0
 16 38  1  0  0  0  0
 17 18  1  0  0  0  0
 18 19  1  0  0  0  0
 18 39  1  0  0  0  0
 18 40  1  0  0  0  0
 19 20  1  0  0  0  0
 19 21  1  0  0  0  0
 19 22  1  0  0  0  0
 23 41  1  0  0  0  0
 23 42  1  0  0  0  0
M  END
> <s_m_source_file>
AV-unprocessed.smi

> <i_m_source_file_index>
1376

> <i_lp_mmshare_version>
43012

> <i_f3d_flags>
0

> <s_epik_input>
Tz1jMVtjSF1bY0hdW2NIXVtjSF1uMVtDSDJdQyg9TylbTkhdW0NAQEhdMltDSDJdW0NIMl1bQ0gyXVtDQEhdKFtDSDJdMilPW0NIMl1DKEYpKEYpRg==

> <s_epik_cmdline>
J2VwaWtfcHl0aG9uJywgJy1waCcsICc3LjAnLCAnLXRuJywgJzgnLCAnLW1hJywgJzIwMCcsICctbWV0YWxfYmluZGluZycsICctaW1hZScsICc8aW5maWxlLm1hZT4nLCAnLW9tYWUnLCAnPG91dGZpbGUubWFlPic=

> <r_lp_tautomer_probability>
1

> <r_epik_Ionization_Penalty>
4.08567e-07

> <r_epik_Ionization_Penalty_Charging>
3.90028e-07

> <r_epik_Ionization_Penalty_Neutral>
1.85393e-08

> <r_epik_State_Penalty>
-0

> <r_epik_Charging_Adjusted_Penalty>
3.90028e-07

> <i_epik_Tot_Q>
0

> <i_epik_Tot_abs_Q>
0

> <r_epik_Metal_State_Penalty>
-0

> <b_epik_Metal_Only>
0

> <s_lp_Force_Field>
OPLS_2005

> <r_lp_Energy>
18.2113

> <b_lp_Chiralities_Consistent>
1

> <s_lp_Variant>
AV-unprocessed.smi:1376-2

> <Gold.Version>
5.8.1

> <Gold.Id.Protein>
6NUR|6NUR_protein|mol2

> <Gold.PLP.Fitness>
47.3639

> <Gold.PLP.PLP>
-46.8206

> <Gold.PLP.part.hbond>
-1.0000

> <Gold.PLP.part.metal>
0.0000

> <Gold.PLP.part.buried>
-4.0738

> <Gold.PLP.part.nonpolar>
-41.5082

> <Gold.PLP.part.repulsive>
0.2220

> <Gold.PLP.ligand.clash>
0.0000

> <Gold.PLP.ligand.torsion>
0.5678

> <Gold.PLP.Chemscore.Hbond>
0.5440

> <Gold.PLP.Chemscore.CHOScore>
0.0000

> <Gold.PLP.Chemscore.Metal>
0.0000

> <Gold.Chemscore.Hbonds>
donor molecule, donor type, donor heavy atom, donor atom, acceptor molecule, acceptor atom, score
      L1  H    11    30       P1  8028  0.43

> <Gold.PLP.Chemscore.Internal.Correction>
0.0470

> <Gold.Rescore>
     Score         DG    S(hbond)    S(metal)    S(lipo)     H(rot)  DE(clash)    DE(int)     intcor
     10.34     -13.52       0.92        0.00      90.17       2.18       0.26       2.92       ----

> <Gold.Chemscore.Fitness>
10.3408

> <Gold.Chemscore.DG>
-13.5240

> <Gold.Chemscore.ZeroCoef>
-5.4800

> <Gold.Chemscore.Hbond>
0.9206

> <Gold.Chemscore.Metal>
0.0000

> <Gold.Chemscore.Lipo>
90.1652

> <Gold.Chemscore.Internal_Hbond>
0.0000

> <Gold.Chemscore.DEClash>
0.2602

> <Gold.Chemscore.DEInternal>
2.9230

> <Gold.Chemscore.Rot>
2.1797

> <Gold.Chemscore.Internal.Correction>
   9.000000E+99

> <Gold.Chemscore.Hbonds>
donor molecule, donor type, donor heavy atom, donor atom, acceptor molecule, acceptor atom, score
      L1  H    11    30       P1  8028  0.36

> <Gold.Chemscore.Hbond.Weighted>
-3.0749

> <Gold.Chemscore.Metal.Weighted>
-0.0000

> <Gold.Chemscore.Lipo.Weighted>
-10.5493

> <Gold.Chemscore.Internal_Hbond.Weighted>
0.0000

> <Gold.Chemscore.DEClash.Weighted>
0.2602

> <Gold.Chemscore.DEInternal.Weighted>
2.9230

> <Gold.Chemscore.Rot.Weighted>
5.5802

> <Gold.Chemscore.Internal.Correction.Weighted>
   9.000000E+99

> <Gold.Protein.RotatedTorsions>
[ 6907 6896 6895 6894 ] final  173.17 input  -60.11 | X-H torsion
[ 7974 7965 7964 7962 ] final -113.39 input  175.53 | X-H torsion
[ 8008 7997 7996 7995 ] final   14.48 input   59.86 | X-H torsion
[ 10167 10162 10161 10158 ] final -129.65 input  -65.29 | X-H torsion
[ 10718 10713 10712 10709 ] final  -55.93 input   66.30 | X-H torsion
[ 10763 10752 10751 10750 ] final  -89.46 input  -60.55 | X-H torsion
[ 11005 11000 10999 10996 ] final -135.07 input  -57.11 | X-H torsion

> <Gold.Protein.ActiveResidues>
 VAL166  LYS551  ARG553  GLY616  TRP617  ASP618  TYR619  PRO620  LYS621  CYS622 
 ASP623  PHE694  ASN695  SER759  ASP760  ASP761  ALA762  ILE779  LEU786  VAL792 
 PHE793  MET794  SER795  GLU796  ALA797  LYS798  CYS799  TRP800  GLU811  SER814 

> <Gold.Protein.RotatedAtoms>
  151.7726  133.3342  159.3448 H   0  0  0  0  0  0  0  0  0  0  0  0  # atno 6907 bound_to 6896
  150.7456  134.6004  159.6043 H   0  0  0  0  0  0  0  0  0  0  0  0  # atno 6908 bound_to 6896
  152.3331  134.7235  160.0335 H   0  0  0  0  0  0  0  0  0  0  0  0  # atno 6909 bound_to 6896
  145.1326  140.8733  143.3749 H   0  0  0  0  0  0  0  0  0  0  0  0  # atno 7974 bound_to 7965
  154.8491  140.2926  155.5610 H   0  0  0  0  0  0  0  0  0  0  0  0  # atno 8008 bound_to 7997
  156.3015  140.2499  156.3378 H   0  0  0  0  0  0  0  0  0  0  0  0  # atno 8009 bound_to 7997
  154.9041  140.0390  157.1899 H   0  0  0  0  0  0  0  0  0  0  0  0  # atno 8010 bound_to 7997
  139.9376  143.6200  152.2512 H   0  0  0  0  0  0  0  0  0  0  0  0  # atno 10167 bound_to 10162
  156.1329  130.4158  150.0237 H   0  0  0  0  0  0  0  0  0  0  0  0  # atno 10718 bound_to 10713
  154.6555  135.5340  153.7954 H   0  0  0  0  0  0  0  0  0  0  0  0  # atno 10763 bound_to 10752
  153.0411  135.6493  154.0951 H   0  0  0  0  0  0  0  0  0  0  0  0  # atno 10764 bound_to 10752
  154.0865  135.2943  155.3260 H   0  0  0  0  0  0  0  0  0  0  0  0  # atno 10765 bound_to 10752
  140.8932  134.1785  157.4513 H   0  0  0  0  0  0  0  0  0  0  0  0  # atno 11005 bound_to 11000
  145.0619  139.3099  143.5876 LP  0  0  0  0  0  0  0  0  0  0  0  0  # atno 17320 bound_to 7965
  146.3512  140.0064  142.8671 LP  0  0  0  0  0  0  0  0  0  0  0  0  # atno 17321 bound_to 7965
  139.6731  144.7660  151.1746 LP  0  0  0  0  0  0  0  0  0  0  0  0  # atno 17342 bound_to 10162
  140.7620  143.5836  150.8869 LP  0  0  0  0  0  0  0  0  0  0  0  0  # atno 17343 bound_to 10162
  156.8145  130.9336  151.3643 LP  0  0  0  0  0  0  0  0  0  0  0  0  # atno 17370 bound_to 10713
  157.6505  130.8880  149.9623 LP  0  0  0  0  0  0  0  0  0  0  0  0  # atno 17371 bound_to 10713
  139.8732  134.9867  156.5336 LP  0  0  0  0  0  0  0  0  0  0  0  0  # atno 17394 bound_to 11000
  140.8322  133.8270  155.8994 LP  0  0  0  0  0  0  0  0  0  0  0  0  # atno 17395 bound_to 11000

$$$$
