AV-unprocessed.smi:1774|AV-procd|sdf|7164|dock1
  -GOLD-   22720 8403D 1   1.00000     0.00000
 Structure written by MMmdl.
 45 46  0  0  0  0  0  0  0  0  1 V2000
  147.8257  133.2968  152.5152 C   0  0  0  0  0  0  0  0  0  0  0  0
  146.3693  133.2872  152.0796 C   0  0  0  0  0  0  0  0  0  0  0  0
  145.7043  132.0527  151.9208 C   0  0  0  0  0  0  0  0  0  0  0  0
  144.3585  132.0458  151.5162 C   0  0  0  0  0  0  0  0  0  0  0  0
  143.7306  133.2817  151.2857 C   0  0  0  0  0  0  0  0  0  0  0  0
  144.3581  134.4658  151.4353 N   0  0  0  0  0  0  0  0  0  0  0  0
  145.6575  134.4904  151.8255 C   0  0  0  0  0  0  0  0  0  0  0  0
  146.3800  135.7027  152.0124 N   0  0  0  0  0  0  0  0  0  0  0  0
  145.9020  136.9253  152.3040 C   0  0  0  0  0  0  0  0  0  0  0  0
  144.7107  137.2172  152.4128 O   0  0  0  0  0  0  0  0  0  0  0  0
  146.8989  137.8089  152.4601 N   0  0  0  0  0  0  0  0  0  0  0  0
  146.7332  139.2166  152.8087 C   0  0  0  0  0  0  0  0  0  0  0  0
  147.2766  139.5218  154.2188 C   0  0  0  0  0  0  0  0  0  0  0  0
  148.6757  139.9450  154.2780 N   0  0  0  0  0  0  0  0  0  0  0  0
  149.6060  138.8189  154.2612 C   0  0  0  0  0  0  0  0  0  0  0  0
  151.0722  139.2874  154.3193 C   0  0  2  0  0  0  0  0  0  0  0  0
  152.0542  138.1131  154.3794 C   0  0  0  0  0  0  0  0  0  0  0  0
  151.2590  140.0903  155.4820 O   0  0  0  0  0  0  0  0  0  0  0  0
  150.4002  141.2269  155.5248 C   0  0  2  0  0  0  0  0  0  0  0  0
  150.7024  142.0116  156.8055 C   0  0  0  0  0  0  0  0  0  0  0  0
  148.9356  140.7528  155.4630 C   0  0  0  0  0  0  0  0  0  0  0  0
  148.2089  132.2841  152.6437 H   0  0  0  0  0  0  0  0  0  0  0  0
  147.9368  133.8206  153.4650 H   0  0  0  0  0  0  0  0  0  0  0  0
  148.4440  133.7960  151.7686 H   0  0  0  0  0  0  0  0  0  0  0  0
  146.2168  131.1200  152.1062 H   0  0  0  0  0  0  0  0  0  0  0  0
  143.8216  131.1178  151.3861 H   0  0  0  0  0  0  0  0  0  0  0  0
  142.6976  133.3218  150.9734 H   0  0  0  0  0  0  0  0  0  0  0  0
  147.3823  135.6242  151.9268 H   0  0  0  0  0  0  0  0  0  0  0  0
  147.8464  137.4797  152.3475 H   0  0  0  0  0  0  0  0  0  0  0  0
  147.3025  139.7949  152.0810 H   0  0  0  0  0  0  0  0  0  0  0  0
  145.6976  139.5363  152.6906 H   0  0  0  0  0  0  0  0  0  0  0  0
  146.6489  140.3006  154.6542 H   0  0  0  0  0  0  0  0  0  0  0  0
  147.1384  138.6442  154.8522 H   0  0  0  0  0  0  0  0  0  0  0  0
  149.4003  138.1582  155.1050 H   0  0  0  0  0  0  0  0  0  0  0  0
  149.4663  138.2243  153.3594 H   0  0  0  0  0  0  0  0  0  0  0  0
  151.2976  139.8869  153.4354 H   0  0  0  0  0  0  0  0  0  0  0  0
  151.9566  137.4762  153.4998 H   0  0  0  0  0  0  0  0  0  0  0  0
  151.8792  137.4961  155.2612 H   0  0  0  0  0  0  0  0  0  0  0  0
  153.0840  138.4686  154.4195 H   0  0  0  0  0  0  0  0  0  0  0  0
  150.6142  141.8636  154.6647 H   0  0  0  0  0  0  0  0  0  0  0  0
  150.0740  142.8995  156.8792 H   0  0  0  0  0  0  0  0  0  0  0  0
  151.7424  142.3377  156.8256 H   0  0  0  0  0  0  0  0  0  0  0  0
  150.5273  141.4017  157.6921 H   0  0  0  0  0  0  0  0  0  0  0  0
  148.2766  141.6219  155.4670 H   0  0  0  0  0  0  0  0  0  0  0  0
  148.6998  140.1781  156.3602 H   0  0  0  0  0  0  0  0  0  0  0  0
  1  2  1  0  0  0  0
  1 22  1  0  0  0  0
  1 23  1  0  0  0  0
  1 24  1  0  0  0  0
  2  7  1  0  0  0  0
  2  3  2  0  0  0  0
  3  4  1  0  0  0  0
  3 25  1  0  0  0  0
  4  5  2  0  0  0  0
  4 26  1  0  0  0  0
  5  6  1  0  0  0  0
  5 27  1  0  0  0  0
  6  7  2  0  0  0  0
  7  8  1  0  0  0  0
  8  9  1  0  0  0  0
  8 28  1  0  0  0  0
  9 10  2  0  0  0  0
  9 11  1  0  0  0  0
 11 12  1  0  0  0  0
 11 29  1  0  0  0  0
 12 13  1  0  0  0  0
 12 30  1  0  0  0  0
 12 31  1  0  0  0  0
 13 14  1  0  0  0  0
 13 32  1  0  0  0  0
 13 33  1  0  0  0  0
 14 21  1  0  0  0  0
 14 15  1  0  0  0  0
 15 16  1  0  0  0  0
 15 34  1  0  0  0  0
 15 35  1  0  0  0  0
 16 17  1  0  0  0  0
 16 18  1  0  0  0  0
 16 36  1  0  0  0  0
 17 37  1  0  0  0  0
 17 38  1  0  0  0  0
 17 39  1  0  0  0  0
 18 19  1  0  0  0  0
 19 20  1  0  0  0  0
 19 21  1  0  0  0  0
 19 40  1  0  0  0  0
 20 41  1  0  0  0  0
 20 42  1  0  0  0  0
 20 43  1  0  0  0  0
 21 44  1  0  0  0  0
 21 45  1  0  0  0  0
M  END
> <s_m_source_file>
AV-unprocessed.smi

> <i_m_source_file_index>
1774

> <i_lp_mmshare_version>
43012

> <i_f3d_flags>
0

> <s_epik_input>
W0NIM11jMVtjSF1bY0hdW2NIXW5jMVtOSF1DKD1PKVtOSF1bQ0gyXVtDSDJdTjJbQ0gyXVtDQEBIXShbQ0gzXSlPW0NAQEhdKFtDSDNdKVtDSDJdMg==

> <s_epik_cmdline>
J2VwaWtfcHl0aG9uJywgJy1waCcsICc3LjAnLCAnLXRuJywgJzgnLCAnLW1hJywgJzIwMCcsICctbWV0YWxfYmluZGluZycsICctaW1hZScsICc8aW5maWxlLm1hZT4nLCAnLW9tYWUnLCAnPG91dGZpbGUubWFlPic=

> <r_epik_Ionization_Penalty>
0.266047

> <r_epik_Ionization_Penalty_Charging>
0

> <r_epik_Ionization_Penalty_Neutral>
0.266047

> <r_epik_State_Penalty>
0.257924

> <r_epik_Charging_Adjusted_Penalty>
0.257924

> <i_epik_Tot_Q>
0

> <i_epik_Tot_abs_Q>
0

> <r_epik_Metal_State_Penalty>
0.257922

> <b_epik_Metal_Only>
0

> <s_lp_Force_Field>
OPLS_2005

> <r_lp_Energy>
26.8029

> <b_lp_Chiralities_Consistent>
1

> <s_lp_Variant>
AV-unprocessed.smi:1774-1

> <Gold.Version>
5.8.1

> <Gold.Id.Protein>
6NUR|6NUR_protein|mol2

> <Gold.PLP.Fitness>
44.3664

> <Gold.PLP.PLP>
-36.6177

> <Gold.PLP.part.hbond>
-2.4427

> <Gold.PLP.part.metal>
0.0000

> <Gold.PLP.part.buried>
-3.8699

> <Gold.PLP.part.nonpolar>
-30.5908

> <Gold.PLP.part.repulsive>
1.6509

> <Gold.PLP.ligand.clash>
0.0000

> <Gold.PLP.ligand.torsion>
0.6296

> <Gold.PLP.Chemscore.Hbond>
1.9760

> <Gold.PLP.Chemscore.CHOScore>
1.0000

> <Gold.PLP.Chemscore.Metal>
0.0000

> <Gold.Chemscore.Hbonds>
donor molecule, donor type, donor heavy atom, donor atom, acceptor molecule, acceptor atom, score
      L1  H     8    28       P1  7948  1.00
      L1  H    11    29       P1  7948  1.00
      L1  C     5    27       P1 10186  1.00

> <Gold.PLP.Chemscore.Internal.Correction>
0.0800

> <Gold.Rescore>
     Score         DG    S(hbond)    S(metal)    S(lipo)     H(rot)  DE(clash)    DE(int)     intcor
     16.56     -18.50       1.97        0.00      87.01       1.46       0.07       1.87       ----

> <Gold.Chemscore.Fitness>
16.5637

> <Gold.Chemscore.DG>
-18.5007

> <Gold.Chemscore.ZeroCoef>
-5.4800

> <Gold.Chemscore.Hbond>
1.9665

> <Gold.Chemscore.Metal>
0.0000

> <Gold.Chemscore.Lipo>
87.0129

> <Gold.Chemscore.Internal_Hbond>
0.0000

> <Gold.Chemscore.DEClash>
0.0713

> <Gold.Chemscore.DEInternal>
1.8658

> <Gold.Chemscore.Rot>
1.4562

> <Gold.Chemscore.Internal.Correction>
   9.000000E+99

> <Gold.Chemscore.Hbonds>
donor molecule, donor type, donor heavy atom, donor atom, acceptor molecule, acceptor atom, score
      L1  H     8    28       P1  7948  0.98
      L1  H    11    29       P1  7948  0.94

> <Gold.Chemscore.Hbond.Weighted>
-6.5681

> <Gold.Chemscore.Metal.Weighted>
-0.0000

> <Gold.Chemscore.Lipo.Weighted>
-10.1805

> <Gold.Chemscore.Internal_Hbond.Weighted>
0.0000

> <Gold.Chemscore.DEClash.Weighted>
0.0713

> <Gold.Chemscore.DEInternal.Weighted>
1.8658

> <Gold.Chemscore.Rot.Weighted>
3.7278

> <Gold.Chemscore.Internal.Correction.Weighted>
   9.000000E+99

> <Gold.Protein.RotatedTorsions>
[ 6907 6896 6895 6894 ] final  122.92 input  -60.11 | X-H torsion
[ 7974 7965 7964 7962 ] final  -61.80 input  175.53 | X-H torsion
[ 8008 7997 7996 7995 ] final   68.46 input   59.86 | X-H torsion
[ 10167 10162 10161 10158 ] final   34.96 input  -65.29 | X-H torsion
[ 10718 10713 10712 10709 ] final -129.64 input   66.30 | X-H torsion
[ 10763 10752 10751 10750 ] final  -92.99 input  -60.55 | X-H torsion
[ 11005 11000 10999 10996 ] final   40.38 input  -57.11 | X-H torsion

> <Gold.Protein.ActiveResidues>
 VAL166  LYS551  ARG553  GLY616  TRP617  ASP618  TYR619  PRO620  LYS621  CYS622 
 ASP623  PHE694  ASN695  SER759  ASP760  ASP761  ALA762  ILE779  LEU786  VAL792 
 PHE793  MET794  SER795  GLU796  ALA797  LYS798  CYS799  TRP800  GLU811  SER814 

> <Gold.Protein.RotatedAtoms>
  152.4204  133.7107  159.6476 H   0  0  0  0  0  0  0  0  0  0  0  0  # atno 6907 bound_to 6896
  150.8080  133.8463  159.3202 H   0  0  0  0  0  0  0  0  0  0  0  0  # atno 6908 bound_to 6896
  151.6181  135.1036  160.0147 H   0  0  0  0  0  0  0  0  0  0  0  0  # atno 6909 bound_to 6896
  145.7991  140.8665  143.0241 H   0  0  0  0  0  0  0  0  0  0  0  0  # atno 7974 bound_to 7965
  155.7086  140.3494  155.4964 H   0  0  0  0  0  0  0  0  0  0  0  0  # atno 8008 bound_to 7997
  155.9376  140.1095  157.1104 H   0  0  0  0  0  0  0  0  0  0  0  0  # atno 8009 bound_to 7997
  154.4096  140.1219  156.4871 H   0  0  0  0  0  0  0  0  0  0  0  0  # atno 8010 bound_to 7997
  140.4266  144.1384  150.6154 H   0  0  0  0  0  0  0  0  0  0  0  0  # atno 10167 bound_to 10162
  156.2067  130.6892  151.0602 H   0  0  0  0  0  0  0  0  0  0  0  0  # atno 10718 bound_to 10713
  154.6915  135.5211  153.8399 H   0  0  0  0  0  0  0  0  0  0  0  0  # atno 10763 bound_to 10752
  153.0636  135.6577  154.0416 H   0  0  0  0  0  0  0  0  0  0  0  0  # atno 10764 bound_to 10752
  154.0289  135.2987  155.3351 H   0  0  0  0  0  0  0  0  0  0  0  0  # atno 10765 bound_to 10752
  140.1936  134.3956  155.8133 H   0  0  0  0  0  0  0  0  0  0  0  0  # atno 11005 bound_to 11000
  144.6771  140.0233  143.7483 LP  0  0  0  0  0  0  0  0  0  0  0  0  # atno 17320 bound_to 7965
  145.9897  139.3005  143.0992 LP  0  0  0  0  0  0  0  0  0  0  0  0  # atno 17321 bound_to 7965
  140.4474  143.2501  151.9393 LP  0  0  0  0  0  0  0  0  0  0  0  0  # atno 17342 bound_to 10162
  139.4783  144.5595  151.8261 LP  0  0  0  0  0  0  0  0  0  0  0  0  # atno 17343 bound_to 10162
  157.7016  131.0773  150.6802 LP  0  0  0  0  0  0  0  0  0  0  0  0  # atno 17370 bound_to 10713
  156.6861  130.4581  149.5613 LP  0  0  0  0  0  0  0  0  0  0  0  0  # atno 17371 bound_to 10713
  141.2226  133.7059  156.8138 LP  0  0  0  0  0  0  0  0  0  0  0  0  # atno 17394 bound_to 11000
  140.2132  134.8812  157.3297 LP  0  0  0  0  0  0  0  0  0  0  0  0  # atno 17395 bound_to 11000

$$$$
