#       Name:                AV-unprocessed.smi:2631
#       Creating user name   scv26
#       Creation time:       Fri Mar 27 14:25:51 2020


#       File generated by GOLD software.
#

@<TRIPOS>MOLECULE
AV-unprocessed.smi:2631
    41    42     1
SMALL
NO_CHARGES


@<TRIPOS>ATOM
      1 ****        -3.3958   1.6226  -0.2914 C.3            1 S1                 0.0000
      2 ****        -2.8373   0.3229  -0.2267 O.3            1 S1                 0.0000
      3 ****        -3.0568  -0.4245  -1.4118 C.3            1 S1                 0.0000
      4 ****        -2.3907  -1.8041  -1.2782 C.3            1 S1                 0.0000
      5 ****        -0.9462  -1.7285  -1.1866 N.am           1 S1                 0.0000
      6 ****        -0.2441  -1.7058   0.0214 C.2            1 S1                 0.0000
      7 ****        -0.9472  -1.7717   1.2122 N.pl3          1 S1                 0.0000
      8 ****         1.1102  -1.6017   0.0409 C.2            1 S1                 0.0000
      9 ****         2.1144  -1.5332   1.5053 S.3            1 S1                 0.0000
     10 ****         2.3844   0.2034   1.6472 C.ar           1 S1                 0.0000
     11 ****         1.3310   1.0492   2.0486 C.ar           1 S1                 0.0000
     12 ****         1.5460   2.4373   2.1522 C.ar           1 S1                 0.0000
     13 ****         2.8130   2.9784   1.8558 C.ar           1 S1                 0.0000
     14 ****         3.0753   4.6791   1.9809 Cl             1 S1                 0.0000
     15 ****         3.8656   2.1308   1.4562 C.ar           1 S1                 0.0000
     16 ****         3.6520   0.7425   1.3520 C.ar           1 S1                 0.0000
     17 ****         1.9072  -1.5136  -1.1846 C.2            1 S1                 0.0000
     18 ****         3.1328  -1.4306  -1.2610 O.2            1 S1                 0.0000
     19 ****         1.1442  -1.5266  -2.3518 N.am           1 S1                 0.0000
     20 ****        -0.2451  -1.6198  -2.4144 C.2            1 S1                 0.0000
     21 ****        -0.8018  -1.6006  -3.5127 O.2            1 S1                 0.0000
     22 ****         1.6415  -1.4579  -3.2278 H              1 S1                 0.0000
     23 ****        -3.2017   2.1506   0.6421 H              1 S1                 0.0000
     24 ****        -4.4757   1.5807  -0.4376 H              1 S1                 0.0000
     25 ****        -2.9542   2.2017  -1.1034 H              1 S1                 0.0000
     26 ****        -4.1289  -0.5516  -1.5680 H              1 S1                 0.0000
     27 ****        -2.6654   0.1102  -2.2786 H              1 S1                 0.0000
     28 ****        -2.7486  -2.3371  -0.3982 H              1 S1                 0.0000
     29 ****        -2.6323  -2.4532  -2.1217 H              1 S1                 0.0000
     30 ****        -1.9549  -1.8358   1.2307 H              1 S1                 0.0000
     31 ****        -0.4773  -1.8408   2.1036 H              1 S1                 0.0000
     32 ****         0.3577   0.6385   2.2737 H              1 S1                 0.0000
     33 ****         0.7378   3.0855   2.4579 H              1 S1                 0.0000
     34 ****         4.8370   2.5442   1.2277 H              1 S1                 0.0000
     35 ****         4.4592   0.0952   1.0418 H              1 S1                 0.0000
     36 ****        -3.2512  -0.1657   0.5414 LP             1 S1                 0.0000
     37 ****        -1.8519   0.4048  -0.0776 LP             1 S1                 0.0000
     38 ****         3.6860  -1.4183  -0.4281 LP             1 S1                 0.0000
     39 ****         3.5754  -1.3755  -2.1561 LP             1 S1                 0.0000
     40 ****        -1.7982  -1.6634  -3.5694 LP             1 S1                 0.0000
     41 ****        -0.2574  -1.5222  -4.3479 LP             1 S1                 0.0000
@<TRIPOS>BOND
    1    1    2 1     
    2    1   23 1     
    3    1   24 1     
    4    1   25 1     
    5    2    3 1     
    6    3    4 1     
    7    3   26 1     
    8    3   27 1     
    9    4    5 1     
   10    4   28 1     
   11    4   29 1     
   12    5   20 1     
   13    5    6 1     
   14    6    7 1     
   15    6    8 2     
   16    7   30 1     
   17    7   31 1     
   18    8    9 1     
   19    8   17 1     
   20    9   10 1     
   21   10   16 ar    
   22   10   11 ar    
   23   11   12 ar    
   24   11   32 1     
   25   12   13 ar    
   26   12   33 1     
   27   13   14 1     
   28   13   15 ar    
   29   15   16 ar    
   30   15   34 1     
   31   16   35 1     
   32   17   18 2     
   33   17   19 1     
   34   19   22 1     
   35   19   20 1     
   36   20   21 2     
   37    2   36 1     
   38    2   37 1     
   39   18   38 1     
   40   18   39 1     
   41   21   40 1     
   42   21   41 1     
@<TRIPOS>SUBSTRUCTURE
      1 S1             1
@<TRIPOS>SET
LONE_PAIRS      STATIC     ATOMS    <user>   **** ""
6 36 37 38 39 40 41
DONOR_HYDROGENS      STATIC     ATOMS    <user>   **** ""
3 30 31 22
ATOM$BLUE        STATIC     ATOMS    COLORGROUP SYSTEM
6 36 37 38 39 40 41
ATOM$RED        STATIC     ATOMS    COLORGROUP SYSTEM
3 30 31 22
