AV-unprocessed.smi:334|AV-procd|sdf|2365|dock9
  -GOLD-   2262022283D 1   1.00000     0.00000
 Structure written by MMmdl.
 44 46  0  0  0  0  0  0  0  0  3 V2000
  153.5702  142.2019  162.3107 C   0  0  0  0  0  0  0  0  0  0  0  0
  153.0411  141.9283  160.8926 C   0  0  1  0  0  0  0  0  0  0  0  0
  152.6765  140.5231  160.7553 N   0  0  0  0  0  0  0  0  0  0  0  0
  153.1563  139.6638  159.8404 C   0  0  0  0  0  0  0  0  0  0  0  0
  154.0682  139.9516  159.0663 O   0  0  0  0  0  0  0  0  0  0  0  0
  152.4956  138.2778  159.7410 C   0  0  0  0  0  0  0  0  0  0  0  0
  151.6438  138.0988  158.5508 N   0  0  0  0  0  0  0  0  0  0  0  0
  152.0532  138.7664  157.3792 C   0  0  0  0  0  0  0  0  0  0  0  0
  151.3327  138.7258  156.2421 C   0  0  0  0  0  0  0  0  0  0  0  0
  151.7457  139.4568  155.0650 N   0  3  0  0  0  0  0  0  0  0  0  0
  150.8867  139.8290  154.2724 O   0  0  0  0  0  0  0  0  0  0  0  0
  152.9393  139.6881  154.8969 O   0  5  0  0  0  0  0  0  0  0  0  0
  150.1108  137.9453  156.2465 C   0  0  0  0  0  0  0  0  0  0  0  0
  149.7112  137.3081  157.3648 C   0  0  0  0  0  0  0  0  0  0  0  0
  150.4841  137.3755  158.6095 C   0  0  0  0  0  0  0  0  0  0  0  0
  150.1055  136.8239  159.6423 O   0  0  0  0  0  0  0  0  0  0  0  0
  151.8149  142.8082  160.5510 C   0  0  1  0  0  0  0  0  0  0  0  0
  152.0128  144.3185  160.8089 C   0  0  0  0  0  0  0  0  0  0  0  0
  151.5581  144.9581  159.4831 C   0  0  1  0  0  0  0  0  0  0  0  0
  152.6272  144.7004  158.4045 C   0  0  0  0  0  0  0  0  0  0  0  0
  152.4502  143.2010  158.1033 C   0  0  0  0  0  0  0  0  0  0  0  0
  151.3289  142.7890  159.0781 C   0  0  2  0  0  0  0  0  0  0  0  0
  150.4363  144.0247  159.0426 C   0  0  0  0  0  0  0  0  0  0  0  0
  153.8580  143.2466  162.4303 H   0  0  0  0  0  0  0  0  0  0  0  0
  154.4501  141.5960  162.5282 H   0  0  0  0  0  0  0  0  0  0  0  0
  152.8168  141.9766  163.0663 H   0  0  0  0  0  0  0  0  0  0  0  0
  153.8396  142.1519  160.1831 H   0  0  0  0  0  0  0  0  0  0  0  0
  151.9363  140.1947  161.3580 H   0  0  0  0  0  0  0  0  0  0  0  0
  153.2852  137.5249  159.7315 H   0  0  0  0  0  0  0  0  0  0  0  0
  151.9422  138.0924  160.6627 H   0  0  0  0  0  0  0  0  0  0  0  0
  152.9696  139.3298  157.4854 H   0  0  0  0  0  0  0  0  0  0  0  0
  149.5081  137.8660  155.3537 H   0  0  0  0  0  0  0  0  0  0  0  0
  148.7972  136.7328  157.3462 H   0  0  0  0  0  0  0  0  0  0  0  0
  150.9799  142.4653  161.1653 H   0  0  0  0  0  0  0  0  0  0  0  0
  151.3862  144.6489  161.6384 H   0  0  0  0  0  0  0  0  0  0  0  0
  153.0437  144.5808  161.0500 H   0  0  0  0  0  0  0  0  0  0  0  0
  151.2769  146.0072  159.5776 H   0  0  0  0  0  0  0  0  0  0  0  0
  152.4331  145.2956  157.5113 H   0  0  0  0  0  0  0  0  0  0  0  0
  153.6328  144.9382  158.7538 H   0  0  0  0  0  0  0  0  0  0  0  0
  152.1268  143.0579  157.0714 H   0  0  0  0  0  0  0  0  0  0  0  0
  153.3697  142.6316  158.2350 H   0  0  0  0  0  0  0  0  0  0  0  0
  150.8242  141.8650  158.7952 H   0  0  0  0  0  0  0  0  0  0  0  0
  149.6048  143.9822  159.7486 H   0  0  0  0  0  0  0  0  0  0  0  0
  150.0493  144.2523  158.0475 H   0  0  0  0  0  0  0  0  0  0  0  0
  1  2  1  0  0  0  0
  1 24  1  0  0  0  0
  1 25  1  0  0  0  0
  1 26  1  0  0  0  0
  2  3  1  0  0  0  0
  2 17  1  0  0  0  0
  2 27  1  0  0  0  0
  3  4  1  0  0  0  0
  3 28  1  0  0  0  0
  4  5  2  0  0  0  0
  4  6  1  0  0  0  0
  6  7  1  0  0  0  0
  6 29  1  0  0  0  0
  6 30  1  0  0  0  0
  7 15  1  0  0  0  0
  7  8  1  0  0  0  0
  8  9  2  0  0  0  0
  8 31  1  0  0  0  0
  9 10  1  0  0  0  0
  9 13  1  0  0  0  0
 10 11  2  0  0  0  0
 10 12  1  0  0  0  0
 13 14  2  0  0  0  0
 13 32  1  0  0  0  0
 14 15  1  0  0  0  0
 14 33  1  0  0  0  0
 15 16  2  0  0  0  0
 17 22  1  0  0  0  0
 17 18  1  0  0  0  0
 17 34  1  0  0  0  0
 18 19  1  0  0  0  0
 18 35  1  0  0  0  0
 18 36  1  0  0  0  0
 19 23  1  0  0  0  0
 19 20  1  0  0  0  0
 19 37  1  0  0  0  0
 20 21  1  0  0  0  0
 20 38  1  0  0  0  0
 20 39  1  0  0  0  0
 21 22  1  0  0  0  0
 21 40  1  0  0  0  0
 21 41  1  0  0  0  0
 22 23  1  0  0  0  0
 22 42  1  0  0  0  0
 23 43  1  0  0  0  0
 23 44  1  0  0  0  0
M  CHG  1  10   1
M  CHG  1  12  -1
M  END
> <s_m_source_file>
AV-unprocessed.smi

> <i_m_source_file_index>
334

> <i_lp_mmshare_version>
43012

> <i_f3d_flags>
0

> <s_epik_input>
W0NIMl0xW0NIMl1bQ0BIXShbQ0gyXTIpW0NAQEhdKFtDSDJdW0NAQEhdMTIpW0NASF0oW0NIM10pW05IXUMoPU8pW0NIMl1uM1tjSF1jKFtOK10oPU8pW08tXSlbY0hdW2NIXWMzPU8=

> <s_epik_cmdline>
J2VwaWtfcHl0aG9uJywgJy1waCcsICc3LjAnLCAnLXRuJywgJzgnLCAnLW1hJywgJzIwMCcsICctbWV0YWxfYmluZGluZycsICctaW1hZScsICc8aW5maWxlLm1hZT4nLCAnLW9tYWUnLCAnPG91dGZpbGUubWFlPic=

> <r_lp_tautomer_probability>
1

> <r_epik_Ionization_Penalty>
2.17081e-08

> <r_epik_Ionization_Penalty_Charging>
8.1195e-11

> <r_epik_Ionization_Penalty_Neutral>
2.16269e-08

> <r_epik_State_Penalty>
-0

> <r_epik_Charging_Adjusted_Penalty>
8.1195e-11

> <i_epik_Tot_Q>
0

> <i_epik_Tot_abs_Q>
2

> <r_epik_Metal_State_Penalty>
-0

> <b_epik_Metal_Only>
0

> <s_lp_Force_Field>
OPLS_2005

> <r_lp_Energy>
61.6475

> <b_lp_Chiralities_Consistent>
1

> <s_lp_Variant>
AV-unprocessed.smi:334-4

> <Gold.Version>
5.8.1

> <Gold.Id.Protein>
6NUR|6NUR_protein|mol2

> <Gold.PLP.Fitness>
52.4507

> <Gold.PLP.PLP>
-42.2378

> <Gold.PLP.part.hbond>
-5.2300

> <Gold.PLP.part.metal>
0.0000

> <Gold.PLP.part.buried>
-2.9032

> <Gold.PLP.part.nonpolar>
-34.5257

> <Gold.PLP.part.repulsive>
0.2762

> <Gold.PLP.ligand.clash>
0.0000

> <Gold.PLP.ligand.torsion>
0.8924

> <Gold.PLP.Chemscore.Hbond>
3.9913

> <Gold.PLP.Chemscore.CHOScore>
0.0000

> <Gold.PLP.Chemscore.Metal>
0.0000

> <Gold.Chemscore.Hbonds>
donor molecule, donor type, donor heavy atom, donor atom, acceptor molecule, acceptor atom, score
      P1  H  6896  6909       L1    16  1.00
      P1  H  7989  7998       L1    11  0.91
      P1  H  7997  8008       L1     5  1.00
      P1  H  7997  8009       L1    12  1.00

> <Gold.PLP.Chemscore.Internal.Correction>
0.0239

> <Gold.Rescore>
     Score         DG    S(hbond)    S(metal)    S(lipo)     H(rot)  DE(clash)    DE(int)     intcor
     23.43     -26.55       3.42        0.00     120.66       1.75       0.83       2.29       ----

> <Gold.Chemscore.Fitness>
23.4310

> <Gold.Chemscore.DG>
-26.5522

> <Gold.Chemscore.ZeroCoef>
-5.4800

> <Gold.Chemscore.Hbond>
3.4218

> <Gold.Chemscore.Metal>
0.0000

> <Gold.Chemscore.Lipo>
120.6553

> <Gold.Chemscore.Internal_Hbond>
0.0000

> <Gold.Chemscore.DEClash>
0.8313

> <Gold.Chemscore.DEInternal>
2.2899

> <Gold.Chemscore.Rot>
1.7474

> <Gold.Chemscore.Internal.Correction>
   9.000000E+99

> <Gold.Chemscore.Hbonds>
donor molecule, donor type, donor heavy atom, donor atom, acceptor molecule, acceptor atom, score
      P1  H  6896  6909       L1    16  0.66
      P1  H  7989  7998       L1    11  0.30
      P1  H  7997  8008       L1     5  0.92
      P1  H  7997  8009       L1    12  0.98

> <Gold.Chemscore.Hbond.Weighted>
-11.4288

> <Gold.Chemscore.Metal.Weighted>
-0.0000

> <Gold.Chemscore.Lipo.Weighted>
-14.1167

> <Gold.Chemscore.Internal_Hbond.Weighted>
0.0000

> <Gold.Chemscore.DEClash.Weighted>
0.8313

> <Gold.Chemscore.DEInternal.Weighted>
2.2899

> <Gold.Chemscore.Rot.Weighted>
4.4733

> <Gold.Chemscore.Internal.Correction.Weighted>
   9.000000E+99

> <Gold.Protein.RotatedTorsions>
[ 6907 6896 6895 6894 ] final   88.11 input  -60.11 | X-H torsion
[ 7974 7965 7964 7962 ] final  -94.75 input  175.53 | X-H torsion
[ 8008 7997 7996 7995 ] final -117.59 input   59.86 | X-H torsion
[ 10167 10162 10161 10158 ] final  179.16 input  -65.29 | X-H torsion
[ 10718 10713 10712 10709 ] final -101.61 input   66.30 | X-H torsion
[ 10763 10752 10751 10750 ] final   25.01 input  -60.55 | X-H torsion
[ 11005 11000 10999 10996 ] final    7.71 input  -57.11 | X-H torsion

> <Gold.Protein.ActiveResidues>
 VAL166  LYS551  ARG553  GLY616  TRP617  ASP618  TYR619  PRO620  LYS621  CYS622 
 ASP623  PHE694  ASN695  SER759  ASP760  ASP761  ALA762  ILE779  LEU786  VAL792 
 PHE793  MET794  SER795  GLU796  ALA797  LYS798  CYS799  TRP800  GLU811  SER814 

> <Gold.Protein.RotatedAtoms>
  152.5421  134.2172  159.8772 H   0  0  0  0  0  0  0  0  0  0  0  0  # atno 6907 bound_to 6896
  151.2151  133.4527  159.2607 H   0  0  0  0  0  0  0  0  0  0  0  0  # atno 6908 bound_to 6896
  151.0859  134.9900  159.8435 H   0  0  0  0  0  0  0  0  0  0  0  0  # atno 6909 bound_to 6896
  145.3691  140.9503  143.2457 H   0  0  0  0  0  0  0  0  0  0  0  0  # atno 7974 bound_to 7965
  155.0861  140.0394  157.2654 H   0  0  0  0  0  0  0  0  0  0  0  0  # atno 8008 bound_to 7997
  154.6868  140.2645  155.6827 H   0  0  0  0  0  0  0  0  0  0  0  0  # atno 8009 bound_to 7997
  156.2715  140.2767  156.1432 H   0  0  0  0  0  0  0  0  0  0  0  0  # atno 8010 bound_to 7997
  139.5324  144.2594  152.0719 H   0  0  0  0  0  0  0  0  0  0  0  0  # atno 10167 bound_to 10162
  156.0200  130.5381  150.6988 H   0  0  0  0  0  0  0  0  0  0  0  0  # atno 10718 bound_to 10713
  153.0722  135.6592  154.0223 H   0  0  0  0  0  0  0  0  0  0  0  0  # atno 10763 bound_to 10752
  153.9865  135.2950  155.3417 H   0  0  0  0  0  0  0  0  0  0  0  0  # atno 10764 bound_to 10752
  154.7100  135.5209  153.8722 H   0  0  0  0  0  0  0  0  0  0  0  0  # atno 10765 bound_to 10752
  140.5452  134.0336  155.7917 H   0  0  0  0  0  0  0  0  0  0  0  0  # atno 11005 bound_to 11000
  144.8590  139.5206  143.6821 LP  0  0  0  0  0  0  0  0  0  0  0  0  # atno 17320 bound_to 7965
  146.2893  139.7094  142.9172 LP  0  0  0  0  0  0  0  0  0  0  0  0  # atno 17321 bound_to 7965
  140.2059  144.4611  150.6408 LP  0  0  0  0  0  0  0  0  0  0  0  0  # atno 17342 bound_to 10162
  140.6511  143.2225  151.6075 LP  0  0  0  0  0  0  0  0  0  0  0  0  # atno 17343 bound_to 10162
  157.4653  131.0887  151.0702 LP  0  0  0  0  0  0  0  0  0  0  0  0  # atno 17370 bound_to 10713
  157.1178  130.6049  149.5497 LP  0  0  0  0  0  0  0  0  0  0  0  0  # atno 17371 bound_to 10713
  141.1204  133.9471  157.2741 LP  0  0  0  0  0  0  0  0  0  0  0  0  # atno 17394 bound_to 11000
  139.9483  135.0180  156.8919 LP  0  0  0  0  0  0  0  0  0  0  0  0  # atno 17395 bound_to 11000

$$$$
