AV-unprocessed.smi:2926|AV-procd|sdf|11227|dock6
  -GOLD-   2272016123D 1   1.00000     0.00000
 Structure written by MMmdl.
 32 32  0  0  0  0  0  0  0  0  1 V2000
  146.8154  139.3043  153.3524 C   0  0  0  0  0  0  0  0  0  0  0  0
  148.1224  140.0457  153.6825 C   0  0  0  0  0  0  0  0  0  0  0  0
  149.1608  139.0856  154.2937 C   0  0  0  0  0  0  0  0  0  0  0  0
  147.8614  141.3170  154.5345 C   0  0  2  0  0  0  0  0  0  0  0  0
  146.8275  142.2894  153.9258 C   0  0  0  0  0  0  0  0  0  0  0  0
  146.3332  143.1791  154.9041 O   0  0  0  0  0  0  0  0  0  0  0  0
  149.1269  142.0222  154.7761 N   0  0  0  0  0  0  0  0  0  0  0  0
  150.1683  141.4984  156.0506 S   0  0  0  0  0  0  0  0  0  0  0  0
  149.3173  141.0203  157.1511 O   0  0  0  0  0  0  0  0  0  0  0  0
  151.1890  140.6121  155.4699 O   0  0  0  0  0  0  0  0  0  0  0  0
  150.9839  143.0686  156.5628 C   0  0  0  0  0  0  0  0  0  0  0  0
  151.2888  143.0187  158.0325 C   0  0  0  0  0  0  0  0  0  0  0  0
  152.5298  143.2562  158.6860 C   0  0  0  0  0  0  0  0  0  0  0  0
  152.2331  143.0797  160.0067 C   0  0  0  0  0  0  0  0  0  0  0  0
  150.9243  142.7559  160.1604 O   0  0  0  0  0  0  0  0  0  0  0  0
  150.3300  142.7174  158.8940 N   0  0  0  0  0  0  0  0  0  0  0  0
  147.4738  140.9872  155.4994 H   0  0  0  0  0  0  0  0  0  0  0  0
  146.3445  138.9002  154.2491 H   0  0  0  0  0  0  0  0  0  0  0  0
  146.9983  138.4713  152.6730 H   0  0  0  0  0  0  0  0  0  0  0  0
  146.0970  139.9673  152.8695 H   0  0  0  0  0  0  0  0  0  0  0  0
  148.5271  140.3745  152.7248 H   0  0  0  0  0  0  0  0  0  0  0  0
  148.8359  138.7012  155.2606 H   0  0  0  0  0  0  0  0  0  0  0  0
  150.1267  139.5701  154.4323 H   0  0  0  0  0  0  0  0  0  0  0  0
  149.3260  138.2279  153.6410 H   0  0  0  0  0  0  0  0  0  0  0  0
  147.2831  142.8913  153.1394 H   0  0  0  0  0  0  0  0  0  0  0  0
  145.9950  141.7555  153.4682 H   0  0  0  0  0  0  0  0  0  0  0  0
  145.9106  142.6743  155.5824 H   0  0  0  0  0  0  0  0  0  0  0  0
  148.9808  143.0308  154.8136 H   0  0  0  0  0  0  0  0  0  0  0  0
  151.8897  143.1956  155.9689 H   0  0  0  0  0  0  0  0  0  0  0  0
  150.3146  143.8967  156.3313 H   0  0  0  0  0  0  0  0  0  0  0  0
  153.4840  143.5193  158.2543 H   0  0  0  0  0  0  0  0  0  0  0  0
  152.8158  143.1451  160.9135 H   0  0  0  0  0  0  0  0  0  0  0  0
  1  2  1  0  0  0  0
  1 18  1  0  0  0  0
  1 19  1  0  0  0  0
  1 20  1  0  0  0  0
  2  3  1  0  0  0  0
  2  4  1  0  0  0  0
  2 21  1  0  0  0  0
  3 22  1  0  0  0  0
  3 23  1  0  0  0  0
  3 24  1  0  0  0  0
  4 17  1  0  0  0  0
  4  5  1  0  0  0  0
  4  7  1  0  0  0  0
  5  6  1  0  0  0  0
  5 25  1  0  0  0  0
  5 26  1  0  0  0  0
  6 27  1  0  0  0  0
  7  8  1  0  0  0  0
  7 28  1  0  0  0  0
  8  9  2  0  0  0  0
  8 10  2  0  0  0  0
  8 11  1  0  0  0  0
 11 12  1  0  0  0  0
 11 29  1  0  0  0  0
 11 30  1  0  0  0  0
 12 16  2  0  0  0  0
 12 13  1  0  0  0  0
 13 14  2  0  0  0  0
 13 31  1  0  0  0  0
 14 15  1  0  0  0  0
 14 32  1  0  0  0  0
 15 16  1  0  0  0  0
M  END
> <s_m_source_file>
AV-unprocessed.smi

> <i_m_source_file_index>
2926

> <i_lp_mmshare_version>
43012

> <i_f3d_flags>
0

> <s_epik_input>
W0NIM11bQ0hdKFtDSDNdKVtDQEBIXShbQ0gyXVtPSF0pW05IXVMoPU8pKD1PKVtDSDJdYzFbY0hdW2NIXW9uMQ==

> <s_epik_cmdline>
J2VwaWtfcHl0aG9uJywgJy1waCcsICc3LjAnLCAnLXRuJywgJzgnLCAnLW1hJywgJzIwMCcsICctbWV0YWxfYmluZGluZycsICctaW1hZScsICc8aW5maWxlLm1hZT4nLCAnLW9tYWUnLCAnPG91dGZpbGUubWFlPic=

> <r_lp_tautomer_probability>
1

> <r_epik_Ionization_Penalty>
0.000193122

> <r_epik_Ionization_Penalty_Charging>
0

> <r_epik_Ionization_Penalty_Neutral>
0.000193122

> <r_epik_State_Penalty>
-0

> <r_epik_Charging_Adjusted_Penalty>
0

> <i_epik_Tot_Q>
0

> <i_epik_Tot_abs_Q>
0

> <r_epik_Metal_State_Penalty>
0.130256

> <b_epik_Metal_Only>
0

> <s_lp_Force_Field>
OPLS_2005

> <r_lp_Energy>
0.568984

> <b_lp_Chiralities_Consistent>
1

> <s_lp_Variant>
AV-unprocessed.smi:2926-2

> <Gold.Version>
5.8.1

> <Gold.Id.Protein>
6NUR|6NUR_protein|mol2

> <Gold.PLP.Fitness>
32.0116

> <Gold.PLP.PLP>
-29.2860

> <Gold.PLP.part.hbond>
-4.8264

> <Gold.PLP.part.metal>
0.0000

> <Gold.PLP.part.buried>
0.7964

> <Gold.PLP.part.nonpolar>
-25.3588

> <Gold.PLP.part.repulsive>
0.1784

> <Gold.PLP.ligand.clash>
0.0000

> <Gold.PLP.ligand.torsion>
1.5424

> <Gold.PLP.Chemscore.Hbond>
1.8640

> <Gold.PLP.Chemscore.CHOScore>
0.0000

> <Gold.PLP.Chemscore.Metal>
0.0000

> <Gold.Chemscore.Hbonds>
donor molecule, donor type, donor heavy atom, donor atom, acceptor molecule, acceptor atom, score
      L1  H     7    28       P1  8028  1.00
      P1  H  7989  7998       L1    10  0.85

> <Gold.PLP.Chemscore.Internal.Correction>
0.2185

> <Gold.Rescore>
     Score         DG    S(hbond)    S(metal)    S(lipo)     H(rot)  DE(clash)    DE(int)     intcor
      7.11     -12.82       1.85        0.00      74.64       2.96       1.46       4.24       ----

> <Gold.Chemscore.Fitness>
7.1141

> <Gold.Chemscore.DG>
-12.8150

> <Gold.Chemscore.ZeroCoef>
-5.4800

> <Gold.Chemscore.Hbond>
1.8475

> <Gold.Chemscore.Metal>
0.0000

> <Gold.Chemscore.Lipo>
74.6391

> <Gold.Chemscore.Internal_Hbond>
0.0000

> <Gold.Chemscore.DEClash>
1.4641

> <Gold.Chemscore.DEInternal>
4.2369

> <Gold.Chemscore.Rot>
2.9564

> <Gold.Chemscore.Internal.Correction>
   9.000000E+99

> <Gold.Chemscore.Hbonds>
donor molecule, donor type, donor heavy atom, donor atom, acceptor molecule, acceptor atom, score
      L1  H     7    28       P1  8028  0.98
      P1  H  7989  7998       L1    10  0.75

> <Gold.Chemscore.Hbond.Weighted>
-6.1708

> <Gold.Chemscore.Metal.Weighted>
-0.0000

> <Gold.Chemscore.Lipo.Weighted>
-8.7328

> <Gold.Chemscore.Internal_Hbond.Weighted>
0.0000

> <Gold.Chemscore.DEClash.Weighted>
1.4641

> <Gold.Chemscore.DEInternal.Weighted>
4.2369

> <Gold.Chemscore.Rot.Weighted>
7.5685

> <Gold.Chemscore.Internal.Correction.Weighted>
   9.000000E+99

> <Gold.Protein.RotatedTorsions>
[ 6907 6896 6895 6894 ] final  -19.38 input  -60.11 | X-H torsion
[ 7974 7965 7964 7962 ] final -126.69 input  175.53 | X-H torsion
[ 8008 7997 7996 7995 ] final   10.30 input   59.86 | X-H torsion
[ 10167 10162 10161 10158 ] final  173.88 input  -65.29 | X-H torsion
[ 10718 10713 10712 10709 ] final  179.58 input   66.30 | X-H torsion
[ 10763 10752 10751 10750 ] final  -75.21 input  -60.55 | X-H torsion
[ 11005 11000 10999 10996 ] final -104.93 input  -57.11 | X-H torsion

> <Gold.Protein.ActiveResidues>
 VAL166  LYS551  ARG553  GLY616  TRP617  ASP618  TYR619  PRO620  LYS621  CYS622 
 ASP623  PHE694  ASN695  SER759  ASP760  ASP761  ALA762  ILE779  LEU786  VAL792 
 PHE793  MET794  SER795  GLU796  ALA797  LYS798  CYS799  TRP800  GLU811  SER814 

> <Gold.Protein.RotatedAtoms>
  151.2640  135.0663  159.9108 H   0  0  0  0  0  0  0  0  0  0  0  0  # atno 6907 bound_to 6896
  152.5361  134.0200  159.7988 H   0  0  0  0  0  0  0  0  0  0  0  0  # atno 6908 bound_to 6896
  151.0428  133.5641  159.2680 H   0  0  0  0  0  0  0  0  0  0  0  0  # atno 6909 bound_to 6896
  144.9846  140.7674  143.4591 H   0  0  0  0  0  0  0  0  0  0  0  0  # atno 7974 bound_to 7965
  154.7915  140.2836  155.5988 H   0  0  0  0  0  0  0  0  0  0  0  0  # atno 8008 bound_to 7997
  156.2965  140.2604  156.2692 H   0  0  0  0  0  0  0  0  0  0  0  0  # atno 8009 bound_to 7997
  154.9665  140.0377  157.2204 H   0  0  0  0  0  0  0  0  0  0  0  0  # atno 8010 bound_to 7997
  139.5123  144.3210  152.0202 H   0  0  0  0  0  0  0  0  0  0  0  0  # atno 10167 bound_to 10162
  156.8737  130.9792  151.3070 H   0  0  0  0  0  0  0  0  0  0  0  0  # atno 10718 bound_to 10713
  154.4835  135.5838  153.6407 H   0  0  0  0  0  0  0  0  0  0  0  0  # atno 10763 bound_to 10752
  152.9851  135.6095  154.3216 H   0  0  0  0  0  0  0  0  0  0  0  0  # atno 10764 bound_to 10752
  154.3109  135.2845  155.2546 H   0  0  0  0  0  0  0  0  0  0  0  0  # atno 10765 bound_to 10752
  141.1077  133.8765  157.1672 H   0  0  0  0  0  0  0  0  0  0  0  0  # atno 11005 bound_to 11000
  145.2371  139.2089  143.5012 LP  0  0  0  0  0  0  0  0  0  0  0  0  # atno 17320 bound_to 7965
  146.3417  140.2260  142.8592 LP  0  0  0  0  0  0  0  0  0  0  0  0  # atno 17321 bound_to 7965
  140.2652  144.4024  150.6171 LP  0  0  0  0  0  0  0  0  0  0  0  0  # atno 17342 bound_to 10162
  140.6128  143.2170  151.6851 LP  0  0  0  0  0  0  0  0  0  0  0  0  # atno 17343 bound_to 10162
  157.6181  130.8634  149.9062 LP  0  0  0  0  0  0  0  0  0  0  0  0  # atno 17370 bound_to 10713
  156.0713  130.3685  150.0770 LP  0  0  0  0  0  0  0  0  0  0  0  0  # atno 17371 bound_to 10713
  139.9956  135.0048  157.0074 LP  0  0  0  0  0  0  0  0  0  0  0  0  # atno 17394 bound_to 11000
  140.4857  134.1244  155.7224 LP  0  0  0  0  0  0  0  0  0  0  0  0  # atno 17395 bound_to 11000

$$$$
