AV-unprocessed.smi:2270|AV-procd|sdf|9158|dock6
  -GOLD-   2272012363D 1   1.00000     0.00000
 Structure written by MMmdl.
 52 53  0  0  0  0  0  0  0  0  1 V2000
  142.0801  135.1286  153.4493 C   0  0  0  0  0  0  0  0  0  0  0  0
  143.3338  134.9718  152.6149 C   0  0  0  0  0  0  0  0  0  0  0  0
  143.4867  133.8796  151.7387 C   0  0  0  0  0  0  0  0  0  0  0  0
  144.6763  133.7881  150.9945 C   0  0  0  0  0  0  0  0  0  0  0  0
  145.6573  134.7853  151.1566 C   0  0  0  0  0  0  0  0  0  0  0  0
  145.4255  135.8491  152.0575 C   0  0  0  0  0  0  0  0  0  0  0  0
  146.4741  136.8027  152.1461 N   0  0  0  0  0  0  0  0  0  0  0  0
  146.4733  137.9819  152.7923 C   0  0  0  0  0  0  0  0  0  0  0  0
  145.5335  138.4379  153.4443 O   0  0  0  0  0  0  0  0  0  0  0  0
  147.6415  138.6205  152.6357 N   0  0  0  0  0  0  0  0  0  0  0  0
  147.9593  139.9333  153.1891 C   0  0  0  0  0  0  0  0  0  0  0  0
  148.0554  139.9298  154.7417 C   0  0  2  0  0  0  0  0  0  0  0  0
  147.4866  141.2205  155.4128 C   0  0  0  0  0  0  0  0  0  0  0  0
  147.3258  141.1931  156.9459 C   0  0  0  0  0  0  0  0  0  0  0  0
  146.2009  141.7169  154.7295 C   0  0  0  0  0  0  0  0  0  0  0  0
  149.3512  139.4696  155.2783 N   0  0  0  0  0  0  0  0  0  0  0  0
  149.8095  138.2165  154.6701 C   0  0  0  0  0  0  0  0  0  0  0  0
  151.0795  137.6876  155.3611 C   0  0  0  0  0  0  0  0  0  0  0  0
  152.1655  138.6633  155.2964 N   0  0  0  0  0  0  0  0  0  0  0  0
  153.3720  138.1642  155.9375 C   0  0  0  0  0  0  0  0  0  0  0  0
  151.7145  139.9151  155.9004 C   0  0  0  0  0  0  0  0  0  0  0  0
  150.4426  140.4475  155.2140 C   0  0  0  0  0  0  0  0  0  0  0  0
  144.2749  135.9276  152.7712 N   0  0  0  0  0  0  0  0  0  0  0  0
  141.2567  134.5494  153.0306 H   0  0  0  0  0  0  0  0  0  0  0  0
  141.7710  136.1737  153.4909 H   0  0  0  0  0  0  0  0  0  0  0  0
  142.2603  134.7822  154.4669 H   0  0  0  0  0  0  0  0  0  0  0  0
  142.7152  133.1303  151.6385 H   0  0  0  0  0  0  0  0  0  0  0  0
  144.8348  132.9672  150.3109 H   0  0  0  0  0  0  0  0  0  0  0  0
  146.5768  134.7301  150.5921 H   0  0  0  0  0  0  0  0  0  0  0  0
  147.3210  136.5624  151.6529 H   0  0  0  0  0  0  0  0  0  0  0  0
  148.3601  138.1735  152.0855 H   0  0  0  0  0  0  0  0  0  0  0  0
  148.8887  140.2815  152.7381 H   0  0  0  0  0  0  0  0  0  0  0  0
  147.1886  140.6254  152.8515 H   0  0  0  0  0  0  0  0  0  0  0  0
  147.3398  139.1691  155.0573 H   0  0  0  0  0  0  0  0  0  0  0  0
  148.2258  141.9993  155.2224 H   0  0  0  0  0  0  0  0  0  0  0  0
  146.4774  140.5942  157.2683 H   0  0  0  0  0  0  0  0  0  0  0  0
  147.1484  142.2010  157.3219 H   0  0  0  0  0  0  0  0  0  0  0  0
  148.2173  140.8238  157.4501 H   0  0  0  0  0  0  0  0  0  0  0  0
  145.3667  141.0369  154.9040 H   0  0  0  0  0  0  0  0  0  0  0  0
  146.3385  141.8069  153.6515 H   0  0  0  0  0  0  0  0  0  0  0  0
  145.9096  142.6975  155.1064 H   0  0  0  0  0  0  0  0  0  0  0  0
  149.0266  137.4608  154.7408 H   0  0  0  0  0  0  0  0  0  0  0  0
  150.0141  138.3575  153.6087 H   0  0  0  0  0  0  0  0  0  0  0  0
  150.8563  137.4436  156.4010 H   0  0  0  0  0  0  0  0  0  0  0  0
  151.3901  136.7586  154.8820 H   0  0  0  0  0  0  0  0  0  0  0  0
  154.1794  138.8933  155.8613 H   0  0  0  0  0  0  0  0  0  0  0  0
  153.7100  137.2441  155.4601 H   0  0  0  0  0  0  0  0  0  0  0  0
  153.2000  137.9558  156.9943 H   0  0  0  0  0  0  0  0  0  0  0  0
  151.5214  139.7695  156.9645 H   0  0  0  0  0  0  0  0  0  0  0  0
  152.5033  140.6644  155.8266 H   0  0  0  0  0  0  0  0  0  0  0  0
  150.6722  140.6930  154.1767 H   0  0  0  0  0  0  0  0  0  0  0  0
  150.1590  141.3747  155.7006 H   0  0  0  0  0  0  0  0  0  0  0  0
  1  2  1  0  0  0  0
  1 24  1  0  0  0  0
  1 25  1  0  0  0  0
  1 26  1  0  0  0  0
  2 23  1  0  0  0  0
  2  3  2  0  0  0  0
  3  4  1  0  0  0  0
  3 27  1  0  0  0  0
  4  5  2  0  0  0  0
  4 28  1  0  0  0  0
  5  6  1  0  0  0  0
  5 29  1  0  0  0  0
  6  7  1  0  0  0  0
  6 23  2  0  0  0  0
  7  8  1  0  0  0  0
  7 30  1  0  0  0  0
  8  9  2  0  0  0  0
  8 10  1  0  0  0  0
 10 11  1  0  0  0  0
 10 31  1  0  0  0  0
 11 12  1  0  0  0  0
 11 32  1  0  0  0  0
 11 33  1  0  0  0  0
 12 13  1  0  0  0  0
 12 16  1  0  0  0  0
 12 34  1  0  0  0  0
 13 14  1  0  0  0  0
 13 15  1  0  0  0  0
 13 35  1  0  0  0  0
 14 36  1  0  0  0  0
 14 37  1  0  0  0  0
 14 38  1  0  0  0  0
 15 39  1  0  0  0  0
 15 40  1  0  0  0  0
 15 41  1  0  0  0  0
 16 22  1  0  0  0  0
 16 17  1  0  0  0  0
 17 18  1  0  0  0  0
 17 42  1  0  0  0  0
 17 43  1  0  0  0  0
 18 19  1  0  0  0  0
 18 44  1  0  0  0  0
 18 45  1  0  0  0  0
 19 20  1  0  0  0  0
 19 21  1  0  0  0  0
 20 46  1  0  0  0  0
 20 47  1  0  0  0  0
 20 48  1  0  0  0  0
 21 22  1  0  0  0  0
 21 49  1  0  0  0  0
 21 50  1  0  0  0  0
 22 51  1  0  0  0  0
 22 52  1  0  0  0  0
M  END
> <s_m_source_file>
AV-unprocessed.smi

> <i_m_source_file_index>
2270

> <i_lp_mmshare_version>
43012

> <i_f3d_flags>
0

> <s_epik_input>
W0NIM11jMVtjSF1bY0hdW2NIXWMobjEpW05IXUMoPU8pW05IXVtDSDJdW0NASF0oW0NIXShbQ0gzXSlbQ0gzXSlOMltDSDJdW0NIMl1OKFtDSDNdKVtDSDJdW0NIMl0y

> <s_epik_cmdline>
J2VwaWtfcHl0aG9uJywgJy1waCcsICc3LjAnLCAnLXRuJywgJzgnLCAnLW1hJywgJzIwMCcsICctbWV0YWxfYmluZGluZycsICctaW1hZScsICc8aW5maWxlLm1hZT4nLCAnLW9tYWUnLCAnPG91dGZpbGUubWFlPic=

> <r_epik_Ionization_Penalty>
2.57754

> <r_epik_Ionization_Penalty_Charging>
0

> <r_epik_Ionization_Penalty_Neutral>
2.57754

> <r_epik_State_Penalty>
2.00874

> <r_epik_Charging_Adjusted_Penalty>
2.00874

> <i_epik_Tot_Q>
0

> <i_epik_Tot_abs_Q>
0

> <r_epik_Metal_State_Penalty>
2.00874

> <b_epik_Metal_Only>
0

> <s_lp_Force_Field>
OPLS_2005

> <r_lp_Energy>
48.2009

> <b_lp_Chiralities_Consistent>
1

> <s_lp_Variant>
AV-unprocessed.smi:2270-5

> <Gold.Version>
5.8.1

> <Gold.Id.Protein>
6NUR|6NUR_protein|mol2

> <Gold.PLP.Fitness>
36.0904

> <Gold.PLP.PLP>
-32.3565

> <Gold.PLP.part.hbond>
-3.0000

> <Gold.PLP.part.metal>
0.0000

> <Gold.PLP.part.buried>
-0.2419

> <Gold.PLP.part.nonpolar>
-31.5253

> <Gold.PLP.part.repulsive>
1.8076

> <Gold.PLP.ligand.clash>
0.0000

> <Gold.PLP.ligand.torsion>
0.6592

> <Gold.PLP.Chemscore.Hbond>
1.5360

> <Gold.PLP.Chemscore.CHOScore>
0.0000

> <Gold.PLP.Chemscore.Metal>
0.0000

> <Gold.Chemscore.Hbonds>
donor molecule, donor type, donor heavy atom, donor atom, acceptor molecule, acceptor atom, score
      L1  H     7    30       P1  7948  0.91
      L1  H    10    31       P1  7948  0.70

> <Gold.PLP.Chemscore.Internal.Correction>
0.4443

> <Gold.Rescore>
     Score         DG    S(hbond)    S(metal)    S(lipo)     H(rot)  DE(clash)    DE(int)     intcor
     10.03     -13.18       1.00        0.00      71.53       1.56       0.30       2.85       ----

> <Gold.Chemscore.Fitness>
10.0294

> <Gold.Chemscore.DG>
-13.1800

> <Gold.Chemscore.ZeroCoef>
-5.4800

> <Gold.Chemscore.Hbond>
0.9963

> <Gold.Chemscore.Metal>
0.0000

> <Gold.Chemscore.Lipo>
71.5283

> <Gold.Chemscore.Internal_Hbond>
0.0000

> <Gold.Chemscore.DEClash>
0.3028

> <Gold.Chemscore.DEInternal>
2.8478

> <Gold.Chemscore.Rot>
1.5612

> <Gold.Chemscore.Internal.Correction>
   9.000000E+99

> <Gold.Chemscore.Hbonds>
donor molecule, donor type, donor heavy atom, donor atom, acceptor molecule, acceptor atom, score
      L1  H     7    30       P1  7948  0.88
      L1  H    10    31       P1  7948  0.67

> <Gold.Chemscore.Hbond.Weighted>
-3.3277

> <Gold.Chemscore.Metal.Weighted>
-0.0000

> <Gold.Chemscore.Lipo.Weighted>
-8.3688

> <Gold.Chemscore.Internal_Hbond.Weighted>
0.0000

> <Gold.Chemscore.DEClash.Weighted>
0.3028

> <Gold.Chemscore.DEInternal.Weighted>
2.8478

> <Gold.Chemscore.Rot.Weighted>
3.9966

> <Gold.Chemscore.Internal.Correction.Weighted>
   9.000000E+99

> <Gold.Protein.RotatedTorsions>
[ 6907 6896 6895 6894 ] final -116.29 input  -60.11 | X-H torsion
[ 7974 7965 7964 7962 ] final  -19.91 input  175.53 | X-H torsion
[ 8008 7997 7996 7995 ] final   73.59 input   59.86 | X-H torsion
[ 10167 10162 10161 10158 ] final -176.36 input  -65.29 | X-H torsion
[ 10718 10713 10712 10709 ] final  179.99 input   66.30 | X-H torsion
[ 10763 10752 10751 10750 ] final   59.12 input  -60.55 | X-H torsion
[ 11005 11000 10999 10996 ] final   -7.59 input  -57.11 | X-H torsion

> <Gold.Protein.ActiveResidues>
 VAL166  LYS551  ARG553  GLY616  TRP617  ASP618  TYR619  PRO620  LYS621  CYS622 
 ASP623  PHE694  ASN695  SER759  ASP760  ASP761  ALA762  ILE779  LEU786  VAL792 
 PHE793  MET794  SER795  GLU796  ALA797  LYS798  CYS799  TRP800  GLU811  SER814 

> <Gold.Protein.RotatedAtoms>
  150.8044  133.8537  159.3212 H   0  0  0  0  0  0  0  0  0  0  0  0  # atno 6907 bound_to 6896
  151.6340  135.1018  160.0137 H   0  0  0  0  0  0  0  0  0  0  0  0  # atno 6908 bound_to 6896
  152.4134  133.6959  159.6452 H   0  0  0  0  0  0  0  0  0  0  0  0  # atno 6909 bound_to 6896
  146.1816  140.4127  142.8492 H   0  0  0  0  0  0  0  0  0  0  0  0  # atno 7974 bound_to 7965
  155.7859  140.3480  155.5323 H   0  0  0  0  0  0  0  0  0  0  0  0  # atno 8008 bound_to 7997
  155.8682  140.0982  157.1589 H   0  0  0  0  0  0  0  0  0  0  0  0  # atno 8009 bound_to 7997
  154.4016  140.1345  156.4032 H   0  0  0  0  0  0  0  0  0  0  0  0  # atno 8010 bound_to 7997
  139.5533  144.2052  152.1116 H   0  0  0  0  0  0  0  0  0  0  0  0  # atno 10167 bound_to 10162
  156.8676  130.9773  151.3077 H   0  0  0  0  0  0  0  0  0  0  0  0  # atno 10718 bound_to 10713
  152.9887  135.5582  154.5662 H   0  0  0  0  0  0  0  0  0  0  0  0  # atno 10763 bound_to 10752
  154.5072  135.2800  155.1375 H   0  0  0  0  0  0  0  0  0  0  0  0  # atno 10764 bound_to 10752
  154.2781  135.6350  153.5389 H   0  0  0  0  0  0  0  0  0  0  0  0  # atno 10765 bound_to 10752
  140.7144  133.8881  155.8774 H   0  0  0  0  0  0  0  0  0  0  0  0  # atno 11005 bound_to 11000
  144.8326  140.6731  143.6281 LP  0  0  0  0  0  0  0  0  0  0  0  0  # atno 17320 bound_to 7965
  145.4058  139.1589  143.4152 LP  0  0  0  0  0  0  0  0  0  0  0  0  # atno 17321 bound_to 7965
  140.1552  144.5078  150.6664 LP  0  0  0  0  0  0  0  0  0  0  0  0  # atno 17342 bound_to 10162
  140.6801  143.2323  151.5406 LP  0  0  0  0  0  0  0  0  0  0  0  0  # atno 17343 bound_to 10162
  157.6214  130.8658  149.9115 LP  0  0  0  0  0  0  0  0  0  0  0  0  # atno 17370 bound_to 10713
  156.0743  130.3681  150.0710 LP  0  0  0  0  0  0  0  0  0  0  0  0  # atno 17371 bound_to 10713
  141.0057  134.1089  157.4272 LP  0  0  0  0  0  0  0  0  0  0  0  0  # atno 17394 bound_to 11000
  139.8863  135.0080  156.6493 LP  0  0  0  0  0  0  0  0  0  0  0  0  # atno 17395 bound_to 11000

$$$$
