#       Name:                AV-unprocessed.smi:3057
#       Creating user name   scv26
#       Creation time:       Fri Mar 27 17:06:45 2020


#       File generated by GOLD software.
#

@<TRIPOS>MOLECULE
AV-unprocessed.smi:3057
    45    47     1
SMALL
NO_CHARGES


@<TRIPOS>ATOM
      1 ****        -5.1718   0.7094   0.3769 C.3            1 S1                 0.0000
      2 ****        -3.8684   1.4966   0.6255 C.3            1 S1                 0.0000
      3 ****        -3.9938   2.9502   0.1418 C.3            1 S1                 0.0000
      4 ****        -3.4913   2.9030  -1.3096 C.3            1 S1                 0.0000
      5 ****        -2.5963   1.6720  -1.3085 C.2            1 S1                 0.0000
      6 ****        -1.7889   1.4252  -2.2031 O.2            1 S1                 0.0000
      7 ****        -2.7830   0.9689  -0.1801 N.am           1 S1                 0.0000
      8 ****        -1.9346  -0.0605   0.4402 C.3            1 S1                 0.0000
      9 ****        -0.4336   0.2860   0.4317 C.2            1 S1                 0.0000
     10 ****        -0.0508   1.4121   0.7518 O.2            1 S1                 0.0000
     11 ****         0.4048  -0.7024   0.0890 N.am           1 S1                 0.0000
     12 ****         1.8539  -0.5694   0.0375 C.3            1 S1                 0.0000
     13 ****         2.5037  -1.8924  -0.3911 C.3            1 S1                 0.0000
     14 ****         4.0171  -1.8000  -0.4412 C.ar           1 S1                 0.0000
     15 ****         4.8038  -2.2837   0.6262 C.ar           1 S1                 0.0000
     16 ****         6.2044  -2.1669   0.5337 C.ar           1 S1                 0.0000
     17 ****         6.7612  -1.5729  -0.6153 C.ar           1 S1                 0.0000
     18 ****         5.8889  -1.1199  -1.6252 C.ar           1 S1                 0.0000
     19 ****         4.5448  -1.2271  -1.5465 N.ar           1 S1                 0.0000
     20 ****        -2.4674  -0.2641   1.8755 C.3            1 S1                 0.0000
     21 ****        -3.2898   1.2895   2.3222 S.3            1 S1                 0.0000
     22 ****        -5.4938   0.7851  -0.6621 H              1 S1                 0.0000
     23 ****        -5.9813   1.0922   0.9988 H              1 S1                 0.0000
     24 ****        -5.0582  -0.3504   0.6037 H              1 S1                 0.0000
     25 ****        -5.0115   3.3346   0.2189 H              1 S1                 0.0000
     26 ****        -3.3494   3.6068   0.7286 H              1 S1                 0.0000
     27 ****        -4.3113   2.7534  -2.0126 H              1 S1                 0.0000
     28 ****        -2.9448   3.8043  -1.5884 H              1 S1                 0.0000
     29 ****        -2.0747  -0.9854  -0.1219 H              1 S1                 0.0000
     30 ****         0.0142  -1.6007  -0.1561 H              1 S1                 0.0000
     31 ****         2.1194   0.2251  -0.6622 H              1 S1                 0.0000
     32 ****         2.2242  -0.2729   1.0203 H              1 S1                 0.0000
     33 ****         2.2170  -2.6895   0.2967 H              1 S1                 0.0000
     34 ****         2.1348  -2.1889  -1.3743 H              1 S1                 0.0000
     35 ****         4.3470  -2.7314   1.4966 H              1 S1                 0.0000
     36 ****         6.8394  -2.5253   1.3304 H              1 S1                 0.0000
     37 ****         7.8308  -1.4663  -0.7201 H              1 S1                 0.0000
     38 ****         6.2811  -0.6587  -2.5195 H              1 S1                 0.0000
     39 ****        -3.2041  -1.0675   1.8950 H              1 S1                 0.0000
     40 ****        -1.6906  -0.5168   2.5984 H              1 S1                 0.0000
     41 ****        -1.6973   2.0483  -2.9799 LP             1 S1                 0.0000
     42 ****        -1.2242   0.6014  -2.1537 LP             1 S1                 0.0000
     43 ****        -0.7161   2.1090   1.0196 LP             1 S1                 0.0000
     44 ****         0.9252   1.6294   0.7438 LP             1 S1                 0.0000
     45 ****         3.9575  -0.8928  -2.2836 LP             1 S1                 0.0000
@<TRIPOS>BOND
    1    1    2 1     
    2    1   22 1     
    3    1   23 1     
    4    1   24 1     
    5    2    7 1     
    6    2   21 1     
    7    2    3 1     
    8    3    4 1     
    9    3   25 1     
   10    3   26 1     
   11    4    5 1     
   12    4   27 1     
   13    4   28 1     
   14    5    6 2     
   15    5    7 am    
   16    7    8 1     
   17    8    9 1     
   18    8   20 1     
   19    8   29 1     
   20    9   10 2     
   21    9   11 am    
   22   11   12 1     
   23   11   30 1     
   24   12   13 1     
   25   12   31 1     
   26   12   32 1     
   27   13   14 1     
   28   13   33 1     
   29   13   34 1     
   30   14   19 ar    
   31   14   15 ar    
   32   15   16 ar    
   33   15   35 1     
   34   16   17 ar    
   35   16   36 1     
   36   17   18 ar    
   37   17   37 1     
   38   18   19 ar    
   39   18   38 1     
   40   20   21 1     
   41   20   39 1     
   42   20   40 1     
   43    6   41 1     
   44    6   42 1     
   45   10   43 1     
   46   10   44 1     
   47   19   45 1     
@<TRIPOS>SUBSTRUCTURE
      1 S1             1
@<TRIPOS>SET
LONE_PAIRS      STATIC     ATOMS    <user>   **** ""
5 41 42 43 44 45
DONOR_HYDROGENS      STATIC     ATOMS    <user>   **** ""
1 30
ATOM$BLUE        STATIC     ATOMS    COLORGROUP SYSTEM
5 41 42 43 44 45
ATOM$RED        STATIC     ATOMS    COLORGROUP SYSTEM
1 30
