AV-unprocessed.smi:3303|AV-procd|sdf|12675|dock9
  -GOLD-   2272019 13D 1   1.00000     0.00000
 Structure written by MMmdl.
 44 45  0  0  0  0  0  0  0  0  2 V2000
  150.6459  137.6406  154.3753 C   0  0  0  0  0  0  0  0  0  0  0  0
  150.2346  139.1184  154.2627 C   0  0  2  0  0  0  0  0  0  0  0  0
  150.7252  139.8951  155.5021 C   0  0  0  0  0  0  0  0  0  0  0  0
  150.3427  141.3045  155.4174 N   0  0  0  0  0  0  0  0  0  0  0  0
  150.9722  142.0686  156.4872 C   0  0  0  0  0  0  0  0  0  0  0  0
  148.8870  141.5026  155.3562 C   0  0  2  0  0  0  0  0  0  0  0  0
  148.1275  141.1058  156.6430 C   0  0  0  0  0  0  0  0  0  0  0  0
  148.3465  140.7823  154.1043 C   0  0  0  0  0  0  0  0  0  0  0  0
  148.7107  139.2865  154.0785 C   0  0  1  0  0  0  0  0  0  0  0  0
  148.2697  138.6920  152.7968 N   0  3  0  0  0  0  0  0  0  0  0  0
  146.8093  138.5257  152.6597 C   0  0  0  0  0  0  0  0  0  0  0  0
  146.2979  137.3945  153.5618 C   0  0  0  0  0  0  0  0  0  0  0  0
  145.5619  136.3245  152.7781 C   0  0  0  0  0  0  0  0  0  0  0  0
  145.6012  136.3089  151.3675 C   0  0  0  0  0  0  0  0  0  0  0  0
  144.9069  135.2886  150.6888 C   0  0  0  0  0  0  0  0  0  0  0  0
  144.2041  134.3293  151.4430 C   0  0  0  0  0  0  0  0  0  0  0  0
  144.2287  134.4313  152.8482 C   0  0  0  0  0  0  0  0  0  0  0  0
  144.8932  135.4044  153.5091 N   0  0  0  0  0  0  0  0  0  0  0  0
  150.1610  137.1591  155.2251 H   0  0  0  0  0  0  0  0  0  0  0  0
  151.7234  137.5449  154.5118 H   0  0  0  0  0  0  0  0  0  0  0  0
  150.3822  137.0791  153.4789 H   0  0  0  0  0  0  0  0  0  0  0  0
  150.7353  139.5389  153.3887 H   0  0  0  0  0  0  0  0  0  0  0  0
  150.3418  139.4477  156.4193 H   0  0  0  0  0  0  0  0  0  0  0  0
  151.8127  139.8272  155.5558 H   0  0  0  0  0  0  0  0  0  0  0  0
  150.6916  143.1205  156.4268 H   0  0  0  0  0  0  0  0  0  0  0  0
  152.0579  142.0115  156.4023 H   0  0  0  0  0  0  0  0  0  0  0  0
  150.6955  141.6918  157.4720 H   0  0  0  0  0  0  0  0  0  0  0  0
  148.7201  142.5703  155.2069 H   0  0  0  0  0  0  0  0  0  0  0  0
  147.0576  141.2750  156.5200 H   0  0  0  0  0  0  0  0  0  0  0  0
  148.4393  141.7039  157.4987 H   0  0  0  0  0  0  0  0  0  0  0  0
  148.2576  140.0566  156.9053 H   0  0  0  0  0  0  0  0  0  0  0  0
  147.2644  140.9056  154.0427 H   0  0  0  0  0  0  0  0  0  0  0  0
  148.7555  141.2689  153.2171 H   0  0  0  0  0  0  0  0  0  0  0  0
  148.2023  138.7883  154.9055 H   0  0  0  0  0  0  0  0  0  0  0  0
  148.6024  139.2741  152.0413 H   0  0  0  0  0  0  0  0  0  0  0  0
  146.3150  139.4611  152.9258 H   0  0  0  0  0  0  0  0  0  0  0  0
  146.5694  138.3164  151.6162 H   0  0  0  0  0  0  0  0  0  0  0  0
  147.1316  136.9327  154.0935 H   0  0  0  0  0  0  0  0  0  0  0  0
  145.6329  137.7985  154.3266 H   0  0  0  0  0  0  0  0  0  0  0  0
  146.1495  137.0586  150.8158 H   0  0  0  0  0  0  0  0  0  0  0  0
  144.9140  135.2420  149.6097 H   0  0  0  0  0  0  0  0  0  0  0  0
  143.6595  133.5339  150.9558 H   0  0  0  0  0  0  0  0  0  0  0  0
  143.7020  133.7116  153.4576 H   0  0  0  0  0  0  0  0  0  0  0  0
  148.6992  137.7819  152.7117 H   0  0  0  0  0  0  0  0  0  0  0  0
  1  2  1  0  0  0  0
  1 19  1  0  0  0  0
  1 20  1  0  0  0  0
  1 21  1  0  0  0  0
  2  9  1  0  0  0  0
  2  3  1  0  0  0  0
  2 22  1  0  0  0  0
  3  4  1  0  0  0  0
  3 23  1  0  0  0  0
  3 24  1  0  0  0  0
  4  5  1  0  0  0  0
  4  6  1  0  0  0  0
  5 25  1  0  0  0  0
  5 26  1  0  0  0  0
  5 27  1  0  0  0  0
  6  7  1  0  0  0  0
  6  8  1  0  0  0  0
  6 28  1  0  0  0  0
  7 29  1  0  0  0  0
  7 30  1  0  0  0  0
  7 31  1  0  0  0  0
  8  9  1  0  0  0  0
  8 32  1  0  0  0  0
  8 33  1  0  0  0  0
  9 10  1  0  0  0  0
  9 34  1  0  0  0  0
 10 11  1  0  0  0  0
 10 35  1  0  0  0  0
 10 44  1  0  0  0  0
 11 12  1  0  0  0  0
 11 36  1  0  0  0  0
 11 37  1  0  0  0  0
 12 13  1  0  0  0  0
 12 38  1  0  0  0  0
 12 39  1  0  0  0  0
 13 18  1  0  0  0  0
 13 14  2  0  0  0  0
 14 15  1  0  0  0  0
 14 40  1  0  0  0  0
 15 16  2  0  0  0  0
 15 41  1  0  0  0  0
 16 17  1  0  0  0  0
 16 42  1  0  0  0  0
 17 18  2  0  0  0  0
 17 43  1  0  0  0  0
M  CHG  1  10   1
M  END
> <s_m_source_file>
AV-unprocessed.smi

> <i_m_source_file_index>
3303

> <i_lp_mmshare_version>
43012

> <i_f3d_flags>
0

> <s_epik_input>
W0NIM11bQ0BASF0xW0NIMl1OKFtDSDNdKVtDQEBIXShbQ0gzXSlbQ0gyXVtDQEhdMVtOSF1bQ0gyXVtDSDJdYzJbY0hdW2NIXVtjSF1bY0hdbjI=

> <s_epik_cmdline>
J2VwaWtfcHl0aG9uJywgJy1waCcsICc3LjAnLCAnLXRuJywgJzgnLCAnLW1hJywgJzIwMCcsICctbWV0YWxfYmluZGluZycsICctaW1hZScsICc8aW5maWxlLm1hZT4nLCAnLW9tYWUnLCAnPG91dGZpbGUubWFlPic=

> <r_epik_Ionization_Penalty>
1.37325

> <r_epik_Ionization_Penalty_Charging>
0.000251572

> <r_epik_Ionization_Penalty_Neutral>
1.373

> <r_epik_State_Penalty>
1.46343

> <r_epik_Charging_Adjusted_Penalty>
1.46368

> <i_epik_Tot_Q>
1

> <i_epik_Tot_abs_Q>
1

> <r_epik_Metal_State_Penalty>
1.46331

> <b_epik_Metal_Only>
0

> <s_lp_Force_Field>
OPLS_2005

> <r_lp_Energy>
23.1884

> <b_lp_Chiralities_Consistent>
1

> <s_lp_Variant>
AV-unprocessed.smi:3303-19

> <Gold.Version>
5.8.1

> <Gold.Id.Protein>
6NUR|6NUR_protein|mol2

> <Gold.PLP.Fitness>
44.4260

> <Gold.PLP.PLP>
-33.6246

> <Gold.PLP.part.hbond>
-2.8146

> <Gold.PLP.part.metal>
0.0000

> <Gold.PLP.part.buried>
-2.9594

> <Gold.PLP.part.nonpolar>
-28.9694

> <Gold.PLP.part.repulsive>
0.2188

> <Gold.PLP.ligand.clash>
0.0000

> <Gold.PLP.ligand.torsion>
0.5884

> <Gold.PLP.Chemscore.Hbond>
3.0000

> <Gold.PLP.Chemscore.CHOScore>
0.9905

> <Gold.PLP.Chemscore.Metal>
0.0000

> <Gold.Chemscore.Hbonds>
donor molecule, donor type, donor heavy atom, donor atom, acceptor molecule, acceptor atom, score
      L1  H    10    35       P1  7957  0.98
      L1  H    10    44       P1  7948  2.00
      L1  C    17    43       P1 10957  0.90

> <Gold.PLP.Chemscore.Internal.Correction>
0.0067

> <Gold.Rescore>
     Score         DG    S(hbond)    S(metal)    S(lipo)     H(rot)  DE(clash)    DE(int)     intcor
     18.27     -19.11       1.92        0.00      90.79       1.33       0.20       0.64       ----

> <Gold.Chemscore.Fitness>
18.2731

> <Gold.Chemscore.DG>
-19.1097

> <Gold.Chemscore.ZeroCoef>
-5.4800

> <Gold.Chemscore.Hbond>
1.9196

> <Gold.Chemscore.Metal>
0.0000

> <Gold.Chemscore.Lipo>
90.7906

> <Gold.Chemscore.Internal_Hbond>
0.0000

> <Gold.Chemscore.DEClash>
0.1990

> <Gold.Chemscore.DEInternal>
0.6376

> <Gold.Chemscore.Rot>
1.3298

> <Gold.Chemscore.Internal.Correction>
   9.000000E+99

> <Gold.Chemscore.Hbonds>
donor molecule, donor type, donor heavy atom, donor atom, acceptor molecule, acceptor atom, score
      L1  H    10    35       P1  7957  0.92
      L1  H    10    44       P1  7948  0.96

> <Gold.Chemscore.Hbond.Weighted>
-6.4115

> <Gold.Chemscore.Metal.Weighted>
-0.0000

> <Gold.Chemscore.Lipo.Weighted>
-10.6225

> <Gold.Chemscore.Internal_Hbond.Weighted>
0.0000

> <Gold.Chemscore.DEClash.Weighted>
0.1990

> <Gold.Chemscore.DEInternal.Weighted>
0.6376

> <Gold.Chemscore.Rot.Weighted>
3.4043

> <Gold.Chemscore.Internal.Correction.Weighted>
   9.000000E+99

> <Gold.Protein.RotatedTorsions>
[ 6907 6896 6895 6894 ] final -140.01 input  -60.11 | X-H torsion
[ 7974 7965 7964 7962 ] final  -27.66 input  175.53 | X-H torsion
[ 8008 7997 7996 7995 ] final   98.52 input   59.86 | X-H torsion
[ 10167 10162 10161 10158 ] final   50.36 input  -65.29 | X-H torsion
[ 10718 10713 10712 10709 ] final   79.06 input   66.30 | X-H torsion
[ 10763 10752 10751 10750 ] final   44.53 input  -60.55 | X-H torsion
[ 11005 11000 10999 10996 ] final    2.25 input  -57.11 | X-H torsion

> <Gold.Protein.ActiveResidues>
 VAL166  LYS551  ARG553  GLY616  TRP617  ASP618  TYR619  PRO620  LYS621  CYS622 
 ASP623  PHE694  ASN695  SER759  ASP760  ASP761  ALA762  ILE779  LEU786  VAL792 
 PHE793  MET794  SER795  GLU796  ALA797  LYS798  CYS799  TRP800  GLU811  SER814 

> <Gold.Protein.RotatedAtoms>
  151.0551  133.5591  159.2638 H   0  0  0  0  0  0  0  0  0  0  0  0  # atno 6907 bound_to 6896
  151.2587  135.0646  159.9100 H   0  0  0  0  0  0  0  0  0  0  0  0  # atno 6908 bound_to 6896
  152.5388  134.0300  159.8074 H   0  0  0  0  0  0  0  0  0  0  0  0  # atno 6909 bound_to 6896
  146.1342  140.5182  142.8680 H   0  0  0  0  0  0  0  0  0  0  0  0  # atno 7974 bound_to 7965
  156.1012  140.3242  155.7945 H   0  0  0  0  0  0  0  0  0  0  0  0  # atno 8008 bound_to 7997
  155.4832  140.0555  157.2981 H   0  0  0  0  0  0  0  0  0  0  0  0  # atno 8009 bound_to 7997
  154.4698  140.2006  156.0038 H   0  0  0  0  0  0  0  0  0  0  0  0  # atno 8010 bound_to 7997
  140.2732  144.3241  150.6284 H   0  0  0  0  0  0  0  0  0  0  0  0  # atno 10167 bound_to 10162
  157.6765  130.9897  150.1877 H   0  0  0  0  0  0  0  0  0  0  0  0  # atno 10718 bound_to 10713
  152.9839  135.6068  154.3289 H   0  0  0  0  0  0  0  0  0  0  0  0  # atno 10763 bound_to 10752
  154.2994  135.2773  155.2620 H   0  0  0  0  0  0  0  0  0  0  0  0  # atno 10764 bound_to 10752
  154.4879  135.5900  153.6494 H   0  0  0  0  0  0  0  0  0  0  0  0  # atno 10765 bound_to 10752
  140.6063  133.9789  155.8156 H   0  0  0  0  0  0  0  0  0  0  0  0  # atno 11005 bound_to 11000
  144.7722  140.5662  143.6662 LP  0  0  0  0  0  0  0  0  0  0  0  0  # atno 17320 bound_to 7965
  145.5193  139.1477  143.3561 LP  0  0  0  0  0  0  0  0  0  0  0  0  # atno 17321 bound_to 7965
  140.5872  143.2169  151.7320 LP  0  0  0  0  0  0  0  0  0  0  0  0  # atno 17342 bound_to 10162
  139.4983  144.3993  152.0198 LP  0  0  0  0  0  0  0  0  0  0  0  0  # atno 17343 bound_to 10162
  156.2595  130.3709  149.8145 LP  0  0  0  0  0  0  0  0  0  0  0  0  # atno 17370 bound_to 10713
  156.5894  130.8500  151.3404 LP  0  0  0  0  0  0  0  0  0  0  0  0  # atno 17371 bound_to 10713
  141.0838  134.0022  157.3345 LP  0  0  0  0  0  0  0  0  0  0  0  0  # atno 17394 bound_to 11000
  139.9211  135.0200  156.8066 LP  0  0  0  0  0  0  0  0  0  0  0  0  # atno 17395 bound_to 11000

$$$$
