#       Name:                AV-unprocessed.smi:35
#       Creating user name   scv26
#       Creation time:       Thu Mar 26 16:01:47 2020


#       File generated by GOLD software.
#

@<TRIPOS>MOLECULE
AV-unprocessed.smi:35
    41    42     1
SMALL
NO_CHARGES


@<TRIPOS>ATOM
      1 ****        -4.1161   2.7741  -1.8410 O.2            1 S1                 0.0000
      2 ****        -3.1642   2.2464  -1.2699 C.2            1 S1                 0.0000
      3 ****        -3.1617   2.1133   0.1214 N.am           1 S1                 0.0000
      4 ****        -2.1420   1.5328   0.8779 C.2            1 S1                 0.0000
      5 ****        -2.2484   1.4568   2.1013 O.2            1 S1                 0.0000
      6 ****        -1.0166   1.0403   0.1800 N.am           1 S1                 0.0000
      7 ****         0.1058   0.4063   0.9820 C.3            1 S1                 0.0000
      8 ****         1.2785   0.3872   0.2211 O.3            1 S1                 0.0000
      9 ****         1.5711  -0.9426  -0.1974 C.3            1 S1                 0.0000
     10 ****         3.0609  -1.1030  -0.5457 C.3            1 S1                 0.0000
     11 ****         3.2982  -0.6604  -1.8649 O.3            1 S1                 0.0000
     12 ****         1.0697  -1.7880   0.9793 C.3            1 S1                 0.0000
     13 ****         2.0121  -1.8055   2.0365 O.3            1 S1                 0.0000
     14 ****        -0.1946  -1.0535   1.4047 C.3            1 S1                 0.0000
     15 ****        -1.3153  -1.6227   0.7492 O.3            1 S1                 0.0000
     16 ****        -0.9751   1.1504  -1.2050 C.2            1 S1                 0.0000
     17 ****        -1.9736   1.7149  -1.9243 C.2            1 S1                 0.0000
     18 ****        -1.7240   1.7755  -3.8885 Br             1 S1                 0.0000
     19 ****        -3.9657   2.4650   0.6206 H              1 S1                 0.0000
     20 ****         0.2801   1.0738   1.8281 H              1 S1                 0.0000
     21 ****         0.9587  -1.1868  -1.0673 H              1 S1                 0.0000
     22 ****         3.6953  -0.5591   0.1550 H              1 S1                 0.0000
     23 ****         3.3470  -2.1541  -0.4986 H              1 S1                 0.0000
     24 ****         4.2179  -0.7645  -2.0564 H              1 S1                 0.0000
     25 ****         0.8770  -2.8208   0.6852 H              1 S1                 0.0000
     26 ****         2.7869  -2.2591   1.7416 H              1 S1                 0.0000
     27 ****        -0.3651  -1.1000   2.4812 H              1 S1                 0.0000
     28 ****        -2.0738  -1.0942   0.9461 H              1 S1                 0.0000
     29 ****        -0.1227   0.7787  -1.7521 H              1 S1                 0.0000
     30 ****        -4.1133   2.8661  -2.8368 LP             1 S1                 0.0000
     31 ****        -4.8934   3.1113  -1.3099 LP             1 S1                 0.0000
     32 ****        -3.0661   1.8111   2.5550 LP             1 S1                 0.0000
     33 ****        -1.5172   1.0407   2.6419 LP             1 S1                 0.0000
     34 ****         2.0365   0.7340   0.7735 LP             1 S1                 0.0000
     35 ****         1.1595   0.9683  -0.5840 LP             1 S1                 0.0000
     36 ****         3.0435   0.3030  -1.9481 LP             1 S1                 0.0000
     37 ****         2.7568  -1.2049  -2.5056 LP             1 S1                 0.0000
     38 ****         1.6237  -2.2803   2.8263 LP             1 S1                 0.0000
     39 ****         2.2476  -0.8683   2.2936 LP             1 S1                 0.0000
     40 ****        -1.4598  -2.5568   1.0758 LP             1 S1                 0.0000
     41 ****        -1.1590  -1.6354  -0.2384 LP             1 S1                 0.0000
@<TRIPOS>BOND
    1    1    2 2     
    2    2   17 1     
    3    2    3 1     
    4    3   19 1     
    5    3    4 1     
    6    4    5 2     
    7    4    6 1     
    8    6    7 1     
    9    6   16 1     
   10    7   14 1     
   11    7    8 1     
   12    7   20 1     
   13    8    9 1     
   14    9   10 1     
   15    9   12 1     
   16    9   21 1     
   17   10   11 1     
   18   10   22 1     
   19   10   23 1     
   20   11   24 1     
   21   12   13 1     
   22   12   14 1     
   23   12   25 1     
   24   13   26 1     
   25   14   15 1     
   26   14   27 1     
   27   15   28 1     
   28   16   17 2     
   29   16   29 1     
   30   17   18 1     
   31    1   30 1     
   32    1   31 1     
   33    5   32 1     
   34    5   33 1     
   35    8   34 1     
   36    8   35 1     
   37   11   36 1     
   38   11   37 1     
   39   13   38 1     
   40   13   39 1     
   41   15   40 1     
   42   15   41 1     
@<TRIPOS>SUBSTRUCTURE
      1 S1             1
@<TRIPOS>SET
LONE_PAIRS      STATIC     ATOMS    <user>   **** ""
12 30 31 32 33 34 35 36 37 38 39 40 41
DONOR_HYDROGENS      STATIC     ATOMS    <user>   **** ""
4 19 24 26 28
ATOM$BLUE        STATIC     ATOMS    COLORGROUP SYSTEM
12 30 31 32 33 34 35 36 37 38 39 40 41
ATOM$RED        STATIC     ATOMS    COLORGROUP SYSTEM
4 19 24 26 28
