AV-unprocessed.smi:40|AV-procd|sdf|380|dock6
  -GOLD-   2262016233D 1   1.00000     0.00000
 Structure written by MMmdl.
 47 48  0  0  0  0  0  0  0  0  1 V2000
  153.4926  132.8972  165.4498 C   0  0  0  0  0  0  0  0  0  0  0  0
  154.3769  134.0202  164.8971 C   0  0  0  0  0  0  0  0  0  0  0  0
  154.7113  133.8263  163.4118 C   0  0  0  0  0  0  0  0  0  0  0  0
  155.4949  135.0099  162.8214 C   0  0  0  0  0  0  0  0  0  0  0  0
  155.7523  134.8701  161.3149 C   0  0  0  0  0  0  0  0  0  0  0  0
  155.7911  136.1599  160.7276 O   0  0  0  0  0  0  0  0  0  0  0  0
  154.6624  136.7559  160.3049 C   0  0  0  0  0  0  0  0  0  0  0  0
  153.6372  136.1486  159.9966 O   0  0  0  0  0  0  0  0  0  0  0  0
  154.7954  138.2042  160.2918 N   0  0  0  0  0  0  0  0  0  0  0  0
  153.8877  139.1462  159.9327 C   0  0  0  0  0  0  0  0  0  0  0  0
  152.9853  138.9478  158.9864 N   0  0  0  0  0  0  0  0  0  0  0  0
  152.0460  139.8686  158.6074 C   0  0  0  0  0  0  0  0  0  0  0  0
  151.3085  139.6218  157.6549 O   0  0  0  0  0  0  0  0  0  0  0  0
  151.9840  141.0852  159.3417 N   0  0  0  0  0  0  0  0  0  0  0  0
  151.0112  142.1982  158.9496 C   0  0  1  0  0  0  0  0  0  0  0  0
  151.1250  143.2726  159.8415 O   0  0  0  0  0  0  0  0  0  0  0  0
  152.0121  144.2508  159.3254 C   0  0  2  0  0  0  0  0  0  0  0  0
  151.9239  145.5704  160.1062 C   0  0  0  0  0  0  0  0  0  0  0  0
  151.5947  144.2923  157.8573 C   0  0  2  0  0  0  0  0  0  0  0  0
  150.4245  145.0763  157.6887 O   0  0  0  0  0  0  0  0  0  0  0  0
  151.3652  142.8099  157.5636 C   0  0  2  0  0  0  0  0  0  0  0  0
  150.3677  142.5959  156.5821 O   0  0  0  0  0  0  0  0  0  0  0  0
  152.9649  141.3281  160.2974 C   0  0  0  0  0  0  0  0  0  0  0  0
  153.8936  140.4082  160.6359 C   0  0  0  0  0  0  0  0  0  0  0  0
  154.8043  140.6704  161.5895 F   0  0  0  0  0  0  0  0  0  0  0  0
  150.0237  141.7389  159.0096 H   0  0  0  0  0  0  0  0  0  0  0  0
  153.0294  143.8614  159.3998 H   0  0  0  0  0  0  0  0  0  0  0  0
  152.3788  144.7114  157.2258 H   0  0  0  0  0  0  0  0  0  0  0  0
  152.3130  142.4147  157.1998 H   0  0  0  0  0  0  0  0  0  0  0  0
  153.2735  133.0589  166.5054 H   0  0  0  0  0  0  0  0  0  0  0  0
  153.9840  131.9280  165.3568 H   0  0  0  0  0  0  0  0  0  0  0  0
  152.5431  132.8451  164.9166 H   0  0  0  0  0  0  0  0  0  0  0  0
  153.8753  134.9781  165.0388 H   0  0  0  0  0  0  0  0  0  0  0  0
  155.3000  134.0655  165.4765 H   0  0  0  0  0  0  0  0  0  0  0  0
  155.2908  132.9099  163.2977 H   0  0  0  0  0  0  0  0  0  0  0  0
  153.7909  133.6798  162.8457 H   0  0  0  0  0  0  0  0  0  0  0  0
  154.9409  135.9317  163.0004 H   0  0  0  0  0  0  0  0  0  0  0  0
  156.4474  135.1189  163.3413 H   0  0  0  0  0  0  0  0  0  0  0  0
  156.6938  134.3498  161.1341 H   0  0  0  0  0  0  0  0  0  0  0  0
  154.9566  134.2801  160.8576 H   0  0  0  0  0  0  0  0  0  0  0  0
  155.7030  138.5357  160.5844 H   0  0  0  0  0  0  0  0  0  0  0  0
  152.5584  146.3342  159.6560 H   0  0  0  0  0  0  0  0  0  0  0  0
  152.2528  145.4294  161.1358 H   0  0  0  0  0  0  0  0  0  0  0  0
  150.9043  145.9547  160.1390 H   0  0  0  0  0  0  0  0  0  0  0  0
  150.0067  144.8166  156.8817 H   0  0  0  0  0  0  0  0  0  0  0  0
  149.6629  143.2077  156.7302 H   0  0  0  0  0  0  0  0  0  0  0  0
  153.0141  142.2833  160.7984 H   0  0  0  0  0  0  0  0  0  0  0  0
  1  2  1  0  0  0  0
  1 30  1  0  0  0  0
  1 31  1  0  0  0  0
  1 32  1  0  0  0  0
  2  3  1  0  0  0  0
  2 33  1  0  0  0  0
  2 34  1  0  0  0  0
  3  4  1  0  0  0  0
  3 35  1  0  0  0  0
  3 36  1  0  0  0  0
  4  5  1  0  0  0  0
  4 37  1  0  0  0  0
  4 38  1  0  0  0  0
  5  6  1  0  0  0  0
  5 39  1  0  0  0  0
  5 40  1  0  0  0  0
  6  7  1  0  0  0  0
  7  8  2  0  0  0  0
  7  9  1  0  0  0  0
  9 10  1  0  0  0  0
  9 41  1  0  0  0  0
 10 24  1  0  0  0  0
 10 11  2  0  0  0  0
 11 12  1  0  0  0  0
 12 13  2  0  0  0  0
 12 14  1  0  0  0  0
 14 15  1  0  0  0  0
 14 23  1  0  0  0  0
 15 26  1  0  0  0  0
 15 21  1  0  0  0  0
 15 16  1  0  0  0  0
 16 17  1  0  0  0  0
 17 27  1  0  0  0  0
 17 18  1  0  0  0  0
 17 19  1  0  0  0  0
 18 42  1  0  0  0  0
 18 43  1  0  0  0  0
 18 44  1  0  0  0  0
 19 28  1  0  0  0  0
 19 20  1  0  0  0  0
 19 21  1  0  0  0  0
 20 45  1  0  0  0  0
 21 29  1  0  0  0  0
 21 22  1  0  0  0  0
 22 46  1  0  0  0  0
 23 24  2  0  0  0  0
 23 47  1  0  0  0  0
 24 25  1  0  0  0  0
M  END
> <s_m_source_file>
AV-unprocessed.smi

> <i_m_source_file_index>
40

> <i_lp_mmshare_version>
43012

> <i_f3d_flags>
0

> <s_epik_input>
W0NIM11bQ0gyXVtDSDJdW0NIMl1bQ0gyXU9DKD1PKVtOSF1jMW5jKD1PKW4oW2NIXWMxRilbQ0BASF0yT1tDQEhdKFtDSDNdKVtDQEBIXShbT0hdKVtDQEhdMltPSF0=

> <s_epik_cmdline>
J2VwaWtfcHl0aG9uJywgJy1waCcsICc3LjAnLCAnLXRuJywgJzgnLCAnLW1hJywgJzIwMCcsICctbWV0YWxfYmluZGluZycsICctaW1hZScsICc8aW5maWxlLm1hZT4nLCAnLW9tYWUnLCAnPG91dGZpbGUubWFlPic=

> <r_lp_tautomer_probability>
1

> <r_epik_Ionization_Penalty>
2.29506e-06

> <r_epik_Ionization_Penalty_Charging>
8.26867e-09

> <r_epik_Ionization_Penalty_Neutral>
2.2868e-06

> <r_epik_State_Penalty>
-0

> <r_epik_Charging_Adjusted_Penalty>
8.26867e-09

> <i_epik_Tot_Q>
0

> <i_epik_Tot_abs_Q>
0

> <r_epik_Metal_State_Penalty>
-0

> <b_epik_Metal_Only>
0

> <s_epik_Chemistry_Notes>
This compound has an ester and may undergo hydrolysis at high or low pH. This compound contains an acetal/aminal-like group ( X-CH(R)-Y where X, Y are N, S, or O) that may be acid/base labile, releasing an aldehyde.

> <s_lp_Force_Field>
OPLS_2005

> <r_lp_Energy>
41.2702

> <b_lp_Chiralities_Consistent>
1

> <s_lp_Variant>
AV-unprocessed.smi:40-14

> <Gold.Version>
5.8.1

> <Gold.Id.Protein>
6NUR|6NUR_protein|mol2

> <Gold.PLP.Fitness>
51.3678

> <Gold.PLP.PLP>
-45.1183

> <Gold.PLP.part.hbond>
-4.4277

> <Gold.PLP.part.metal>
0.0000

> <Gold.PLP.part.buried>
-2.7290

> <Gold.PLP.part.nonpolar>
-37.2056

> <Gold.PLP.part.repulsive>
0.0462

> <Gold.PLP.ligand.clash>
0.0000

> <Gold.PLP.ligand.torsion>
1.1086

> <Gold.PLP.Chemscore.Hbond>
2.7520

> <Gold.PLP.Chemscore.CHOScore>
0.0000

> <Gold.PLP.Chemscore.Metal>
0.0000

> <Gold.Chemscore.Hbonds>
donor molecule, donor type, donor heavy atom, donor atom, acceptor molecule, acceptor atom, score
      L1  H    20    45       P1  8028  1.00
      L1  H    22    46       P1  8028  0.69
      P1  H  6896  6907       L1     8  1.00

> <Gold.PLP.Chemscore.Internal.Correction>
0.2107

> <Gold.Rescore>
     Score         DG    S(hbond)    S(metal)    S(lipo)     H(rot)  DE(clash)    DE(int)     intcor
     12.53     -17.06       2.70        0.00     102.86       3.70       2.63       1.90       ----

> <Gold.Chemscore.Fitness>
12.5327

> <Gold.Chemscore.DG>
-17.0562

> <Gold.Chemscore.ZeroCoef>
-5.4800

> <Gold.Chemscore.Hbond>
2.6953

> <Gold.Chemscore.Metal>
0.0000

> <Gold.Chemscore.Lipo>
102.8623

> <Gold.Chemscore.Internal_Hbond>
0.0000

> <Gold.Chemscore.DEClash>
2.6257

> <Gold.Chemscore.DEInternal>
1.8978

> <Gold.Chemscore.Rot>
3.6957

> <Gold.Chemscore.Internal.Correction>
   9.000000E+99

> <Gold.Chemscore.Hbonds>
donor molecule, donor type, donor heavy atom, donor atom, acceptor molecule, acceptor atom, score
      L1  H    20    45       P1  8028  0.30
      L1  H    22    46       P1  8028  0.65
      P1  H  6896  6907       L1     8  1.00

> <Gold.Chemscore.Hbond.Weighted>
-9.0023

> <Gold.Chemscore.Metal.Weighted>
-0.0000

> <Gold.Chemscore.Lipo.Weighted>
-12.0349

> <Gold.Chemscore.Internal_Hbond.Weighted>
0.0000

> <Gold.Chemscore.DEClash.Weighted>
2.6257

> <Gold.Chemscore.DEInternal.Weighted>
1.8978

> <Gold.Chemscore.Rot.Weighted>
9.4610

> <Gold.Chemscore.Internal.Correction.Weighted>
   9.000000E+99

> <Gold.Protein.RotatedTorsions>
[ 6907 6896 6895 6894 ] final   59.86 input  -60.11 | X-H torsion
[ 7974 7965 7964 7962 ] final   31.32 input  175.53 | X-H torsion
[ 8008 7997 7996 7995 ] final  -22.98 input   59.86 | X-H torsion
[ 10167 10162 10161 10158 ] final  -21.69 input  -65.29 | X-H torsion
[ 10718 10713 10712 10709 ] final   81.74 input   66.30 | X-H torsion
[ 10763 10752 10751 10750 ] final  172.04 input  -60.55 | X-H torsion
[ 11005 11000 10999 10996 ] final -142.78 input  -57.11 | X-H torsion

> <Gold.Protein.ActiveResidues>
 VAL166  LYS551  ARG553  GLY616  TRP617  ASP618  TYR619  PRO620  LYS621  CYS622 
 ASP623  PHE694  ASN695  SER759  ASP760  ASP761  ALA762  ILE779  LEU786  VAL792 
 PHE793  MET794  SER795  GLU796  ALA797  LYS798  CYS799  TRP800  GLU811  SER814 

> <Gold.Protein.RotatedAtoms>
  152.3952  134.6377  160.0091 H   0  0  0  0  0  0  0  0  0  0  0  0  # atno 6907 bound_to 6896
  151.6599  133.3312  159.3179 H   0  0  0  0  0  0  0  0  0  0  0  0  # atno 6908 bound_to 6896
  150.7861  134.6890  159.6531 H   0  0  0  0  0  0  0  0  0  0  0  0  # atno 6909 bound_to 6896
  146.1557  139.6672  142.9068 H   0  0  0  0  0  0  0  0  0  0  0  0  # atno 7974 bound_to 7965
  154.4612  140.1993  156.0240 H   0  0  0  0  0  0  0  0  0  0  0  0  # atno 8008 bound_to 7997
  156.0843  140.3267  155.7705 H   0  0  0  0  0  0  0  0  0  0  0  0  # atno 8009 bound_to 7997
  155.5060  140.0558  157.2922 H   0  0  0  0  0  0  0  0  0  0  0  0  # atno 8010 bound_to 7997
  140.7283  143.4604  151.0388 H   0  0  0  0  0  0  0  0  0  0  0  0  # atno 10167 bound_to 10162
  157.6840  131.0017  150.2272 H   0  0  0  0  0  0  0  0  0  0  0  0  # atno 10718 bound_to 10713
  154.4204  135.2758  155.1979 H   0  0  0  0  0  0  0  0  0  0  0  0  # atno 10763 bound_to 10752
  154.3927  135.6062  153.5856 H   0  0  0  0  0  0  0  0  0  0  0  0  # atno 10764 bound_to 10752
  152.9833  135.5907  154.4500 H   0  0  0  0  0  0  0  0  0  0  0  0  # atno 10765 bound_to 10752
  140.8191  134.2653  157.4908 H   0  0  0  0  0  0  0  0  0  0  0  0  # atno 11005 bound_to 11000
  145.4713  141.0436  143.2697 LP  0  0  0  0  0  0  0  0  0  0  0  0  # atno 17320 bound_to 7965
  144.7961  139.6232  143.7092 LP  0  0  0  0  0  0  0  0  0  0  0  0  # atno 17321 bound_to 7965
  139.8288  143.7720  152.3179 LP  0  0  0  0  0  0  0  0  0  0  0  0  # atno 17342 bound_to 10162
  139.7828  144.7438  151.0064 LP  0  0  0  0  0  0  0  0  0  0  0  0  # atno 17343 bound_to 10162
  156.2912  130.3746  149.7840 LP  0  0  0  0  0  0  0  0  0  0  0  0  # atno 17370 bound_to 10713
  156.5499  130.8337  151.3296 LP  0  0  0  0  0  0  0  0  0  0  0  0  # atno 17371 bound_to 10713
  139.8709  134.9525  156.4117 LP  0  0  0  0  0  0  0  0  0  0  0  0  # atno 17394 bound_to 11000
  140.9118  133.7706  155.9801 LP  0  0  0  0  0  0  0  0  0  0  0  0  # atno 17395 bound_to 11000

$$$$
