#       Name:                AV-unprocessed.smi:2061
#       Creating user name   scv26
#       Creation time:       Fri Mar 27 11:08:05 2020


#       File generated by GOLD software.
#

@<TRIPOS>MOLECULE
AV-unprocessed.smi:2061
    53    54     1
SMALL
NO_CHARGES


@<TRIPOS>ATOM
      1 ****        -6.7034   5.2159   0.2931 C.3            1 S1                 0.0000
      2 ****        -5.7680   4.0764   0.5107 C.2            1 S1                 0.0000
      3 ****        -4.4092   3.9597   0.4290 C.2            1 S1                 0.0000
      4 ****        -4.1828   2.5971   0.7600 C.2            1 S1                 0.0000
      5 ****        -2.8655   2.0675   0.7821 N.am           1 S1                 0.0000
      6 ****        -2.4650   0.8136   1.0609 C.2            1 S1                 0.0000
      7 ****        -3.2920  -0.0522   1.3711 O.2            1 S1                 0.0000
      8 ****        -1.1158   0.6701   0.9536 N.pl3          1 S1                -1.0000
      9 ****        -0.3918  -0.5790   1.1877 C.3            1 S1                 0.0000
     10 ****         1.0429  -0.4961   0.5876 C.3            1 S1                 0.0000
     11 ****         1.9209   0.4977   1.4026 C.3            1 S1                 0.0000
     12 ****         1.6275  -1.8793   0.4616 N.4            1 S1                 1.0000
     13 ****         1.2481  -2.6080  -0.7853 C.3            1 S1                 0.0000
     14 ****         2.1105  -2.1695  -1.9880 C.3            1 S1                 0.0000
     15 ****         1.7877  -2.9761  -3.2504 C.3            1 S1                 0.0000
     16 ****         3.4832  -2.3718  -1.6741 O.3            1 S1                 0.0000
     17 ****         3.9059  -1.6059  -0.5522 C.3            1 S1                 0.0000
     18 ****         5.4087  -1.8354  -0.3607 C.3            1 S1                 0.0000
     19 ****         3.0912  -2.0418   0.6846 C.3            1 S1                 0.0000
     20 ****        -5.3043   1.9419   1.0214 N.2            1 S1                 0.0000
     21 ****        -6.3254   2.8865   0.8636 O.3            1 S1                 0.0000
     22 ****        -6.1653   6.1037  -0.0394 H              1 S1                 0.0000
     23 ****        -7.2297   5.4644   1.2148 H              1 S1                 0.0000
     24 ****        -7.4456   4.9669  -0.4655 H              1 S1                 0.0000
     25 ****        -3.6934   4.7263   0.1721 H              1 S1                 0.0000
     26 ****        -2.1310   2.7181   0.5467 H              1 S1                 0.0000
     27 ****        -0.3225  -0.8201   2.2490 H              1 S1                 0.0000
     28 ****        -0.9166  -1.4214   0.7359 H              1 S1                 0.0000
     29 ****         0.9692  -0.0848  -0.4196 H              1 S1                 0.0000
     30 ****         1.4788   1.4948   1.4568 H              1 S1                 0.0000
     31 ****         2.8974   0.6492   0.9462 H              1 S1                 0.0000
     32 ****         2.0860   0.1635   2.4289 H              1 S1                 0.0000
     33 ****         1.3920  -3.6748  -0.6082 H              1 S1                 0.0000
     34 ****         0.1904  -2.4867  -1.0189 H              1 S1                 0.0000
     35 ****         1.9450  -1.1141  -2.2086 H              1 S1                 0.0000
     36 ****         0.7451  -2.8464  -3.5419 H              1 S1                 0.0000
     37 ****         1.9628  -4.0411  -3.0958 H              1 S1                 0.0000
     38 ****         2.4079  -2.6545  -4.0875 H              1 S1                 0.0000
     39 ****         3.7449  -0.5490  -0.7666 H              1 S1                 0.0000
     40 ****         5.7881  -1.2615   0.4851 H              1 S1                 0.0000
     41 ****         5.9657  -1.5291  -1.2465 H              1 S1                 0.0000
     42 ****         5.6278  -2.8877  -0.1773 H              1 S1                 0.0000
     43 ****         3.4312  -1.5424   1.5906 H              1 S1                 0.0000
     44 ****         3.2766  -3.1013   0.8676 H              1 S1                 0.0000
     45 ****         1.1936  -2.3843   1.2215 H              1 S1                 0.0000
     46 ****        -4.2641   0.1781   1.4158 LP             1 S1                 0.0000
     47 ****        -2.9886  -0.9824   1.5773 LP             1 S1                 0.0000
     48 ****        -0.5818   1.4756   0.6966 LP             1 S1                 0.0000
     49 ****         4.0348  -2.1109  -2.4663 LP             1 S1                 0.0000
     50 ****         3.6263  -3.3408  -1.4728 LP             1 S1                 0.0000
     51 ****        -5.4007   0.9798   1.2765 LP             1 S1                 0.0000
     52 ****        -6.9555   2.5847   0.1481 LP             1 S1                 0.0000
     53 ****        -6.8237   2.9904   1.7244 LP             1 S1                 0.0000
@<TRIPOS>BOND
    1    1    2 1     
    2    1   22 1     
    3    1   23 1     
    4    1   24 1     
    5    2   21 1     
    6    2    3 2     
    7    3    4 1     
    8    3   25 1     
    9    4    5 1     
   10    4   20 2     
   11    5    6 am    
   12    5   26 1     
   13    6    7 2     
   14    6    8 1     
   15    8    9 1     
   16    9   10 1     
   17    9   27 1     
   18    9   28 1     
   19   10   11 1     
   20   10   12 1     
   21   10   29 1     
   22   11   30 1     
   23   11   31 1     
   24   11   32 1     
   25   12   19 1     
   26   12   13 1     
   27   12   45 1     
   28   13   14 1     
   29   13   33 1     
   30   13   34 1     
   31   14   15 1     
   32   14   16 1     
   33   14   35 1     
   34   15   36 1     
   35   15   37 1     
   36   15   38 1     
   37   16   17 1     
   38   17   18 1     
   39   17   19 1     
   40   17   39 1     
   41   18   40 1     
   42   18   41 1     
   43   18   42 1     
   44   19   43 1     
   45   19   44 1     
   46   20   21 1     
   47    7   46 1     
   48    7   47 1     
   49    8   48 1     
   50   16   49 1     
   51   16   50 1     
   52   20   51 1     
   53   21   52 1     
   54   21   53 1     
@<TRIPOS>SUBSTRUCTURE
      1 S1             1
@<TRIPOS>SET
LONE_PAIRS      STATIC     ATOMS    <user>   **** ""
8 46 47 48 49 50 51 52 53
DONOR_HYDROGENS      STATIC     ATOMS    <user>   **** ""
2 26 45
ATOM$BLUE        STATIC     ATOMS    COLORGROUP SYSTEM
8 46 47 48 49 50 51 52 53
ATOM$RED        STATIC     ATOMS    COLORGROUP SYSTEM
2 26 45
