AV-unprocessed.smi:2896|AV-procd|sdf|11139|dock6
  -GOLD-   2272016 13D 1   1.00000     0.00000
 Structure written by MMmdl.
 49 50  0  0  0  0  0  0  0  0  1 V2000
  148.2050  135.5224  155.5785 C   0  0  0  0  0  0  0  0  0  0  0  0
  147.5221  136.8974  155.4357 C   0  0  1  0  0  0  0  0  0  0  0  0
  145.9974  136.8629  155.6904 C   0  0  0  0  0  0  0  0  0  0  0  0
  145.2363  136.5752  154.4796 N   0  0  0  0  0  0  0  0  0  0  0  0
  144.7486  135.3715  154.1341 C   0  0  0  0  0  0  0  0  0  0  0  0
  144.9338  134.3691  154.8264 O   0  0  0  0  0  0  0  0  0  0  0  0
  143.9533  135.2731  152.8068 C   0  0  0  0  0  0  0  0  0  0  0  0
  142.5127  134.7813  153.1081 C   0  0  0  0  0  0  0  0  0  0  0  0
  143.7969  136.6676  152.1454 C   0  0  0  0  0  0  0  0  0  0  0  0
  144.7232  134.3126  151.8770 C   0  0  0  0  0  0  0  0  0  0  0  0
  144.1199  133.1705  151.2939 C   0  0  0  0  0  0  0  0  0  0  0  0
  144.8834  132.3311  150.4606 C   0  0  0  0  0  0  0  0  0  0  0  0
  146.2336  132.6554  150.2361 C   0  0  0  0  0  0  0  0  0  0  0  0
  146.8328  133.7315  150.7836 N   0  0  0  0  0  0  0  0  0  0  0  0
  146.0922  134.5304  151.5805 C   0  0  0  0  0  0  0  0  0  0  0  0
  148.2450  138.0257  156.2126 C   0  0  0  0  0  0  0  0  0  0  0  0
  149.6731  138.2295  155.9480 N   0  0  0  0  0  0  0  0  0  0  0  0
  150.1504  139.4379  156.6139 C   0  0  0  0  0  0  0  0  0  0  0  0
  151.6487  139.6825  156.3685 C   0  0  0  0  0  0  0  0  0  0  0  0
  151.8920  139.7581  154.9685 O   0  0  0  0  0  0  0  0  0  0  0  0
  151.4890  138.5787  154.2815 C   0  0  0  0  0  0  0  0  0  0  0  0
  149.9918  138.3174  154.5251 C   0  0  0  0  0  0  0  0  0  0  0  0
  148.0429  135.0727  156.5557 H   0  0  0  0  0  0  0  0  0  0  0  0
  149.2809  135.6011  155.4223 H   0  0  0  0  0  0  0  0  0  0  0  0
  147.8268  134.8187  154.8365 H   0  0  0  0  0  0  0  0  0  0  0  0
  147.6548  137.1607  154.3854 H   0  0  0  0  0  0  0  0  0  0  0  0
  145.7518  136.0916  156.4200 H   0  0  0  0  0  0  0  0  0  0  0  0
  145.6631  137.8080  156.1217 H   0  0  0  0  0  0  0  0  0  0  0  0
  145.0559  137.3523  153.8608 H   0  0  0  0  0  0  0  0  0  0  0  0
  142.4904  133.8246  153.6314 H   0  0  0  0  0  0  0  0  0  0  0  0
  141.9343  134.6661  152.1908 H   0  0  0  0  0  0  0  0  0  0  0  0
  141.9761  135.4932  153.7369 H   0  0  0  0  0  0  0  0  0  0  0  0
  144.7461  137.1464  151.9064 H   0  0  0  0  0  0  0  0  0  0  0  0
  143.2519  137.3546  152.7946 H   0  0  0  0  0  0  0  0  0  0  0  0
  143.2373  136.5936  151.2123 H   0  0  0  0  0  0  0  0  0  0  0  0
  143.0863  132.9159  151.4668 H   0  0  0  0  0  0  0  0  0  0  0  0
  144.4433  131.4564  150.0052 H   0  0  0  0  0  0  0  0  0  0  0  0
  146.8485  132.0332  149.6029 H   0  0  0  0  0  0  0  0  0  0  0  0
  146.6262  135.3683  152.0017 H   0  0  0  0  0  0  0  0  0  0  0  0
  147.7053  138.9659  156.0906 H   0  0  0  0  0  0  0  0  0  0  0  0
  148.1409  137.7761  157.2697 H   0  0  0  0  0  0  0  0  0  0  0  0
  149.5835  140.3018  156.2629 H   0  0  0  0  0  0  0  0  0  0  0  0
  149.9719  139.3643  157.6872 H   0  0  0  0  0  0  0  0  0  0  0  0
  151.9627  140.6158  156.8361 H   0  0  0  0  0  0  0  0  0  0  0  0
  152.2490  138.8847  156.8087 H   0  0  0  0  0  0  0  0  0  0  0  0
  151.6838  138.7025  153.2163 H   0  0  0  0  0  0  0  0  0  0  0  0
  152.0875  137.7314  154.6198 H   0  0  0  0  0  0  0  0  0  0  0  0
  149.7313  137.3887  154.0237 H   0  0  0  0  0  0  0  0  0  0  0  0
  149.4026  139.1089  154.0596 H   0  0  0  0  0  0  0  0  0  0  0  0
  1  2  1  0  0  0  0
  1 23  1  0  0  0  0
  1 24  1  0  0  0  0
  1 25  1  0  0  0  0
  2  3  1  0  0  0  0
  2 16  1  0  0  0  0
  2 26  1  0  0  0  0
  3  4  1  0  0  0  0
  3 27  1  0  0  0  0
  3 28  1  0  0  0  0
  4  5  1  0  0  0  0
  4 29  1  0  0  0  0
  5  6  2  0  0  0  0
  5  7  1  0  0  0  0
  7  8  1  0  0  0  0
  7  9  1  0  0  0  0
  7 10  1  0  0  0  0
  8 30  1  0  0  0  0
  8 31  1  0  0  0  0
  8 32  1  0  0  0  0
  9 33  1  0  0  0  0
  9 34  1  0  0  0  0
  9 35  1  0  0  0  0
 10 15  1  0  0  0  0
 10 11  2  0  0  0  0
 11 12  1  0  0  0  0
 11 36  1  0  0  0  0
 12 13  2  0  0  0  0
 12 37  1  0  0  0  0
 13 14  1  0  0  0  0
 13 38  1  0  0  0  0
 14 15  2  0  0  0  0
 15 39  1  0  0  0  0
 16 17  1  0  0  0  0
 16 40  1  0  0  0  0
 16 41  1  0  0  0  0
 17 22  1  0  0  0  0
 17 18  1  0  0  0  0
 18 19  1  0  0  0  0
 18 42  1  0  0  0  0
 18 43  1  0  0  0  0
 19 20  1  0  0  0  0
 19 44  1  0  0  0  0
 19 45  1  0  0  0  0
 20 21  1  0  0  0  0
 21 22  1  0  0  0  0
 21 46  1  0  0  0  0
 21 47  1  0  0  0  0
 22 48  1  0  0  0  0
 22 49  1  0  0  0  0
M  END
> <s_m_source_file>
AV-unprocessed.smi

> <i_m_source_file_index>
2896

> <i_lp_mmshare_version>
43012

> <i_f3d_flags>
0

> <s_epik_input>
W0NIMl0xW0NIMl1PW0NIMl1bQ0gyXU4xW0NIMl1bQ0BIXShbQ0gzXSlbQ0gyXVtOSF1DKD1PKUMoW0NIM10pKFtDSDNdKWMyW2NIXVtjSF1bY0hdbltjSF0y

> <s_epik_cmdline>
J2VwaWtfcHl0aG9uJywgJy1waCcsICc3LjAnLCAnLXRuJywgJzgnLCAnLW1hJywgJzIwMCcsICctbWV0YWxfYmluZGluZycsICctaW1hZScsICc8aW5maWxlLm1hZT4nLCAnLW9tYWUnLCAnPG91dGZpbGUubWFlPic=

> <r_epik_Ionization_Penalty>
0.458454

> <r_epik_Ionization_Penalty_Charging>
0

> <r_epik_Ionization_Penalty_Neutral>
0.458454

> <r_epik_State_Penalty>
0.453234

> <r_epik_Charging_Adjusted_Penalty>
0.453234

> <i_epik_Tot_Q>
0

> <i_epik_Tot_abs_Q>
0

> <r_epik_Metal_State_Penalty>
0.448418

> <b_epik_Metal_Only>
0

> <s_lp_Force_Field>
OPLS_2005

> <r_lp_Energy>
37.0423

> <b_lp_Chiralities_Consistent>
1

> <s_lp_Variant>
AV-unprocessed.smi:2896-4

> <Gold.Version>
5.8.1

> <Gold.Id.Protein>
6NUR|6NUR_protein|mol2

> <Gold.PLP.Fitness>
34.4295

> <Gold.PLP.PLP>
-27.1228

> <Gold.PLP.part.hbond>
-1.0000

> <Gold.PLP.part.metal>
0.0000

> <Gold.PLP.part.buried>
-4.0460

> <Gold.PLP.part.nonpolar>
-21.7884

> <Gold.PLP.part.repulsive>
0.3769

> <Gold.PLP.ligand.clash>
0.2230

> <Gold.PLP.ligand.torsion>
0.7752

> <Gold.PLP.Chemscore.Hbond>
0.9600

> <Gold.PLP.Chemscore.CHOScore>
1.9537

> <Gold.PLP.Chemscore.Metal>
0.0000

> <Gold.Chemscore.Hbonds>
donor molecule, donor type, donor heavy atom, donor atom, acceptor molecule, acceptor atom, score
      P1  H  7989  7998       L1    20  0.72
      L1  C    13    38       P1 10747  0.95
      L1  C    15    39       P1  7948  1.00

> <Gold.PLP.Chemscore.Internal.Correction>
0.3392

> <Gold.Rescore>
     Score         DG    S(hbond)    S(metal)    S(lipo)     H(rot)  DE(clash)    DE(int)     intcor
     12.28     -13.07       0.93        0.00      75.22       1.68       0.02       0.77       ----

> <Gold.Chemscore.Fitness>
12.2760

> <Gold.Chemscore.DG>
-13.0720

> <Gold.Chemscore.ZeroCoef>
-5.4800

> <Gold.Chemscore.Hbond>
0.9283

> <Gold.Chemscore.Metal>
0.0000

> <Gold.Chemscore.Lipo>
75.2171

> <Gold.Chemscore.Internal_Hbond>
0.0000

> <Gold.Chemscore.DEClash>
0.0237

> <Gold.Chemscore.DEInternal>
0.7723

> <Gold.Chemscore.Rot>
1.6832

> <Gold.Chemscore.Internal.Correction>
   9.000000E+99

> <Gold.Chemscore.Hbonds>
donor molecule, donor type, donor heavy atom, donor atom, acceptor molecule, acceptor atom, score
      P1  H  7989  7998       L1    20  0.09

> <Gold.Chemscore.Hbond.Weighted>
-3.1006

> <Gold.Chemscore.Metal.Weighted>
-0.0000

> <Gold.Chemscore.Lipo.Weighted>
-8.8004

> <Gold.Chemscore.Internal_Hbond.Weighted>
0.0000

> <Gold.Chemscore.DEClash.Weighted>
0.0237

> <Gold.Chemscore.DEInternal.Weighted>
0.7723

> <Gold.Chemscore.Rot.Weighted>
4.3090

> <Gold.Chemscore.Internal.Correction.Weighted>
   9.000000E+99

> <Gold.Protein.RotatedTorsions>
[ 6907 6896 6895 6894 ] final  -53.00 input  -60.11 | X-H torsion
[ 7974 7965 7964 7962 ] final -102.60 input  175.53 | X-H torsion
[ 8008 7997 7996 7995 ] final  174.49 input   59.86 | X-H torsion
[ 10167 10162 10161 10158 ] final  175.34 input  -65.29 | X-H torsion
[ 10718 10713 10712 10709 ] final   83.18 input   66.30 | X-H torsion
[ 10763 10752 10751 10750 ] final   64.95 input  -60.55 | X-H torsion
[ 11005 11000 10999 10996 ] final  -76.80 input  -57.11 | X-H torsion

> <Gold.Protein.ActiveResidues>
 VAL166  LYS551  ARG553  GLY616  TRP617  ASP618  TYR619  PRO620  LYS621  CYS622 
 ASP623  PHE694  ASN695  SER759  ASP760  ASP761  ALA762  ILE779  LEU786  VAL792 
 PHE793  MET794  SER795  GLU796  ALA797  LYS798  CYS799  TRP800  GLU811  SER814 

> <Gold.Protein.RotatedAtoms>
  150.8466  134.7778  159.6975 H   0  0  0  0  0  0  0  0  0  0  0  0  # atno 6907 bound_to 6896
  152.4542  134.5325  159.9825 H   0  0  0  0  0  0  0  0  0  0  0  0  # atno 6908 bound_to 6896
  151.5454  133.3388  159.2979 H   0  0  0  0  0  0  0  0  0  0  0  0  # atno 6909 bound_to 6896
  145.2667  140.9286  143.3010 H   0  0  0  0  0  0  0  0  0  0  0  0  # atno 7974 bound_to 7965
  156.0968  140.1433  156.9520 H   0  0  0  0  0  0  0  0  0  0  0  0  # atno 8008 bound_to 7997
  154.4677  140.0920  156.7108 H   0  0  0  0  0  0  0  0  0  0  0  0  # atno 8009 bound_to 7997
  155.4827  140.3445  155.4344 H   0  0  0  0  0  0  0  0  0  0  0  0  # atno 8010 bound_to 7997
  139.5174  144.3042  152.0350 H   0  0  0  0  0  0  0  0  0  0  0  0  # atno 10167 bound_to 10162
  157.6873  131.0080  150.2485 H   0  0  0  0  0  0  0  0  0  0  0  0  # atno 10718 bound_to 10713
  153.0076  135.5374  154.6590 H   0  0  0  0  0  0  0  0  0  0  0  0  # atno 10763 bound_to 10752
  154.5804  135.2849  155.0741 H   0  0  0  0  0  0  0  0  0  0  0  0  # atno 10764 bound_to 10752
  154.1872  135.6506  153.5102 H   0  0  0  0  0  0  0  0  0  0  0  0  # atno 10765 bound_to 10752
  141.1656  133.6998  156.7724 H   0  0  0  0  0  0  0  0  0  0  0  0  # atno 11005 bound_to 11000
  144.9371  139.4231  143.6467 LP  0  0  0  0  0  0  0  0  0  0  0  0  # atno 17320 bound_to 7965
  146.3259  139.8312  142.8908 LP  0  0  0  0  0  0  0  0  0  0  0  0  # atno 17321 bound_to 7965
  140.2489  144.4190  150.6230 LP  0  0  0  0  0  0  0  0  0  0  0  0  # atno 17342 bound_to 10162
  140.6238  143.2179  151.6638 LP  0  0  0  0  0  0  0  0  0  0  0  0  # atno 17343 bound_to 10162
  156.3086  130.3768  149.7683 LP  0  0  0  0  0  0  0  0  0  0  0  0  # atno 17370 bound_to 10713
  156.5290  130.8249  151.3230 LP  0  0  0  0  0  0  0  0  0  0  0  0  # atno 17371 bound_to 10713
  140.2454  134.8581  157.3615 LP  0  0  0  0  0  0  0  0  0  0  0  0  # atno 17394 bound_to 11000
  140.1755  134.4555  155.7805 LP  0  0  0  0  0  0  0  0  0  0  0  0  # atno 17395 bound_to 11000

$$$$
