#       Name:                AV-unprocessed.smi:48
#       Creating user name   scv26
#       Creation time:       Thu Mar 26 16:32:49 2020


#       File generated by GOLD software.
#

@<TRIPOS>MOLECULE
AV-unprocessed.smi:48
    41    43     1
SMALL
NO_CHARGES


@<TRIPOS>ATOM
      1 ****        -3.0314   1.3166   2.3866 O.3            1 S1                 0.0000
      2 ****        -2.5541   0.2677   1.5717 C.3            1 S1                 0.0000
      3 ****        -1.0862  -0.0363   1.9073 C.3            1 S1                 0.0000
      4 ****        -0.2384   0.8693   1.2151 O.3            1 S1                 0.0000
      5 ****         1.0156   0.2946   1.0218 C.3            1 S1                 0.0000
      6 ****         1.4521   0.6306  -0.3708 N.pl3          1 S1                 0.0000
      7 ****         2.6624   1.0722  -0.7689 C.2            1 S1                 0.0000
      8 ****         2.8322   1.3097  -2.0690 N.2            1 S1                 0.0000
      9 ****         1.5826   0.9890  -2.5741 C.ar           1 S1                 0.0000
     10 ****         1.0433   1.0049  -3.8833 C.ar           1 S1                 0.0000
     11 ****         2.0008   1.4944  -5.2330 Cl             1 S1                 0.0000
     12 ****        -0.2458   0.6263  -4.0550 N.ar           1 S1                 0.0000
     13 ****        -0.9658   0.2498  -2.9910 C.ar           1 S1                 0.0000
     14 ****        -0.5959   0.1824  -1.7072 N.ar           1 S1                 0.0000
     15 ****         0.7042   0.5660  -1.5362 C.ar           1 S1                 0.0000
     16 ****         0.8838  -1.2264   1.2622 C.3            1 S1                 0.0000
     17 ****         1.3912  -2.0363   0.2161 O.3            1 S1                 0.0000
     18 ****        -0.6209  -1.4085   1.4117 C.3            1 S1                 0.0000
     19 ****        -0.9139  -2.4032   2.3729 O.3            1 S1                 0.0000
     20 ****        -0.8952   0.0536   2.9790 H              1 S1                 0.0000
     21 ****         1.7582   0.7645   1.6680 H              1 S1                 0.0000
     22 ****         1.4005  -1.4589   2.1947 H              1 S1                 0.0000
     23 ****        -1.0852  -1.6477   0.4535 H              1 S1                 0.0000
     24 ****        -3.9376   1.4756   2.1704 H              1 S1                 0.0000
     25 ****        -3.1734  -0.6074   1.7701 H              1 S1                 0.0000
     26 ****        -2.6766   0.5183   0.5175 H              1 S1                 0.0000
     27 ****         3.4672   1.2239  -0.0645 H              1 S1                 0.0000
     28 ****        -1.9860  -0.0387  -3.1967 H              1 S1                 0.0000
     29 ****         2.3206  -1.8846   0.1409 H              1 S1                 0.0000
     30 ****        -0.5073  -2.1606   3.1906 H              1 S1                 0.0000
     31 ****        -2.4948   2.1438   2.2204 LP             1 S1                 0.0000
     32 ****        -2.9548   1.0574   3.3494 LP             1 S1                 0.0000
     33 ****        -0.1396   1.7069   1.7523 LP             1 S1                 0.0000
     34 ****        -0.6427   1.0885   0.3271 LP             1 S1                 0.0000
     35 ****         3.6457   1.6335  -2.5520 LP             1 S1                 0.0000
     36 ****        -0.6556   0.6280  -4.9672 LP             1 S1                 0.0000
     37 ****        -1.1969  -0.1124  -0.9643 LP             1 S1                 0.0000
     38 ****         0.9402  -1.7974  -0.6439 LP             1 S1                 0.0000
     39 ****         1.2229  -2.9998   0.4242 LP             1 S1                 0.0000
     40 ****        -0.5545  -3.2845   2.0662 LP             1 S1                 0.0000
     41 ****        -1.9040  -2.4717   2.4960 LP             1 S1                 0.0000
@<TRIPOS>BOND
    1    1    2 1     
    2    1   24 1     
    3    2    3 1     
    4    2   25 1     
    5    2   26 1     
    6    3   20 1     
    7    3   18 1     
    8    3    4 1     
    9    4    5 1     
   10    5   21 1     
   11    5    6 1     
   12    5   16 1     
   13    6   15 1     
   14    6    7 1     
   15    7    8 2     
   16    7   27 1     
   17    8    9 1     
   18    9   15 ar    
   19    9   10 ar    
   20   10   11 1     
   21   10   12 ar    
   22   12   13 ar    
   23   13   14 ar    
   24   13   28 1     
   25   14   15 ar    
   26   16   22 1     
   27   16   17 1     
   28   16   18 1     
   29   17   29 1     
   30   18   23 1     
   31   18   19 1     
   32   19   30 1     
   33    1   31 1     
   34    1   32 1     
   35    4   33 1     
   36    4   34 1     
   37    8   35 1     
   38   12   36 1     
   39   14   37 1     
   40   17   38 1     
   41   17   39 1     
   42   19   40 1     
   43   19   41 1     
@<TRIPOS>SUBSTRUCTURE
      1 S1             1
@<TRIPOS>SET
LONE_PAIRS      STATIC     ATOMS    <user>   **** ""
11 31 32 33 34 35 36 37 38 39 40 41
DONOR_HYDROGENS      STATIC     ATOMS    <user>   **** ""
3 24 29 30
ATOM$BLUE        STATIC     ATOMS    COLORGROUP SYSTEM
11 31 32 33 34 35 36 37 38 39 40 41
ATOM$RED        STATIC     ATOMS    COLORGROUP SYSTEM
3 24 29 30
