AV-unprocessed.smi:2167|AV-procd|sdf|8816|dock10
  -GOLD-   2272012 03D 1   1.00000     0.00000
 Structure written by MMmdl.
 41 42  0  0  0  0  0  0  0  0  1 V2000
  148.5468  141.0666  156.7212 C   0  0  0  0  0  0  0  0  0  0  0  0
  149.2176  141.2024  155.3466 C   0  0  0  0  0  0  0  0  0  0  0  0
  148.2135  141.3992  154.2018 C   0  0  0  0  0  0  0  0  0  0  0  0
  150.1692  140.0808  155.0723 C   0  0  0  0  0  0  0  0  0  0  0  0
  151.1744  139.7454  155.8867 N   0  0  0  0  0  0  0  0  0  0  0  0
  151.9159  138.6581  155.4128 C   0  0  0  0  0  0  0  0  0  0  0  0
  153.0803  138.1409  156.2058 C   0  0  0  0  0  0  0  0  0  0  0  0
  153.0510  138.7165  157.6220 C   0  0  0  0  0  0  0  0  0  0  0  0
  153.2027  137.9743  158.5923 O   0  0  0  0  0  0  0  0  0  0  0  0
  152.8571  140.0418  157.7259 N   0  0  0  0  0  0  0  0  0  0  0  0
  152.8002  140.7989  158.9781 C   0  0  2  0  0  0  0  0  0  0  0  0
  152.3735  142.2436  158.6300 C   0  0  0  0  0  0  0  0  0  0  0  0
  151.7508  143.0081  159.8112 C   0  0  0  0  0  0  0  0  0  0  0  0
  152.7038  143.2775  160.9858 C   0  0  0  0  0  0  0  0  0  0  0  0
  153.2301  142.0002  161.6626 C   0  0  0  0  0  0  0  0  0  0  0  0
  154.2909  141.3666  160.8904 N   0  0  0  0  0  0  0  0  0  0  0  0
  154.1856  140.8299  159.6653 C   0  0  0  0  0  0  0  0  0  0  0  0
  155.1794  140.3744  159.0994 O   0  0  0  0  0  0  0  0  0  0  0  0
  151.4593  138.1764  154.2111 C   0  0  0  0  0  0  0  0  0  0  0  0
  150.0750  139.0649  153.6378 S   0  0  0  0  0  0  0  0  0  0  0  0
  149.2908  141.0208  157.5173 H   0  0  0  0  0  0  0  0  0  0  0  0
  147.9403  140.1622  156.7793 H   0  0  0  0  0  0  0  0  0  0  0  0
  147.8958  141.9167  156.9263 H   0  0  0  0  0  0  0  0  0  0  0  0
  149.8190  142.1116  155.3869 H   0  0  0  0  0  0  0  0  0  0  0  0
  148.7268  141.5765  153.2563 H   0  0  0  0  0  0  0  0  0  0  0  0
  147.5646  142.2547  154.3909 H   0  0  0  0  0  0  0  0  0  0  0  0
  147.5780  140.5218  154.0765 H   0  0  0  0  0  0  0  0  0  0  0  0
  153.0536  137.0518  156.2601 H   0  0  0  0  0  0  0  0  0  0  0  0
  154.0259  138.4011  155.7279 H   0  0  0  0  0  0  0  0  0  0  0  0
  152.7449  140.5690  156.8721 H   0  0  0  0  0  0  0  0  0  0  0  0
  152.0637  140.3378  159.6386 H   0  0  0  0  0  0  0  0  0  0  0  0
  153.2088  142.8091  158.2127 H   0  0  0  0  0  0  0  0  0  0  0  0
  151.6214  142.2113  157.8398 H   0  0  0  0  0  0  0  0  0  0  0  0
  151.3756  143.9644  159.4453 H   0  0  0  0  0  0  0  0  0  0  0  0
  150.8757  142.4658  160.1717 H   0  0  0  0  0  0  0  0  0  0  0  0
  153.5369  143.9021  160.6606 H   0  0  0  0  0  0  0  0  0  0  0  0
  152.1646  143.8640  161.7304 H   0  0  0  0  0  0  0  0  0  0  0  0
  153.6525  142.2581  162.6339 H   0  0  0  0  0  0  0  0  0  0  0  0
  152.4227  141.2932  161.8575 H   0  0  0  0  0  0  0  0  0  0  0  0
  155.2068  141.3590  161.3155 H   0  0  0  0  0  0  0  0  0  0  0  0
  151.8500  137.3518  153.6333 H   0  0  0  0  0  0  0  0  0  0  0  0
  1  2  1  0  0  0  0
  1 21  1  0  0  0  0
  1 22  1  0  0  0  0
  1 23  1  0  0  0  0
  2  3  1  0  0  0  0
  2  4  1  0  0  0  0
  2 24  1  0  0  0  0
  3 25  1  0  0  0  0
  3 26  1  0  0  0  0
  3 27  1  0  0  0  0
  4 20  1  0  0  0  0
  4  5  2  0  0  0  0
  5  6  1  0  0  0  0
  6  7  1  0  0  0  0
  6 19  2  0  0  0  0
  7  8  1  0  0  0  0
  7 28  1  0  0  0  0
  7 29  1  0  0  0  0
  8  9  2  0  0  0  0
  8 10  1  0  0  0  0
 10 11  1  0  0  0  0
 10 30  1  0  0  0  0
 11 17  1  0  0  0  0
 11 12  1  0  0  0  0
 11 31  1  0  0  0  0
 12 13  1  0  0  0  0
 12 32  1  0  0  0  0
 12 33  1  0  0  0  0
 13 14  1  0  0  0  0
 13 34  1  0  0  0  0
 13 35  1  0  0  0  0
 14 15  1  0  0  0  0
 14 36  1  0  0  0  0
 14 37  1  0  0  0  0
 15 16  1  0  0  0  0
 15 38  1  0  0  0  0
 15 39  1  0  0  0  0
 16 17  1  0  0  0  0
 16 40  1  0  0  0  0
 17 18  2  0  0  0  0
 19 20  1  0  0  0  0
 19 41  1  0  0  0  0
M  END
> <s_m_source_file>
AV-unprocessed.smi

> <i_m_source_file_index>
2167

> <i_lp_mmshare_version>
43012

> <i_f3d_flags>
0

> <s_epik_input>
W0NIM11bQ0hdKFtDSDNdKWMxbmMoW2NIXXMxKVtDSDJdQyg9TylbTkhdW0NAQEhdMltDSDJdW0NIMl1bQ0gyXVtDSDJdW05IXUMyPU8=

> <s_epik_cmdline>
J2VwaWtfcHl0aG9uJywgJy1waCcsICc3LjAnLCAnLXRuJywgJzgnLCAnLW1hJywgJzIwMCcsICctbWV0YWxfYmluZGluZycsICctaW1hZScsICc8aW5maWxlLm1hZT4nLCAnLW9tYWUnLCAnPG91dGZpbGUubWFlPic=

> <r_lp_tautomer_probability>
1

> <r_epik_Ionization_Penalty>
3.1619e-05

> <r_epik_Ionization_Penalty_Charging>
0

> <r_epik_Ionization_Penalty_Neutral>
3.1619e-05

> <r_epik_State_Penalty>
-0

> <r_epik_Charging_Adjusted_Penalty>
0

> <i_epik_Tot_Q>
0

> <i_epik_Tot_abs_Q>
0

> <r_epik_Metal_State_Penalty>
-0

> <b_epik_Metal_Only>
0

> <s_lp_Force_Field>
OPLS_2005

> <r_lp_Energy>
2.42102

> <b_lp_Chiralities_Consistent>
1

> <s_lp_Variant>
AV-unprocessed.smi:2167-1

> <Gold.Version>
5.8.1

> <Gold.Id.Protein>
6NUR|6NUR_protein|mol2

> <Gold.PLP.Fitness>
39.7028

> <Gold.PLP.PLP>
-35.1115

> <Gold.PLP.part.hbond>
-1.0000

> <Gold.PLP.part.metal>
0.0000

> <Gold.PLP.part.buried>
-1.0529

> <Gold.PLP.part.nonpolar>
-32.6193

> <Gold.PLP.part.repulsive>
0.8604

> <Gold.PLP.ligand.clash>
0.0000

> <Gold.PLP.ligand.torsion>
0.4004

> <Gold.PLP.Chemscore.Hbond>
1.0000

> <Gold.PLP.Chemscore.CHOScore>
0.7718

> <Gold.PLP.Chemscore.Metal>
0.0000

> <Gold.Chemscore.Hbonds>
donor molecule, donor type, donor heavy atom, donor atom, acceptor molecule, acceptor atom, score
      P1  H  7997  8009       L1    18  0.78
      L1  C    19    41       P1  7949  0.76

> <Gold.PLP.Chemscore.Internal.Correction>
0.0769

> <Gold.Rescore>
     Score         DG    S(hbond)    S(metal)    S(lipo)     H(rot)  DE(clash)    DE(int)     intcor
     15.43     -16.34       0.86        0.00     102.64       1.57       0.52       0.40       ----

> <Gold.Chemscore.Fitness>
15.4256

> <Gold.Chemscore.DG>
-16.3404

> <Gold.Chemscore.ZeroCoef>
-5.4800

> <Gold.Chemscore.Hbond>
0.8622

> <Gold.Chemscore.Metal>
0.0000

> <Gold.Chemscore.Lipo>
102.6350

> <Gold.Chemscore.Internal_Hbond>
0.0000

> <Gold.Chemscore.DEClash>
0.5153

> <Gold.Chemscore.DEInternal>
0.3995

> <Gold.Chemscore.Rot>
1.5733

> <Gold.Chemscore.Internal.Correction>
   9.000000E+99

> <Gold.Chemscore.Hbonds>
donor molecule, donor type, donor heavy atom, donor atom, acceptor molecule, acceptor atom, score
      P1  H  7997  8009       L1    18  0.76

> <Gold.Chemscore.Hbond.Weighted>
-2.8797

> <Gold.Chemscore.Metal.Weighted>
-0.0000

> <Gold.Chemscore.Lipo.Weighted>
-12.0083

> <Gold.Chemscore.Internal_Hbond.Weighted>
0.0000

> <Gold.Chemscore.DEClash.Weighted>
0.5153

> <Gold.Chemscore.DEInternal.Weighted>
0.3995

> <Gold.Chemscore.Rot.Weighted>
4.0276

> <Gold.Chemscore.Internal.Correction.Weighted>
   9.000000E+99

> <Gold.Protein.RotatedTorsions>
[ 6907 6896 6895 6894 ] final  -83.80 input  -60.11 | X-H torsion
[ 7974 7965 7964 7962 ] final  -42.17 input  175.53 | X-H torsion
[ 8008 7997 7996 7995 ] final  117.69 input   59.86 | X-H torsion
[ 10167 10162 10161 10158 ] final   31.38 input  -65.29 | X-H torsion
[ 10718 10713 10712 10709 ] final   12.25 input   66.30 | X-H torsion
[ 10763 10752 10751 10750 ] final -118.83 input  -60.55 | X-H torsion
[ 11005 11000 10999 10996 ] final  -94.22 input  -57.11 | X-H torsion

> <Gold.Protein.ActiveResidues>
 VAL166  LYS551  ARG553  GLY616  TRP617  ASP618  TYR619  PRO620  LYS621  CYS622 
 ASP623  PHE694  ASN695  SER759  ASP760  ASP761  ALA762  ILE779  LEU786  VAL792 
 PHE793  MET794  SER795  GLU796  ALA797  LYS798  CYS799  TRP800  GLU811  SER814 

> <Gold.Protein.RotatedAtoms>
  150.6882  134.3456  159.4886 H   0  0  0  0  0  0  0  0  0  0  0  0  # atno 6907 bound_to 6896
  152.1304  134.9136  160.0568 H   0  0  0  0  0  0  0  0  0  0  0  0  # atno 6908 bound_to 6896
  152.0308  133.3902  159.4333 H   0  0  0  0  0  0  0  0  0  0  0  0  # atno 6909 bound_to 6896
  146.0142  140.6928  142.9210 H   0  0  0  0  0  0  0  0  0  0  0  0  # atno 7974 bound_to 7965
  156.2508  140.2891  156.0718 H   0  0  0  0  0  0  0  0  0  0  0  0  # atno 8008 bound_to 7997
  155.1662  140.0400  157.2870 H   0  0  0  0  0  0  0  0  0  0  0  0  # atno 8009 bound_to 7997
  154.6358  140.2510  155.7387 H   0  0  0  0  0  0  0  0  0  0  0  0  # atno 8010 bound_to 7997
  140.4594  144.0930  150.6209 H   0  0  0  0  0  0  0  0  0  0  0  0  # atno 10167 bound_to 10162
  157.0075  130.6104  149.5704 H   0  0  0  0  0  0  0  0  0  0  0  0  # atno 10718 bound_to 10713
  154.8599  135.4260  154.2202 H   0  0  0  0  0  0  0  0  0  0  0  0  # atno 10763 bound_to 10752
  153.3208  135.6982  153.7038 H   0  0  0  0  0  0  0  0  0  0  0  0  # atno 10764 bound_to 10752
  153.6093  135.3522  155.2947 H   0  0  0  0  0  0  0  0  0  0  0  0  # atno 10765 bound_to 10752
  141.1476  133.7941  157.0268 H   0  0  0  0  0  0  0  0  0  0  0  0  # atno 11005 bound_to 11000
  144.6964  140.3451  143.7192 LP  0  0  0  0  0  0  0  0  0  0  0  0  # atno 17320 bound_to 7965
  145.7295  139.1732  143.2438 LP  0  0  0  0  0  0  0  0  0  0  0  0  # atno 17321 bound_to 7965
  140.4112  143.2656  151.9830 LP  0  0  0  0  0  0  0  0  0  0  0  0  # atno 17342 bound_to 10162
  139.4804  144.5913  151.7766 LP  0  0  0  0  0  0  0  0  0  0  0  0  # atno 17343 bound_to 10162
  156.0148  130.5242  150.8102 LP  0  0  0  0  0  0  0  0  0  0  0  0  # atno 17370 bound_to 10713
  157.5345  131.0938  150.9910 LP  0  0  0  0  0  0  0  0  0  0  0  0  # atno 17371 bound_to 10713
  140.0780  134.9665  157.1577 LP  0  0  0  0  0  0  0  0  0  0  0  0  # atno 17394 bound_to 11000
  140.3617  134.2487  155.7186 LP  0  0  0  0  0  0  0  0  0  0  0  0  # atno 17395 bound_to 11000

$$$$
