AV-unprocessed.smi:702|AV-procd|sdf|3423|dock7
  -GOLD-   22720 0403D 1   1.00000     0.00000
 Structure written by MMmdl.
 50 52  0  0  0  0  0  0  0  0  2 V2000
  145.4629  138.6438  154.2103 C   0  0  0  0  0  0  0  0  0  0  0  0
  146.7808  137.8687  154.4062 C   0  0  1  0  0  0  0  0  0  0  0  0
  146.8758  136.8436  153.3596 N   0  0  0  0  0  0  0  0  0  0  0  0
  145.9171  135.9806  152.9914 C   0  0  0  0  0  0  0  0  0  0  0  0
  144.7936  135.9494  153.4921 O   0  0  0  0  0  0  0  0  0  0  0  0
  146.3605  135.1506  152.0316 N   0  0  0  0  0  0  0  0  0  0  0  0
  145.6725  134.0773  151.4039 C   0  0  0  0  0  0  0  0  0  0  0  0
  144.3048  133.9073  151.7135 C   0  0  0  0  0  0  0  0  0  0  0  0
  143.5847  132.8474  151.1258 C   0  0  0  0  0  0  0  0  0  0  0  0
  144.2080  131.9983  150.2810 N   0  3  0  0  0  0  0  0  0  0  0  0
  145.5161  132.1110  149.9663 C   0  0  0  0  0  0  0  0  0  0  0  0
  146.2877  133.1514  150.5230 C   0  0  0  0  0  0  0  0  0  0  0  0
  148.0565  138.7923  154.4605 C   0  0  0  0  0  0  0  0  0  0  0  0
  149.3136  137.9841  154.3979 N   0  0  0  0  0  0  0  0  0  0  0  0
  149.3580  136.8101  155.2853 C   0  0  0  0  0  0  0  0  0  0  0  0
  150.6278  135.9690  155.0752 C   0  0  0  0  0  0  0  0  0  0  0  0
  151.7754  136.7817  155.2826 O   0  0  0  0  0  0  0  0  0  0  0  0
  151.8127  137.8953  154.3999 C   0  0  0  0  0  0  0  0  0  0  0  0
  150.5504  138.7554  154.5849 C   0  0  0  0  0  0  0  0  0  0  0  0
  147.9684  139.8558  153.3189 C   0  0  0  0  0  0  0  0  0  0  0  0
  147.6313  141.2000  153.9676 C   0  0  0  0  0  0  0  0  0  0  0  0
  148.2382  141.1056  155.3594 C   0  0  0  0  0  0  0  0  0  0  0  0
  147.9949  139.6517  155.7669 C   0  0  0  0  0  0  0  0  0  0  0  0
  145.2926  139.3578  155.0159 H   0  0  0  0  0  0  0  0  0  0  0  0
  144.6102  137.9641  154.2010 H   0  0  0  0  0  0  0  0  0  0  0  0
  145.4518  139.1962  153.2709 H   0  0  0  0  0  0  0  0  0  0  0  0
  146.6949  137.3416  155.3549 H   0  0  0  0  0  0  0  0  0  0  0  0
  147.7659  136.7800  152.8876 H   0  0  0  0  0  0  0  0  0  0  0  0
  147.3317  135.2521  151.7755 H   0  0  0  0  0  0  0  0  0  0  0  0
  143.8061  134.5857  152.3909 H   0  0  0  0  0  0  0  0  0  0  0  0
  142.5371  132.6542  151.3061 H   0  0  0  0  0  0  0  0  0  0  0  0
  145.9063  131.3672  149.2869 H   0  0  0  0  0  0  0  0  0  0  0  0
  147.3359  133.2107  150.2731 H   0  0  0  0  0  0  0  0  0  0  0  0
  149.3183  137.1129  156.3305 H   0  0  0  0  0  0  0  0  0  0  0  0
  148.5036  136.1573  155.1212 H   0  0  0  0  0  0  0  0  0  0  0  0
  150.6507  135.1361  155.7781 H   0  0  0  0  0  0  0  0  0  0  0  0
  150.6485  135.5422  154.0713 H   0  0  0  0  0  0  0  0  0  0  0  0
  152.7055  138.4850  154.6085 H   0  0  0  0  0  0  0  0  0  0  0  0
  151.8935  137.5483  153.3686 H   0  0  0  0  0  0  0  0  0  0  0  0
  150.6194  139.5702  153.8685 H   0  0  0  0  0  0  0  0  0  0  0  0
  150.5664  139.2061  155.5775 H   0  0  0  0  0  0  0  0  0  0  0  0
  148.9132  139.9667  152.7903 H   0  0  0  0  0  0  0  0  0  0  0  0
  147.2435  139.5947  152.5474 H   0  0  0  0  0  0  0  0  0  0  0  0
  148.0156  142.0473  153.3993 H   0  0  0  0  0  0  0  0  0  0  0  0
  146.5496  141.3150  154.0444 H   0  0  0  0  0  0  0  0  0  0  0  0
  149.3081  141.3100  155.3097 H   0  0  0  0  0  0  0  0  0  0  0  0
  147.7966  141.8168  156.0580 H   0  0  0  0  0  0  0  0  0  0  0  0
  147.0155  139.6109  156.2415 H   0  0  0  0  0  0  0  0  0  0  0  0
  148.6821  139.3180  156.5443 H   0  0  0  0  0  0  0  0  0  0  0  0
  143.6696  131.2366  149.8669 H   0  0  0  0  0  0  0  0  0  0  0  0
  1  2  1  0  0  0  0
  1 24  1  0  0  0  0
  1 25  1  0  0  0  0
  1 26  1  0  0  0  0
  2  3  1  0  0  0  0
  2 13  1  0  0  0  0
  2 27  1  0  0  0  0
  3  4  1  0  0  0  0
  3 28  1  0  0  0  0
  4  5  2  0  0  0  0
  4  6  1  0  0  0  0
  6  7  1  0  0  0  0
  6 29  1  0  0  0  0
  7 12  1  0  0  0  0
  7  8  2  0  0  0  0
  8  9  1  0  0  0  0
  8 30  1  0  0  0  0
  9 10  2  0  0  0  0
  9 31  1  0  0  0  0
 10 11  1  0  0  0  0
 10 50  1  0  0  0  0
 11 12  2  0  0  0  0
 11 32  1  0  0  0  0
 12 33  1  0  0  0  0
 13 23  1  0  0  0  0
 13 14  1  0  0  0  0
 13 20  1  0  0  0  0
 14 19  1  0  0  0  0
 14 15  1  0  0  0  0
 15 16  1  0  0  0  0
 15 34  1  0  0  0  0
 15 35  1  0  0  0  0
 16 17  1  0  0  0  0
 16 36  1  0  0  0  0
 16 37  1  0  0  0  0
 17 18  1  0  0  0  0
 18 19  1  0  0  0  0
 18 38  1  0  0  0  0
 18 39  1  0  0  0  0
 19 40  1  0  0  0  0
 19 41  1  0  0  0  0
 20 21  1  0  0  0  0
 20 42  1  0  0  0  0
 20 43  1  0  0  0  0
 21 22  1  0  0  0  0
 21 44  1  0  0  0  0
 21 45  1  0  0  0  0
 22 23  1  0  0  0  0
 22 46  1  0  0  0  0
 22 47  1  0  0  0  0
 23 48  1  0  0  0  0
 23 49  1  0  0  0  0
M  CHG  1  10   1
M  END
> <s_m_source_file>
AV-unprocessed.smi

> <i_m_source_file_index>
702

> <i_lp_mmshare_version>
43012

> <i_f3d_flags>
0

> <s_epik_input>
W0NIMl0xW0NIMl1PW0NIMl1bQ0gyXU4xQzIoW0NIMl1bQ0gyXVtDSDJdW0NIMl0yKVtDQEhdKFtDSDNdKVtOSF1DKD1PKVtOSF1jM1tjSF1bY0hdbltjSF1bY0hdMw==

> <s_epik_cmdline>
J2VwaWtfcHl0aG9uJywgJy1waCcsICc3LjAnLCAnLXRuJywgJzgnLCAnLW1hJywgJzIwMCcsICctbWV0YWxfYmluZGluZycsICctaW1hZScsICc8aW5maWxlLm1hZT4nLCAnLW9tYWUnLCAnPG91dGZpbGUubWFlPic=

> <r_epik_Ionization_Penalty>
1.54019

> <r_epik_Ionization_Penalty_Charging>
1.02845

> <r_epik_Ionization_Penalty_Neutral>
0.511739

> <r_epik_State_Penalty>
1.62583

> <r_epik_Charging_Adjusted_Penalty>
2.65428

> <i_epik_Tot_Q>
1

> <i_epik_Tot_abs_Q>
1

> <r_epik_Metal_State_Penalty>
1.71803

> <b_epik_Metal_Only>
0

> <s_lp_Force_Field>
OPLS_2005

> <r_lp_Energy>
72.2563

> <b_lp_Chiralities_Consistent>
1

> <s_lp_Variant>
AV-unprocessed.smi:702-8

> <Gold.Version>
5.8.1

> <Gold.Id.Protein>
6NUR|6NUR_protein|mol2

> <Gold.PLP.Fitness>
39.8095

> <Gold.PLP.PLP>
-31.8288

> <Gold.PLP.part.hbond>
-3.0000

> <Gold.PLP.part.metal>
0.0000

> <Gold.PLP.part.buried>
-2.6894

> <Gold.PLP.part.nonpolar>
-27.8190

> <Gold.PLP.part.repulsive>
0.8158

> <Gold.PLP.ligand.clash>
0.0000

> <Gold.PLP.ligand.torsion>
0.5107

> <Gold.PLP.Chemscore.Hbond>
2.9600

> <Gold.PLP.Chemscore.CHOScore>
0.0000

> <Gold.PLP.Chemscore.Metal>
0.0000

> <Gold.Chemscore.Hbonds>
donor molecule, donor type, donor heavy atom, donor atom, acceptor molecule, acceptor atom, score
      L1  H     3    28       P1  7948  1.00
      L1  H     6    29       P1  7948  1.00
      P1  H 10752 10763       L1    17  0.90

> <Gold.PLP.Chemscore.Internal.Correction>
0.1222

> <Gold.Rescore>
     Score         DG    S(hbond)    S(metal)    S(lipo)     H(rot)  DE(clash)    DE(int)     intcor
     15.65     -19.42       2.30        0.00      84.90       1.44       0.50       3.27       ----

> <Gold.Chemscore.Fitness>
15.6464

> <Gold.Chemscore.DG>
-19.4155

> <Gold.Chemscore.ZeroCoef>
-5.4800

> <Gold.Chemscore.Hbond>
2.3016

> <Gold.Chemscore.Metal>
0.0000

> <Gold.Chemscore.Lipo>
84.8965

> <Gold.Chemscore.Internal_Hbond>
0.0000

> <Gold.Chemscore.DEClash>
0.5009

> <Gold.Chemscore.DEInternal>
3.2682

> <Gold.Chemscore.Rot>
1.4394

> <Gold.Chemscore.Internal.Correction>
   9.000000E+99

> <Gold.Chemscore.Hbonds>
donor molecule, donor type, donor heavy atom, donor atom, acceptor molecule, acceptor atom, score
      L1  H     3    28       P1  7948  0.99
      L1  H     6    29       P1  7948  0.92
      P1  H 10752 10763       L1    17  0.17

> <Gold.Chemscore.Hbond.Weighted>
-7.6874

> <Gold.Chemscore.Metal.Weighted>
-0.0000

> <Gold.Chemscore.Lipo.Weighted>
-9.9329

> <Gold.Chemscore.Internal_Hbond.Weighted>
0.0000

> <Gold.Chemscore.DEClash.Weighted>
0.5009

> <Gold.Chemscore.DEInternal.Weighted>
3.2682

> <Gold.Chemscore.Rot.Weighted>
3.6848

> <Gold.Chemscore.Internal.Correction.Weighted>
   9.000000E+99

> <Gold.Protein.RotatedTorsions>
[ 6907 6896 6895 6894 ] final   26.23 input  -60.11 | X-H torsion
[ 7974 7965 7964 7962 ] final   33.95 input  175.53 | X-H torsion
[ 8008 7997 7996 7995 ] final -112.84 input   59.86 | X-H torsion
[ 10167 10162 10161 10158 ] final  144.42 input  -65.29 | X-H torsion
[ 10718 10713 10712 10709 ] final   17.22 input   66.30 | X-H torsion
[ 10763 10752 10751 10750 ] final   83.81 input  -60.55 | X-H torsion
[ 11005 11000 10999 10996 ] final  156.16 input  -57.11 | X-H torsion

> <Gold.Protein.ActiveResidues>
 VAL166  LYS551  ARG553  GLY616  TRP617  ASP618  TYR619  PRO620  LYS621  CYS622 
 ASP623  PHE694  ASN695  SER759  ASP760  ASP761  ALA762  ILE779  LEU786  VAL792 
 PHE793  MET794  SER795  GLU796  ALA797  LYS798  CYS799  TRP800  GLU811  SER814 

> <Gold.Protein.RotatedAtoms>
  151.9843  135.0012  160.0558 H   0  0  0  0  0  0  0  0  0  0  0  0  # atno 6907 bound_to 6896
  152.1667  133.4612  159.4897 H   0  0  0  0  0  0  0  0  0  0  0  0  # atno 6908 bound_to 6896
  150.6895  134.1921  159.4332 H   0  0  0  0  0  0  0  0  0  0  0  0  # atno 6909 bound_to 6896
  146.1386  139.6332  142.9178 H   0  0  0  0  0  0  0  0  0  0  0  0  # atno 7974 bound_to 7965
  155.0115  140.0393  157.2401 H   0  0  0  0  0  0  0  0  0  0  0  0  # atno 8008 bound_to 7997
  154.7456  140.2757  155.6313 H   0  0  0  0  0  0  0  0  0  0  0  0  # atno 8009 bound_to 7997
  156.2874  140.2657  156.2195 H   0  0  0  0  0  0  0  0  0  0  0  0  # atno 8010 bound_to 7997
  139.4947  144.5973  151.6556 H   0  0  0  0  0  0  0  0  0  0  0  0  # atno 10167 bound_to 10162
  157.0790  130.6380  149.5822 H   0  0  0  0  0  0  0  0  0  0  0  0  # atno 10718 bound_to 10713
  153.1324  135.4677  154.9370 H   0  0  0  0  0  0  0  0  0  0  0  0  # atno 10763 bound_to 10752
  154.7676  135.3149  154.8257 H   0  0  0  0  0  0  0  0  0  0  0  0  # atno 10764 bound_to 10752
  153.8796  135.6895  153.4822 H   0  0  0  0  0  0  0  0  0  0  0  0  # atno 10765 bound_to 10752
  140.1649  134.8584  157.2619 H   0  0  0  0  0  0  0  0  0  0  0  0  # atno 11005 bound_to 11000
  145.5098  141.0435  143.2494 LP  0  0  0  0  0  0  0  0  0  0  0  0  # atno 17320 bound_to 7965
  144.7767  139.6614  143.7171 LP  0  0  0  0  0  0  0  0  0  0  0  0  # atno 17321 bound_to 7965
  140.5614  144.0262  150.6171 LP  0  0  0  0  0  0  0  0  0  0  0  0  # atno 17342 bound_to 10162
  140.3349  143.3054  152.0648 LP  0  0  0  0  0  0  0  0  0  0  0  0  # atno 17343 bound_to 10162
  155.9929  130.4988  150.7358 LP  0  0  0  0  0  0  0  0  0  0  0  0  # atno 17370 bound_to 10713
  157.4815  131.0903  151.0530 LP  0  0  0  0  0  0  0  0  0  0  0  0  # atno 17371 bound_to 10713
  140.2446  134.3755  155.7466 LP  0  0  0  0  0  0  0  0  0  0  0  0  # atno 17394 bound_to 11000
  141.2213  133.7283  156.8842 LP  0  0  0  0  0  0  0  0  0  0  0  0  # atno 17395 bound_to 11000

$$$$
