AV-unprocessed.smi:3038|AV-procd|sdf|11588|dock4
  -GOLD-   2272016563D 1   1.00000     0.00000
 Structure written by MMmdl.
 37 39  0  0  0  0  0  0  0  0  2 V2000
  154.0929  139.2362  158.5950 O   0  0  0  0  0  0  0  0  0  0  0  0
  154.2933  138.9847  159.7827 C   0  0  0  0  0  0  0  0  0  0  0  0
  154.6836  137.5682  160.2092 C   0  0  0  0  0  0  0  0  0  0  0  0
  154.6245  136.6471  159.0893 N   0  0  0  0  0  0  0  0  0  0  0  0
  155.2834  136.6333  157.9287 C   0  0  0  0  0  0  0  0  0  0  0  0
  154.9144  135.6127  157.1700 N   0  0  0  0  0  0  0  0  0  0  0  0
  153.9628  134.9712  157.9452 N   0  0  0  0  0  0  0  0  0  0  0  0
  153.7860  135.5806  159.0851 N   0  0  0  0  0  0  0  0  0  0  0  0
  154.1945  139.9010  160.7592 N   0  0  0  0  0  0  0  0  0  0  0  0
  153.8156  141.2975  160.5706 C   0  0  2  0  0  0  0  0  0  0  0  0
  153.3665  141.9278  161.9019 C   0  0  0  0  0  0  0  0  0  0  0  0
  152.8625  143.3658  161.6933 C   0  0  0  0  0  0  0  0  0  0  0  0
  151.7675  143.4090  160.6925 N   0  3  1  0  0  0  0  0  0  0  0  0
  151.1930  144.7650  160.5537 C   0  0  0  0  0  0  0  0  0  0  0  0
  150.4814  144.9922  159.2404 C   0  0  0  0  0  0  0  0  0  0  0  0
  151.8479  145.5963  159.4752 C   0  0  0  0  0  0  0  0  0  0  0  0
  152.1935  142.8457  159.3871 C   0  0  0  0  0  0  0  0  0  0  0  0
  152.6757  141.3939  159.5435 C   0  0  0  0  0  0  0  0  0  0  0  0
  155.6973  137.5632  160.6124 H   0  0  0  0  0  0  0  0  0  0  0  0
  154.0193  137.2208  161.0017 H   0  0  0  0  0  0  0  0  0  0  0  0
  156.0217  137.3671  157.6408 H   0  0  0  0  0  0  0  0  0  0  0  0
  154.3791  139.6009  161.7061 H   0  0  0  0  0  0  0  0  0  0  0  0
  154.6716  141.8539  160.1835 H   0  0  0  0  0  0  0  0  0  0  0  0
  152.5719  141.3270  162.3474 H   0  0  0  0  0  0  0  0  0  0  0  0
  154.1912  141.9287  162.6159 H   0  0  0  0  0  0  0  0  0  0  0  0
  152.5067  143.7679  162.6427 H   0  0  0  0  0  0  0  0  0  0  0  0
  153.6822  144.0075  161.3657 H   0  0  0  0  0  0  0  0  0  0  0  0
  150.8309  145.2337  161.4674 H   0  0  0  0  0  0  0  0  0  0  0  0
  150.4138  144.1628  158.5385 H   0  0  0  0  0  0  0  0  0  0  0  0
  149.6304  145.6703  159.2418 H   0  0  0  0  0  0  0  0  0  0  0  0
  151.8968  146.6720  159.6317 H   0  0  0  0  0  0  0  0  0  0  0  0
  152.6872  145.1671  158.9305 H   0  0  0  0  0  0  0  0  0  0  0  0
  151.3599  142.8781  158.6846 H   0  0  0  0  0  0  0  0  0  0  0  0
  152.9879  143.4625  158.9640 H   0  0  0  0  0  0  0  0  0  0  0  0
  153.0072  141.0090  158.5783 H   0  0  0  0  0  0  0  0  0  0  0  0
  151.8390  140.7667  159.8556 H   0  0  0  0  0  0  0  0  0  0  0  0
  151.0284  142.8154  161.0410 H   0  0  0  0  0  0  0  0  0  0  0  0
  1  2  2  0  0  0  0
  2  3  1  0  0  0  0
  2  9  1  0  0  0  0
  3  4  1  0  0  0  0
  3 19  1  0  0  0  0
  3 20  1  0  0  0  0
  4  8  1  0  0  0  0
  4  5  1  0  0  0  0
  5  6  2  0  0  0  0
  5 21  1  0  0  0  0
  6  7  1  0  0  0  0
  7  8  2  0  0  0  0
  9 10  1  0  0  0  0
  9 22  1  0  0  0  0
 10 18  1  0  0  0  0
 10 11  1  0  0  0  0
 10 23  1  0  0  0  0
 11 12  1  0  0  0  0
 11 24  1  0  0  0  0
 11 25  1  0  0  0  0
 12 13  1  0  0  0  0
 12 26  1  0  0  0  0
 12 27  1  0  0  0  0
 13 14  1  0  0  0  0
 13 17  1  0  0  0  0
 13 37  1  0  0  0  0
 14 16  1  0  0  0  0
 14 15  1  0  0  0  0
 14 28  1  0  0  0  0
 15 16  1  0  0  0  0
 15 29  1  0  0  0  0
 15 30  1  0  0  0  0
 16 31  1  0  0  0  0
 16 32  1  0  0  0  0
 17 18  1  0  0  0  0
 17 33  1  0  0  0  0
 17 34  1  0  0  0  0
 18 35  1  0  0  0  0
 18 36  1  0  0  0  0
M  CHG  1  13   1
M  END
> <s_m_source_file>
AV-unprocessed.smi

> <i_m_source_file_index>
3038

> <i_lp_mmshare_version>
43012

> <i_f3d_flags>
0

> <s_epik_input>
bjFubltjSF1uMVtDSDJdQyg9TylbTkhdW0NIXTJbQ0gyXVtDSDJdTihbQ0gyXVtDSDJdMilbQ0hdM1tDSDJdW0NIMl0z

> <s_epik_cmdline>
J2VwaWtfcHl0aG9uJywgJy1waCcsICc3LjAnLCAnLXRuJywgJzgnLCAnLW1hJywgJzIwMCcsICctbWV0YWxfYmluZGluZycsICctaW1hZScsICc8aW5maWxlLm1hZT4nLCAnLW9tYWUnLCAnPG91dGZpbGUubWFlPic=

> <r_lp_tautomer_probability>
1

> <r_epik_Ionization_Penalty>
0.284275

> <r_epik_Ionization_Penalty_Charging>
0.284273

> <r_epik_Ionization_Penalty_Neutral>
2.31262e-06

> <r_epik_State_Penalty>
0.277002

> <r_epik_Charging_Adjusted_Penalty>
0.561274

> <i_epik_Tot_Q>
1

> <i_epik_Tot_abs_Q>
1

> <r_epik_Metal_State_Penalty>
0.277002

> <b_epik_Metal_Only>
0

> <s_lp_Force_Field>
OPLS_2005

> <r_lp_Energy>
27.0237

> <b_lp_Chiralities_Consistent>
1

> <s_lp_Variant>
AV-unprocessed.smi:3038-1

> <Gold.Version>
5.8.1

> <Gold.Id.Protein>
6NUR|6NUR_protein|mol2

> <Gold.PLP.Fitness>
43.3608

> <Gold.PLP.PLP>
-35.0375

> <Gold.PLP.part.hbond>
-3.7308

> <Gold.PLP.part.metal>
0.0000

> <Gold.PLP.part.buried>
-5.3859

> <Gold.PLP.part.nonpolar>
-26.0824

> <Gold.PLP.part.repulsive>
0.1165

> <Gold.PLP.ligand.clash>
0.0139

> <Gold.PLP.ligand.torsion>
0.9289

> <Gold.PLP.Chemscore.Hbond>
2.9760

> <Gold.PLP.Chemscore.CHOScore>
0.0000

> <Gold.PLP.Chemscore.Metal>
0.0000

> <Gold.Chemscore.Hbonds>
donor molecule, donor type, donor heavy atom, donor atom, acceptor molecule, acceptor atom, score
      P1  H  6896  6907       L1     8  0.98
      P1  H  7997  8010       L1     1  1.00
      P1  H 10752 10764       L1     6  1.00

> <Gold.PLP.Chemscore.Internal.Correction>
1.2670

> <Gold.Rescore>
     Score         DG    S(hbond)    S(metal)    S(lipo)     H(rot)  DE(clash)    DE(int)     intcor
     14.58     -19.19       2.69        0.00      89.77       2.25       1.15       3.46       ----

> <Gold.Chemscore.Fitness>
14.5802

> <Gold.Chemscore.DG>
-19.1947

> <Gold.Chemscore.ZeroCoef>
-5.4800

> <Gold.Chemscore.Hbond>
2.6882

> <Gold.Chemscore.Metal>
0.0000

> <Gold.Chemscore.Lipo>
89.7715

> <Gold.Chemscore.Internal_Hbond>
0.0000

> <Gold.Chemscore.DEClash>
1.1521

> <Gold.Chemscore.DEInternal>
3.4623

> <Gold.Chemscore.Rot>
2.2528

> <Gold.Chemscore.Internal.Correction>
   9.000000E+99

> <Gold.Chemscore.Hbonds>
donor molecule, donor type, donor heavy atom, donor atom, acceptor molecule, acceptor atom, score
      P1  H  6896  6907       L1     8  0.52
      P1  H  7997  8010       L1     1  1.00
      P1  H 10752 10764       L1     6  0.62

> <Gold.Chemscore.Hbond.Weighted>
-8.9787

> <Gold.Chemscore.Metal.Weighted>
-0.0000

> <Gold.Chemscore.Lipo.Weighted>
-10.5033

> <Gold.Chemscore.Internal_Hbond.Weighted>
0.0000

> <Gold.Chemscore.DEClash.Weighted>
1.1521

> <Gold.Chemscore.DEInternal.Weighted>
3.4623

> <Gold.Chemscore.Rot.Weighted>
5.7672

> <Gold.Chemscore.Internal.Correction.Weighted>
   9.000000E+99

> <Gold.Protein.RotatedTorsions>
[ 6907 6896 6895 6894 ] final   61.99 input  -60.11 | X-H torsion
[ 7974 7965 7964 7962 ] final -112.22 input  175.53 | X-H torsion
[ 8008 7997 7996 7995 ] final   12.29 input   59.86 | X-H torsion
[ 10167 10162 10161 10158 ] final    3.32 input  -65.29 | X-H torsion
[ 10718 10713 10712 10709 ] final  -71.01 input   66.30 | X-H torsion
[ 10763 10752 10751 10750 ] final   55.40 input  -60.55 | X-H torsion
[ 11005 11000 10999 10996 ] final   80.98 input  -57.11 | X-H torsion

> <Gold.Protein.ActiveResidues>
 VAL166  LYS551  ARG553  GLY616  TRP617  ASP618  TYR619  PRO620  LYS621  CYS622 
 ASP623  PHE694  ASN695  SER759  ASP760  ASP761  ALA762  ILE779  LEU786  VAL792 
 PHE793  MET794  SER795  GLU796  ALA797  LYS798  CYS799  TRP800  GLU811  SER814 

> <Gold.Protein.RotatedAtoms>
  152.4135  134.6083  160.0018 H   0  0  0  0  0  0  0  0  0  0  0  0  # atno 6907 bound_to 6896
  151.6253  133.3330  159.3105 H   0  0  0  0  0  0  0  0  0  0  0  0  # atno 6908 bound_to 6896
  150.8025  134.7167  159.6679 H   0  0  0  0  0  0  0  0  0  0  0  0  # atno 6909 bound_to 6896
  145.1466  140.8806  143.3671 H   0  0  0  0  0  0  0  0  0  0  0  0  # atno 7974 bound_to 7965
  154.8186  140.2880  155.5803 H   0  0  0  0  0  0  0  0  0  0  0  0  # atno 8008 bound_to 7997
  156.2995  140.2554  156.3019 H   0  0  0  0  0  0  0  0  0  0  0  0  # atno 8009 bound_to 7997
  154.9365  140.0382  157.2064 H   0  0  0  0  0  0  0  0  0  0  0  0  # atno 8010 bound_to 7997
  140.6591  143.7350  150.7707 H   0  0  0  0  0  0  0  0  0  0  0  0  # atno 10167 bound_to 10162
  156.0382  130.4343  150.2381 H   0  0  0  0  0  0  0  0  0  0  0  0  # atno 10718 bound_to 10713
  152.9816  135.5712  154.5060 H   0  0  0  0  0  0  0  0  0  0  0  0  # atno 10763 bound_to 10752
  154.4572  135.2780  155.1741 H   0  0  0  0  0  0  0  0  0  0  0  0  # atno 10764 bound_to 10752
  154.3344  135.6242  153.5620 H   0  0  0  0  0  0  0  0  0  0  0  0  # atno 10765 bound_to 10752
  139.9114  134.7962  156.1980 H   0  0  0  0  0  0  0  0  0  0  0  0  # atno 11005 bound_to 11000
  145.0476  139.3208  143.5945 LP  0  0  0  0  0  0  0  0  0  0  0  0  # atno 17320 bound_to 7965
  146.3499  139.9872  142.8689 LP  0  0  0  0  0  0  0  0  0  0  0  0  # atno 17321 bound_to 7965
  140.1015  143.4783  152.2422 LP  0  0  0  0  0  0  0  0  0  0  0  0  # atno 17342 bound_to 10162
  139.5821  144.7515  151.3614 LP  0  0  0  0  0  0  0  0  0  0  0  0  # atno 17343 bound_to 10162
  157.0478  131.0054  151.3263 LP  0  0  0  0  0  0  0  0  0  0  0  0  # atno 17370 bound_to 10713
  157.5162  130.7969  149.7759 LP  0  0  0  0  0  0  0  0  0  0  0  0  # atno 17371 bound_to 10713
  141.0542  133.6873  156.1829 LP  0  0  0  0  0  0  0  0  0  0  0  0  # atno 17394 bound_to 11000
  140.6763  134.4815  157.5588 LP  0  0  0  0  0  0  0  0  0  0  0  0  # atno 17395 bound_to 11000

$$$$
