AV-unprocessed.smi:89|AV-procd|sdf|828|dock9
  -GOLD-   2262017243D 1   1.00000     0.00000
 Structure written by MMmdl.
 54 56  0  0  0  0  0  0  0  0  1 V2000
  149.6788  136.1373  155.6972 C   0  0  0  0  0  0  0  0  0  0  0  0
  148.6129  136.9712  156.4276 C   0  0  0  0  0  0  0  0  0  0  0  0
  148.1948  138.1648  155.6888 N   0  0  0  0  0  0  0  0  0  0  0  0
  147.4850  137.9268  154.5560 C   0  0  0  0  0  0  0  0  0  0  0  0
  147.6540  138.7895  153.5228 N   0  0  0  0  0  0  0  0  0  0  0  0
  146.9745  138.6219  152.3853 C   0  0  0  0  0  0  0  0  0  0  0  0
  146.0870  137.6752  152.0758 N   0  0  0  0  0  0  0  0  0  0  0  0
  145.9056  136.8090  153.1137 C   0  0  0  0  0  0  0  0  0  0  0  0
  146.5540  136.8613  154.3803 C   0  0  0  0  0  0  0  0  0  0  0  0
  146.1091  135.8138  155.1787 N   0  0  0  0  0  0  0  0  0  0  0  0
  145.2508  135.1795  154.4281 C   0  0  0  0  0  0  0  0  0  0  0  0
  145.0743  135.7041  153.1680 N   0  0  0  0  0  0  0  0  0  0  0  0
  144.1854  135.2037  152.1307 C   0  0  0  0  0  0  0  0  0  0  0  0
  144.9169  134.7102  150.8567 C   0  0  2  0  0  0  0  0  0  0  0  0
  145.0795  135.7988  149.9658 O   0  0  0  0  0  0  0  0  0  0  0  0
  144.2072  133.5677  150.1287 C   0  0  0  0  0  0  0  0  0  0  0  0
  144.9018  132.3350  150.6866 C   0  0  0  0  0  0  0  0  0  0  0  0
  146.2555  132.7501  150.7386 O   0  0  0  0  0  0  0  0  0  0  0  0
  146.2918  134.0980  151.1954 C   0  0  0  0  0  0  0  0  0  0  0  0
  149.1652  139.2700  155.6298 C   0  0  1  0  0  0  0  0  0  0  0  0
  148.4975  140.6585  155.6386 C   0  0  0  0  0  0  0  0  0  0  0  0
  150.2815  139.1812  156.6936 C   0  0  0  0  0  0  0  0  0  0  0  0
  151.6790  140.3286  156.3177 S   0  0  0  0  0  0  0  0  0  0  0  0
  152.8285  139.9886  157.1696 O   0  0  0  0  0  0  0  0  0  0  0  0
  151.8599  140.3793  154.8589 O   0  0  0  0  0  0  0  0  0  0  0  0
  151.0026  141.9470  156.8780 C   0  0  0  0  0  0  0  0  0  0  0  0
  151.8028  142.4928  158.0644 C   0  0  0  0  0  0  0  0  0  0  0  0
  149.8949  135.2239  156.2513 H   0  0  0  0  0  0  0  0  0  0  0  0
  150.6180  136.6798  155.5867 H   0  0  0  0  0  0  0  0  0  0  0  0
  149.3367  135.8488  154.7030 H   0  0  0  0  0  0  0  0  0  0  0  0
  147.7361  136.3423  156.5852 H   0  0  0  0  0  0  0  0  0  0  0  0
  148.9682  137.2436  157.4210 H   0  0  0  0  0  0  0  0  0  0  0  0
  147.1695  139.3523  151.6140 H   0  0  0  0  0  0  0  0  0  0  0  0
  144.7222  134.3028  154.7735 H   0  0  0  0  0  0  0  0  0  0  0  0
  143.5888  134.3964  152.5578 H   0  0  0  0  0  0  0  0  0  0  0  0
  143.4814  135.9965  151.8752 H   0  0  0  0  0  0  0  0  0  0  0  0
  145.1019  135.4618  149.0831 H   0  0  0  0  0  0  0  0  0  0  0  0
  143.1269  133.5416  150.2627 H   0  0  0  0  0  0  0  0  0  0  0  0
  144.3981  133.6174  149.0554 H   0  0  0  0  0  0  0  0  0  0  0  0
  144.5437  132.1012  151.6906 H   0  0  0  0  0  0  0  0  0  0  0  0
  144.7735  131.4548  150.0564 H   0  0  0  0  0  0  0  0  0  0  0  0
  147.1227  134.6243  150.7237 H   0  0  0  0  0  0  0  0  0  0  0  0
  146.4756  134.0991  152.2707 H   0  0  0  0  0  0  0  0  0  0  0  0
  149.6615  139.1848  154.6624 H   0  0  0  0  0  0  0  0  0  0  0  0
  149.2331  141.4438  155.4629 H   0  0  0  0  0  0  0  0  0  0  0  0
  148.0203  140.8706  156.5953 H   0  0  0  0  0  0  0  0  0  0  0  0
  147.7418  140.7458  154.8581 H   0  0  0  0  0  0  0  0  0  0  0  0
  149.8897  139.4815  157.6654 H   0  0  0  0  0  0  0  0  0  0  0  0
  150.6679  138.1701  156.8149 H   0  0  0  0  0  0  0  0  0  0  0  0
  151.0355  142.6412  156.0381 H   0  0  0  0  0  0  0  0  0  0  0  0
  149.9573  141.8038  157.1527 H   0  0  0  0  0  0  0  0  0  0  0  0
  151.4030  143.4515  158.3952 H   0  0  0  0  0  0  0  0  0  0  0  0
  152.8492  142.6415  157.7972 H   0  0  0  0  0  0  0  0  0  0  0  0
  151.7675  141.8062  158.9105 H   0  0  0  0  0  0  0  0  0  0  0  0
  1  2  1  0  0  0  0
  1 28  1  0  0  0  0
  1 29  1  0  0  0  0
  1 30  1  0  0  0  0
  2  3  1  0  0  0  0
  2 31  1  0  0  0  0
  2 32  1  0  0  0  0
  3  4  1  0  0  0  0
  3 20  1  0  0  0  0
  4  9  1  0  0  0  0
  4  5  2  0  0  0  0
  5  6  1  0  0  0  0
  6  7  2  0  0  0  0
  6 33  1  0  0  0  0
  7  8  1  0  0  0  0
  8 12  1  0  0  0  0
  8  9  2  0  0  0  0
  9 10  1  0  0  0  0
 10 11  2  0  0  0  0
 11 12  1  0  0  0  0
 11 34  1  0  0  0  0
 12 13  1  0  0  0  0
 13 14  1  0  0  0  0
 13 35  1  0  0  0  0
 13 36  1  0  0  0  0
 14 19  1  0  0  0  0
 14 15  1  0  0  0  0
 14 16  1  0  0  0  0
 15 37  1  0  0  0  0
 16 17  1  0  0  0  0
 16 38  1  0  0  0  0
 16 39  1  0  0  0  0
 17 18  1  0  0  0  0
 17 40  1  0  0  0  0
 17 41  1  0  0  0  0
 18 19  1  0  0  0  0
 19 42  1  0  0  0  0
 19 43  1  0  0  0  0
 20 21  1  0  0  0  0
 20 22  1  0  0  0  0
 20 44  1  0  0  0  0
 21 45  1  0  0  0  0
 21 46  1  0  0  0  0
 21 47  1  0  0  0  0
 22 23  1  0  0  0  0
 22 48  1  0  0  0  0
 22 49  1  0  0  0  0
 23 24  2  0  0  0  0
 23 25  2  0  0  0  0
 23 26  1  0  0  0  0
 26 27  1  0  0  0  0
 26 50  1  0  0  0  0
 26 51  1  0  0  0  0
 27 52  1  0  0  0  0
 27 53  1  0  0  0  0
 27 54  1  0  0  0  0
M  END
> <s_m_source_file>
AV-unprocessed.smi

> <i_m_source_file_index>
89

> <i_lp_mmshare_version>
43012

> <i_f3d_flags>
0

> <s_epik_input>
W0NIM11bQ0gyXVMoPU8pKD1PKVtDSDJdW0NAQEhdKFtDSDNdKU4oW0NIMl1bQ0gzXSljKG5bY0hdbjEpYyhjMTIpbltjSF1uMltDSDJdW0NAQF0zKFtPSF0pW0NIMl1bQ0gyXU9bQ0gyXTM=

> <s_epik_cmdline>
J2VwaWtfcHl0aG9uJywgJy1waCcsICc3LjAnLCAnLXRuJywgJzgnLCAnLW1hJywgJzIwMCcsICctbWV0YWxfYmluZGluZycsICctaW1hZScsICc8aW5maWxlLm1hZT4nLCAnLW9tYWUnLCAnPG91dGZpbGUubWFlPic=

> <r_lp_tautomer_probability>
1

> <r_epik_Ionization_Penalty>
0.00103773

> <r_epik_Ionization_Penalty_Charging>
0

> <r_epik_Ionization_Penalty_Neutral>
0.00103773

> <r_epik_State_Penalty>
0.000558914

> <r_epik_Charging_Adjusted_Penalty>
0.000558914

> <i_epik_Tot_Q>
0

> <i_epik_Tot_abs_Q>
0

> <r_epik_Metal_State_Penalty>
-0

> <b_epik_Metal_Only>
0

> <s_lp_Force_Field>
OPLS_2005

> <r_lp_Energy>
26.3804

> <b_lp_Chiralities_Consistent>
1

> <s_lp_Variant>
AV-unprocessed.smi:89-4

> <Gold.Version>
5.8.1

> <Gold.Id.Protein>
6NUR|6NUR_protein|mol2

> <Gold.PLP.Fitness>
38.6890

> <Gold.PLP.PLP>
-30.8839

> <Gold.PLP.part.hbond>
-4.0000

> <Gold.PLP.part.metal>
0.0000

> <Gold.PLP.part.buried>
-6.1974

> <Gold.PLP.part.nonpolar>
-21.9258

> <Gold.PLP.part.repulsive>
0.7819

> <Gold.PLP.ligand.clash>
0.0000

> <Gold.PLP.ligand.torsion>
2.1569

> <Gold.PLP.Chemscore.Hbond>
2.8240

> <Gold.PLP.Chemscore.CHOScore>
0.8506

> <Gold.PLP.Chemscore.Metal>
0.0000

> <Gold.Chemscore.Hbonds>
donor molecule, donor type, donor heavy atom, donor atom, acceptor molecule, acceptor atom, score
      L1  H    15    37       P1  7921  0.96
      P1  H  7989  7998       L1    25  0.64
      P1  H  7997  8010       L1    24  0.83
      L1  C     6    33       P1  7957  0.79

> <Gold.PLP.Chemscore.Internal.Correction>
1.0949

> <Gold.Rescore>
     Score         DG    S(hbond)    S(metal)    S(lipo)     H(rot)  DE(clash)    DE(int)     intcor
      9.40     -13.38       2.85        0.00      61.76       3.45       0.26       3.71       ----

> <Gold.Chemscore.Fitness>
9.4040

> <Gold.Chemscore.DG>
-13.3775

> <Gold.Chemscore.ZeroCoef>
-5.4800

> <Gold.Chemscore.Hbond>
2.8474

> <Gold.Chemscore.Metal>
0.0000

> <Gold.Chemscore.Lipo>
61.7558

> <Gold.Chemscore.Internal_Hbond>
0.0000

> <Gold.Chemscore.DEClash>
0.2636

> <Gold.Chemscore.DEInternal>
3.7099

> <Gold.Chemscore.Rot>
3.4524

> <Gold.Chemscore.Internal.Correction>
   9.000000E+99

> <Gold.Chemscore.Hbonds>
donor molecule, donor type, donor heavy atom, donor atom, acceptor molecule, acceptor atom, score
      L1  H    15    37       P1  7921  0.92
      P1  H  7989  7998       L1    25  0.63
      P1  H  7997  8010       L1    24  0.81

> <Gold.Chemscore.Hbond.Weighted>
-9.5103

> <Gold.Chemscore.Metal.Weighted>
-0.0000

> <Gold.Chemscore.Lipo.Weighted>
-7.2254

> <Gold.Chemscore.Internal_Hbond.Weighted>
0.0000

> <Gold.Chemscore.DEClash.Weighted>
0.2636

> <Gold.Chemscore.DEInternal.Weighted>
3.7099

> <Gold.Chemscore.Rot.Weighted>
8.8382

> <Gold.Chemscore.Internal.Correction.Weighted>
   9.000000E+99

> <Gold.Protein.RotatedTorsions>
[ 6907 6896 6895 6894 ] final  -54.08 input  -60.11 | X-H torsion
[ 7974 7965 7964 7962 ] final  100.35 input  175.53 | X-H torsion
[ 8008 7997 7996 7995 ] final   36.75 input   59.86 | X-H torsion
[ 10167 10162 10161 10158 ] final -112.09 input  -65.29 | X-H torsion
[ 10718 10713 10712 10709 ] final  -26.80 input   66.30 | X-H torsion
[ 10763 10752 10751 10750 ] final -100.32 input  -60.55 | X-H torsion
[ 11005 11000 10999 10996 ] final   34.55 input  -57.11 | X-H torsion

> <Gold.Protein.ActiveResidues>
 VAL166  LYS551  ARG553  GLY616  TRP617  ASP618  TYR619  PRO620  LYS621  CYS622 
 ASP623  PHE694  ASN695  SER759  ASP760  ASP761  ALA762  ILE779  LEU786  VAL792 
 PHE793  MET794  SER795  GLU796  ALA797  LYS798  CYS799  TRP800  GLU811  SER814 

> <Gold.Protein.RotatedAtoms>
  150.8370  134.7647  159.6900 H   0  0  0  0  0  0  0  0  0  0  0  0  # atno 6907 bound_to 6896
  152.4465  134.5481  159.9868 H   0  0  0  0  0  0  0  0  0  0  0  0  # atno 6908 bound_to 6896
  151.5629  133.3363  159.3010 H   0  0  0  0  0  0  0  0  0  0  0  0  # atno 6909 bound_to 6896
  145.3867  139.2370  143.3374 H   0  0  0  0  0  0  0  0  0  0  0  0  # atno 7974 bound_to 7965
  155.1925  140.3309  155.4356 H   0  0  0  0  0  0  0  0  0  0  0  0  # atno 8008 bound_to 7997
  156.2437  140.1907  156.6967 H   0  0  0  0  0  0  0  0  0  0  0  0  # atno 8009 bound_to 7997
  154.6196  140.0597  156.9584 H   0  0  0  0  0  0  0  0  0  0  0  0  # atno 8010 bound_to 7997
  140.1264  143.4398  152.1656 H   0  0  0  0  0  0  0  0  0  0  0  0  # atno 10167 bound_to 10162
  156.4465  130.4475  149.7018 H   0  0  0  0  0  0  0  0  0  0  0  0  # atno 10718 bound_to 10713
  154.7570  135.4939  153.9393 H   0  0  0  0  0  0  0  0  0  0  0  0  # atno 10763 bound_to 10752
  153.1207  135.6731  153.9349 H   0  0  0  0  0  0  0  0  0  0  0  0  # atno 10764 bound_to 10752
  153.9081  135.3102  155.3427 H   0  0  0  0  0  0  0  0  0  0  0  0  # atno 10765 bound_to 10752
  140.2517  134.3295  155.7888 H   0  0  0  0  0  0  0  0  0  0  0  0  # atno 11005 bound_to 11000
  146.2817  140.4543  142.8774 LP  0  0  0  0  0  0  0  0  0  0  0  0  # atno 17320 bound_to 7965
  144.8469  140.6943  143.6193 LP  0  0  0  0  0  0  0  0  0  0  0  0  # atno 17321 bound_to 7965
  139.5542  144.7360  151.4345 LP  0  0  0  0  0  0  0  0  0  0  0  0  # atno 17342 bound_to 10162
  140.6842  143.8012  150.7163 LP  0  0  0  0  0  0  0  0  0  0  0  0  # atno 17343 bound_to 10162
  156.3862  130.7604  151.2601 LP  0  0  0  0  0  0  0  0  0  0  0  0  # atno 17370 bound_to 10713
  157.7504  131.0281  150.4035 LP  0  0  0  0  0  0  0  0  0  0  0  0  # atno 17371 bound_to 10713
  141.2200  133.7357  156.9047 LP  0  0  0  0  0  0  0  0  0  0  0  0  # atno 17394 bound_to 11000
  140.1552  134.9203  157.2644 LP  0  0  0  0  0  0  0  0  0  0  0  0  # atno 17395 bound_to 11000

$$$$
