AV-unprocessed.smi:844|AV-procd|sdf|3926|dock7
  -GOLD-   22720 1383D 1   1.00000     0.00000
 Structure written by MMmdl.
 33 35  0  0  0  0  0  0  0  0  2 V2000
  150.0323  139.8523  157.5857 O   0  0  0  0  0  0  0  0  0  0  0  0
  151.3099  140.4311  157.4162 C   0  0  1  0  0  0  0  0  0  0  0  0
  151.5790  140.5586  155.9030 C   0  0  0  0  0  0  0  0  0  0  0  0
  150.6733  139.7301  155.0972 N   0  0  0  0  0  0  0  0  0  0  0  0
  150.7853  138.4292  154.7140 C   0  0  0  0  0  0  0  0  0  0  0  0
  149.6734  138.1166  153.9925 N   0  3  0  0  0  0  0  0  0  0  0  0
  148.8412  139.2352  153.9096 C   0  0  0  0  0  0  0  0  0  0  0  0
  147.6087  139.4115  153.2885 C   0  0  0  0  0  0  0  0  0  0  0  0
  147.0230  140.6902  153.3962 C   0  0  0  0  0  0  0  0  0  0  0  0
  147.6596  141.7336  154.0998 C   0  0  0  0  0  0  0  0  0  0  0  0
  148.9088  141.5434  154.7264 C   0  0  0  0  0  0  0  0  0  0  0  0
  149.4800  140.2765  154.6150 C   0  0  0  0  0  0  0  0  0  0  0  0
  151.4430  141.7673  158.1385 C   0  0  0  0  0  0  0  0  0  0  0  0
  150.6809  142.8816  157.7218 C   0  0  0  0  0  0  0  0  0  0  0  0
  150.8162  144.1218  158.3748 C   0  0  0  0  0  0  0  0  0  0  0  0
  151.7171  144.2580  159.4477 C   0  0  0  0  0  0  0  0  0  0  0  0
  151.8503  145.4512  160.0736 F   0  0  0  0  0  0  0  0  0  0  0  0
  152.4830  143.1536  159.8662 C   0  0  0  0  0  0  0  0  0  0  0  0
  152.3493  141.9122  159.2144 C   0  0  0  0  0  0  0  0  0  0  0  0
  153.1054  140.8641  159.6217 F   0  0  0  0  0  0  0  0  0  0  0  0
  149.7241  139.5529  156.7438 H   0  0  0  0  0  0  0  0  0  0  0  0
  152.0170  139.7232  157.8482 H   0  0  0  0  0  0  0  0  0  0  0  0
  151.4758  141.5930  155.5720 H   0  0  0  0  0  0  0  0  0  0  0  0
  152.6010  140.2580  155.6674 H   0  0  0  0  0  0  0  0  0  0  0  0
  151.6029  137.7630  154.9494 H   0  0  0  0  0  0  0  0  0  0  0  0
  147.1183  138.6142  152.7495 H   0  0  0  0  0  0  0  0  0  0  0  0
  146.0660  140.8747  152.9299 H   0  0  0  0  0  0  0  0  0  0  0  0
  147.1802  142.6999  154.1605 H   0  0  0  0  0  0  0  0  0  0  0  0
  149.3887  142.3477  155.2645 H   0  0  0  0  0  0  0  0  0  0  0  0
  149.9914  142.7908  156.8950 H   0  0  0  0  0  0  0  0  0  0  0  0
  150.2300  144.9692  158.0509 H   0  0  0  0  0  0  0  0  0  0  0  0
  153.1769  143.2594  160.6871 H   0  0  0  0  0  0  0  0  0  0  0  0
  149.4978  137.2056  153.5879 H   0  0  0  0  0  0  0  0  0  0  0  0
  1  2  1  0  0  0  0
  1 21  1  0  0  0  0
  2  3  1  0  0  0  0
  2 13  1  0  0  0  0
  2 22  1  0  0  0  0
  3  4  1  0  0  0  0
  3 23  1  0  0  0  0
  3 24  1  0  0  0  0
  4 12  1  0  0  0  0
  4  5  1  0  0  0  0
  5  6  2  0  0  0  0
  5 25  1  0  0  0  0
  6  7  1  0  0  0  0
  6 33  1  0  0  0  0
  7 12  2  0  0  0  0
  7  8  1  0  0  0  0
  8  9  2  0  0  0  0
  8 26  1  0  0  0  0
  9 10  1  0  0  0  0
  9 27  1  0  0  0  0
 10 11  2  0  0  0  0
 10 28  1  0  0  0  0
 11 12  1  0  0  0  0
 11 29  1  0  0  0  0
 13 19  1  0  0  0  0
 13 14  2  0  0  0  0
 14 15  1  0  0  0  0
 14 30  1  0  0  0  0
 15 16  2  0  0  0  0
 15 31  1  0  0  0  0
 16 17  1  0  0  0  0
 16 18  1  0  0  0  0
 18 19  2  0  0  0  0
 18 32  1  0  0  0  0
 19 20  1  0  0  0  0
M  CHG  1   6   1
M  END
> <s_m_source_file>
AV-unprocessed.smi

> <i_m_source_file_index>
844

> <i_lp_mmshare_version>
43012

> <i_f3d_flags>
0

> <s_epik_input>
RmMxW2NIXWMoRilbY0hdW2NIXWMxW0NASF0oW09IXSlbQ0gyXW4oW2NIXW4yKWMoYzIzKVtjSF1bY0hdW2NIXVtjSF0z

> <s_epik_cmdline>
J2VwaWtfcHl0aG9uJywgJy1waCcsICc3LjAnLCAnLXRuJywgJzgnLCAnLW1hJywgJzIwMCcsICctbWV0YWxfYmluZGluZycsICctaW1hZScsICc8aW5maWxlLm1hZT4nLCAnLW9tYWUnLCAnPG91dGZpbGUubWFlPic=

> <r_epik_Ionization_Penalty>
1.3029

> <r_epik_Ionization_Penalty_Charging>
1.3029

> <r_epik_Ionization_Penalty_Neutral>
1.79538e-06

> <r_epik_State_Penalty>
1.377

> <r_epik_Charging_Adjusted_Penalty>
2.6799

> <i_epik_Tot_Q>
1

> <i_epik_Tot_abs_Q>
1

> <r_epik_Metal_State_Penalty>
5.40879

> <b_epik_Metal_Only>
0

> <s_lp_Force_Field>
OPLS_2005

> <r_lp_Energy>
17.7817

> <b_lp_Chiralities_Consistent>
1

> <s_lp_Variant>
AV-unprocessed.smi:844-4

> <Gold.Version>
5.8.1

> <Gold.Id.Protein>
6NUR|6NUR_protein|mol2

> <Gold.PLP.Fitness>
52.7621

> <Gold.PLP.PLP>
-49.5626

> <Gold.PLP.part.hbond>
-1.0000

> <Gold.PLP.part.metal>
0.0000

> <Gold.PLP.part.buried>
-1.0488

> <Gold.PLP.part.nonpolar>
-47.7781

> <Gold.PLP.part.repulsive>
0.0340

> <Gold.PLP.ligand.clash>
0.0000

> <Gold.PLP.ligand.torsion>
0.9992

> <Gold.PLP.Chemscore.Hbond>
1.7280

> <Gold.PLP.Chemscore.CHOScore>
0.0000

> <Gold.PLP.Chemscore.Metal>
0.0000

> <Gold.Chemscore.Hbonds>
donor molecule, donor type, donor heavy atom, donor atom, acceptor molecule, acceptor atom, score
      L1  H     6    33       P1  7948  1.76

> <Gold.PLP.Chemscore.Internal.Correction>
0.0138

> <Gold.Rescore>
     Score         DG    S(hbond)    S(metal)    S(lipo)     H(rot)  DE(clash)    DE(int)     intcor
     14.40     -16.23       0.86        0.00     112.23       2.06       0.11       1.72       ----

> <Gold.Chemscore.Fitness>
14.3974

> <Gold.Chemscore.DG>
-16.2267

> <Gold.Chemscore.ZeroCoef>
-5.4800

> <Gold.Chemscore.Hbond>
0.8647

> <Gold.Chemscore.Metal>
0.0000

> <Gold.Chemscore.Lipo>
112.2347

> <Gold.Chemscore.Internal_Hbond>
0.0000

> <Gold.Chemscore.DEClash>
0.1075

> <Gold.Chemscore.DEInternal>
1.7219

> <Gold.Chemscore.Rot>
2.0597

> <Gold.Chemscore.Internal.Correction>
   9.000000E+99

> <Gold.Chemscore.Hbonds>
donor molecule, donor type, donor heavy atom, donor atom, acceptor molecule, acceptor atom, score
      L1  H     6    33       P1  7948  0.73

> <Gold.Chemscore.Hbond.Weighted>
-2.8880

> <Gold.Chemscore.Metal.Weighted>
-0.0000

> <Gold.Chemscore.Lipo.Weighted>
-13.1315

> <Gold.Chemscore.Internal_Hbond.Weighted>
0.0000

> <Gold.Chemscore.DEClash.Weighted>
0.1075

> <Gold.Chemscore.DEInternal.Weighted>
1.7219

> <Gold.Chemscore.Rot.Weighted>
5.2728

> <Gold.Chemscore.Internal.Correction.Weighted>
   9.000000E+99

> <Gold.Protein.RotatedTorsions>
[ 6907 6896 6895 6894 ] final   -8.72 input  -60.11 | X-H torsion
[ 7974 7965 7964 7962 ] final  174.71 input  175.53 | X-H torsion
[ 8008 7997 7996 7995 ] final  -78.49 input   59.86 | X-H torsion
[ 10167 10162 10161 10158 ] final  166.59 input  -65.29 | X-H torsion
[ 10718 10713 10712 10709 ] final   65.46 input   66.30 | X-H torsion
[ 10763 10752 10751 10750 ] final  144.53 input  -60.55 | X-H torsion
[ 11005 11000 10999 10996 ] final   85.66 input  -57.11 | X-H torsion

> <Gold.Protein.ActiveResidues>
 VAL166  LYS551  ARG553  GLY616  TRP617  ASP618  TYR619  PRO620  LYS621  CYS622 
 ASP623  PHE694  ASN695  SER759  ASP760  ASP761  ALA762  ILE779  LEU786  VAL792 
 PHE793  MET794  SER795  GLU796  ALA797  LYS798  CYS799  TRP800  GLU811  SER814 

> <Gold.Protein.RotatedAtoms>
  151.4291  135.1007  159.9636 H   0  0  0  0  0  0  0  0  0  0  0  0  # atno 6907 bound_to 6896
  152.4962  133.8634  159.7272 H   0  0  0  0  0  0  0  0  0  0  0  0  # atno 6908 bound_to 6896
  150.9168  133.6871  159.2869 H   0  0  0  0  0  0  0  0  0  0  0  0  # atno 6909 bound_to 6896
  144.7216  139.9838  143.6439 H   0  0  0  0  0  0  0  0  0  0  0  0  # atno 7974 bound_to 7965
  154.5694  140.0693  156.8941 H   0  0  0  0  0  0  0  0  0  0  0  0  # atno 8008 bound_to 7997
  155.2662  140.3362  155.4251 H   0  0  0  0  0  0  0  0  0  0  0  0  # atno 8009 bound_to 7997
  156.2106  140.1758  156.7688 H   0  0  0  0  0  0  0  0  0  0  0  0  # atno 8010 bound_to 7997
  139.4928  144.4011  151.9408 H   0  0  0  0  0  0  0  0  0  0  0  0  # atno 10167 bound_to 10162
  157.6106  130.9215  149.9979 H   0  0  0  0  0  0  0  0  0  0  0  0  # atno 10718 bound_to 10713
  153.9904  135.2932  155.3412 H   0  0  0  0  0  0  0  0  0  0  0  0  # atno 10763 bound_to 10752
  154.7218  135.5106  153.8826 H   0  0  0  0  0  0  0  0  0  0  0  0  # atno 10764 bound_to 10752
  153.0812  135.6679  154.0157 H   0  0  0  0  0  0  0  0  0  0  0  0  # atno 10765 bound_to 10752
  139.8965  134.8302  156.2614 H   0  0  0  0  0  0  0  0  0  0  0  0  # atno 11005 bound_to 11000
  146.0466  139.3471  143.0665 LP  0  0  0  0  0  0  0  0  0  0  0  0  # atno 17320 bound_to 7965
  145.8268  140.9651  143.0870 LP  0  0  0  0  0  0  0  0  0  0  0  0  # atno 17321 bound_to 7965
  140.3450  144.3157  150.5960 LP  0  0  0  0  0  0  0  0  0  0  0  0  # atno 17342 bound_to 10162
  140.5533  143.2203  151.7890 LP  0  0  0  0  0  0  0  0  0  0  0  0  # atno 17343 bound_to 10162
  156.1208  130.3646  149.9890 LP  0  0  0  0  0  0  0  0  0  0  0  0  # atno 17370 bound_to 10713
  156.7971  130.9277  151.3646 LP  0  0  0  0  0  0  0  0  0  0  0  0  # atno 17371 bound_to 10713
  141.0160  133.7068  156.1190 LP  0  0  0  0  0  0  0  0  0  0  0  0  # atno 17394 bound_to 11000
  140.7300  134.4264  157.5567 LP  0  0  0  0  0  0  0  0  0  0  0  0  # atno 17395 bound_to 11000

$$$$
