#       Name:                AV-unprocessed.smi:1320
#       Creating user name   scv26
#       Creation time:       Fri Mar 27 05:03:03 2020


#       File generated by GOLD software.
#

@<TRIPOS>MOLECULE
AV-unprocessed.smi:1320
    39    40     1
SMALL
NO_CHARGES


@<TRIPOS>ATOM
      1 ****         0.7420   1.9866   0.1649 O.2            1 S1                 0.0000
      2 ****         0.2680   0.9226   0.5585 C.2            1 S1                 0.0000
      3 ****         1.0147  -0.1522   0.8672 N.am           1 S1                 0.0000
      4 ****         2.4723  -0.2218   0.7999 C.3            1 S1                 0.0000
      5 ****         2.9851  -0.8348  -0.5185 C.3            1 S1                 0.0000
      6 ****         2.5846  -0.0543  -1.7584 C.ar           1 S1                 0.0000
      7 ****         3.3567   1.0228  -2.2442 C.ar           1 S1                 0.0000
      8 ****         2.9163   1.7284  -3.3832 C.ar           1 S1                 0.0000
      9 ****         1.7137   1.3437  -4.0114 C.ar           1 S1                 0.0000
     10 ****         0.9811   0.2611  -3.4840 C.ar           1 S1                 0.0000
     11 ****         1.4369  -0.3906  -2.3919 N.pl3          1 S1                 1.0000
     12 ****        -1.0571   0.7474   0.7050 N.am           1 S1                 0.0000
     13 ****        -2.1298   1.7131   0.4543 C.3            1 S1                 0.0000
     14 ****        -3.4245   1.2852   1.1718 C.3            1 S1                 0.0000
     15 ****        -4.5453   1.4254   0.1412 C.3            1 S1                 0.0000
     16 ****        -3.8611   1.1560  -1.1946 C.3            1 S1                 0.0000
     17 ****        -2.4816   1.7984  -1.0455 C.3            1 S1                 0.0000
     18 ****         0.5352  -0.9794   1.1923 H              1 S1                 0.0000
     19 ****         2.9108   0.7663   0.9490 H              1 S1                 0.0000
     20 ****         2.8135  -0.8313   1.6367 H              1 S1                 0.0000
     21 ****         4.0733  -0.9017  -0.4874 H              1 S1                 0.0000
     22 ****         2.6242  -1.8602  -0.6117 H              1 S1                 0.0000
     23 ****         4.2705   1.3118  -1.7457 H              1 S1                 0.0000
     24 ****         3.4921   2.5573  -3.7675 H              1 S1                 0.0000
     25 ****         1.3578   1.8736  -4.8830 H              1 S1                 0.0000
     26 ****         0.0500  -0.0986  -3.8970 H              1 S1                 0.0000
     27 ****        -1.3547  -0.1564   1.0434 H              1 S1                 0.0000
     28 ****        -1.8369   2.6996   0.8180 H              1 S1                 0.0000
     29 ****        -3.3641   0.2416   1.4853 H              1 S1                 0.0000
     30 ****        -3.6166   1.8784   2.0663 H              1 S1                 0.0000
     31 ****        -5.3779   0.7479   0.3323 H              1 S1                 0.0000
     32 ****        -4.9340   2.4446   0.1561 H              1 S1                 0.0000
     33 ****        -3.7522   0.0806  -1.3406 H              1 S1                 0.0000
     34 ****        -4.4204   1.5532  -2.0421 H              1 S1                 0.0000
     35 ****        -2.5399   2.8469  -1.3406 H              1 S1                 0.0000
     36 ****        -1.7431   1.3258  -1.6947 H              1 S1                 0.0000
     37 ****         0.8867  -1.1665  -2.0231 H              1 S1                 0.0000
     38 ****         1.7316   2.0847   0.0600 LP             1 S1                 0.0000
     39 ****         0.1379   2.7539  -0.0504 LP             1 S1                 0.0000
@<TRIPOS>BOND
    1    1    2 2     
    2    2    3 am    
    3    2   12 am    
    4    3    4 1     
    5    3   18 1     
    6    4    5 1     
    7    4   19 1     
    8    4   20 1     
    9    5    6 1     
   10    5   21 1     
   11    5   22 1     
   12    6   11 ar    
   13    6    7 ar    
   14    7    8 ar    
   15    7   23 1     
   16    8    9 ar    
   17    8   24 1     
   18    9   10 ar    
   19    9   25 1     
   20   10   11 ar    
   21   10   26 1     
   22   11   37 1     
   23   12   13 1     
   24   12   27 1     
   25   13   17 1     
   26   13   14 1     
   27   13   28 1     
   28   14   15 1     
   29   14   29 1     
   30   14   30 1     
   31   15   16 1     
   32   15   31 1     
   33   15   32 1     
   34   16   17 1     
   35   16   33 1     
   36   16   34 1     
   37   17   35 1     
   38   17   36 1     
   39    1   38 1     
   40    1   39 1     
@<TRIPOS>SUBSTRUCTURE
      1 S1             1
@<TRIPOS>SET
LONE_PAIRS      STATIC     ATOMS    <user>   **** ""
2 38 39
DONOR_HYDROGENS      STATIC     ATOMS    <user>   **** ""
3 18 37 27
ATOM$BLUE        STATIC     ATOMS    COLORGROUP SYSTEM
2 38 39
ATOM$RED        STATIC     ATOMS    COLORGROUP SYSTEM
3 18 37 27
