#       Name:                AV-unprocessed.smi:1636
#       Creating user name   scv26
#       Creation time:       Fri Mar 27 07:22:33 2020


#       File generated by GOLD software.
#

@<TRIPOS>MOLECULE
AV-unprocessed.smi:1636
    51    52     1
SMALL
NO_CHARGES


@<TRIPOS>ATOM
      1 ****        -0.3285   5.4841  -0.6649 C.3            1 S1                 0.0000
      2 ****        -1.4071   4.4439  -0.3444 C.3            1 S1                 0.0000
      3 ****        -0.9161   3.0048  -0.5928 C.3            1 S1                 0.0000
      4 ****        -2.0014   2.0503  -0.3761 N.3            1 S1                 0.0000
      5 ****        -1.6726   0.6791  -0.3114 C.ar           1 S1                 0.0000
      6 ****        -2.6249  -0.2574   0.1550 C.ar           1 S1                 0.0000
      7 ****        -2.2774  -1.6204   0.2096 C.ar           1 S1                 0.0000
      8 ****        -0.9897  -2.0193  -0.1987 C.ar           1 S1                 0.0000
      9 ****        -0.6081  -3.4942  -0.1558 C.3            1 S1                 0.0000
     10 ****         0.8260  -3.7675  -0.1744 N.am           1 S1                 0.0000
     11 ****         1.6400  -3.6675   0.8857 C.2            1 S1                 0.0000
     12 ****         1.2718  -3.3174   2.0072 O.2            1 S1                 0.0000
     13 ****         2.9040  -3.9866   0.5748 N.am           1 S1                 0.0000
     14 ****         4.0301  -3.9554   1.5020 C.3            1 S1                 0.0000
     15 ****         4.5920  -2.5329   1.6689 C.3            1 S1                 0.0000
     16 ****         5.6291  -2.3072   0.7380 O.3            1 S1                 0.0000
     17 ****        -0.1059  -1.0146  -0.6505 C.ar           1 S1                 0.0000
     18 ****        -0.4325   0.2941  -0.7022 N.ar           1 S1                 0.0000
     19 ****        -3.2123   2.3709  -1.1270 C.3            1 S1                 0.0000
     20 ****        -3.6265   3.8311  -0.8771 C.3            1 S1                 0.0000
     21 ****        -2.5377   4.6997  -1.1728 O.3            1 S1                 0.0000
     22 ****         0.5541   5.3383  -0.0415 H              1 S1                 0.0000
     23 ****        -0.6973   6.4945  -0.4874 H              1 S1                 0.0000
     24 ****        -0.0165   5.4211  -1.7078 H              1 S1                 0.0000
     25 ****        -1.6974   4.5574   0.7018 H              1 S1                 0.0000
     26 ****        -0.5467   2.9037  -1.6144 H              1 S1                 0.0000
     27 ****        -0.0851   2.7845   0.0788 H              1 S1                 0.0000
     28 ****        -3.6058   0.0539   0.4820 H              1 S1                 0.0000
     29 ****        -2.9923  -2.3487   0.5634 H              1 S1                 0.0000
     30 ****        -1.0566  -3.9585   0.7245 H              1 S1                 0.0000
     31 ****        -1.0544  -3.9845  -1.0211 H              1 S1                 0.0000
     32 ****         1.2232  -4.0615  -1.0548 H              1 S1                 0.0000
     33 ****         3.1077  -4.2579  -0.3760 H              1 S1                 0.0000
     34 ****         3.6937  -4.3273   2.4714 H              1 S1                 0.0000
     35 ****         4.8021  -4.6498   1.1685 H              1 S1                 0.0000
     36 ****         3.8201  -1.7683   1.5717 H              1 S1                 0.0000
     37 ****         5.0210  -2.4245   2.6652 H              1 S1                 0.0000
     38 ****         5.9658  -1.4342   0.8702 H              1 S1                 0.0000
     39 ****         0.8918  -1.2561  -0.9857 H              1 S1                 0.0000
     40 ****        -3.0182   2.2154  -2.1891 H              1 S1                 0.0000
     41 ****        -4.0399   1.7163  -0.8570 H              1 S1                 0.0000
     42 ****        -4.4720   4.0946  -1.5127 H              1 S1                 0.0000
     43 ****        -3.9490   3.9730   0.1558 H              1 S1                 0.0000
     44 ****        -2.2297   2.2043   0.5853 LP             1 S1                 0.0000
     45 ****         0.3123  -3.0867   2.1691 LP             1 S1                 0.0000
     46 ****         1.9322  -3.2637   2.7562 LP             1 S1                 0.0000
     47 ****         5.2723  -2.3939  -0.1921 LP             1 S1                 0.0000
     48 ****         6.3597  -2.9754   0.8784 LP             1 S1                 0.0000
     49 ****         0.2305   0.9700  -1.0240 LP             1 S1                 0.0000
     50 ****        -2.2729   4.5709  -2.1284 LP             1 S1                 0.0000
     51 ****        -2.8324   5.6451  -1.0331 LP             1 S1                 0.0000
@<TRIPOS>BOND
    1    1    2 1     
    2    1   22 1     
    3    1   23 1     
    4    1   24 1     
    5    2   21 1     
    6    2    3 1     
    7    2   25 1     
    8    3    4 1     
    9    3   26 1     
   10    3   27 1     
   11    4    5 1     
   12    4   19 1     
   13    5   18 ar    
   14    5    6 ar    
   15    6    7 ar    
   16    6   28 1     
   17    7    8 ar    
   18    7   29 1     
   19    8    9 1     
   20    8   17 ar    
   21    9   10 1     
   22    9   30 1     
   23    9   31 1     
   24   10   11 am    
   25   10   32 1     
   26   11   12 2     
   27   11   13 am    
   28   13   14 1     
   29   13   33 1     
   30   14   15 1     
   31   14   34 1     
   32   14   35 1     
   33   15   16 1     
   34   15   36 1     
   35   15   37 1     
   36   16   38 1     
   37   17   18 ar    
   38   17   39 1     
   39   19   20 1     
   40   19   40 1     
   41   19   41 1     
   42   20   21 1     
   43   20   42 1     
   44   20   43 1     
   45    4   44 1     
   46   12   45 1     
   47   12   46 1     
   48   16   47 1     
   49   16   48 1     
   50   18   49 1     
   51   21   50 1     
   52   21   51 1     
@<TRIPOS>SUBSTRUCTURE
      1 S1             1
@<TRIPOS>SET
LONE_PAIRS      STATIC     ATOMS    <user>   **** ""
8 44 45 46 47 48 49 50 51
DONOR_HYDROGENS      STATIC     ATOMS    <user>   **** ""
3 32 33 38
ATOM$BLUE        STATIC     ATOMS    COLORGROUP SYSTEM
8 44 45 46 47 48 49 50 51
ATOM$RED        STATIC     ATOMS    COLORGROUP SYSTEM
3 32 33 38
