AV-unprocessed.smi:250|AV-procd|sdf|1932|dock7
  -GOLD-   2262021 53D 1   1.00000     0.00000
 Structure written by MMmdl.
 56 60  0  0  0  0  0  0  0  0  1 V2000
  152.4637  144.0235  161.9152 C   0  0  0  0  0  0  0  0  0  0  0  0
  152.1519  143.9964  160.4922 N   0  0  0  0  0  0  0  0  0  0  0  0
  151.7898  145.0372  159.7127 C   0  0  0  0  0  0  0  0  0  0  0  0
  151.6894  146.2113  160.0636 O   0  0  0  0  0  0  0  0  0  0  0  0
  151.5509  144.5741  158.4734 N   0  0  0  0  0  0  0  0  0  0  0  0
  152.0194  143.2124  158.3565 C   0  0  2  0  0  0  0  0  0  0  0  0
  151.3153  142.2009  157.4552 C   0  0  0  0  0  0  0  0  0  0  0  0
  151.9871  140.9031  157.6403 N   0  0  0  0  0  0  0  0  0  0  0  0
  151.6954  139.9694  156.6981 C   0  0  0  0  0  0  0  0  0  0  0  0
  152.6073  139.6821  155.7305 N   0  0  0  0  0  0  0  0  0  0  0  0
  152.3411  138.7601  154.8011 C   0  0  0  0  0  0  0  0  0  0  0  0
  151.2431  138.0175  154.6541 N   0  0  0  0  0  0  0  0  0  0  0  0
  150.3201  138.3029  155.6162 C   0  0  0  0  0  0  0  0  0  0  0  0
  150.4611  139.2589  156.6626 C   0  0  0  0  0  0  0  0  0  0  0  0
  149.3025  139.2890  157.4300 N   0  0  0  0  0  0  0  0  0  0  0  0
  148.5281  138.3964  156.8769 C   0  0  0  0  0  0  0  0  0  0  0  0
  149.0663  137.7425  155.7915 N   0  0  0  0  0  0  0  0  0  0  0  0
  148.4241  136.7097  154.9900 C   0  0  0  0  0  0  0  0  0  0  0  0
  148.6223  135.2554  155.5128 C   0  0  0  0  0  0  0  0  0  0  0  0
  147.7372  134.2531  154.7172 C   0  0  0  0  0  0  0  0  0  0  0  0
  148.1030  134.1810  153.3536 O   0  0  0  0  0  0  0  0  0  0  0  0
  150.1250  134.8960  155.3953 C   0  0  0  0  0  0  0  0  0  0  0  0
  150.4961  133.6040  156.1453 C   0  0  0  0  0  0  0  0  0  0  0  0
  150.1244  133.7145  157.5128 O   0  0  0  0  0  0  0  0  0  0  0  0
  148.7242  133.8820  157.6916 C   0  0  0  0  0  0  0  0  0  0  0  0
  148.2567  135.1851  157.0171 C   0  0  0  0  0  0  0  0  0  0  0  0
  152.1999  140.4265  159.0246 C   0  0  0  0  0  0  0  0  0  0  0  0
  152.7733  141.5187  159.9680 C   0  0  0  0  0  0  0  0  0  0  0  0
  151.8927  142.7556  159.7896 C   0  0  1  0  0  0  0  0  0  0  0  0
  153.0693  143.2759  158.0583 H   0  0  0  0  0  0  0  0  0  0  0  0
  150.8584  142.4850  160.0186 H   0  0  0  0  0  0  0  0  0  0  0  0
  152.5175  145.0415  162.3033 H   0  0  0  0  0  0  0  0  0  0  0  0
  153.4253  143.5433  162.0972 H   0  0  0  0  0  0  0  0  0  0  0  0
  151.7009  143.4853  162.4780 H   0  0  0  0  0  0  0  0  0  0  0  0
  151.2851  145.1446  157.6839 H   0  0  0  0  0  0  0  0  0  0  0  0
  150.2608  142.1093  157.7191 H   0  0  0  0  0  0  0  0  0  0  0  0
  151.3603  142.5403  156.4216 H   0  0  0  0  0  0  0  0  0  0  0  0
  153.1200  138.5921  154.0719 H   0  0  0  0  0  0  0  0  0  0  0  0
  147.5369  138.1856  157.2511 H   0  0  0  0  0  0  0  0  0  0  0  0
  147.3613  136.9474  154.9285 H   0  0  0  0  0  0  0  0  0  0  0  0
  148.8000  136.7972  153.9697 H   0  0  0  0  0  0  0  0  0  0  0  0
  147.8023  133.2464  155.1262 H   0  0  0  0  0  0  0  0  0  0  0  0
  146.6848  134.5299  154.7778 H   0  0  0  0  0  0  0  0  0  0  0  0
  148.4515  135.0195  153.0913 H   0  0  0  0  0  0  0  0  0  0  0  0
  150.4231  134.8152  154.3495 H   0  0  0  0  0  0  0  0  0  0  0  0
  150.7242  135.7072  155.8114 H   0  0  0  0  0  0  0  0  0  0  0  0
  150.0288  132.7279  155.6947 H   0  0  0  0  0  0  0  0  0  0  0  0
  151.5728  133.4429  156.0914 H   0  0  0  0  0  0  0  0  0  0  0  0
  148.1885  133.0142  157.3064 H   0  0  0  0  0  0  0  0  0  0  0  0
  148.5150  133.9245  158.7605 H   0  0  0  0  0  0  0  0  0  0  0  0
  148.7228  136.0196  157.5426 H   0  0  0  0  0  0  0  0  0  0  0  0
  147.1815  135.3004  157.1584 H   0  0  0  0  0  0  0  0  0  0  0  0
  151.2461  140.0770  159.4228 H   0  0  0  0  0  0  0  0  0  0  0  0
  152.8731  139.5683  159.0180 H   0  0  0  0  0  0  0  0  0  0  0  0
  152.7590  141.1725  161.0018 H   0  0  0  0  0  0  0  0  0  0  0  0
  153.8114  141.7400  159.7170 H   0  0  0  0  0  0  0  0  0  0  0  0
  1  2  1  0  0  0  0
  1 32  1  0  0  0  0
  1 33  1  0  0  0  0
  1 34  1  0  0  0  0
  2 29  1  0  0  0  0
  2  3  1  0  0  0  0
  3  4  2  0  0  0  0
  3  5  1  0  0  0  0
  5  6  1  0  0  0  0
  5 35  1  0  0  0  0
  6 30  1  0  0  0  0
  6 29  1  0  0  0  0
  6  7  1  0  0  0  0
  7  8  1  0  0  0  0
  7 36  1  0  0  0  0
  7 37  1  0  0  0  0
  8  9  1  0  0  0  0
  8 27  1  0  0  0  0
  9 14  1  0  0  0  0
  9 10  2  0  0  0  0
 10 11  1  0  0  0  0
 11 12  2  0  0  0  0
 11 38  1  0  0  0  0
 12 13  1  0  0  0  0
 13 17  1  0  0  0  0
 13 14  2  0  0  0  0
 14 15  1  0  0  0  0
 15 16  2  0  0  0  0
 16 17  1  0  0  0  0
 16 39  1  0  0  0  0
 17 18  1  0  0  0  0
 18 19  1  0  0  0  0
 18 40  1  0  0  0  0
 18 41  1  0  0  0  0
 19 26  1  0  0  0  0
 19 20  1  0  0  0  0
 19 22  1  0  0  0  0
 20 21  1  0  0  0  0
 20 42  1  0  0  0  0
 20 43  1  0  0  0  0
 21 44  1  0  0  0  0
 22 23  1  0  0  0  0
 22 45  1  0  0  0  0
 22 46  1  0  0  0  0
 23 24  1  0  0  0  0
 23 47  1  0  0  0  0
 23 48  1  0  0  0  0
 24 25  1  0  0  0  0
 25 26  1  0  0  0  0
 25 49  1  0  0  0  0
 25 50  1  0  0  0  0
 26 51  1  0  0  0  0
 26 52  1  0  0  0  0
 27 28  1  0  0  0  0
 27 53  1  0  0  0  0
 27 54  1  0  0  0  0
 28 29  1  0  0  0  0
 28 55  1  0  0  0  0
 28 56  1  0  0  0  0
 29 31  1  0  0  0  0
M  END
> <s_m_source_file>
AV-unprocessed.smi

> <i_m_source_file_index>
250

> <i_lp_mmshare_version>
43012

> <i_f3d_flags>
0

> <s_epik_input>
Tz1DKFtOSF0xKU4oW0NIM10pW0NASF0oW0NASF0xMilbQ0gyXVtDSDJdTihbQ0gyXTIpYyhuW2NIXW4zKWMoYzM0KW5bY0hdbjRbQ0gyXUM1KFtDSDJdW09IXSlbQ0gyXVtDSDJdT1tDSDJdW0NIMl01

> <s_epik_cmdline>
J2VwaWtfcHl0aG9uJywgJy1waCcsICc3LjAnLCAnLXRuJywgJzgnLCAnLW1hJywgJzIwMCcsICctbWV0YWxfYmluZGluZycsICctaW1hZScsICc8aW5maWxlLm1hZT4nLCAnLW9tYWUnLCAnPG91dGZpbGUubWFlPic=

> <r_lp_tautomer_probability>
1

> <r_epik_Ionization_Penalty>
0.00229024

> <r_epik_Ionization_Penalty_Charging>
0

> <r_epik_Ionization_Penalty_Neutral>
0.00229024

> <r_epik_State_Penalty>
0.0013961

> <r_epik_Charging_Adjusted_Penalty>
0.0013961

> <i_epik_Tot_Q>
0

> <i_epik_Tot_abs_Q>
0

> <r_epik_Metal_State_Penalty>
-0

> <b_epik_Metal_Only>
0

> <s_lp_Force_Field>
OPLS_2005

> <r_lp_Energy>
71.8921

> <b_lp_Chiralities_Consistent>
1

> <s_lp_Variant>
AV-unprocessed.smi:250-3

> <Gold.Version>
5.8.1

> <Gold.Id.Protein>
6NUR|6NUR_protein|mol2

> <Gold.PLP.Fitness>
52.8328

> <Gold.PLP.PLP>
-47.2274

> <Gold.PLP.part.hbond>
-4.9549

> <Gold.PLP.part.metal>
0.0000

> <Gold.PLP.part.buried>
-7.8305

> <Gold.PLP.part.nonpolar>
-34.2266

> <Gold.PLP.part.repulsive>
0.4670

> <Gold.PLP.ligand.clash>
0.0000

> <Gold.PLP.ligand.torsion>
1.7885

> <Gold.PLP.Chemscore.Hbond>
2.9600

> <Gold.PLP.Chemscore.CHOScore>
0.0000

> <Gold.PLP.Chemscore.Metal>
0.0000

> <Gold.Chemscore.Hbonds>
donor molecule, donor type, donor heavy atom, donor atom, acceptor molecule, acceptor atom, score
      L1  H    21    44       P1  7948  1.00
      P1  H  6896  6907       L1    24  1.00
      P1  H  7997  8008       L1    10  1.00

> <Gold.PLP.Chemscore.Internal.Correction>
0.3024

> <Gold.Rescore>
     Score         DG    S(hbond)    S(metal)    S(lipo)     H(rot)  DE(clash)    DE(int)     intcor
     16.67     -18.45       2.75        0.00      80.80       2.22       0.03       1.76       ----

> <Gold.Chemscore.Fitness>
16.6664

> <Gold.Chemscore.DG>
-18.4543

> <Gold.Chemscore.ZeroCoef>
-5.4800

> <Gold.Chemscore.Hbond>
2.7533

> <Gold.Chemscore.Metal>
0.0000

> <Gold.Chemscore.Lipo>
80.8031

> <Gold.Chemscore.Internal_Hbond>
0.0000

> <Gold.Chemscore.DEClash>
0.0300

> <Gold.Chemscore.DEInternal>
1.7580

> <Gold.Chemscore.Rot>
2.2170

> <Gold.Chemscore.Internal.Correction>
   9.000000E+99

> <Gold.Chemscore.Hbonds>
donor molecule, donor type, donor heavy atom, donor atom, acceptor molecule, acceptor atom, score
      L1  H    21    44       P1  7948  0.75
      P1  H  6896  6907       L1    24  0.57
      P1  H  7997  8008       L1    10  0.89

> <Gold.Chemscore.Hbond.Weighted>
-9.1960

> <Gold.Chemscore.Metal.Weighted>
-0.0000

> <Gold.Chemscore.Lipo.Weighted>
-9.4540

> <Gold.Chemscore.Internal_Hbond.Weighted>
0.0000

> <Gold.Chemscore.DEClash.Weighted>
0.0300

> <Gold.Chemscore.DEInternal.Weighted>
1.7580

> <Gold.Chemscore.Rot.Weighted>
5.6756

> <Gold.Chemscore.Internal.Correction.Weighted>
   9.000000E+99

> <Gold.Protein.RotatedTorsions>
[ 6907 6896 6895 6894 ] final -127.87 input  -60.11 | X-H torsion
[ 7974 7965 7964 7962 ] final -105.35 input  175.53 | X-H torsion
[ 8008 7997 7996 7995 ] final  -31.65 input   59.86 | X-H torsion
[ 10167 10162 10161 10158 ] final  145.65 input  -65.29 | X-H torsion
[ 10718 10713 10712 10709 ] final -123.57 input   66.30 | X-H torsion
[ 10763 10752 10751 10750 ] final  -82.13 input  -60.55 | X-H torsion
[ 11005 11000 10999 10996 ] final  -20.14 input  -57.11 | X-H torsion

> <Gold.Protein.ActiveResidues>
 VAL166  LYS551  ARG553  GLY616  TRP617  ASP618  TYR619  PRO620  LYS621  CYS622 
 ASP623  PHE694  ASN695  SER759  ASP760  ASP761  ALA762  ILE779  LEU786  VAL792 
 PHE793  MET794  SER795  GLU796  ALA797  LYS798  CYS799  TRP800  GLU811  SER814 

> <Gold.Protein.RotatedAtoms>
  150.9119  133.6987  159.2852 H   0  0  0  0  0  0  0  0  0  0  0  0  # atno 6907 bound_to 6896
  151.4471  135.1025  159.9696 H   0  0  0  0  0  0  0  0  0  0  0  0  # atno 6908 bound_to 6896
  152.4934  133.8513  159.7258 H   0  0  0  0  0  0  0  0  0  0  0  0  # atno 6909 bound_to 6896
  145.2315  140.9172  143.3202 H   0  0  0  0  0  0  0  0  0  0  0  0  # atno 7974 bound_to 7965
  154.4206  140.1758  156.1601 H   0  0  0  0  0  0  0  0  0  0  0  0  # atno 8008 bound_to 7997
  155.9845  140.3374  155.6670 H   0  0  0  0  0  0  0  0  0  0  0  0  # atno 8009 bound_to 7997
  155.6456  140.0684  157.2595 H   0  0  0  0  0  0  0  0  0  0  0  0  # atno 8010 bound_to 7997
  139.4922  144.5886  151.6727 H   0  0  0  0  0  0  0  0  0  0  0  0  # atno 10167 bound_to 10162
  156.1513  130.6536  150.9917 H   0  0  0  0  0  0  0  0  0  0  0  0  # atno 10718 bound_to 10713
  154.5720  135.5602  153.7104 H   0  0  0  0  0  0  0  0  0  0  0  0  # atno 10763 bound_to 10752
  153.0052  135.6299  154.2101 H   0  0  0  0  0  0  0  0  0  0  0  0  # atno 10764 bound_to 10752
  154.2041  135.2876  155.2961 H   0  0  0  0  0  0  0  0  0  0  0  0  # atno 10765 bound_to 10752
  140.8436  133.7908  155.9887 H   0  0  0  0  0  0  0  0  0  0  0  0  # atno 11005 bound_to 11000
  144.9672  139.3918  143.6327 LP  0  0  0  0  0  0  0  0  0  0  0  0  # atno 17320 bound_to 7965
  146.3351  139.8752  142.8833 LP  0  0  0  0  0  0  0  0  0  0  0  0  # atno 17321 bound_to 7965
  140.5508  144.0428  150.6126 LP  0  0  0  0  0  0  0  0  0  0  0  0  # atno 17342 bound_to 10162
  140.3482  143.2979  152.0516 LP  0  0  0  0  0  0  0  0  0  0  0  0  # atno 17343 bound_to 10162
  157.6659  131.0871  150.7729 LP  0  0  0  0  0  0  0  0  0  0  0  0  # atno 17370 bound_to 10713
  156.7797  130.4855  149.5403 LP  0  0  0  0  0  0  0  0  0  0  0  0  # atno 17371 bound_to 10713
  140.8868  134.2544  157.5115 LP  0  0  0  0  0  0  0  0  0  0  0  0  # atno 17394 bound_to 11000
  139.8703  134.9642  156.4488 LP  0  0  0  0  0  0  0  0  0  0  0  0  # atno 17395 bound_to 11000

$$$$
