AV-unprocessed.smi:2189|AV-procd|sdf|8884|dock10
  -GOLD-   2272012 83D 1   1.00000     0.00000
 Structure written by MMmdl.
 39 41  0  0  0  0  0  0  0  0  1 V2000
  151.5167  140.4185  156.2246 O   0  0  0  0  0  0  0  0  0  0  0  0
  151.0894  141.5283  156.5470 C   0  0  0  0  0  0  0  0  0  0  0  0
  150.0792  142.1152  155.8760 N   0  0  0  0  0  0  0  0  0  0  0  0
  149.3892  141.5680  154.7102 C   0  0  0  0  0  0  0  0  0  0  0  0
  148.2406  140.6186  155.1022 C   0  0  0  0  0  0  0  0  0  0  0  0
  147.6139  139.8980  153.9206 C   0  0  0  0  0  0  0  0  0  0  0  0
  147.0887  140.6214  152.8278 C   0  0  0  0  0  0  0  0  0  0  0  0
  146.5425  139.9014  151.7479 C   0  0  0  0  0  0  0  0  0  0  0  0
  146.5384  138.4944  151.8031 C   0  0  0  0  0  0  0  0  0  0  0  0
  147.0843  137.8669  152.9407 C   0  0  0  0  0  0  0  0  0  0  0  0
  147.6111  138.5473  153.9813 N   0  0  0  0  0  0  0  0  0  0  0  0
  151.6065  142.3416  157.6623 C   0  0  0  0  0  0  0  0  0  0  0  0
  151.2158  143.6394  157.7693 C   0  0  0  0  0  0  0  0  0  0  0  0
  151.6703  144.4829  158.8469 C   0  0  0  0  0  0  0  0  0  0  0  0
  152.5290  143.9648  159.7314 C   0  0  0  0  0  0  0  0  0  0  0  0
  153.0033  142.6561  159.6585 N   0  0  0  0  0  0  0  0  0  0  0  0
  154.0235  142.2674  160.6263 C   0  0  0  0  0  0  0  0  0  0  0  0
  153.7676  140.8582  161.1280 C   0  0  0  0  0  0  0  0  0  0  0  0
  153.9355  139.7697  159.6684 S   0  0  0  0  0  0  0  0  0  0  0  0
  155.3002  139.9225  159.1400 O   0  0  0  0  0  0  0  0  0  0  0  0
  153.4500  138.4317  160.0385 O   0  0  0  0  0  0  0  0  0  0  0  0
  152.8531  140.4989  158.6183 N   0  0  0  0  0  0  0  0  0  0  0  0
  152.5316  141.7611  158.6572 C   0  0  0  0  0  0  0  0  0  0  0  0
  149.7711  143.0215  156.1967 H   0  0  0  0  0  0  0  0  0  0  0  0
  149.0193  142.3663  154.0646 H   0  0  0  0  0  0  0  0  0  0  0  0
  150.1234  141.0193  154.1203 H   0  0  0  0  0  0  0  0  0  0  0  0
  148.6109  139.8737  155.8078 H   0  0  0  0  0  0  0  0  0  0  0  0
  147.4673  141.1752  155.6334 H   0  0  0  0  0  0  0  0  0  0  0  0
  147.1138  141.7011  152.8110 H   0  0  0  0  0  0  0  0  0  0  0  0
  146.1358  140.4191  150.8919 H   0  0  0  0  0  0  0  0  0  0  0  0
  146.1282  137.9093  150.9935 H   0  0  0  0  0  0  0  0  0  0  0  0
  147.0976  136.7896  153.0172 H   0  0  0  0  0  0  0  0  0  0  0  0
  150.5544  144.0882  157.0418 H   0  0  0  0  0  0  0  0  0  0  0  0
  151.3250  145.5023  158.9388 H   0  0  0  0  0  0  0  0  0  0  0  0
  152.9043  144.5468  160.5608 H   0  0  0  0  0  0  0  0  0  0  0  0
  155.0078  142.3439  160.1633 H   0  0  0  0  0  0  0  0  0  0  0  0
  154.0266  142.9478  161.4785 H   0  0  0  0  0  0  0  0  0  0  0  0
  154.4991  140.5553  161.8770 H   0  0  0  0  0  0  0  0  0  0  0  0
  152.7690  140.7466  161.5520 H   0  0  0  0  0  0  0  0  0  0  0  0
  1  2  2  0  0  0  0
  2  3  1  0  0  0  0
  2 12  1  0  0  0  0
  3  4  1  0  0  0  0
  3 24  1  0  0  0  0
  4  5  1  0  0  0  0
  4 25  1  0  0  0  0
  4 26  1  0  0  0  0
  5  6  1  0  0  0  0
  5 27  1  0  0  0  0
  5 28  1  0  0  0  0
  6 11  1  0  0  0  0
  6  7  2  0  0  0  0
  7  8  1  0  0  0  0
  7 29  1  0  0  0  0
  8  9  2  0  0  0  0
  8 30  1  0  0  0  0
  9 10  1  0  0  0  0
  9 31  1  0  0  0  0
 10 11  2  0  0  0  0
 10 32  1  0  0  0  0
 12 23  1  0  0  0  0
 12 13  2  0  0  0  0
 13 14  1  0  0  0  0
 13 33  1  0  0  0  0
 14 15  2  0  0  0  0
 14 34  1  0  0  0  0
 15 16  1  0  0  0  0
 15 35  1  0  0  0  0
 16 23  1  0  0  0  0
 16 17  1  0  0  0  0
 17 18  1  0  0  0  0
 17 36  1  0  0  0  0
 17 37  1  0  0  0  0
 18 19  1  0  0  0  0
 18 38  1  0  0  0  0
 18 39  1  0  0  0  0
 19 20  2  0  0  0  0
 19 21  2  0  0  0  0
 19 22  1  0  0  0  0
 22 23  2  0  0  0  0
M  END
> <s_m_source_file>
AV-unprocessed.smi

> <i_m_source_file_index>
2189

> <i_lp_mmshare_version>
43012

> <i_f3d_flags>
0

> <s_epik_input>
W0NIMl0xW0NIMl1TKD1PKSg9TylOPUMoTjEyKUMoPVtDSF1bQ0hdPVtDSF0yKUMoPU8pW05IXVtDSDJdW0NIMl1jM1tjSF1bY0hdW2NIXVtjSF1uMw==

> <s_epik_cmdline>
J2VwaWtfcHl0aG9uJywgJy1waCcsICc3LjAnLCAnLXRuJywgJzgnLCAnLW1hJywgJzIwMCcsICctbWV0YWxfYmluZGluZycsICctaW1hZScsICc8aW5maWxlLm1hZT4nLCAnLW9tYWUnLCAnPG91dGZpbGUubWFlPic=

> <r_epik_Ionization_Penalty>
0.0177355

> <r_epik_Ionization_Penalty_Charging>
8.06468e-09

> <r_epik_Ionization_Penalty_Neutral>
0.0177355

> <r_epik_State_Penalty>
0.0140338

> <r_epik_Charging_Adjusted_Penalty>
0.0140338

> <i_epik_Tot_Q>
0

> <i_epik_Tot_abs_Q>
0

> <r_epik_Metal_State_Penalty>
0.0535636

> <b_epik_Metal_Only>
0

> <s_lp_Force_Field>
OPLS_2005

> <r_lp_Energy>
27.3768

> <b_lp_Chiralities_Consistent>
1

> <s_lp_Variant>
AV-unprocessed.smi:2189-1

> <Gold.Version>
5.8.1

> <Gold.Id.Protein>
6NUR|6NUR_protein|mol2

> <Gold.PLP.Fitness>
46.3754

> <Gold.PLP.PLP>
-42.0613

> <Gold.PLP.part.hbond>
-2.0000

> <Gold.PLP.part.metal>
0.0000

> <Gold.PLP.part.buried>
2.9395

> <Gold.PLP.part.nonpolar>
-42.0069

> <Gold.PLP.part.repulsive>
0.3014

> <Gold.PLP.ligand.clash>
2.3978

> <Gold.PLP.ligand.torsion>
0.2647

> <Gold.PLP.Chemscore.Hbond>
1.9280

> <Gold.PLP.Chemscore.CHOScore>
0.4256

> <Gold.PLP.Chemscore.Metal>
0.0000

> <Gold.Chemscore.Hbonds>
donor molecule, donor type, donor heavy atom, donor atom, acceptor molecule, acceptor atom, score
      L1  H     3    24       P1  8028  0.90
      P1  H  7997  8009       L1    20  1.00
      L1  C    10    32       P1  7948  0.45

> <Gold.PLP.Chemscore.Internal.Correction>
0.1803

> <Gold.Rescore>
     Score         DG    S(hbond)    S(metal)    S(lipo)     H(rot)  DE(clash)    DE(int)     intcor
     18.32     -22.33       1.89        0.00     122.19       1.47       2.26       1.74       ----

> <Gold.Chemscore.Fitness>
18.3217

> <Gold.Chemscore.DG>
-22.3282

> <Gold.Chemscore.ZeroCoef>
-5.4800

> <Gold.Chemscore.Hbond>
1.8892

> <Gold.Chemscore.Metal>
0.0000

> <Gold.Chemscore.Lipo>
122.1897

> <Gold.Chemscore.Internal_Hbond>
0.0000

> <Gold.Chemscore.DEClash>
2.2630

> <Gold.Chemscore.DEInternal>
1.7435

> <Gold.Chemscore.Rot>
1.4679

> <Gold.Chemscore.Internal.Correction>
   9.000000E+99

> <Gold.Chemscore.Hbonds>
donor molecule, donor type, donor heavy atom, donor atom, acceptor molecule, acceptor atom, score
      L1  H     3    24       P1  8028  0.85
      P1  H  7997  8009       L1    20  0.84

> <Gold.Chemscore.Hbond.Weighted>
-6.3098

> <Gold.Chemscore.Metal.Weighted>
-0.0000

> <Gold.Chemscore.Lipo.Weighted>
-14.2962

> <Gold.Chemscore.Internal_Hbond.Weighted>
0.0000

> <Gold.Chemscore.DEClash.Weighted>
2.2630

> <Gold.Chemscore.DEInternal.Weighted>
1.7435

> <Gold.Chemscore.Rot.Weighted>
3.7578

> <Gold.Chemscore.Internal.Correction.Weighted>
   9.000000E+99

> <Gold.Protein.RotatedTorsions>
[ 6907 6896 6895 6894 ] final   48.81 input  -60.11 | X-H torsion
[ 7974 7965 7964 7962 ] final   59.41 input  175.53 | X-H torsion
[ 8008 7997 7996 7995 ] final  105.67 input   59.86 | X-H torsion
[ 10167 10162 10161 10158 ] final   87.07 input  -65.29 | X-H torsion
[ 10718 10713 10712 10709 ] final  -34.75 input   66.30 | X-H torsion
[ 10763 10752 10751 10750 ] final   85.69 input  -60.55 | X-H torsion
[ 11005 11000 10999 10996 ] final   93.34 input  -57.11 | X-H torsion

> <Gold.Protein.ActiveResidues>
 VAL166  LYS551  ARG553  GLY616  TRP617  ASP618  TYR619  PRO620  LYS621  CYS622 
 ASP623  PHE694  ASN695  SER759  ASP760  ASP761  ALA762  ILE779  LEU786  VAL792 
 PHE793  MET794  SER795  GLU796  ALA797  LYS798  CYS799  TRP800  GLU811  SER814 

> <Gold.Protein.RotatedAtoms>
  152.2838  134.7799  160.0391 H   0  0  0  0  0  0  0  0  0  0  0  0  # atno 6907 bound_to 6896
  151.8369  133.3412  159.3639 H   0  0  0  0  0  0  0  0  0  0  0  0  # atno 6908 bound_to 6896
  150.7200  134.5357  159.5766 H   0  0  0  0  0  0  0  0  0  0  0  0  # atno 6909 bound_to 6896
  145.9075  139.3628  143.0555 H   0  0  0  0  0  0  0  0  0  0  0  0  # atno 7974 bound_to 7965
  156.1678  140.3126  155.8920 H   0  0  0  0  0  0  0  0  0  0  0  0  # atno 8008 bound_to 7997
  155.3649  140.0478  157.3063 H   0  0  0  0  0  0  0  0  0  0  0  0  # atno 8009 bound_to 7997
  154.5210  140.2198  155.8986 H   0  0  0  0  0  0  0  0  0  0  0  0  # atno 8010 bound_to 7997
  139.8810  144.6440  150.8842 H   0  0  0  0  0  0  0  0  0  0  0  0  # atno 10167 bound_to 10162
  156.3468  130.4302  149.7739 H   0  0  0  0  0  0  0  0  0  0  0  0  # atno 10718 bound_to 10713
  153.1499  135.4608  154.9621 H   0  0  0  0  0  0  0  0  0  0  0  0  # atno 10763 bound_to 10752
  154.7816  135.3190  154.7979 H   0  0  0  0  0  0  0  0  0  0  0  0  # atno 10764 bound_to 10752
  153.8486  135.6923  153.4849 H   0  0  0  0  0  0  0  0  0  0  0  0  # atno 10765 bound_to 10752
  139.8811  134.8785  156.3704 H   0  0  0  0  0  0  0  0  0  0  0  0  # atno 11005 bound_to 11000
  145.8713  140.9418  143.0649 LP  0  0  0  0  0  0  0  0  0  0  0  0  # atno 17320 bound_to 7965
  144.6740  140.0659  143.7474 LP  0  0  0  0  0  0  0  0  0  0  0  0  # atno 17321 bound_to 7965
  140.7744  143.3585  151.1874 LP  0  0  0  0  0  0  0  0  0  0  0  0  # atno 17342 bound_to 10162
  139.7195  143.9245  152.2980 LP  0  0  0  0  0  0  0  0  0  0  0  0  # atno 17343 bound_to 10162
  156.4955  130.8104  151.3111 LP  0  0  0  0  0  0  0  0  0  0  0  0  # atno 17370 bound_to 10713
  157.7455  130.9962  150.2770 LP  0  0  0  0  0  0  0  0  0  0  0  0  # atno 17371 bound_to 10713
  140.9468  133.7478  156.0218 LP  0  0  0  0  0  0  0  0  0  0  0  0  # atno 17394 bound_to 11000
  140.8154  134.3351  157.5399 LP  0  0  0  0  0  0  0  0  0  0  0  0  # atno 17395 bound_to 11000

$$$$
