AV-unprocessed.smi:1978|AV-procd|sdf|7999|dock5
  -GOLD-   2272010183D 1   1.00000     0.00000
 Structure written by MMmdl.
 45 46  0  0  0  0  0  0  0  0  2 V2000
  143.4136  132.2957  149.5954 C   0  0  0  0  0  0  0  0  0  0  0  0
  144.5634  133.0036  150.2263 C   0  0  0  0  0  0  0  0  0  0  0  0
  144.6623  134.1621  150.9445 C   0  0  0  0  0  0  0  0  0  0  0  0
  146.0497  134.2385  151.2381 C   0  0  0  0  0  0  0  0  0  0  0  0
  146.5764  135.3219  151.9865 N   0  0  0  0  0  0  0  0  0  0  0  0
  145.9006  136.1826  152.7662 C   0  0  0  0  0  0  0  0  0  0  0  0
  144.6836  136.1685  152.9535 O   0  0  0  0  0  0  0  0  0  0  0  0
  146.7221  137.0795  153.3311 N   0  0  0  0  0  0  0  0  0  0  0  0
  146.2954  138.1540  154.2237 C   0  0  0  0  0  0  0  0  0  0  0  0
  146.8170  139.5588  153.7984 C   0  0  1  0  0  0  0  0  0  0  0  0
  146.9119  139.6322  152.2537 C   0  0  0  0  0  0  0  0  0  0  0  0
  145.9835  140.6822  154.3553 N   0  3  2  0  0  0  0  0  0  0  0  0
  146.5101  142.0432  154.0273 C   0  0  0  0  0  0  0  0  0  0  0  0
  145.5315  143.1572  154.4347 C   0  0  0  0  0  0  0  0  0  0  0  0
  145.1803  143.0757  155.9204 C   0  0  0  0  0  0  0  0  0  0  0  0
  144.6434  141.6767  156.2354 C   0  0  0  0  0  0  0  0  0  0  0  0
  145.6256  140.5648  155.8099 C   0  0  2  0  0  0  0  0  0  0  0  0
  146.8563  140.4908  156.7417 C   0  0  0  0  0  0  0  0  0  0  0  0
  146.7362  133.2204  150.7427 N   0  0  0  0  0  0  0  0  0  0  0  0
  145.7869  132.4232  150.0919 O   0  0  0  0  0  0  0  0  0  0  0  0
  142.4975  132.8789  149.6899 H   0  0  0  0  0  0  0  0  0  0  0  0
  143.2490  131.3281  150.0697 H   0  0  0  0  0  0  0  0  0  0  0  0
  143.5981  132.1263  148.5344 H   0  0  0  0  0  0  0  0  0  0  0  0
  143.8681  134.8419  151.2153 H   0  0  0  0  0  0  0  0  0  0  0  0
  147.5745  135.4557  151.9187 H   0  0  0  0  0  0  0  0  0  0  0  0
  147.7085  137.0224  153.1226 H   0  0  0  0  0  0  0  0  0  0  0  0
  145.2054  138.1555  154.2542 H   0  0  0  0  0  0  0  0  0  0  0  0
  146.6335  137.8734  155.2204 H   0  0  0  0  0  0  0  0  0  0  0  0
  147.8278  139.6791  154.1901 H   0  0  0  0  0  0  0  0  0  0  0  0
  147.4255  138.7699  151.8306 H   0  0  0  0  0  0  0  0  0  0  0  0
  147.4848  140.4922  151.9111 H   0  0  0  0  0  0  0  0  0  0  0  0
  145.9226  139.6764  151.7974 H   0  0  0  0  0  0  0  0  0  0  0  0
  147.4793  142.1939  154.5038 H   0  0  0  0  0  0  0  0  0  0  0  0
  146.6712  142.1583  152.9583 H   0  0  0  0  0  0  0  0  0  0  0  0
  145.9636  144.1325  154.2087 H   0  0  0  0  0  0  0  0  0  0  0  0
  144.6205  143.0789  153.8393 H   0  0  0  0  0  0  0  0  0  0  0  0
  146.0602  143.2913  156.5273 H   0  0  0  0  0  0  0  0  0  0  0  0
  144.4358  143.8311  156.1736 H   0  0  0  0  0  0  0  0  0  0  0  0
  144.4174  141.5950  157.2993 H   0  0  0  0  0  0  0  0  0  0  0  0
  143.6948  141.5353  155.7155 H   0  0  0  0  0  0  0  0  0  0  0  0
  145.0562  139.6480  155.9502 H   0  0  0  0  0  0  0  0  0  0  0  0
  146.5455  140.4022  157.7829 H   0  0  0  0  0  0  0  0  0  0  0  0
  147.4869  141.3761  156.6680 H   0  0  0  0  0  0  0  0  0  0  0  0
  147.4810  139.6244  156.5266 H   0  0  0  0  0  0  0  0  0  0  0  0
  145.1015  140.6165  153.8678 H   0  0  0  0  0  0  0  0  0  0  0  0
  1  2  1  0  0  0  0
  1 21  1  0  0  0  0
  1 22  1  0  0  0  0
  1 23  1  0  0  0  0
  2 20  1  0  0  0  0
  2  3  2  0  0  0  0
  3  4  1  0  0  0  0
  3 24  1  0  0  0  0
  4  5  1  0  0  0  0
  4 19  2  0  0  0  0
  5  6  1  0  0  0  0
  5 25  1  0  0  0  0
  6  7  2  0  0  0  0
  6  8  1  0  0  0  0
  8  9  1  0  0  0  0
  8 26  1  0  0  0  0
  9 10  1  0  0  0  0
  9 27  1  0  0  0  0
  9 28  1  0  0  0  0
 10 11  1  0  0  0  0
 10 12  1  0  0  0  0
 10 29  1  0  0  0  0
 11 30  1  0  0  0  0
 11 31  1  0  0  0  0
 11 32  1  0  0  0  0
 12 17  1  0  0  0  0
 12 13  1  0  0  0  0
 12 45  1  0  0  0  0
 13 14  1  0  0  0  0
 13 33  1  0  0  0  0
 13 34  1  0  0  0  0
 14 15  1  0  0  0  0
 14 35  1  0  0  0  0
 14 36  1  0  0  0  0
 15 16  1  0  0  0  0
 15 37  1  0  0  0  0
 15 38  1  0  0  0  0
 16 17  1  0  0  0  0
 16 39  1  0  0  0  0
 16 40  1  0  0  0  0
 17 18  1  0  0  0  0
 17 41  1  0  0  0  0
 18 42  1  0  0  0  0
 18 43  1  0  0  0  0
 18 44  1  0  0  0  0
 19 20  1  0  0  0  0
M  CHG  1  12   1
M  END
> <s_m_source_file>
AV-unprocessed.smi

> <i_m_source_file_index>
1978

> <i_lp_mmshare_version>
43012

> <i_f3d_flags>
0

> <s_epik_input>
W0NIM11jMVtjSF1jKG5vMSlbTkhdQyg9TylbTkhdW0NIMl1bQ0BIXShbQ0gzXSlOMltDSDJdW0NIMl1bQ0gyXVtDSDJdW0NASF0yW0NIM10=

> <s_epik_cmdline>
J2VwaWtfcHl0aG9uJywgJy1waCcsICc3LjAnLCAnLXRuJywgJzgnLCAnLW1hJywgJzIwMCcsICctbWV0YWxfYmluZGluZycsICctaW1hZScsICc8aW5maWxlLm1hZT4nLCAnLW9tYWUnLCAnPG91dGZpbGUubWFlPic=

> <r_epik_Ionization_Penalty>
0.00265971

> <r_epik_Ionization_Penalty_Charging>
0.00262393

> <r_epik_Ionization_Penalty_Neutral>
3.57846e-05

> <r_epik_State_Penalty>
0.00182566

> <r_epik_Charging_Adjusted_Penalty>
0.00444959

> <i_epik_Tot_Q>
1

> <i_epik_Tot_abs_Q>
1

> <r_epik_Metal_State_Penalty>
0.0216344

> <b_epik_Metal_Only>
0

> <s_lp_Force_Field>
OPLS_2005

> <r_lp_Energy>
22.4222

> <b_lp_Chiralities_Consistent>
1

> <s_lp_Variant>
AV-unprocessed.smi:1978-8

> <Gold.Version>
5.8.1

> <Gold.Id.Protein>
6NUR|6NUR_protein|mol2

> <Gold.PLP.Fitness>
40.1531

> <Gold.PLP.PLP>
-29.6231

> <Gold.PLP.part.hbond>
-2.8680

> <Gold.PLP.part.metal>
0.0000

> <Gold.PLP.part.buried>
-2.5412

> <Gold.PLP.part.nonpolar>
-25.5379

> <Gold.PLP.part.repulsive>
0.5890

> <Gold.PLP.ligand.clash>
0.0000

> <Gold.PLP.ligand.torsion>
0.4546

> <Gold.PLP.Chemscore.Hbond>
3.7840

> <Gold.PLP.Chemscore.CHOScore>
0.0000

> <Gold.PLP.Chemscore.Metal>
0.0000

> <Gold.Chemscore.Hbonds>
donor molecule, donor type, donor heavy atom, donor atom, acceptor molecule, acceptor atom, score
      L1  H     5    25       P1  7948  1.00
      L1  H     8    26       P1  7948  0.83
      L1  H    12    45       P1 10175  2.00

> <Gold.PLP.Chemscore.Internal.Correction>
0.0872

> <Gold.Rescore>
     Score         DG    S(hbond)    S(metal)    S(lipo)     H(rot)  DE(clash)    DE(int)     intcor
     15.72     -19.45       2.87        0.00      71.39       1.55       1.83       1.90       ----

> <Gold.Chemscore.Fitness>
15.7248

> <Gold.Chemscore.DG>
-19.4548

> <Gold.Chemscore.ZeroCoef>
-5.4800

> <Gold.Chemscore.Hbond>
2.8691

> <Gold.Chemscore.Metal>
0.0000

> <Gold.Chemscore.Lipo>
71.3945

> <Gold.Chemscore.Internal_Hbond>
0.0000

> <Gold.Chemscore.DEClash>
1.8346

> <Gold.Chemscore.DEInternal>
1.8954

> <Gold.Chemscore.Rot>
1.5474

> <Gold.Chemscore.Internal.Correction>
   9.000000E+99

> <Gold.Chemscore.Hbonds>
donor molecule, donor type, donor heavy atom, donor atom, acceptor molecule, acceptor atom, score
      L1  H     5    25       P1  7948  0.93
      L1  H     8    26       P1  7948  0.82
      L1  H    12    45       P1 10175  0.96

> <Gold.Chemscore.Hbond.Weighted>
-9.5829

> <Gold.Chemscore.Metal.Weighted>
-0.0000

> <Gold.Chemscore.Lipo.Weighted>
-8.3532

> <Gold.Chemscore.Internal_Hbond.Weighted>
0.0000

> <Gold.Chemscore.DEClash.Weighted>
1.8346

> <Gold.Chemscore.DEInternal.Weighted>
1.8954

> <Gold.Chemscore.Rot.Weighted>
3.9612

> <Gold.Chemscore.Internal.Correction.Weighted>
   9.000000E+99

> <Gold.Protein.RotatedTorsions>
[ 6907 6896 6895 6894 ] final   43.49 input  -60.11 | X-H torsion
[ 7974 7965 7964 7962 ] final -113.69 input  175.53 | X-H torsion
[ 8008 7997 7996 7995 ] final -134.35 input   59.86 | X-H torsion
[ 10167 10162 10161 10158 ] final  -12.34 input  -65.29 | X-H torsion
[ 10718 10713 10712 10709 ] final  150.20 input   66.30 | X-H torsion
[ 10763 10752 10751 10750 ] final -112.53 input  -60.55 | X-H torsion
[ 11005 11000 10999 10996 ] final  -69.93 input  -57.11 | X-H torsion

> <Gold.Protein.ActiveResidues>
 VAL166  LYS551  ARG553  GLY616  TRP617  ASP618  TYR619  PRO620  LYS621  CYS622 
 ASP623  PHE694  ASN695  SER759  ASP760  ASP761  ALA762  ILE779  LEU786  VAL792 
 PHE793  MET794  SER795  GLU796  ALA797  LYS798  CYS799  TRP800  GLU811  SER814 

> <Gold.Protein.RotatedAtoms>
  152.2209  134.8414  160.0485 H   0  0  0  0  0  0  0  0  0  0  0  0  # atno 6907 bound_to 6896
  151.9198  133.3577  159.3901 H   0  0  0  0  0  0  0  0  0  0  0  0  # atno 6908 bound_to 6896
  150.6999  134.4572  159.5408 H   0  0  0  0  0  0  0  0  0  0  0  0  # atno 6909 bound_to 6896
  145.1291  140.8714  143.3769 H   0  0  0  0  0  0  0  0  0  0  0  0  # atno 7974 bound_to 7965
  155.3606  140.0482  157.3046 H   0  0  0  0  0  0  0  0  0  0  0  0  # atno 8008 bound_to 7997
  154.5180  140.2215  155.8992 H   0  0  0  0  0  0  0  0  0  0  0  0  # atno 8009 bound_to 7997
  156.1658  140.3106  155.8892 H   0  0  0  0  0  0  0  0  0  0  0  0  # atno 8010 bound_to 7997
  140.7159  143.5542  150.9267 H   0  0  0  0  0  0  0  0  0  0  0  0  # atno 10167 bound_to 10162
  157.2865  131.0845  151.1493 H   0  0  0  0  0  0  0  0  0  0  0  0  # atno 10718 bound_to 10713
  154.8354  135.4487  154.1207 H   0  0  0  0  0  0  0  0  0  0  0  0  # atno 10763 bound_to 10752
  153.2444  135.6920  153.7754 H   0  0  0  0  0  0  0  0  0  0  0  0  # atno 10764 bound_to 10752
  153.7089  135.3360  155.3218 H   0  0  0  0  0  0  0  0  0  0  0  0  # atno 10765 bound_to 10752
  141.1564  133.6777  156.6675 H   0  0  0  0  0  0  0  0  0  0  0  0  # atno 11005 bound_to 11000
  145.0655  139.3071  143.5858 LP  0  0  0  0  0  0  0  0  0  0  0  0  # atno 17320 bound_to 7965
  146.3515  140.0112  142.8667 LP  0  0  0  0  0  0  0  0  0  0  0  0  # atno 17321 bound_to 7965
  139.9267  143.6542  152.3085 LP  0  0  0  0  0  0  0  0  0  0  0  0  # atno 17342 bound_to 10162
  139.6978  144.7639  151.1326 LP  0  0  0  0  0  0  0  0  0  0  0  0  # atno 17343 bound_to 10162
  157.2906  130.6794  149.6112 LP  0  0  0  0  0  0  0  0  0  0  0  0  # atno 17370 bound_to 10713
  155.9666  130.4422  150.5370 LP  0  0  0  0  0  0  0  0  0  0  0  0  # atno 17371 bound_to 10713
  140.3200  134.8016  157.4245 LP  0  0  0  0  0  0  0  0  0  0  0  0  # atno 17394 bound_to 11000
  140.1105  134.5352  155.8270 LP  0  0  0  0  0  0  0  0  0  0  0  0  # atno 17395 bound_to 11000

$$$$
