AV-unprocessed.smi:766|AV-procd|sdf|3654|dock3
  -GOLD-   22720 1 63D 1   1.00000     0.00000
 Structure written by MMmdl.
 48 50  0  0  0  0  0  0  0  0  3 V2000
  153.0538  143.9578  160.4612 C   0  0  0  0  0  0  0  0  0  0  0  0
  152.6774  143.0437  159.3074 C   0  0  0  0  0  0  0  0  0  0  0  0
  151.7773  143.5258  158.3306 C   0  0  0  0  0  0  0  0  0  0  0  0
  151.4508  142.6655  157.2889 C   0  0  0  0  0  0  0  0  0  0  0  0
  150.6068  142.8400  156.1903 N   0  3  0  0  0  0  0  0  0  0  0  0
  150.6012  141.7061  155.4362 C   0  0  0  0  0  0  0  0  0  0  0  0
  151.4320  140.8095  156.0355 N   0  0  0  0  0  0  0  0  0  0  0  0
  151.7675  139.4324  155.6427 C   0  0  0  0  0  0  0  0  0  0  0  0
  151.0273  138.9653  154.3737 C   0  0  1  0  0  0  0  0  0  0  0  0
  151.4142  137.6429  154.0546 O   0  0  0  0  0  0  0  0  0  0  0  0
  149.5017  138.9986  154.5650 C   0  0  0  0  0  0  0  0  0  0  0  0
  148.7911  138.8221  153.2831 N   0  3  0  0  0  0  0  0  0  0  0  0
  147.4492  139.4377  153.2514 C   0  0  0  0  0  0  0  0  0  0  0  0
  147.5213  140.9352  152.9033 C   0  0  0  0  0  0  0  0  0  0  0  0
  146.8934  141.7866  153.9010 N   0  0  0  0  0  0  0  0  0  0  0  0
  146.6039  143.1325  153.8133 C   0  0  0  0  0  0  0  0  0  0  0  0
  145.9905  143.4944  154.9784 C   0  0  0  0  0  0  0  0  0  0  0  0
  145.9335  142.2828  155.7216 C   0  0  0  0  0  0  0  0  0  0  0  0
  146.4685  141.2617  155.0716 N   0  0  0  0  0  0  0  0  0  0  0  0
  151.9849  141.3654  157.1964 C   0  0  0  0  0  0  0  0  0  0  0  0
  152.8763  140.8765  158.1492 C   0  0  0  0  0  0  0  0  0  0  0  0
  153.2198  141.7357  159.2173 C   0  0  0  0  0  0  0  0  0  0  0  0
  154.1876  141.2277  160.2727 C   0  0  0  0  0  0  0  0  0  0  0  0
  152.5824  144.9364  160.3650 H   0  0  0  0  0  0  0  0  0  0  0  0
  154.1326  144.1106  160.4949 H   0  0  0  0  0  0  0  0  0  0  0  0
  152.7348  143.5264  161.4102 H   0  0  0  0  0  0  0  0  0  0  0  0
  151.3600  144.5202  158.3926 H   0  0  0  0  0  0  0  0  0  0  0  0
  150.0351  141.5462  154.5298 H   0  0  0  0  0  0  0  0  0  0  0  0
  152.8479  139.3443  155.5255 H   0  0  0  0  0  0  0  0  0  0  0  0
  151.5021  138.7886  156.4822 H   0  0  0  0  0  0  0  0  0  0  0  0
  151.3060  139.6139  153.5420 H   0  0  0  0  0  0  0  0  0  0  0  0
  152.2042  137.6779  153.5362 H   0  0  0  0  0  0  0  0  0  0  0  0
  149.1873  138.2295  155.2722 H   0  0  0  0  0  0  0  0  0  0  0  0
  149.2071  139.9601  154.9881 H   0  0  0  0  0  0  0  0  0  0  0  0
  149.3475  139.2373  152.5494 H   0  0  0  0  0  0  0  0  0  0  0  0
  146.8403  138.9186  152.5103 H   0  0  0  0  0  0  0  0  0  0  0  0
  146.9573  139.2960  154.2148 H   0  0  0  0  0  0  0  0  0  0  0  0
  148.5612  141.2434  152.7859 H   0  0  0  0  0  0  0  0  0  0  0  0
  147.0306  141.1183  151.9465 H   0  0  0  0  0  0  0  0  0  0  0  0
  146.8561  143.7158  152.9398 H   0  0  0  0  0  0  0  0  0  0  0  0
  145.6304  144.4745  155.2549 H   0  0  0  0  0  0  0  0  0  0  0  0
  145.5195  142.1152  156.7050 H   0  0  0  0  0  0  0  0  0  0  0  0
  153.2949  139.8832  158.0821 H   0  0  0  0  0  0  0  0  0  0  0  0
  154.4743  140.1922  160.0868 H   0  0  0  0  0  0  0  0  0  0  0  0
  153.7349  141.2732  161.2636 H   0  0  0  0  0  0  0  0  0  0  0  0
  155.0967  141.8297  160.2786 H   0  0  0  0  0  0  0  0  0  0  0  0
  148.6996  137.8329  153.0999 H   0  0  0  0  0  0  0  0  0  0  0  0
  150.0691  143.6693  155.9724 H   0  0  0  0  0  0  0  0  0  0  0  0
  1  2  1  0  0  0  0
  1 24  1  0  0  0  0
  1 25  1  0  0  0  0
  1 26  1  0  0  0  0
  2 22  1  0  0  0  0
  2  3  2  0  0  0  0
  3  4  1  0  0  0  0
  3 27  1  0  0  0  0
  4 20  2  0  0  0  0
  4  5  1  0  0  0  0
  5  6  2  0  0  0  0
  5 48  1  0  0  0  0
  6  7  1  0  0  0  0
  6 28  1  0  0  0  0
  7  8  1  0  0  0  0
  7 20  1  0  0  0  0
  8  9  1  0  0  0  0
  8 29  1  0  0  0  0
  8 30  1  0  0  0  0
  9 10  1  0  0  0  0
  9 11  1  0  0  0  0
  9 31  1  0  0  0  0
 10 32  1  0  0  0  0
 11 12  1  0  0  0  0
 11 33  1  0  0  0  0
 11 34  1  0  0  0  0
 12 13  1  0  0  0  0
 12 35  1  0  0  0  0
 12 47  1  0  0  0  0
 13 14  1  0  0  0  0
 13 36  1  0  0  0  0
 13 37  1  0  0  0  0
 14 15  1  0  0  0  0
 14 38  1  0  0  0  0
 14 39  1  0  0  0  0
 15 19  1  0  0  0  0
 15 16  1  0  0  0  0
 16 17  2  0  0  0  0
 16 40  1  0  0  0  0
 17 18  1  0  0  0  0
 17 41  1  0  0  0  0
 18 19  2  0  0  0  0
 18 42  1  0  0  0  0
 20 21  1  0  0  0  0
 21 22  2  0  0  0  0
 21 43  1  0  0  0  0
 22 23  1  0  0  0  0
 23 44  1  0  0  0  0
 23 45  1  0  0  0  0
 23 46  1  0  0  0  0
M  CHG  1   5   1
M  CHG  1  12   1
M  END
> <s_m_source_file>
AV-unprocessed.smi

> <i_m_source_file_index>
766

> <i_lp_mmshare_version>
43012

> <i_f3d_flags>
0

> <s_epik_input>
W0NIM11jKFtjSF0xKWMoW0NIM10pW2NIXWMoYzEyKW4oW2NIXW4yKVtDSDJdW0NASF0oW09IXSlbQ0gyXVtOSF1bQ0gyXVtDSDJdbjNbY0hdW2NIXVtjSF1uMw==

> <s_epik_cmdline>
J2VwaWtfcHl0aG9uJywgJy1waCcsICc3LjAnLCAnLXRuJywgJzgnLCAnLW1hJywgJzIwMCcsICctbWV0YWxfYmluZGluZycsICctaW1hZScsICc8aW5maWxlLm1hZT4nLCAnLW9tYWUnLCAnPG91dGZpbGUubWFlPic=

> <r_lp_tautomer_probability>
1

> <r_epik_Ionization_Penalty>
1.25103

> <r_epik_Ionization_Penalty_Charging>
1.25102

> <r_epik_Ionization_Penalty_Neutral>
6.05394e-06

> <r_epik_State_Penalty>
1.2613

> <r_epik_Charging_Adjusted_Penalty>
2.51232

> <i_epik_Tot_Q>
2

> <i_epik_Tot_abs_Q>
2

> <r_epik_Metal_State_Penalty>
1.33164

> <b_epik_Metal_Only>
0

> <s_lp_Force_Field>
OPLS_2005

> <r_lp_Energy>
19.1357

> <b_lp_Chiralities_Consistent>
1

> <s_lp_Variant>
AV-unprocessed.smi:766-4

> <Gold.Version>
5.8.1

> <Gold.Id.Protein>
6NUR|6NUR_protein|mol2

> <Gold.PLP.Fitness>
67.2487

> <Gold.PLP.PLP>
-53.5714

> <Gold.PLP.part.hbond>
-3.9927

> <Gold.PLP.part.metal>
0.0000

> <Gold.PLP.part.buried>
-6.7818

> <Gold.PLP.part.nonpolar>
-43.0584

> <Gold.PLP.part.repulsive>
0.2455

> <Gold.PLP.ligand.clash>
0.0000

> <Gold.PLP.ligand.torsion>
0.8011

> <Gold.PLP.Chemscore.Hbond>
5.0000

> <Gold.PLP.Chemscore.CHOScore>
0.0000

> <Gold.PLP.Chemscore.Metal>
0.0000

> <Gold.Chemscore.Hbonds>
donor molecule, donor type, donor heavy atom, donor atom, acceptor molecule, acceptor atom, score
      L1  H     5    48       P1  8028  2.00
      L1  H    12    35       P1  7957  1.00
      L1  H    12    47       P1  7948  1.95

> <Gold.PLP.Chemscore.Internal.Correction>
0.2795

> <Gold.Rescore>
     Score         DG    S(hbond)    S(metal)    S(lipo)     H(rot)  DE(clash)    DE(int)     intcor
     21.13     -21.78       2.94        0.00     121.59       3.02       0.03       0.62       ----

> <Gold.Chemscore.Fitness>
21.1281

> <Gold.Chemscore.DG>
-21.7811

> <Gold.Chemscore.ZeroCoef>
-5.4800

> <Gold.Chemscore.Hbond>
2.9383

> <Gold.Chemscore.Metal>
0.0000

> <Gold.Chemscore.Lipo>
121.5865

> <Gold.Chemscore.Internal_Hbond>
0.0000

> <Gold.Chemscore.DEClash>
0.0323

> <Gold.Chemscore.DEInternal>
0.6208

> <Gold.Chemscore.Rot>
3.0229

> <Gold.Chemscore.Internal.Correction>
   9.000000E+99

> <Gold.Chemscore.Hbonds>
donor molecule, donor type, donor heavy atom, donor atom, acceptor molecule, acceptor atom, score
      L1  H     5    48       P1  8028  0.99
      L1  H    12    35       P1  7957  0.97
      L1  H    12    47       P1  7948  0.88

> <Gold.Chemscore.Hbond.Weighted>
-9.8141

> <Gold.Chemscore.Metal.Weighted>
-0.0000

> <Gold.Chemscore.Lipo.Weighted>
-14.2256

> <Gold.Chemscore.Internal_Hbond.Weighted>
0.0000

> <Gold.Chemscore.DEClash.Weighted>
0.0323

> <Gold.Chemscore.DEInternal.Weighted>
0.6208

> <Gold.Chemscore.Rot.Weighted>
7.7386

> <Gold.Chemscore.Internal.Correction.Weighted>
   9.000000E+99

> <Gold.Protein.RotatedTorsions>
[ 6907 6896 6895 6894 ] final -159.44 input  -60.11 | X-H torsion
[ 7974 7965 7964 7962 ] final   58.62 input  175.53 | X-H torsion
[ 8008 7997 7996 7995 ] final   75.17 input   59.86 | X-H torsion
[ 10167 10162 10161 10158 ] final   13.14 input  -65.29 | X-H torsion
[ 10718 10713 10712 10709 ] final  -54.81 input   66.30 | X-H torsion
[ 10763 10752 10751 10750 ] final   27.89 input  -60.55 | X-H torsion
[ 11005 11000 10999 10996 ] final   24.80 input  -57.11 | X-H torsion

> <Gold.Protein.ActiveResidues>
 VAL166  LYS551  ARG553  GLY616  TRP617  ASP618  TYR619  PRO620  LYS621  CYS622 
 ASP623  PHE694  ASN695  SER759  ASP760  ASP761  ALA762  ILE779  LEU786  VAL792 
 PHE793  MET794  SER795  GLU796  ALA797  LYS798  CYS799  TRP800  GLU811  SER814 

> <Gold.Protein.RotatedAtoms>
  151.3336  133.3990  159.2664 H   0  0  0  0  0  0  0  0  0  0  0  0  # atno 6907 bound_to 6896
  150.9935  134.9265  159.7923 H   0  0  0  0  0  0  0  0  0  0  0  0  # atno 6908 bound_to 6896
  152.5254  134.3301  159.9232 H   0  0  0  0  0  0  0  0  0  0  0  0  # atno 6909 bound_to 6896
  145.9162  139.3693  143.0506 H   0  0  0  0  0  0  0  0  0  0  0  0  # atno 7974 bound_to 7965
  155.8090  140.3474  155.5446 H   0  0  0  0  0  0  0  0  0  0  0  0  # atno 8008 bound_to 7997
  155.8460  140.0949  157.1725 H   0  0  0  0  0  0  0  0  0  0  0  0  # atno 8009 bound_to 7997
  154.4006  140.1385  156.3774 H   0  0  0  0  0  0  0  0  0  0  0  0  # atno 8010 bound_to 7997
  140.6022  143.8581  150.6977 H   0  0  0  0  0  0  0  0  0  0  0  0  # atno 10167 bound_to 10162
  156.1420  130.4154  150.0087 H   0  0  0  0  0  0  0  0  0  0  0  0  # atno 10718 bound_to 10713
  153.0526  135.6526  154.0655 H   0  0  0  0  0  0  0  0  0  0  0  0  # atno 10763 bound_to 10752
  154.0340  135.2909  155.3366 H   0  0  0  0  0  0  0  0  0  0  0  0  # atno 10764 bound_to 10752
  154.6824  135.5315  153.8347 H   0  0  0  0  0  0  0  0  0  0  0  0  # atno 10765 bound_to 10752
  140.3548  134.2190  155.7677 H   0  0  0  0  0  0  0  0  0  0  0  0  # atno 11005 bound_to 11000
  145.8609  140.9476  143.0701 LP  0  0  0  0  0  0  0  0  0  0  0  0  # atno 17320 bound_to 7965
  144.6748  140.0529  143.7478 LP  0  0  0  0  0  0  0  0  0  0  0  0  # atno 17321 bound_to 7965
  140.2130  143.3869  152.1703 LP  0  0  0  0  0  0  0  0  0  0  0  0  # atno 17342 bound_to 10162
  139.5299  144.7147  151.5093 LP  0  0  0  0  0  0  0  0  0  0  0  0  # atno 17343 bound_to 10162
  156.7969  130.9276  151.3646 LP  0  0  0  0  0  0  0  0  0  0  0  0  # atno 17370 bound_to 10713
  157.6584  130.8944  149.9777 LP  0  0  0  0  0  0  0  0  0  0  0  0  # atno 17371 bound_to 10713
  141.2002  133.7994  157.0502 LP  0  0  0  0  0  0  0  0  0  0  0  0  # atno 17394 bound_to 11000
  140.0674  134.9721  157.1409 LP  0  0  0  0  0  0  0  0  0  0  0  0  # atno 17395 bound_to 11000

$$$$
