#       Name:                AV-unprocessed.smi:3031
#       Creating user name   scv26
#       Creation time:       Fri Mar 27 16:50:24 2020


#       File generated by GOLD software.
#

@<TRIPOS>MOLECULE
AV-unprocessed.smi:3031
    53    54     1
SMALL
NO_CHARGES


@<TRIPOS>ATOM
      1 ****        -3.3284   2.7238  -2.9500 C.3            1 S1                 0.0000
      2 ****        -2.9655   1.4087  -2.3232 C.2            1 S1                 0.0000
      3 ****        -1.8900   0.5425  -2.6703 C.2            1 S1                 0.0000
      4 ****        -1.8398  -0.5429  -1.9159 N.2            1 S1                 0.0000
      5 ****        -2.8760  -0.4070  -1.0600 N.pl3          1 S1                 0.0000
      6 ****        -3.1290  -1.4314  -0.0630 C.3            1 S1                 0.0000
      7 ****        -2.8042  -0.9977   1.3873 C.3            1 S1                 0.0000
      8 ****        -3.3129  -2.0572   2.3746 C.3            1 S1                 0.0000
      9 ****        -1.3664  -0.8041   1.6004 N.3            1 S1                 0.0000
     10 ****        -0.8604   0.5390   1.3036 C.3            1 S1                 0.0000
     11 ****         0.6760   0.6055   1.3522 C.3            1 S1                 0.0000
     12 ****         1.1091   0.4559   2.6898 O.3            1 S1                 0.0000
     13 ****         1.3607  -0.4343   0.4388 C.3            1 S1                 0.0000
     14 ****         2.8214  -0.2049   0.3097 N.4            1 S1                 1.0000
     15 ****         3.5627  -1.4422  -0.0319 C.3            1 S1                 0.0000
     16 ****         5.0741  -1.1641  -0.0951 C.3            1 S1                 0.0000
     17 ****         5.3313  -0.1313  -1.0384 O.3            1 S1                 0.0000
     18 ****         4.6944   1.0883  -0.6789 C.3            1 S1                 0.0000
     19 ****         3.1709   0.8832  -0.6371 C.3            1 S1                 0.0000
     20 ****        -3.5780   0.7571  -1.2903 C.2            1 S1                 0.0000
     21 ****        -2.9162   2.8212  -3.9544 H              1 S1                 0.0000
     22 ****        -2.9519   3.5633  -2.3653 H              1 S1                 0.0000
     23 ****        -4.4085   2.8475  -3.0336 H              1 S1                 0.0000
     24 ****        -1.1466   0.6712  -3.4431 H              1 S1                 0.0000
     25 ****        -4.1840  -1.6978  -0.1385 H              1 S1                 0.0000
     26 ****        -2.5698  -2.3319  -0.3237 H              1 S1                 0.0000
     27 ****        -3.3348  -0.0711   1.6114 H              1 S1                 0.0000
     28 ****        -4.3885  -2.2037   2.2743 H              1 S1                 0.0000
     29 ****        -3.1195  -1.7593   3.4056 H              1 S1                 0.0000
     30 ****        -2.8296  -3.0211   2.2099 H              1 S1                 0.0000
     31 ****        -1.1300  -1.0437   2.5583 H              1 S1                 0.0000
     32 ****        -1.1766   0.8617   0.3153 H              1 S1                 0.0000
     33 ****        -1.2862   1.2596   2.0026 H              1 S1                 0.0000
     34 ****         0.9573   1.6109   1.0414 H              1 S1                 0.0000
     35 ****         0.6812   1.1116   3.2195 H              1 S1                 0.0000
     36 ****         1.1848  -1.4306   0.8475 H              1 S1                 0.0000
     37 ****         0.9065  -0.4304  -0.5535 H              1 S1                 0.0000
     38 ****         3.3647  -2.2120   0.7149 H              1 S1                 0.0000
     39 ****         3.2118  -1.8269  -0.9910 H              1 S1                 0.0000
     40 ****         5.4600  -0.8823   0.8859 H              1 S1                 0.0000
     41 ****         5.6089  -2.0634  -0.4010 H              1 S1                 0.0000
     42 ****         5.0672   1.4379   0.2853 H              1 S1                 0.0000
     43 ****         4.9505   1.8510  -1.4148 H              1 S1                 0.0000
     44 ****         2.8035   0.6335  -1.6339 H              1 S1                 0.0000
     45 ****         2.6902   1.8162  -0.3456 H              1 S1                 0.0000
     46 ****        -4.4420   1.0260  -0.7005 H              1 S1                 0.0000
     47 ****         3.1462   0.0761   1.2243 H              1 S1                 0.0000
     48 ****        -1.1826  -1.2949  -1.9676 LP             1 S1                 0.0000
     49 ****        -0.9212  -1.4106   0.9416 LP             1 S1                 0.0000
     50 ****         2.1005   0.5773   2.7387 LP             1 S1                 0.0000
     51 ****         0.8682  -0.4559   3.0222 LP             1 S1                 0.0000
     52 ****         4.9933  -0.4204  -1.9340 LP             1 S1                 0.0000
     53 ****         6.3182   0.0222  -1.0882 LP             1 S1                 0.0000
@<TRIPOS>BOND
    1    1    2 1     
    2    1   21 1     
    3    1   22 1     
    4    1   23 1     
    5    2   20 2     
    6    2    3 1     
    7    3    4 2     
    8    3   24 1     
    9    4    5 1     
   10    5    6 1     
   11    5   20 1     
   12    6    7 1     
   13    6   25 1     
   14    6   26 1     
   15    7    8 1     
   16    7    9 1     
   17    7   27 1     
   18    8   28 1     
   19    8   29 1     
   20    8   30 1     
   21    9   10 1     
   22    9   31 1     
   23   10   11 1     
   24   10   32 1     
   25   10   33 1     
   26   11   12 1     
   27   11   13 1     
   28   11   34 1     
   29   12   35 1     
   30   13   14 1     
   31   13   36 1     
   32   13   37 1     
   33   14   19 1     
   34   14   15 1     
   35   14   47 1     
   36   15   16 1     
   37   15   38 1     
   38   15   39 1     
   39   16   17 1     
   40   16   40 1     
   41   16   41 1     
   42   17   18 1     
   43   18   19 1     
   44   18   42 1     
   45   18   43 1     
   46   19   44 1     
   47   19   45 1     
   48   20   46 1     
   49    4   48 1     
   50    9   49 1     
   51   12   50 1     
   52   12   51 1     
   53   17   52 1     
   54   17   53 1     
@<TRIPOS>SUBSTRUCTURE
      1 S1             1
@<TRIPOS>SET
LONE_PAIRS      STATIC     ATOMS    <user>   **** ""
6 48 49 50 51 52 53
DONOR_HYDROGENS      STATIC     ATOMS    <user>   **** ""
3 31 35 47
ATOM$BLUE        STATIC     ATOMS    COLORGROUP SYSTEM
6 48 49 50 51 52 53
ATOM$RED        STATIC     ATOMS    COLORGROUP SYSTEM
3 31 35 47
