AV-unprocessed.smi:1768|AV-procd|sdf|7147|dock4
  -GOLD-   22720 8383D 1   1.00000     0.00000
 Structure written by MMmdl.
 32 33  0  0  0  0  0  0  0  0  2 V2000
  158.6114  136.6021  153.1024 C   0  0  0  0  0  0  0  0  0  0  0  0
  157.3426  137.0949  153.7087 C   0  0  0  0  0  0  0  0  0  0  0  0
  156.7353  136.4683  154.7192 N   0  0  0  0  0  0  0  0  0  0  0  0
  155.5740  137.1170  155.1142 N   0  0  0  0  0  0  0  0  0  0  0  0
  155.3243  138.2268  154.4049 C   0  0  0  0  0  0  0  0  0  0  0  0
  154.2466  138.9968  154.6289 N   0  5  0  0  0  0  0  0  0  0  0  0
  153.2160  138.5211  155.3647 C   0  0  0  0  0  0  0  0  0  0  0  0
  153.1828  137.4414  155.9590 O   0  0  0  0  0  0  0  0  0  0  0  0
  152.1658  139.3537  155.4159 N   0  0  0  0  0  0  0  0  0  0  0  0
  150.9128  139.1447  156.1411 C   0  0  2  0  0  0  0  0  0  0  0  0
  149.7596  139.0432  155.1324 C   0  0  0  0  0  0  0  0  0  0  0  0
  150.6966  140.2873  157.1518 C   0  0  2  0  0  0  0  0  0  0  0  0
  150.5341  141.6724  156.5267 C   0  0  0  0  0  0  0  0  0  0  0  0
  150.8795  142.6008  157.6761 C   0  0  0  0  0  0  0  0  0  0  0  0
  151.7720  141.7461  158.5820 C   0  0  0  0  0  0  0  0  0  0  0  0
  151.8467  140.4657  157.9653 O   0  0  0  0  0  0  0  0  0  0  0  0
  156.5247  138.5454  153.1525 S   0  0  0  0  0  0  0  0  0  0  0  0
  159.4097  136.6160  153.8447 H   0  0  0  0  0  0  0  0  0  0  0  0
  158.9026  137.2351  152.2641 H   0  0  0  0  0  0  0  0  0  0  0  0
  158.4837  135.5814  152.7415 H   0  0  0  0  0  0  0  0  0  0  0  0
  152.2515  140.2234  154.9106 H   0  0  0  0  0  0  0  0  0  0  0  0
  150.9483  138.2074  156.6985 H   0  0  0  0  0  0  0  0  0  0  0  0
  148.8092  138.8678  155.6371 H   0  0  0  0  0  0  0  0  0  0  0  0
  149.9193  138.2175  154.4382 H   0  0  0  0  0  0  0  0  0  0  0  0
  149.6619  139.9575  154.5465 H   0  0  0  0  0  0  0  0  0  0  0  0
  149.8406  140.0720  157.7946 H   0  0  0  0  0  0  0  0  0  0  0  0
  151.2510  141.8052  155.7152 H   0  0  0  0  0  0  0  0  0  0  0  0
  149.5345  141.8450  156.1264 H   0  0  0  0  0  0  0  0  0  0  0  0
  151.3789  143.5066  157.3313 H   0  0  0  0  0  0  0  0  0  0  0  0
  149.9768  142.8969  158.2120 H   0  0  0  0  0  0  0  0  0  0  0  0
  152.7716  142.1676  158.6919 H   0  0  0  0  0  0  0  0  0  0  0  0
  151.3333  141.6497  159.5759 H   0  0  0  0  0  0  0  0  0  0  0  0
  1  2  1  0  0  0  0
  1 18  1  0  0  0  0
  1 19  1  0  0  0  0
  1 20  1  0  0  0  0
  2 17  1  0  0  0  0
  2  3  2  0  0  0  0
  3  4  1  0  0  0  0
  4  5  2  0  0  0  0
  5  6  1  0  0  0  0
  5 17  1  0  0  0  0
  6  7  1  0  0  0  0
  7  8  2  0  0  0  0
  7  9  1  0  0  0  0
  9 10  1  0  0  0  0
  9 21  1  0  0  0  0
 10 11  1  0  0  0  0
 10 12  1  0  0  0  0
 10 22  1  0  0  0  0
 11 23  1  0  0  0  0
 11 24  1  0  0  0  0
 11 25  1  0  0  0  0
 12 16  1  0  0  0  0
 12 13  1  0  0  0  0
 12 26  1  0  0  0  0
 13 14  1  0  0  0  0
 13 27  1  0  0  0  0
 13 28  1  0  0  0  0
 14 15  1  0  0  0  0
 14 29  1  0  0  0  0
 14 30  1  0  0  0  0
 15 16  1  0  0  0  0
 15 31  1  0  0  0  0
 15 32  1  0  0  0  0
M  CHG  1   6  -1
M  END
> <s_m_source_file>
AV-unprocessed.smi

> <i_m_source_file_index>
1768

> <i_lp_mmshare_version>
43012

> <i_f3d_flags>
0

> <s_epik_input>
W0NIM11jMW5uYyhzMSlbTkhdQyg9TylbTkhdW0NASF0oW0NIM10pW0NAQEhdMltDSDJdW0NIMl1bQ0gyXU8y

> <s_epik_cmdline>
J2VwaWtfcHl0aG9uJywgJy1waCcsICc3LjAnLCAnLXRuJywgJzgnLCAnLW1hJywgJzIwMCcsICctbWV0YWxfYmluZGluZycsICctaW1hZScsICc8aW5maWxlLm1hZT4nLCAnLW9tYWUnLCAnPG91dGZpbGUubWFlPic=

> <r_lp_tautomer_probability>
1

> <r_epik_Ionization_Penalty>
4.3376

> <r_epik_Ionization_Penalty_Charging>
4.19392

> <r_epik_Ionization_Penalty_Neutral>
0.143681

> <r_epik_State_Penalty>
4.19342

> <r_epik_Charging_Adjusted_Penalty>
8.38735

> <i_epik_Tot_Q>
-1

> <i_epik_Tot_abs_Q>
1

> <r_epik_Metal_State_Penalty>
0.686065

> <b_epik_Metal_Only>
1

> <s_lp_Force_Field>
OPLS_2005

> <r_lp_Energy>
15.5769

> <b_lp_Chiralities_Consistent>
1

> <s_lp_Variant>
AV-unprocessed.smi:1768-5

> <Gold.Version>
5.8.1

> <Gold.Id.Protein>
6NUR|6NUR_protein|mol2

> <Gold.PLP.Fitness>
36.5215

> <Gold.PLP.PLP>
-29.4976

> <Gold.PLP.part.hbond>
-3.5871

> <Gold.PLP.part.metal>
0.0000

> <Gold.PLP.part.buried>
-0.1690

> <Gold.PLP.part.nonpolar>
-27.1129

> <Gold.PLP.part.repulsive>
1.6370

> <Gold.PLP.ligand.clash>
0.0000

> <Gold.PLP.ligand.torsion>
0.1083

> <Gold.PLP.Chemscore.Hbond>
2.4000

> <Gold.PLP.Chemscore.CHOScore>
0.0000

> <Gold.PLP.Chemscore.Metal>
0.0000

> <Gold.Chemscore.Hbonds>
donor molecule, donor type, donor heavy atom, donor atom, acceptor molecule, acceptor atom, score
      P1  H  7997  8009       L1     6  1.57
      P1  H 10752 10764       L1     8  0.28
      P1  H 10752 10765       L1     4  0.07

> <Gold.PLP.Chemscore.Internal.Correction>
0.0406

> <Gold.Rescore>
     Score         DG    S(hbond)    S(metal)    S(lipo)     H(rot)  DE(clash)    DE(int)     intcor
     11.84     -13.75       0.82        0.00      75.36       1.28       0.07       1.84       ----

> <Gold.Chemscore.Fitness>
11.8422

> <Gold.Chemscore.DG>
-13.7497

> <Gold.Chemscore.ZeroCoef>
-5.4800

> <Gold.Chemscore.Hbond>
0.8152

> <Gold.Chemscore.Metal>
0.0000

> <Gold.Chemscore.Lipo>
75.3633

> <Gold.Chemscore.Internal_Hbond>
0.0000

> <Gold.Chemscore.DEClash>
0.0659

> <Gold.Chemscore.DEInternal>
1.8416

> <Gold.Chemscore.Rot>
1.2776

> <Gold.Chemscore.Internal.Correction>
   9.000000E+99

> <Gold.Chemscore.Hbonds>
donor molecule, donor type, donor heavy atom, donor atom, acceptor molecule, acceptor atom, score
      P1  H  7997  8009       L1     6  0.14
      P1  H 10752 10764       L1     8  0.28

> <Gold.Chemscore.Hbond.Weighted>
-2.7228

> <Gold.Chemscore.Metal.Weighted>
-0.0000

> <Gold.Chemscore.Lipo.Weighted>
-8.8175

> <Gold.Chemscore.Internal_Hbond.Weighted>
0.0000

> <Gold.Chemscore.DEClash.Weighted>
0.0659

> <Gold.Chemscore.DEInternal.Weighted>
1.8416

> <Gold.Chemscore.Rot.Weighted>
3.2706

> <Gold.Chemscore.Internal.Correction.Weighted>
   9.000000E+99

> <Gold.Protein.RotatedTorsions>
[ 6907 6896 6895 6894 ] final   23.21 input  -60.11 | X-H torsion
[ 7974 7965 7964 7962 ] final   13.20 input  175.53 | X-H torsion
[ 8008 7997 7996 7995 ] final  -95.71 input   59.86 | X-H torsion
[ 10167 10162 10161 10158 ] final  -76.89 input  -65.29 | X-H torsion
[ 10718 10713 10712 10709 ] final  -74.35 input   66.30 | X-H torsion
[ 10763 10752 10751 10750 ] final  -37.42 input  -60.55 | X-H torsion
[ 11005 11000 10999 10996 ] final   91.26 input  -57.11 | X-H torsion

> <Gold.Protein.ActiveResidues>
 VAL166  LYS551  ARG553  GLY616  TRP617  ASP618  TYR619  PRO620  LYS621  CYS622 
 ASP623  PHE694  ASN695  SER759  ASP760  ASP761  ALA762  ILE779  LEU786  VAL792 
 PHE793  MET794  SER795  GLU796  ALA797  LYS798  CYS799  TRP800  GLU811  SER814 

> <Gold.Protein.RotatedAtoms>
  151.9389  135.0222  160.0534 H   0  0  0  0  0  0  0  0  0  0  0  0  # atno 6907 bound_to 6896
  152.2053  133.4866  159.5089 H   0  0  0  0  0  0  0  0  0  0  0  0  # atno 6908 bound_to 6896
  150.6964  134.1454  159.4163 H   0  0  0  0  0  0  0  0  0  0  0  0  # atno 6909 bound_to 6896
  146.2335  139.9224  142.8508 H   0  0  0  0  0  0  0  0  0  0  0  0  # atno 7974 bound_to 7965
  154.7649  140.0477  157.1004 H   0  0  0  0  0  0  0  0  0  0  0  0  # atno 8008 bound_to 7997
  154.9892  140.3111  155.4894 H   0  0  0  0  0  0  0  0  0  0  0  0  # atno 8009 bound_to 7997
  156.2911  140.2222  156.4995 H   0  0  0  0  0  0  0  0  0  0  0  0  # atno 8010 bound_to 7997
  140.4818  143.2400  151.8046 H   0  0  0  0  0  0  0  0  0  0  0  0  # atno 10167 bound_to 10162
  156.0246  130.4415  150.2879 H   0  0  0  0  0  0  0  0  0  0  0  0  # atno 10718 bound_to 10713
  153.8961  135.6807  153.4758 H   0  0  0  0  0  0  0  0  0  0  0  0  # atno 10763 bound_to 10752
  153.1155  135.4763  154.9105 H   0  0  0  0  0  0  0  0  0  0  0  0  # atno 10764 bound_to 10752
  154.7598  135.3207  154.8353 H   0  0  0  0  0  0  0  0  0  0  0  0  # atno 10765 bound_to 10752
  139.8842  134.8663  156.3403 H   0  0  0  0  0  0  0  0  0  0  0  0  # atno 11005 bound_to 11000
  145.2123  140.9901  143.4093 LP  0  0  0  0  0  0  0  0  0  0  0  0  # atno 17320 bound_to 7965
  144.9680  139.3909  143.6323 LP  0  0  0  0  0  0  0  0  0  0  0  0  # atno 17321 bound_to 7965
  139.4835  144.4763  151.9363 LP  0  0  0  0  0  0  0  0  0  0  0  0  # atno 17342 bound_to 10162
  140.3848  144.2690  150.5905 LP  0  0  0  0  0  0  0  0  0  0  0  0  # atno 17343 bound_to 10162
  157.0982  131.0188  151.3096 LP  0  0  0  0  0  0  0  0  0  0  0  0  # atno 17370 bound_to 10713
  157.4801  130.7760  149.7405 LP  0  0  0  0  0  0  0  0  0  0  0  0  # atno 17371 bound_to 10713
  140.9663  133.7356  156.0471 LP  0  0  0  0  0  0  0  0  0  0  0  0  # atno 17394 bound_to 11000
  140.7927  134.3599  157.5460 LP  0  0  0  0  0  0  0  0  0  0  0  0  # atno 17395 bound_to 11000

$$$$
