AV-unprocessed.smi:335|AV-procd|sdf|2370|dock10
  -GOLD-   2262022293D 1   1.00000     0.00000
 Structure written by MMmdl.
 42 44  0  0  0  0  0  0  0  0  1 V2000
  146.3404  138.1371  151.8277 C   0  0  0  0  0  0  0  0  0  0  0  0
  146.8730  139.4332  152.0356 O   0  0  0  0  0  0  0  0  0  0  0  0
  147.3273  139.6262  153.3655 C   0  0  0  0  0  0  0  0  0  0  0  0
  147.3032  141.1259  153.7044 C   0  0  0  0  0  0  0  0  0  0  0  0
  147.6005  141.3710  155.1203 N   0  0  0  0  0  0  0  0  0  0  0  0
  148.9448  141.2750  155.4390 N   0  0  0  0  0  0  0  0  0  0  0  0
  149.3440  141.4951  156.6501 C   0  0  0  0  0  0  0  0  0  0  0  0
  150.7803  141.4051  157.0325 C   0  0  0  0  0  0  0  0  0  0  0  0
  151.5982  140.7911  156.3452 O   0  0  0  0  0  0  0  0  0  0  0  0
  151.1104  142.0379  158.1732 N   0  0  0  0  0  0  0  0  0  0  0  0
  152.4414  142.0919  158.7678 C   0  0  0  0  0  0  0  0  0  0  0  0
  152.5643  141.1902  159.9841 C   0  0  0  0  0  0  0  0  0  0  0  0
  153.6954  141.3494  160.9725 C   0  0  0  0  0  0  0  0  0  0  0  0
  153.6411  140.1352  160.0735 C   0  0  0  0  0  0  0  0  0  0  0  0
  152.8370  143.5136  159.1214 C   0  0  0  0  0  0  0  0  0  0  0  0
  151.8383  144.4739  159.7218 C   0  0  0  0  0  0  0  0  0  0  0  0
  152.3454  144.6915  158.3137 C   0  0  0  0  0  0  0  0  0  0  0  0
  148.3947  141.8407  157.6948 C   0  0  0  0  0  0  0  0  0  0  0  0
  147.0856  141.9219  157.3708 C   0  0  0  0  0  0  0  0  0  0  0  0
  146.6079  141.6785  156.0089 C   0  0  0  0  0  0  0  0  0  0  0  0
  145.4215  141.7484  155.6891 O   0  0  0  0  0  0  0  0  0  0  0  0
  146.0097  138.0378  150.7940 H   0  0  0  0  0  0  0  0  0  0  0  0
  145.4805  137.9564  152.4740 H   0  0  0  0  0  0  0  0  0  0  0  0
  147.0897  137.3674  152.0174 H   0  0  0  0  0  0  0  0  0  0  0  0
  146.7090  139.0628  154.0659 H   0  0  0  0  0  0  0  0  0  0  0  0
  148.3462  139.2481  153.4596 H   0  0  0  0  0  0  0  0  0  0  0  0
  148.0227  141.6558  153.0783 H   0  0  0  0  0  0  0  0  0  0  0  0
  146.3294  141.5433  153.4413 H   0  0  0  0  0  0  0  0  0  0  0  0
  150.3732  142.5149  158.6724 H   0  0  0  0  0  0  0  0  0  0  0  0
  153.1629  141.7422  158.0266 H   0  0  0  0  0  0  0  0  0  0  0  0
  151.6030  140.9172  160.4160 H   0  0  0  0  0  0  0  0  0  0  0  0
  154.4617  142.0920  160.7594 H   0  0  0  0  0  0  0  0  0  0  0  0
  153.4646  141.2067  162.0261 H   0  0  0  0  0  0  0  0  0  0  0  0
  153.3713  139.1832  160.5256 H   0  0  0  0  0  0  0  0  0  0  0  0
  154.3666  140.0785  159.2646 H   0  0  0  0  0  0  0  0  0  0  0  0
  153.8545  143.5975  159.4995 H   0  0  0  0  0  0  0  0  0  0  0  0
  150.8120  144.1309  159.8383 H   0  0  0  0  0  0  0  0  0  0  0  0
  152.1948  145.1499  160.4964 H   0  0  0  0  0  0  0  0  0  0  0  0
  153.0408  145.5119  158.1490 H   0  0  0  0  0  0  0  0  0  0  0  0
  151.6501  144.4993  157.4991 H   0  0  0  0  0  0  0  0  0  0  0  0
  148.7190  142.0264  158.7084 H   0  0  0  0  0  0  0  0  0  0  0  0
  146.3686  142.1755  158.1379 H   0  0  0  0  0  0  0  0  0  0  0  0
  1  2  1  0  0  0  0
  1 22  1  0  0  0  0
  1 23  1  0  0  0  0
  1 24  1  0  0  0  0
  2  3  1  0  0  0  0
  3  4  1  0  0  0  0
  3 25  1  0  0  0  0
  3 26  1  0  0  0  0
  4  5  1  0  0  0  0
  4 27  1  0  0  0  0
  4 28  1  0  0  0  0
  5 20  1  0  0  0  0
  5  6  1  0  0  0  0
  6  7  2  0  0  0  0
  7  8  1  0  0  0  0
  7 18  1  0  0  0  0
  8  9  2  0  0  0  0
  8 10  1  0  0  0  0
 10 11  1  0  0  0  0
 10 29  1  0  0  0  0
 11 12  1  0  0  0  0
 11 15  1  0  0  0  0
 11 30  1  0  0  0  0
 12 14  1  0  0  0  0
 12 13  1  0  0  0  0
 12 31  1  0  0  0  0
 13 14  1  0  0  0  0
 13 32  1  0  0  0  0
 13 33  1  0  0  0  0
 14 34  1  0  0  0  0
 14 35  1  0  0  0  0
 15 17  1  0  0  0  0
 15 16  1  0  0  0  0
 15 36  1  0  0  0  0
 16 17  1  0  0  0  0
 16 37  1  0  0  0  0
 16 38  1  0  0  0  0
 17 39  1  0  0  0  0
 17 40  1  0  0  0  0
 18 19  2  0  0  0  0
 18 41  1  0  0  0  0
 19 20  1  0  0  0  0
 19 42  1  0  0  0  0
 20 21  2  0  0  0  0
M  END
> <s_m_source_file>
AV-unprocessed.smi

> <i_m_source_file_index>
335

> <i_lp_mmshare_version>
43012

> <i_f3d_flags>
0

> <s_epik_input>
W0NIM11PW0NIMl1bQ0gyXW4xbmMoW2NIXVtjSF1jMT1PKUMoPU8pW05IXVtDSF0oW0NIXTJbQ0gyXVtDSDJdMilbQ0hdM1tDSDJdW0NIMl0z

> <s_epik_cmdline>
J2VwaWtfcHl0aG9uJywgJy1waCcsICc3LjAnLCAnLXRuJywgJzgnLCAnLW1hJywgJzIwMCcsICctbWV0YWxfYmluZGluZycsICctaW1hZScsICc8aW5maWxlLm1hZT4nLCAnLW9tYWUnLCAnPG91dGZpbGUubWFlPic=

> <r_lp_tautomer_probability>
1

> <r_epik_Ionization_Penalty>
5.73468e-07

> <r_epik_Ionization_Penalty_Charging>
6.67133e-09

> <r_epik_Ionization_Penalty_Neutral>
5.66797e-07

> <r_epik_State_Penalty>
-0

> <r_epik_Charging_Adjusted_Penalty>
6.67133e-09

> <i_epik_Tot_Q>
0

> <i_epik_Tot_abs_Q>
0

> <r_epik_Metal_State_Penalty>
-0

> <b_epik_Metal_Only>
0

> <s_lp_Force_Field>
OPLS_2005

> <r_lp_Energy>
44.174

> <b_lp_Chiralities_Consistent>
1

> <s_lp_Variant>
AV-unprocessed.smi:335-1

> <Gold.Version>
5.8.1

> <Gold.Id.Protein>
6NUR|6NUR_protein|mol2

> <Gold.PLP.Fitness>
41.2270

> <Gold.PLP.PLP>
-43.3008

> <Gold.PLP.part.hbond>
0.0000

> <Gold.PLP.part.metal>
0.0000

> <Gold.PLP.part.buried>
-5.3125

> <Gold.PLP.part.nonpolar>
-38.8455

> <Gold.PLP.part.repulsive>
1.4050

> <Gold.PLP.ligand.clash>
0.0000

> <Gold.PLP.ligand.torsion>
2.1106

> <Gold.PLP.Chemscore.Hbond>
0.0000

> <Gold.PLP.Chemscore.CHOScore>
0.0000

> <Gold.PLP.Chemscore.Metal>
0.0000

> <Gold.PLP.Chemscore.Internal.Correction>
2.1475

> <Gold.Rescore>
     Score         DG    S(hbond)    S(metal)    S(lipo)     H(rot)  DE(clash)    DE(int)     intcor
     11.52     -13.46       0.00        0.00     108.61       1.85       0.08       1.87       ----

> <Gold.Chemscore.Fitness>
11.5186

> <Gold.Chemscore.DG>
-13.4627

> <Gold.Chemscore.ZeroCoef>
-5.4800

> <Gold.Chemscore.Hbond>
0.0001

> <Gold.Chemscore.Metal>
0.0000

> <Gold.Chemscore.Lipo>
108.6126

> <Gold.Chemscore.Internal_Hbond>
0.0000

> <Gold.Chemscore.DEClash>
0.0758

> <Gold.Chemscore.DEInternal>
1.8684

> <Gold.Chemscore.Rot>
1.8458

> <Gold.Chemscore.Internal.Correction>
   9.000000E+99

> <Gold.Chemscore.Hbond.Weighted>
-0.0003

> <Gold.Chemscore.Metal.Weighted>
-0.0000

> <Gold.Chemscore.Lipo.Weighted>
-12.7077

> <Gold.Chemscore.Internal_Hbond.Weighted>
0.0000

> <Gold.Chemscore.DEClash.Weighted>
0.0758

> <Gold.Chemscore.DEInternal.Weighted>
1.8684

> <Gold.Chemscore.Rot.Weighted>
4.7252

> <Gold.Chemscore.Internal.Correction.Weighted>
   9.000000E+99

> <Gold.Protein.RotatedTorsions>
[ 6907 6896 6895 6894 ] final   -6.69 input  -60.11 | X-H torsion
[ 7974 7965 7964 7962 ] final  163.50 input  175.53 | X-H torsion
[ 8008 7997 7996 7995 ] final -135.55 input   59.86 | X-H torsion
[ 10167 10162 10161 10158 ] final   47.38 input  -65.29 | X-H torsion
[ 10718 10713 10712 10709 ] final -111.89 input   66.30 | X-H torsion
[ 10763 10752 10751 10750 ] final  168.01 input  -60.55 | X-H torsion
[ 11005 11000 10999 10996 ] final   -2.32 input  -57.11 | X-H torsion

> <Gold.Protein.ActiveResidues>
 VAL166  LYS551  ARG553  GLY616  TRP617  ASP618  TYR619  PRO620  LYS621  CYS622 
 ASP623  PHE694  ASN695  SER759  ASP760  ASP761  ALA762  ILE779  LEU786  VAL792 
 PHE793  MET794  SER795  GLU796  ALA797  LYS798  CYS799  TRP800  GLU811  SER814 

> <Gold.Protein.RotatedAtoms>
  151.4615  135.1039  159.9725 H   0  0  0  0  0  0  0  0  0  0  0  0  # atno 6907 bound_to 6896
  152.4851  133.8348  159.7132 H   0  0  0  0  0  0  0  0  0  0  0  0  # atno 6908 bound_to 6896
  150.8954  133.7128  159.2920 H   0  0  0  0  0  0  0  0  0  0  0  0  # atno 6909 bound_to 6896
  144.7587  139.8191  143.6340 H   0  0  0  0  0  0  0  0  0  0  0  0  # atno 7974 bound_to 7965
  155.3806  140.0494  157.3043 H   0  0  0  0  0  0  0  0  0  0  0  0  # atno 8008 bound_to 7997
  154.5085  140.2183  155.9166 H   0  0  0  0  0  0  0  0  0  0  0  0  # atno 8009 bound_to 7997
  156.1554  140.3127  155.8722 H   0  0  0  0  0  0  0  0  0  0  0  0  # atno 8010 bound_to 7997
  140.3043  144.2897  150.6212 H   0  0  0  0  0  0  0  0  0  0  0  0  # atno 10167 bound_to 10162
  156.0673  130.5891  150.8434 H   0  0  0  0  0  0  0  0  0  0  0  0  # atno 10718 bound_to 10713
  154.3623  135.2753  155.2313 H   0  0  0  0  0  0  0  0  0  0  0  0  # atno 10763 bound_to 10752
  154.4496  135.5934  153.6186 H   0  0  0  0  0  0  0  0  0  0  0  0  # atno 10764 bound_to 10752
  152.9843  135.6038  154.3845 H   0  0  0  0  0  0  0  0  0  0  0  0  # atno 10765 bound_to 10752
  140.6571  133.9353  155.8414 H   0  0  0  0  0  0  0  0  0  0  0  0  # atno 11005 bound_to 11000
  146.1627  139.4747  142.9978 LP  0  0  0  0  0  0  0  0  0  0  0  0  # atno 17320 bound_to 7965
  145.6691  141.0221  143.1667 LP  0  0  0  0  0  0  0  0  0  0  0  0  # atno 17321 bound_to 7965
  140.5624  143.2190  151.7742 LP  0  0  0  0  0  0  0  0  0  0  0  0  # atno 17342 bound_to 10162
  139.4908  144.4330  151.9851 LP  0  0  0  0  0  0  0  0  0  0  0  0  # atno 17343 bound_to 10162
  157.5723  131.0946  150.9399 LP  0  0  0  0  0  0  0  0  0  0  0  0  # atno 17370 bound_to 10713
  156.9613  130.5456  149.5286 LP  0  0  0  0  0  0  0  0  0  0  0  0  # atno 17371 bound_to 10713
  141.0493  134.0507  157.3803 LP  0  0  0  0  0  0  0  0  0  0  0  0  # atno 17394 bound_to 11000
  139.9026  135.0169  156.7338 LP  0  0  0  0  0  0  0  0  0  0  0  0  # atno 17395 bound_to 11000

$$$$
