AV-unprocessed.smi:1978|AV-procd|sdf|7999|dock4
  -GOLD-   2272010183D 1   1.00000     0.00000
 Structure written by MMmdl.
 45 46  0  0  0  0  0  0  0  0  2 V2000
  145.5824  129.6826  151.8725 C   0  0  0  0  0  0  0  0  0  0  0  0
  146.2784  130.9245  152.3134 C   0  0  0  0  0  0  0  0  0  0  0  0
  146.0603  132.2510  152.0671 C   0  0  0  0  0  0  0  0  0  0  0  0
  147.0957  132.8869  152.8022 C   0  0  0  0  0  0  0  0  0  0  0  0
  147.2222  134.2994  152.8078 N   0  0  0  0  0  0  0  0  0  0  0  0
  146.3652  135.1954  153.3257 C   0  0  0  0  0  0  0  0  0  0  0  0
  145.3036  134.9229  153.8869 O   0  0  0  0  0  0  0  0  0  0  0  0
  146.8087  136.4499  153.1584 N   0  0  0  0  0  0  0  0  0  0  0  0
  146.1022  137.6494  153.6006 C   0  0  0  0  0  0  0  0  0  0  0  0
  146.8159  138.9743  153.1985 C   0  0  1  0  0  0  0  0  0  0  0  0
  146.8604  139.0927  151.6543 C   0  0  0  0  0  0  0  0  0  0  0  0
  146.1868  140.1885  153.8284 N   0  3  2  0  0  0  0  0  0  0  0  0
  146.9166  141.4623  153.5423 C   0  0  0  0  0  0  0  0  0  0  0  0
  146.1392  142.6973  154.0270 C   0  0  0  0  0  0  0  0  0  0  0  0
  145.8152  142.6031  155.5181 C   0  0  0  0  0  0  0  0  0  0  0  0
  145.0688  141.2940  155.7899 C   0  0  0  0  0  0  0  0  0  0  0  0
  145.8496  140.0613  155.2871 C   0  0  2  0  0  0  0  0  0  0  0  0
  147.0745  139.7489  156.1761 C   0  0  0  0  0  0  0  0  0  0  0  0
  147.8766  132.0271  153.4381 N   0  0  0  0  0  0  0  0  0  0  0  0
  147.3564  130.7647  153.1284 O   0  0  0  0  0  0  0  0  0  0  0  0
  144.7874  129.9124  151.1629 H   0  0  0  0  0  0  0  0  0  0  0  0
  145.1374  129.1669  152.7236 H   0  0  0  0  0  0  0  0  0  0  0  0
  146.2799  128.9988  151.3884 H   0  0  0  0  0  0  0  0  0  0  0  0
  145.2836  132.6916  151.4598 H   0  0  0  0  0  0  0  0  0  0  0  0
  148.0540  134.6655  152.3687 H   0  0  0  0  0  0  0  0  0  0  0  0
  147.6898  136.5863  152.6844 H   0  0  0  0  0  0  0  0  0  0  0  0
  145.0973  137.6250  153.1780 H   0  0  0  0  0  0  0  0  0  0  0  0
  145.9878  137.5540  154.6796 H   0  0  0  0  0  0  0  0  0  0  0  0
  147.8477  138.9245  153.5484 H   0  0  0  0  0  0  0  0  0  0  0  0
  147.2189  138.1796  151.1808 H   0  0  0  0  0  0  0  0  0  0  0  0
  147.5445  139.8686  151.3148 H   0  0  0  0  0  0  0  0  0  0  0  0
  145.8725  139.3042  151.2443 H   0  0  0  0  0  0  0  0  0  0  0  0
  147.9085  141.4345  153.9944 H   0  0  0  0  0  0  0  0  0  0  0  0
  147.0684  141.6004  152.4747 H   0  0  0  0  0  0  0  0  0  0  0  0
  146.7164  143.6011  153.8293 H   0  0  0  0  0  0  0  0  0  0  0  0
  145.2134  142.7930  153.4575 H   0  0  0  0  0  0  0  0  0  0  0  0
  146.7325  142.6473  156.1059 H   0  0  0  0  0  0  0  0  0  0  0  0
  145.2076  143.4545  155.8263 H   0  0  0  0  0  0  0  0  0  0  0  0
  144.8581  141.1995  156.8559 H   0  0  0  0  0  0  0  0  0  0  0  0
  144.0975  141.3298  155.2943 H   0  0  0  0  0  0  0  0  0  0  0  0
  145.1442  139.2412  155.4060 H   0  0  0  0  0  0  0  0  0  0  0  0
  146.7786  139.6620  157.2218 H   0  0  0  0  0  0  0  0  0  0  0  0
  147.8369  140.5252  156.1205 H   0  0  0  0  0  0  0  0  0  0  0  0
  147.5470  138.8053  155.9050 H   0  0  0  0  0  0  0  0  0  0  0  0
  145.2941  140.2868  153.3662 H   0  0  0  0  0  0  0  0  0  0  0  0
  1  2  1  0  0  0  0
  1 21  1  0  0  0  0
  1 22  1  0  0  0  0
  1 23  1  0  0  0  0
  2 20  1  0  0  0  0
  2  3  2  0  0  0  0
  3  4  1  0  0  0  0
  3 24  1  0  0  0  0
  4  5  1  0  0  0  0
  4 19  2  0  0  0  0
  5  6  1  0  0  0  0
  5 25  1  0  0  0  0
  6  7  2  0  0  0  0
  6  8  1  0  0  0  0
  8  9  1  0  0  0  0
  8 26  1  0  0  0  0
  9 10  1  0  0  0  0
  9 27  1  0  0  0  0
  9 28  1  0  0  0  0
 10 11  1  0  0  0  0
 10 12  1  0  0  0  0
 10 29  1  0  0  0  0
 11 30  1  0  0  0  0
 11 31  1  0  0  0  0
 11 32  1  0  0  0  0
 12 17  1  0  0  0  0
 12 13  1  0  0  0  0
 12 45  1  0  0  0  0
 13 14  1  0  0  0  0
 13 33  1  0  0  0  0
 13 34  1  0  0  0  0
 14 15  1  0  0  0  0
 14 35  1  0  0  0  0
 14 36  1  0  0  0  0
 15 16  1  0  0  0  0
 15 37  1  0  0  0  0
 15 38  1  0  0  0  0
 16 17  1  0  0  0  0
 16 39  1  0  0  0  0
 16 40  1  0  0  0  0
 17 18  1  0  0  0  0
 17 41  1  0  0  0  0
 18 42  1  0  0  0  0
 18 43  1  0  0  0  0
 18 44  1  0  0  0  0
 19 20  1  0  0  0  0
M  CHG  1  12   1
M  END
> <s_m_source_file>
AV-unprocessed.smi

> <i_m_source_file_index>
1978

> <i_lp_mmshare_version>
43012

> <i_f3d_flags>
0

> <s_epik_input>
W0NIM11jMVtjSF1jKG5vMSlbTkhdQyg9TylbTkhdW0NIMl1bQ0BIXShbQ0gzXSlOMltDSDJdW0NIMl1bQ0gyXVtDSDJdW0NASF0yW0NIM10=

> <s_epik_cmdline>
J2VwaWtfcHl0aG9uJywgJy1waCcsICc3LjAnLCAnLXRuJywgJzgnLCAnLW1hJywgJzIwMCcsICctbWV0YWxfYmluZGluZycsICctaW1hZScsICc8aW5maWxlLm1hZT4nLCAnLW9tYWUnLCAnPG91dGZpbGUubWFlPic=

> <r_epik_Ionization_Penalty>
0.00265971

> <r_epik_Ionization_Penalty_Charging>
0.00262393

> <r_epik_Ionization_Penalty_Neutral>
3.57846e-05

> <r_epik_State_Penalty>
0.00182566

> <r_epik_Charging_Adjusted_Penalty>
0.00444959

> <i_epik_Tot_Q>
1

> <i_epik_Tot_abs_Q>
1

> <r_epik_Metal_State_Penalty>
0.0216344

> <b_epik_Metal_Only>
0

> <s_lp_Force_Field>
OPLS_2005

> <r_lp_Energy>
22.4222

> <b_lp_Chiralities_Consistent>
1

> <s_lp_Variant>
AV-unprocessed.smi:1978-8

> <Gold.Version>
5.8.1

> <Gold.Id.Protein>
6NUR|6NUR_protein|mol2

> <Gold.PLP.Fitness>
40.3207

> <Gold.PLP.PLP>
-29.9445

> <Gold.PLP.part.hbond>
-2.9292

> <Gold.PLP.part.metal>
0.0000

> <Gold.PLP.part.buried>
-3.3460

> <Gold.PLP.part.nonpolar>
-23.7234

> <Gold.PLP.part.repulsive>
0.3170

> <Gold.PLP.ligand.clash>
0.0000

> <Gold.PLP.ligand.torsion>
0.7475

> <Gold.PLP.Chemscore.Hbond>
3.9280

> <Gold.PLP.Chemscore.CHOScore>
0.0000

> <Gold.PLP.Chemscore.Metal>
0.0000

> <Gold.Chemscore.Hbonds>
donor molecule, donor type, donor heavy atom, donor atom, acceptor molecule, acceptor atom, score
      L1  H     5    25       P1  7948  0.93
      L1  H     8    26       P1  7948  1.00
      L1  H    12    45       P1 10175  2.00

> <Gold.PLP.Chemscore.Internal.Correction>
0.0872

> <Gold.Rescore>
     Score         DG    S(hbond)    S(metal)    S(lipo)     H(rot)  DE(clash)    DE(int)     intcor
     17.25     -18.15       2.69        0.00      65.41       1.55       0.15       0.76       ----

> <Gold.Chemscore.Fitness>
17.2454

> <Gold.Chemscore.DG>
-18.1535

> <Gold.Chemscore.ZeroCoef>
-5.4800

> <Gold.Chemscore.Hbond>
2.6891

> <Gold.Chemscore.Metal>
0.0000

> <Gold.Chemscore.Lipo>
65.4102

> <Gold.Chemscore.Internal_Hbond>
0.0000

> <Gold.Chemscore.DEClash>
0.1499

> <Gold.Chemscore.DEInternal>
0.7582

> <Gold.Chemscore.Rot>
1.5474

> <Gold.Chemscore.Internal.Correction>
   9.000000E+99

> <Gold.Chemscore.Hbonds>
donor molecule, donor type, donor heavy atom, donor atom, acceptor molecule, acceptor atom, score
      L1  H     5    25       P1  7948  0.40
      L1  H     8    26       P1  7948  0.94
      L1  H    12    45       P1 10175  1.00

> <Gold.Chemscore.Hbond.Weighted>
-8.9817

> <Gold.Chemscore.Metal.Weighted>
-0.0000

> <Gold.Chemscore.Lipo.Weighted>
-7.6530

> <Gold.Chemscore.Internal_Hbond.Weighted>
0.0000

> <Gold.Chemscore.DEClash.Weighted>
0.1499

> <Gold.Chemscore.DEInternal.Weighted>
0.7582

> <Gold.Chemscore.Rot.Weighted>
3.9612

> <Gold.Chemscore.Internal.Correction.Weighted>
   9.000000E+99

> <Gold.Protein.RotatedTorsions>
[ 6907 6896 6895 6894 ] final  178.29 input  -60.11 | X-H torsion
[ 7974 7965 7964 7962 ] final  132.22 input  175.53 | X-H torsion
[ 8008 7997 7996 7995 ] final   60.13 input   59.86 | X-H torsion
[ 10167 10162 10161 10158 ] final  137.89 input  -65.29 | X-H torsion
[ 10718 10713 10712 10709 ] final  177.73 input   66.30 | X-H torsion
[ 10763 10752 10751 10750 ] final -177.19 input  -60.55 | X-H torsion
[ 11005 11000 10999 10996 ] final -167.30 input  -57.11 | X-H torsion

> <Gold.Protein.ActiveResidues>
 VAL166  LYS551  ARG553  GLY616  TRP617  ASP618  TYR619  PRO620  LYS621  CYS622 
 ASP623  PHE694  ASN695  SER759  ASP760  ASP761  ALA762  ILE779  LEU786  VAL792 
 PHE793  MET794  SER795  GLU796  ALA797  LYS798  CYS799  TRP800  GLU811  SER814 

> <Gold.Protein.RotatedAtoms>
  151.6902  133.3311  159.3240 H   0  0  0  0  0  0  0  0  0  0  0  0  # atno 6907 bound_to 6896
  150.7782  134.6705  159.6398 H   0  0  0  0  0  0  0  0  0  0  0  0  # atno 6908 bound_to 6896
  152.3832  134.6562  160.0187 H   0  0  0  0  0  0  0  0  0  0  0  0  # atno 6909 bound_to 6896
  144.9992  139.4329  143.5301 H   0  0  0  0  0  0  0  0  0  0  0  0  # atno 7974 bound_to 7965
  155.5773  140.3491  155.4531 H   0  0  0  0  0  0  0  0  0  0  0  0  # atno 8008 bound_to 7997
  156.0400  140.1293  157.0191 H   0  0  0  0  0  0  0  0  0  0  0  0  # atno 8009 bound_to 7997
  154.4388  140.1026  156.6208 H   0  0  0  0  0  0  0  0  0  0  0  0  # atno 8010 bound_to 7997
  139.5129  144.6384  151.5635 H   0  0  0  0  0  0  0  0  0  0  0  0  # atno 10167 bound_to 10162
  156.9010  130.9878  151.3035 H   0  0  0  0  0  0  0  0  0  0  0  0  # atno 10718 bound_to 10713
  154.5631  135.2822  155.0899 H   0  0  0  0  0  0  0  0  0  0  0  0  # atno 10763 bound_to 10752
  154.2301  135.6376  153.5176 H   0  0  0  0  0  0  0  0  0  0  0  0  # atno 10764 bound_to 10752
  153.0035  135.5535  154.6232 H   0  0  0  0  0  0  0  0  0  0  0  0  # atno 10765 bound_to 10752
  140.5548  134.5392  157.5130 H   0  0  0  0  0  0  0  0  0  0  0  0  # atno 11005 bound_to 11000
  146.3448  139.9370  142.8746 LP  0  0  0  0  0  0  0  0  0  0  0  0  # atno 17320 bound_to 7965
  145.2177  140.9922  143.4063 LP  0  0  0  0  0  0  0  0  0  0  0  0  # atno 17321 bound_to 7965
  140.6142  143.9380  150.6476 LP  0  0  0  0  0  0  0  0  0  0  0  0  # atno 17342 bound_to 10162
  140.2633  143.3508  152.1304 LP  0  0  0  0  0  0  0  0  0  0  0  0  # atno 17343 bound_to 10162
  157.6026  130.8524  149.8826 LP  0  0  0  0  0  0  0  0  0  0  0  0  # atno 17370 bound_to 10713
  156.0582  130.3704  150.1042 LP  0  0  0  0  0  0  0  0  0  0  0  0  # atno 17371 bound_to 10713
  139.9437  134.7741  156.0615 LP  0  0  0  0  0  0  0  0  0  0  0  0  # atno 17394 bound_to 11000
  141.1150  133.6631  156.3071 LP  0  0  0  0  0  0  0  0  0  0  0  0  # atno 17395 bound_to 11000

$$$$
