AV-unprocessed.smi:3187|AV-procd|sdf|12178|dock3
  -GOLD-   2272018 13D 1   1.00000     0.00000
 Structure written by MMmdl.
 41 42  0  0  0  0  0  0  0  0  2 V2000
  153.8574  140.5558  160.6618 C   0  0  0  0  0  0  0  0  0  0  0  0
  153.1566  141.9052  160.6394 C   0  0  0  0  0  0  0  0  0  0  0  0
  152.9829  142.6102  161.7747 C   0  0  0  0  0  0  0  0  0  0  0  0
  152.3574  143.9920  161.8506 C   0  0  0  0  0  0  0  0  0  0  0  0
  151.7652  144.4636  160.5121 C   0  0  0  0  0  0  0  0  0  0  0  0
  152.6206  143.9990  159.3201 C   0  0  2  0  0  0  0  0  0  0  0  0
  152.1719  144.6478  157.9993 C   0  0  0  0  0  0  0  0  0  0  0  0
  152.7153  142.4477  159.2730 C   0  0  2  0  0  0  0  0  0  0  0  0
  151.4107  141.7808  158.7624 C   0  0  0  0  0  0  0  0  0  0  0  0
  151.3073  141.7713  157.2908 N   0  3  0  0  0  0  0  0  0  0  0  0
  150.2173  140.9272  156.7617 C   0  0  0  0  0  0  0  0  0  0  0  0
  150.1118  141.0376  155.2328 C   0  0  0  0  0  0  0  0  0  0  0  0
  148.7342  141.0689  154.7794 N   0  0  0  0  0  0  0  0  0  0  0  0
  148.1363  140.2201  153.8571 C   0  0  0  0  0  0  0  0  0  0  0  0
  146.8244  140.6225  153.7456 C   0  0  0  0  0  0  0  0  0  0  0  0
  146.5958  141.7108  154.5844 N   0  0  0  0  0  0  0  0  0  0  0  0
  147.7723  141.9215  155.1591 C   0  0  0  0  0  0  0  0  0  0  0  0
  154.6274  140.5109  159.8914 H   0  0  0  0  0  0  0  0  0  0  0  0
  153.1584  139.7362  160.5052 H   0  0  0  0  0  0  0  0  0  0  0  0
  154.3429  140.3848  161.6234 H   0  0  0  0  0  0  0  0  0  0  0  0
  153.3329  142.2054  162.7133 H   0  0  0  0  0  0  0  0  0  0  0  0
  151.5914  144.0030  162.6263 H   0  0  0  0  0  0  0  0  0  0  0  0
  153.1369  144.6842  162.1696 H   0  0  0  0  0  0  0  0  0  0  0  0
  150.7487  144.0845  160.4074 H   0  0  0  0  0  0  0  0  0  0  0  0
  151.6794  145.5508  160.5202 H   0  0  0  0  0  0  0  0  0  0  0  0
  153.6329  144.3667  159.4985 H   0  0  0  0  0  0  0  0  0  0  0  0
  151.1168  144.4685  157.7933 H   0  0  0  0  0  0  0  0  0  0  0  0
  152.7521  144.2705  157.1568 H   0  0  0  0  0  0  0  0  0  0  0  0
  152.3121  145.7285  158.0341 H   0  0  0  0  0  0  0  0  0  0  0  0
  153.5089  142.2076  158.5640 H   0  0  0  0  0  0  0  0  0  0  0  0
  151.3396  140.7554  159.1255 H   0  0  0  0  0  0  0  0  0  0  0  0
  150.5379  142.3138  159.1377 H   0  0  0  0  0  0  0  0  0  0  0  0
  151.1599  142.7188  156.9730 H   0  0  0  0  0  0  0  0  0  0  0  0
  150.4054  139.8888  157.0375 H   0  0  0  0  0  0  0  0  0  0  0  0
  149.2745  141.2162  157.2282 H   0  0  0  0  0  0  0  0  0  0  0  0
  150.6238  141.9328  154.8770 H   0  0  0  0  0  0  0  0  0  0  0  0
  150.6051  140.1862  154.7622 H   0  0  0  0  0  0  0  0  0  0  0  0
  148.6771  139.4217  153.3700 H   0  0  0  0  0  0  0  0  0  0  0  0
  146.0343  140.2161  153.1314 H   0  0  0  0  0  0  0  0  0  0  0  0
  147.9360  142.7103  155.8790 H   0  0  0  0  0  0  0  0  0  0  0  0
  152.1835  141.4378  156.9153 H   0  0  0  0  0  0  0  0  0  0  0  0
  1  2  1  0  0  0  0
  1 18  1  0  0  0  0
  1 19  1  0  0  0  0
  1 20  1  0  0  0  0
  2  8  1  0  0  0  0
  2  3  2  0  0  0  0
  3  4  1  0  0  0  0
  3 21  1  0  0  0  0
  4  5  1  0  0  0  0
  4 22  1  0  0  0  0
  4 23  1  0  0  0  0
  5  6  1  0  0  0  0
  5 24  1  0  0  0  0
  5 25  1  0  0  0  0
  6  7  1  0  0  0  0
  6  8  1  0  0  0  0
  6 26  1  0  0  0  0
  7 27  1  0  0  0  0
  7 28  1  0  0  0  0
  7 29  1  0  0  0  0
  8  9  1  0  0  0  0
  8 30  1  0  0  0  0
  9 10  1  0  0  0  0
  9 31  1  0  0  0  0
  9 32  1  0  0  0  0
 10 11  1  0  0  0  0
 10 33  1  0  0  0  0
 10 41  1  0  0  0  0
 11 12  1  0  0  0  0
 11 34  1  0  0  0  0
 11 35  1  0  0  0  0
 12 13  1  0  0  0  0
 12 36  1  0  0  0  0
 12 37  1  0  0  0  0
 13 17  1  0  0  0  0
 13 14  1  0  0  0  0
 14 15  2  0  0  0  0
 14 38  1  0  0  0  0
 15 16  1  0  0  0  0
 15 39  1  0  0  0  0
 16 17  2  0  0  0  0
 17 40  1  0  0  0  0
M  CHG  1  10   1
M  END
> <s_m_source_file>
AV-unprocessed.smi

> <i_m_source_file_index>
3187

> <i_lp_mmshare_version>
43012

> <i_f3d_flags>
0

> <s_epik_input>
W0NIM11DMT1bQ0hdW0NIMl1bQ0gyXVtDQEBIXShbQ0gzXSlbQ0BIXTFbQ0gyXVtOSF1bQ0gyXVtDSDJdbjJbY0hdW2NIXW5bY0hdMg==

> <s_epik_cmdline>
J2VwaWtfcHl0aG9uJywgJy1waCcsICc3LjAnLCAnLXRuJywgJzgnLCAnLW1hJywgJzIwMCcsICctbWV0YWxfYmluZGluZycsICctaW1hZScsICc8aW5maWxlLm1hZT4nLCAnLW9tYWUnLCAnPG91dGZpbGUubWFlPic=

> <r_lp_tautomer_probability>
1

> <r_epik_Ionization_Penalty>
0.0501625

> <r_epik_Ionization_Penalty_Charging>
0.0501625

> <r_epik_Ionization_Penalty_Neutral>
0

> <r_epik_State_Penalty>
0.0972392

> <r_epik_Charging_Adjusted_Penalty>
0.147402

> <i_epik_Tot_Q>
1

> <i_epik_Tot_abs_Q>
1

> <r_epik_Metal_State_Penalty>
0.000104376

> <b_epik_Metal_Only>
0

> <s_lp_Force_Field>
OPLS_2005

> <r_lp_Energy>
17.7506

> <b_lp_Chiralities_Consistent>
1

> <s_lp_Variant>
AV-unprocessed.smi:3187-4

> <Gold.Version>
5.8.1

> <Gold.Id.Protein>
6NUR|6NUR_protein|mol2

> <Gold.PLP.Fitness>
51.9131

> <Gold.PLP.PLP>
-44.8005

> <Gold.PLP.part.hbond>
0.0000

> <Gold.PLP.part.metal>
0.0000

> <Gold.PLP.part.buried>
-1.2135

> <Gold.PLP.part.nonpolar>
-43.4612

> <Gold.PLP.part.repulsive>
0.2078

> <Gold.PLP.ligand.clash>
0.0000

> <Gold.PLP.ligand.torsion>
0.6046

> <Gold.PLP.Chemscore.Hbond>
0.0000

> <Gold.PLP.Chemscore.CHOScore>
2.7419

> <Gold.PLP.Chemscore.Metal>
0.0000

> <Gold.Chemscore.Hbonds>
donor molecule, donor type, donor heavy atom, donor atom, acceptor molecule, acceptor atom, score
      L1  C    14    38       P1  7957  0.68
      L1  C    15    39       P1 10175  1.00
      L1  C    17    40       P1  8028  1.00

> <Gold.PLP.Chemscore.Internal.Correction>
0.0961

> <Gold.Rescore>
     Score         DG    S(hbond)    S(metal)    S(lipo)     H(rot)  DE(clash)    DE(int)     intcor
     14.80     -15.50       0.00        0.00     126.89       1.89       0.07       0.63       ----

> <Gold.Chemscore.Fitness>
14.7964

> <Gold.Chemscore.DG>
-15.4999

> <Gold.Chemscore.ZeroCoef>
-5.4800

> <Gold.Chemscore.Hbond>
0.0000

> <Gold.Chemscore.Metal>
0.0000

> <Gold.Chemscore.Lipo>
126.8899

> <Gold.Chemscore.Internal_Hbond>
0.0000

> <Gold.Chemscore.DEClash>
0.0691

> <Gold.Chemscore.DEInternal>
0.6344

> <Gold.Chemscore.Rot>
1.8853

> <Gold.Chemscore.Internal.Correction>
   9.000000E+99

> <Gold.Chemscore.Hbond.Weighted>
-0.0000

> <Gold.Chemscore.Metal.Weighted>
-0.0000

> <Gold.Chemscore.Lipo.Weighted>
-14.8461

> <Gold.Chemscore.Internal_Hbond.Weighted>
0.0000

> <Gold.Chemscore.DEClash.Weighted>
0.0691

> <Gold.Chemscore.DEInternal.Weighted>
0.6344

> <Gold.Chemscore.Rot.Weighted>
4.8263

> <Gold.Chemscore.Internal.Correction.Weighted>
   9.000000E+99

> <Gold.Protein.RotatedTorsions>
[ 6907 6896 6895 6894 ] final   85.52 input  -60.11 | X-H torsion
[ 7974 7965 7964 7962 ] final  -58.77 input  175.53 | X-H torsion
[ 8008 7997 7996 7995 ] final -170.64 input   59.86 | X-H torsion
[ 10167 10162 10161 10158 ] final  140.95 input  -65.29 | X-H torsion
[ 10718 10713 10712 10709 ] final -117.70 input   66.30 | X-H torsion
[ 10763 10752 10751 10750 ] final -145.30 input  -60.55 | X-H torsion
[ 11005 11000 10999 10996 ] final  140.28 input  -57.11 | X-H torsion

> <Gold.Protein.ActiveResidues>
 VAL166  LYS551  ARG553  GLY616  TRP617  ASP618  TYR619  PRO620  LYS621  CYS622 
 ASP623  PHE694  ASN695  SER759  ASP760  ASP761  ALA762  ILE779  LEU786  VAL792 
 PHE793  MET794  SER795  GLU796  ALA797  LYS798  CYS799  TRP800  GLU811  SER814 

> <Gold.Protein.RotatedAtoms>
  152.5376  134.2574  159.8921 H   0  0  0  0  0  0  0  0  0  0  0  0  # atno 6907 bound_to 6896
  151.2535  133.4331  159.2620 H   0  0  0  0  0  0  0  0  0  0  0  0  # atno 6908 bound_to 6896
  151.0518  134.9692  159.8271 H   0  0  0  0  0  0  0  0  0  0  0  0  # atno 6909 bound_to 6896
  145.8353  140.8453  143.0062 H   0  0  0  0  0  0  0  0  0  0  0  0  # atno 7974 bound_to 7965
  155.9211  140.1074  157.1206 H   0  0  0  0  0  0  0  0  0  0  0  0  # atno 8008 bound_to 7997
  154.4054  140.1256  156.4746 H   0  0  0  0  0  0  0  0  0  0  0  0  # atno 8009 bound_to 7997
  155.7195  140.3470  155.5012 H   0  0  0  0  0  0  0  0  0  0  0  0  # atno 8010 bound_to 7997
  139.5034  144.6202  151.6069 H   0  0  0  0  0  0  0  0  0  0  0  0  # atno 10167 bound_to 10162
  156.1053  130.6205  150.9197 H   0  0  0  0  0  0  0  0  0  0  0  0  # atno 10718 bound_to 10713
  154.8389  135.3417  154.6482 H   0  0  0  0  0  0  0  0  0  0  0  0  # atno 10763 bound_to 10752
  153.7095  135.6965  153.5046 H   0  0  0  0  0  0  0  0  0  0  0  0  # atno 10764 bound_to 10752
  153.2462  135.4368  155.0704 H   0  0  0  0  0  0  0  0  0  0  0  0  # atno 10765 bound_to 10752
  140.0316  134.9349  157.0673 H   0  0  0  0  0  0  0  0  0  0  0  0  # atno 11005 bound_to 11000
  144.6737  140.0733  143.7472 LP  0  0  0  0  0  0  0  0  0  0  0  0  # atno 17320 bound_to 7965
  145.9525  139.2743  143.1204 LP  0  0  0  0  0  0  0  0  0  0  0  0  # atno 17321 bound_to 7965
  140.5902  143.9793  150.6320 LP  0  0  0  0  0  0  0  0  0  0  0  0  # atno 17342 bound_to 10162
  140.2971  143.3285  152.1007 LP  0  0  0  0  0  0  0  0  0  0  0  0  # atno 17343 bound_to 10162
  157.6228  131.0928  150.8589 LP  0  0  0  0  0  0  0  0  0  0  0  0  # atno 17370 bound_to 10713
  156.8710  130.5146  149.5297 LP  0  0  0  0  0  0  0  0  0  0  0  0  # atno 17371 bound_to 10713
  140.4216  134.1874  155.7165 LP  0  0  0  0  0  0  0  0  0  0  0  0  # atno 17394 bound_to 11000
  141.1834  133.8365  157.1176 LP  0  0  0  0  0  0  0  0  0  0  0  0  # atno 17395 bound_to 11000

$$$$
