#       Name:                AV-unprocessed.smi:1480
#       Creating user name   scv26
#       Creation time:       Fri Mar 27 06:07:54 2020


#       File generated by GOLD software.
#

@<TRIPOS>MOLECULE
AV-unprocessed.smi:1480
    44    45     1
SMALL
NO_CHARGES


@<TRIPOS>ATOM
      1 ****        -5.8371   1.8163  -1.2293 C.3            1 S1                 0.0000
      2 ****        -4.4130   1.5581  -1.0088 N.am           1 S1                 0.0000
      3 ****        -3.7910   0.6424  -1.9756 C.3            1 S1                 0.0000
      4 ****        -2.2585   0.7096  -1.9868 C.3            1 S1                 0.0000
      5 ****        -1.7185   0.6468  -0.5524 C.3            1 S1                 0.0000
      6 ****        -0.1828   0.6476  -0.5489 C.2            1 S1                 0.0000
      7 ****         0.4271   1.5816  -1.0699 O.2            1 S1                 0.0000
      8 ****         0.4004  -0.4111   0.0427 N.am           1 S1                 0.0000
      9 ****         1.7831  -0.6899   0.1981 C.2            1 S1                 0.0000
     10 ****         2.8635   0.1090  -0.2836 C.2            1 S1                 0.0000
     11 ****         3.9687  -0.5856   0.1175 C.2            1 S1                 0.0000
     12 ****         3.5331  -1.7103   0.7899 N.pl3          1 S1                 0.0000
     13 ****         4.3296  -2.7600   1.4020 C.3            1 S1                 0.0000
     14 ****         5.0041  -2.2730   2.6872 C.2            1 S1                 0.0000
     15 ****         6.3375  -2.3305   2.7352 N.am           1 S1                 0.0000
     16 ****         4.3323  -1.8485   3.6250 O.2            1 S1                 0.0000
     17 ****         2.1842  -1.7773   0.8342 N.2            1 S1                 0.0000
     18 ****        -2.2751   1.8317   0.2627 C.3            1 S1                 0.0000
     19 ****        -3.7792   2.0868   0.0661 C.2            1 S1                 0.0000
     20 ****        -4.3570   2.7972   0.8893 O.2            1 S1                 0.0000
     21 ****        -6.4226   1.5331  -0.3533 H              1 S1                 0.0000
     22 ****        -6.2320   1.2545  -2.0767 H              1 S1                 0.0000
     23 ****        -6.0070   2.8756  -1.4260 H              1 S1                 0.0000
     24 ****        -4.1094  -0.3713  -1.7291 H              1 S1                 0.0000
     25 ****        -4.1612   0.8499  -2.9806 H              1 S1                 0.0000
     26 ****        -1.8583  -0.1076  -2.5888 H              1 S1                 0.0000
     27 ****        -1.9411   1.6358  -2.4690 H              1 S1                 0.0000
     28 ****        -2.0678  -0.2813  -0.0951 H              1 S1                 0.0000
     29 ****        -0.2236  -1.1008   0.4352 H              1 S1                 0.0000
     30 ****         2.8502   1.0380  -0.8330 H              1 S1                 0.0000
     31 ****         5.0195  -0.3742  -0.0159 H              1 S1                 0.0000
     32 ****         3.6936  -3.6165   1.6315 H              1 S1                 0.0000
     33 ****         5.0725  -3.0972   0.6777 H              1 S1                 0.0000
     34 ****         6.8279  -2.0202   3.5613 H              1 S1                 0.0000
     35 ****         6.8514  -2.6850   1.9417 H              1 S1                 0.0000
     36 ****        -2.0832   1.6693   1.3242 H              1 S1                 0.0000
     37 ****        -1.7598   2.7558  -0.0043 H              1 S1                 0.0000
     38 ****        -0.0775   2.3345  -1.4925 LP             1 S1                 0.0000
     39 ****         1.4271   1.5873  -1.0706 LP             1 S1                 0.0000
     40 ****         3.3353  -1.8189   3.5528 LP             1 S1                 0.0000
     41 ****         4.7827  -1.5328   4.4601 LP             1 S1                 0.0000
     42 ****         1.6182  -2.4876   1.2527 LP             1 S1                 0.0000
     43 ****        -5.3293   3.0026   0.7774 LP             1 S1                 0.0000
     44 ****        -3.8540   3.1687   1.6696 LP             1 S1                 0.0000
@<TRIPOS>BOND
    1    1    2 1     
    2    1   21 1     
    3    1   22 1     
    4    1   23 1     
    5    2   19 am    
    6    2    3 1     
    7    3    4 1     
    8    3   24 1     
    9    3   25 1     
   10    4    5 1     
   11    4   26 1     
   12    4   27 1     
   13    5    6 1     
   14    5   18 1     
   15    5   28 1     
   16    6    7 2     
   17    6    8 am    
   18    8    9 1     
   19    8   29 1     
   20    9   17 2     
   21    9   10 1     
   22   10   11 2     
   23   10   30 1     
   24   11   12 1     
   25   11   31 1     
   26   12   13 1     
   27   12   17 1     
   28   13   14 1     
   29   13   32 1     
   30   13   33 1     
   31   14   15 am    
   32   14   16 2     
   33   15   34 1     
   34   15   35 1     
   35   18   19 1     
   36   18   36 1     
   37   18   37 1     
   38   19   20 2     
   39    7   38 1     
   40    7   39 1     
   41   16   40 1     
   42   16   41 1     
   43   17   42 1     
   44   20   43 1     
   45   20   44 1     
@<TRIPOS>SUBSTRUCTURE
      1 S1             1
@<TRIPOS>SET
LONE_PAIRS      STATIC     ATOMS    <user>   **** ""
7 38 39 40 41 42 43 44
DONOR_HYDROGENS      STATIC     ATOMS    <user>   **** ""
3 29 34 35
ATOM$BLUE        STATIC     ATOMS    COLORGROUP SYSTEM
7 38 39 40 41 42 43 44
ATOM$RED        STATIC     ATOMS    COLORGROUP SYSTEM
3 29 34 35
