AV-unprocessed.smi:839|AV-procd|sdf|3910|dock2
  -GOLD-   22720 1373D 1   1.00000     0.00000
 Structure written by MMmdl.
 47 49  0  0  0  0  0  0  0  0  1 V2000
  146.7697  139.6620  153.6384 O   0  0  0  0  0  0  0  0  0  0  0  0
  147.5228  138.8111  153.1653 C   0  0  0  0  0  0  0  0  0  0  0  0
  147.1320  137.9003  152.2619 N   0  0  0  0  0  0  0  0  0  0  0  0
  145.7897  137.8018  151.6908 C   0  0  0  0  0  0  0  0  0  0  0  0
  144.8976  136.7623  152.3950 C   0  0  0  0  0  0  0  0  0  0  0  0
  144.2805  137.0699  153.4166 O   0  0  0  0  0  0  0  0  0  0  0  0
  144.8122  135.5295  151.8533 N   0  0  0  0  0  0  0  0  0  0  0  0
  145.4999  135.0788  150.6436 C   0  0  0  0  0  0  0  0  0  0  0  0
  145.2422  133.5740  150.5552 C   0  0  0  0  0  0  0  0  0  0  0  0
  143.9519  133.3669  151.3360 C   0  0  0  0  0  0  0  0  0  0  0  0
  143.9814  134.4605  152.4039 C   0  0  0  0  0  0  0  0  0  0  0  0
  148.8195  138.6542  153.4827 N   0  0  0  0  0  0  0  0  0  0  0  0
  149.6148  139.4198  154.3782 C   0  0  0  0  0  0  0  0  0  0  0  0
  150.9389  139.0936  154.7527 C   0  0  0  0  0  0  0  0  0  0  0  0
  151.6143  139.9258  155.6659 C   0  0  0  0  0  0  0  0  0  0  0  0
  150.9516  141.0591  156.1935 C   0  0  0  0  0  0  0  0  0  0  0  0
  151.6108  141.9041  157.1131 N   0  0  0  0  0  0  0  0  0  0  0  0
  151.1340  143.2800  157.2442 C   0  0  0  0  0  0  0  0  0  0  0  0
  152.1336  144.1197  158.0576 C   0  0  0  0  0  0  0  0  0  0  0  0
  152.3687  143.4978  159.3163 O   0  0  0  0  0  0  0  0  0  0  0  0
  152.9385  142.2018  159.1668 C   0  0  0  0  0  0  0  0  0  0  0  0
  151.9709  141.2924  158.3900 C   0  0  0  0  0  0  0  0  0  0  0  0
  149.6804  141.3651  155.8356 N   0  0  0  0  0  0  0  0  0  0  0  0
  149.0364  140.5645  154.9611 C   0  0  0  0  0  0  0  0  0  0  0  0
  147.8158  137.2374  151.9276 H   0  0  0  0  0  0  0  0  0  0  0  0
  145.3203  138.7824  151.7719 H   0  0  0  0  0  0  0  0  0  0  0  0
  145.8585  137.5713  150.6266 H   0  0  0  0  0  0  0  0  0  0  0  0
  145.0742  135.5900  149.7791 H   0  0  0  0  0  0  0  0  0  0  0  0
  146.5699  135.2869  150.6720 H   0  0  0  0  0  0  0  0  0  0  0  0
  145.1767  133.2163  149.5273 H   0  0  0  0  0  0  0  0  0  0  0  0
  146.0542  133.0347  151.0449 H   0  0  0  0  0  0  0  0  0  0  0  0
  143.0973  133.5234  150.6763 H   0  0  0  0  0  0  0  0  0  0  0  0
  143.8685  132.3653  151.7588 H   0  0  0  0  0  0  0  0  0  0  0  0
  144.4418  134.0898  153.3210 H   0  0  0  0  0  0  0  0  0  0  0  0
  142.9742  134.8043  152.6447 H   0  0  0  0  0  0  0  0  0  0  0  0
  149.2845  137.8617  153.0644 H   0  0  0  0  0  0  0  0  0  0  0  0
  151.4473  138.2223  154.3710 H   0  0  0  0  0  0  0  0  0  0  0  0
  152.6314  139.6905  155.9408 H   0  0  0  0  0  0  0  0  0  0  0  0
  151.0030  143.7299  156.2592 H   0  0  0  0  0  0  0  0  0  0  0  0
  150.1602  143.2798  157.7358 H   0  0  0  0  0  0  0  0  0  0  0  0
  153.0738  144.2380  157.5166 H   0  0  0  0  0  0  0  0  0  0  0  0
  151.7347  145.1203  158.2245 H   0  0  0  0  0  0  0  0  0  0  0  0
  153.9004  142.2724  158.6562 H   0  0  0  0  0  0  0  0  0  0  0  0
  153.1330  141.7841  160.1546 H   0  0  0  0  0  0  0  0  0  0  0  0
  151.0618  141.1325  158.9711 H   0  0  0  0  0  0  0  0  0  0  0  0
  152.4352  140.3167  158.2548 H   0  0  0  0  0  0  0  0  0  0  0  0
  148.0243  140.8526  154.7163 H   0  0  0  0  0  0  0  0  0  0  0  0
  1  2  2  0  0  0  0
  2  3  1  0  0  0  0
  2 12  1  0  0  0  0
  3  4  1  0  0  0  0
  3 25  1  0  0  0  0
  4  5  1  0  0  0  0
  4 26  1  0  0  0  0
  4 27  1  0  0  0  0
  5  6  2  0  0  0  0
  5  7  1  0  0  0  0
  7 11  1  0  0  0  0
  7  8  1  0  0  0  0
  8  9  1  0  0  0  0
  8 28  1  0  0  0  0
  8 29  1  0  0  0  0
  9 10  1  0  0  0  0
  9 30  1  0  0  0  0
  9 31  1  0  0  0  0
 10 11  1  0  0  0  0
 10 32  1  0  0  0  0
 10 33  1  0  0  0  0
 11 34  1  0  0  0  0
 11 35  1  0  0  0  0
 12 13  1  0  0  0  0
 12 36  1  0  0  0  0
 13 24  1  0  0  0  0
 13 14  2  0  0  0  0
 14 15  1  0  0  0  0
 14 37  1  0  0  0  0
 15 16  2  0  0  0  0
 15 38  1  0  0  0  0
 16 17  1  0  0  0  0
 16 23  1  0  0  0  0
 17 22  1  0  0  0  0
 17 18  1  0  0  0  0
 18 19  1  0  0  0  0
 18 39  1  0  0  0  0
 18 40  1  0  0  0  0
 19 20  1  0  0  0  0
 19 41  1  0  0  0  0
 19 42  1  0  0  0  0
 20 21  1  0  0  0  0
 21 22  1  0  0  0  0
 21 43  1  0  0  0  0
 21 44  1  0  0  0  0
 22 45  1  0  0  0  0
 22 46  1  0  0  0  0
 23 24  2  0  0  0  0
 24 47  1  0  0  0  0
M  END
> <s_m_source_file>
AV-unprocessed.smi

> <i_m_source_file_index>
839

> <i_lp_mmshare_version>
43012

> <i_f3d_flags>
0

> <s_epik_input>
W0NIMl0xW0NIMl1bQ0gyXVtDSDJdTjFDKD1PKVtDSDJdW05IXUMoPU8pW05IXWMyW2NIXVtjSF1jKG5bY0hdMilOM1tDSDJdW0NIMl1PW0NIMl1bQ0gyXTM=

> <s_epik_cmdline>
J2VwaWtfcHl0aG9uJywgJy1waCcsICc3LjAnLCAnLXRuJywgJzgnLCAnLW1hJywgJzIwMCcsICctbWV0YWxfYmluZGluZycsICctaW1hZScsICc8aW5maWxlLm1hZT4nLCAnLW9tYWUnLCAnPG91dGZpbGUubWFlPic=

> <r_lp_tautomer_probability>
1

> <r_epik_Ionization_Penalty>
0.00586185

> <r_epik_Ionization_Penalty_Charging>
0

> <r_epik_Ionization_Penalty_Neutral>
0.00586185

> <r_epik_State_Penalty>
0.00428328

> <r_epik_Charging_Adjusted_Penalty>
0.00428328

> <i_epik_Tot_Q>
0

> <i_epik_Tot_abs_Q>
0

> <r_epik_Metal_State_Penalty>
-0

> <b_epik_Metal_Only>
0

> <s_lp_Force_Field>
OPLS_2005

> <r_lp_Energy>
41.3163

> <b_lp_Chiralities_Consistent>
1

> <s_lp_Variant>
AV-unprocessed.smi:839-1

> <Gold.Version>
5.8.1

> <Gold.Id.Protein>
6NUR|6NUR_protein|mol2

> <Gold.PLP.Fitness>
47.9166

> <Gold.PLP.PLP>
-43.4620

> <Gold.PLP.part.hbond>
-3.0000

> <Gold.PLP.part.metal>
0.0000

> <Gold.PLP.part.buried>
-0.3897

> <Gold.PLP.part.nonpolar>
-41.2888

> <Gold.PLP.part.repulsive>
0.5644

> <Gold.PLP.ligand.clash>
0.0000

> <Gold.PLP.ligand.torsion>
0.8501

> <Gold.PLP.Chemscore.Hbond>
1.9357

> <Gold.PLP.Chemscore.CHOScore>
0.0000

> <Gold.PLP.Chemscore.Metal>
0.0000

> <Gold.Chemscore.Hbonds>
donor molecule, donor type, donor heavy atom, donor atom, acceptor molecule, acceptor atom, score
      L1  H     3    25       P1  7948  0.91
      L1  H    12    36       P1  7948  0.86

> <Gold.PLP.Chemscore.Internal.Correction>
0.3477

> <Gold.Rescore>
     Score         DG    S(hbond)    S(metal)    S(lipo)     H(rot)  DE(clash)    DE(int)     intcor
     15.80     -19.50       1.82        0.00     100.60       1.50       1.53       2.17       ----

> <Gold.Chemscore.Fitness>
15.8023

> <Gold.Chemscore.DG>
-19.4970

> <Gold.Chemscore.ZeroCoef>
-5.4800

> <Gold.Chemscore.Hbond>
1.8226

> <Gold.Chemscore.Metal>
0.0000

> <Gold.Chemscore.Lipo>
100.5952

> <Gold.Chemscore.Internal_Hbond>
0.0000

> <Gold.Chemscore.DEClash>
1.5293

> <Gold.Chemscore.DEInternal>
2.1654

> <Gold.Chemscore.Rot>
1.5001

> <Gold.Chemscore.Internal.Correction>
   9.000000E+99

> <Gold.Chemscore.Hbonds>
donor molecule, donor type, donor heavy atom, donor atom, acceptor molecule, acceptor atom, score
      L1  H     3    25       P1  7948  0.89
      L1  H    12    36       P1  7948  0.78

> <Gold.Chemscore.Hbond.Weighted>
-6.0875

> <Gold.Chemscore.Metal.Weighted>
-0.0000

> <Gold.Chemscore.Lipo.Weighted>
-11.7696

> <Gold.Chemscore.Internal_Hbond.Weighted>
0.0000

> <Gold.Chemscore.DEClash.Weighted>
1.5293

> <Gold.Chemscore.DEInternal.Weighted>
2.1654

> <Gold.Chemscore.Rot.Weighted>
3.8402

> <Gold.Chemscore.Internal.Correction.Weighted>
   9.000000E+99

> <Gold.Protein.RotatedTorsions>
[ 6907 6896 6895 6894 ] final -139.43 input  -60.11 | X-H torsion
[ 7974 7965 7964 7962 ] final  -30.04 input  175.53 | X-H torsion
[ 8008 7997 7996 7995 ] final   10.88 input   59.86 | X-H torsion
[ 10167 10162 10161 10158 ] final   21.25 input  -65.29 | X-H torsion
[ 10718 10713 10712 10709 ] final  -56.28 input   66.30 | X-H torsion
[ 10763 10752 10751 10750 ] final  -26.68 input  -60.55 | X-H torsion
[ 11005 11000 10999 10996 ] final  161.95 input  -57.11 | X-H torsion

> <Gold.Protein.ActiveResidues>
 VAL166  LYS551  ARG553  GLY616  TRP617  ASP618  TYR619  PRO620  LYS621  CYS622 
 ASP623  PHE694  ASN695  SER759  ASP760  ASP761  ALA762  ILE779  LEU786  VAL792 
 PHE793  MET794  SER795  GLU796  ALA797  LYS798  CYS799  TRP800  GLU811  SER814 

> <Gold.Protein.RotatedAtoms>
  151.0477  133.5651  159.2644 H   0  0  0  0  0  0  0  0  0  0  0  0  # atno 6907 bound_to 6896
  151.2674  135.0673  159.9131 H   0  0  0  0  0  0  0  0  0  0  0  0  # atno 6908 bound_to 6896
  152.5376  134.0213  159.8037 H   0  0  0  0  0  0  0  0  0  0  0  0  # atno 6909 bound_to 6896
  146.1172  140.5490  142.8751 H   0  0  0  0  0  0  0  0  0  0  0  0  # atno 7974 bound_to 7965
  154.7993  140.2849  155.5933 H   0  0  0  0  0  0  0  0  0  0  0  0  # atno 8008 bound_to 7997
  156.2975  140.2589  156.2787 H   0  0  0  0  0  0  0  0  0  0  0  0  # atno 8009 bound_to 7997
  154.9577  140.0378  157.2164 H   0  0  0  0  0  0  0  0  0  0  0  0  # atno 8010 bound_to 7997
  140.5441  143.9626  150.6537 H   0  0  0  0  0  0  0  0  0  0  0  0  # atno 10167 bound_to 10162
  156.1301  130.4160  150.0284 H   0  0  0  0  0  0  0  0  0  0  0  0  # atno 10718 bound_to 10713
  153.7199  135.6945  153.5015 H   0  0  0  0  0  0  0  0  0  0  0  0  # atno 10763 bound_to 10752
  153.2211  135.4369  155.0489 H   0  0  0  0  0  0  0  0  0  0  0  0  # atno 10764 bound_to 10752
  154.8288  135.3461  154.6733 H   0  0  0  0  0  0  0  0  0  0  0  0  # atno 10765 bound_to 10752
  140.2209  134.8197  157.3219 H   0  0  0  0  0  0  0  0  0  0  0  0  # atno 11005 bound_to 11000
  144.7564  140.5317  143.6766 LP  0  0  0  0  0  0  0  0  0  0  0  0  # atno 17320 bound_to 7965
  145.5541  139.1477  143.3377 LP  0  0  0  0  0  0  0  0  0  0  0  0  # atno 17321 bound_to 7965
  140.3034  143.3245  152.0949 LP  0  0  0  0  0  0  0  0  0  0  0  0  # atno 17342 bound_to 10162
  139.5000  144.6682  151.6305 LP  0  0  0  0  0  0  0  0  0  0  0  0  # atno 17343 bound_to 10162
  156.8199  130.9355  151.3641 LP  0  0  0  0  0  0  0  0  0  0  0  0  # atno 17370 bound_to 10713
  157.6479  130.8860  149.9575 LP  0  0  0  0  0  0  0  0  0  0  0  0  # atno 17371 bound_to 10713
  140.1851  134.4441  155.7749 LP  0  0  0  0  0  0  0  0  0  0  0  0  # atno 17394 bound_to 11000
  141.2223  133.7001  156.7933 LP  0  0  0  0  0  0  0  0  0  0  0  0  # atno 17395 bound_to 11000

$$$$
