#       Name:                AV-unprocessed.smi:2308
#       Creating user name   scv26
#       Creation time:       Fri Mar 27 12:47:24 2020


#       File generated by GOLD software.
#

@<TRIPOS>MOLECULE
AV-unprocessed.smi:2308
    36    37     1
SMALL
NO_CHARGES


@<TRIPOS>ATOM
      1 ****        -4.8402   1.1476  -0.1802 C.3            1 S1                 0.0000
      2 ****        -4.0388  -0.1023   0.1186 C.ar           1 S1                 0.0000
      3 ****        -4.6774  -1.3004   0.4947 C.ar           1 S1                 0.0000
      4 ****        -3.8743  -2.4233   0.7631 C.ar           1 S1                 0.0000
      5 ****        -2.4761  -2.3029   0.6461 C.ar           1 S1                 0.0000
      6 ****        -1.9146  -1.0637   0.2638 C.ar           1 S1                 0.0000
      7 ****        -0.4969  -1.0454   0.1771 N.am           1 S1                 0.0000
      8 ****         0.3023  -0.0159  -0.1543 C.2            1 S1                 0.0000
      9 ****        -0.0816   1.1145  -0.4572 O.2            1 S1                 0.0000
     10 ****         1.5958  -0.3753  -0.1155 N.am           1 S1                 0.0000
     11 ****         2.7456   0.4813  -0.4165 C.3            1 S1                 0.0000
     12 ****         2.8349   0.7280  -1.9262 C.3            1 S1                 0.0000
     13 ****         2.8425   1.6898   0.5396 C.3            1 S1                 0.0000
     14 ****         4.3394   1.3977   0.6710 C.3            1 S1                 0.0000
     15 ****         4.0039  -0.0490   0.2972 C.3            1 S1                 0.0000
     16 ****        -2.6980   0.0134   0.0068 N.ar           1 S1                 0.0000
     17 ****        -5.9020   0.9209  -0.2811 H              1 S1                 0.0000
     18 ****        -4.5024   1.6068  -1.1099 H              1 S1                 0.0000
     19 ****        -4.7201   1.8729   0.6247 H              1 S1                 0.0000
     20 ****        -5.7529  -1.3597   0.5772 H              1 S1                 0.0000
     21 ****        -4.3223  -3.3616   1.0551 H              1 S1                 0.0000
     22 ****        -1.8453  -3.1561   0.8498 H              1 S1                 0.0000
     23 ****        -0.0377  -1.9165   0.3974 H              1 S1                 0.0000
     24 ****         1.8073  -1.3271   0.1458 H              1 S1                 0.0000
     25 ****         3.7142   1.3186  -2.1839 H              1 S1                 0.0000
     26 ****         1.9658   1.2699  -2.2996 H              1 S1                 0.0000
     27 ****         2.9018  -0.2096  -2.4787 H              1 S1                 0.0000
     28 ****         2.6071   2.6525   0.0844 H              1 S1                 0.0000
     29 ****         2.3081   1.5532   1.4821 H              1 S1                 0.0000
     30 ****         4.9432   1.9068  -0.0820 H              1 S1                 0.0000
     31 ****         4.7450   1.5285   1.6746 H              1 S1                 0.0000
     32 ****         3.7891  -0.6648   1.1732 H              1 S1                 0.0000
     33 ****         4.7348  -0.5272  -0.3556 H              1 S1                 0.0000
     34 ****        -1.0594   1.3239  -0.4695 LP             1 S1                 0.0000
     35 ****         0.5844   1.8228  -0.6909 LP             1 S1                 0.0000
     36 ****        -2.2869   0.8842  -0.2627 LP             1 S1                 0.0000
@<TRIPOS>BOND
    1    1    2 1     
    2    1   17 1     
    3    1   18 1     
    4    1   19 1     
    5    2   16 ar    
    6    2    3 ar    
    7    3    4 ar    
    8    3   20 1     
    9    4    5 ar    
   10    4   21 1     
   11    5    6 ar    
   12    5   22 1     
   13    6    7 1     
   14    6   16 ar    
   15    7    8 am    
   16    7   23 1     
   17    8    9 2     
   18    8   10 am    
   19   10   11 1     
   20   10   24 1     
   21   11   15 1     
   22   11   12 1     
   23   11   13 1     
   24   12   25 1     
   25   12   26 1     
   26   12   27 1     
   27   13   14 1     
   28   13   28 1     
   29   13   29 1     
   30   14   15 1     
   31   14   30 1     
   32   14   31 1     
   33   15   32 1     
   34   15   33 1     
   35    9   34 1     
   36    9   35 1     
   37   16   36 1     
@<TRIPOS>SUBSTRUCTURE
      1 S1             1
@<TRIPOS>SET
LONE_PAIRS      STATIC     ATOMS    <user>   **** ""
3 34 35 36
DONOR_HYDROGENS      STATIC     ATOMS    <user>   **** ""
2 23 24
ATOM$BLUE        STATIC     ATOMS    COLORGROUP SYSTEM
3 34 35 36
ATOM$RED        STATIC     ATOMS    COLORGROUP SYSTEM
2 23 24
