AV-unprocessed.smi:2492|AV-procd|sdf|9812|dock2
  -GOLD-   2272013443D 1   1.00000     0.00000
 Structure written by MMmdl.
 33 34  0  0  0  0  0  0  0  0  1 V2000
  152.8133  141.2667  159.1026 C   0  0  0  0  0  0  0  0  0  0  0  0
  153.4977  142.2480  160.4641 S   0  0  0  0  0  0  0  0  0  0  0  0
  152.9238  143.9029  159.9855 C   0  0  1  0  0  0  0  0  0  0  0  0
  152.6786  144.0257  158.4839 C   0  0  0  0  0  0  0  0  0  0  0  0
  151.7704  145.2486  158.3530 C   0  0  0  0  0  0  0  0  0  0  0  0
  150.9349  145.2977  159.6482 C   0  0  1  0  0  0  0  0  0  0  0  0
  149.5345  144.9668  159.3965 N   0  0  0  0  0  0  0  0  0  0  0  0
  148.6741  144.5141  160.3199 C   0  0  0  0  0  0  0  0  0  0  0  0
  148.9791  144.3280  161.4984 O   0  0  0  0  0  0  0  0  0  0  0  0
  147.4574  144.3007  159.7912 N   0  0  0  0  0  0  0  0  0  0  0  0
  146.2981  143.8226  160.4531 C   0  0  0  0  0  0  0  0  0  0  0  0
  145.3978  144.5567  161.1070 N   0  0  0  0  0  0  0  0  0  0  0  0
  144.5346  143.5912  161.5255 C   0  0  0  0  0  0  0  0  0  0  0  0
  143.3147  143.8972  162.3260 C   0  0  0  0  0  0  0  0  0  0  0  0
  144.8411  142.3464  161.1776 N   0  0  0  0  0  0  0  0  0  0  0  0
  146.0331  142.4951  160.4532 O   0  0  0  0  0  0  0  0  0  0  0  0
  151.5761  144.2791  160.6093 C   0  0  0  0  0  0  0  0  0  0  0  0
  153.0383  140.2106  159.2521 H   0  0  0  0  0  0  0  0  0  0  0  0
  153.2432  141.5780  158.1506 H   0  0  0  0  0  0  0  0  0  0  0  0
  151.7309  141.3859  159.0529 H   0  0  0  0  0  0  0  0  0  0  0  0
  153.6762  144.6366  160.2784 H   0  0  0  0  0  0  0  0  0  0  0  0
  153.6019  144.1275  157.9128 H   0  0  0  0  0  0  0  0  0  0  0  0
  152.1541  143.1425  158.1162 H   0  0  0  0  0  0  0  0  0  0  0  0
  152.3844  146.1479  158.2888 H   0  0  0  0  0  0  0  0  0  0  0  0
  151.1667  145.2095  157.4452 H   0  0  0  0  0  0  0  0  0  0  0  0
  151.0024  146.2959  160.0851 H   0  0  0  0  0  0  0  0  0  0  0  0
  149.1999  145.0921  158.4522 H   0  0  0  0  0  0  0  0  0  0  0  0
  147.3459  144.5025  158.8086 H   0  0  0  0  0  0  0  0  0  0  0  0
  142.7786  142.9839  162.5867 H   0  0  0  0  0  0  0  0  0  0  0  0
  142.6436  144.5410  161.7571 H   0  0  0  0  0  0  0  0  0  0  0  0
  143.5890  144.4106  163.2480 H   0  0  0  0  0  0  0  0  0  0  0  0
  150.9521  143.3871  160.6906 H   0  0  0  0  0  0  0  0  0  0  0  0
  151.6907  144.6838  161.6154 H   0  0  0  0  0  0  0  0  0  0  0  0
  1  2  1  0  0  0  0
  1 18  1  0  0  0  0
  1 19  1  0  0  0  0
  1 20  1  0  0  0  0
  2  3  1  0  0  0  0
  3 17  1  0  0  0  0
  3  4  1  0  0  0  0
  3 21  1  0  0  0  0
  4  5  1  0  0  0  0
  4 22  1  0  0  0  0
  4 23  1  0  0  0  0
  5  6  1  0  0  0  0
  5 24  1  0  0  0  0
  5 25  1  0  0  0  0
  6  7  1  0  0  0  0
  6 17  1  0  0  0  0
  6 26  1  0  0  0  0
  7  8  1  0  0  0  0
  7 27  1  0  0  0  0
  8  9  2  0  0  0  0
  8 10  1  0  0  0  0
 10 11  1  0  0  0  0
 10 28  1  0  0  0  0
 11 16  1  0  0  0  0
 11 12  2  0  0  0  0
 12 13  1  0  0  0  0
 13 14  1  0  0  0  0
 13 15  2  0  0  0  0
 14 29  1  0  0  0  0
 14 30  1  0  0  0  0
 14 31  1  0  0  0  0
 15 16  1  0  0  0  0
 17 32  1  0  0  0  0
 17 33  1  0  0  0  0
M  END
> <s_m_source_file>
AV-unprocessed.smi

> <i_m_source_file_index>
2492

> <i_lp_mmshare_version>
43012

> <i_f3d_flags>
0

> <s_epik_input>
W0NIM11TW0NAQEhdMVtDSDJdW0NIMl1bQ0BIXShbQ0gyXTEpW05IXUMoPU8pW05IXWMybmMoW0NIM10pbm8y

> <s_epik_cmdline>
J2VwaWtfcHl0aG9uJywgJy1waCcsICc3LjAnLCAnLXRuJywgJzgnLCAnLW1hJywgJzIwMCcsICctbWV0YWxfYmluZGluZycsICctaW1hZScsICc8aW5maWxlLm1hZT4nLCAnLW9tYWUnLCAnPG91dGZpbGUubWFlPic=

> <r_lp_tautomer_probability>
1

> <r_epik_Ionization_Penalty>
3.56659e-05

> <r_epik_Ionization_Penalty_Charging>
0

> <r_epik_Ionization_Penalty_Neutral>
3.56659e-05

> <r_epik_State_Penalty>
-0

> <r_epik_Charging_Adjusted_Penalty>
0

> <i_epik_Tot_Q>
0

> <i_epik_Tot_abs_Q>
0

> <r_epik_Metal_State_Penalty>
0.0146047

> <b_epik_Metal_Only>
0

> <s_lp_Force_Field>
OPLS_2005

> <r_lp_Energy>
14.0642

> <b_lp_Chiralities_Consistent>
1

> <s_lp_Variant>
AV-unprocessed.smi:2492-2

> <Gold.Version>
5.8.1

> <Gold.Id.Protein>
6NUR|6NUR_protein|mol2

> <Gold.PLP.Fitness>
44.5742

> <Gold.PLP.PLP>
-38.4884

> <Gold.PLP.part.hbond>
-3.9884

> <Gold.PLP.part.metal>
0.0000

> <Gold.PLP.part.buried>
-6.9426

> <Gold.PLP.part.nonpolar>
-28.4370

> <Gold.PLP.part.repulsive>
0.6580

> <Gold.PLP.ligand.clash>
0.1680

> <Gold.PLP.ligand.torsion>
1.4970

> <Gold.PLP.Chemscore.Hbond>
3.0795

> <Gold.PLP.Chemscore.CHOScore>
0.0000

> <Gold.PLP.Chemscore.Metal>
0.0000

> <Gold.Chemscore.Hbonds>
donor molecule, donor type, donor heavy atom, donor atom, acceptor molecule, acceptor atom, score
      L1  H     7    27       P1  8029  0.94
      L1  H    10    28       P1  8029  0.58
      P1  H  6933  6944       L1     9  0.43
      P1  H  6934  6946       L1    16  1.00

> <Gold.PLP.Chemscore.Internal.Correction>
0.0094

> <Gold.Rescore>
     Score         DG    S(hbond)    S(metal)    S(lipo)     H(rot)  DE(clash)    DE(int)     intcor
     18.68     -21.78       2.89        0.00      85.03       1.28       0.01       3.09       ----

> <Gold.Chemscore.Fitness>
18.6847

> <Gold.Chemscore.DG>
-21.7847

> <Gold.Chemscore.ZeroCoef>
-5.4800

> <Gold.Chemscore.Hbond>
2.8854

> <Gold.Chemscore.Metal>
0.0000

> <Gold.Chemscore.Lipo>
85.0282

> <Gold.Chemscore.Internal_Hbond>
0.0000

> <Gold.Chemscore.DEClash>
0.0106

> <Gold.Chemscore.DEInternal>
3.0893

> <Gold.Chemscore.Rot>
1.2815

> <Gold.Chemscore.Internal.Correction>
   9.000000E+99

> <Gold.Chemscore.Hbonds>
donor molecule, donor type, donor heavy atom, donor atom, acceptor molecule, acceptor atom, score
      L1  H     7    27       P1  8029  0.74
      L1  H    10    28       P1  8029  0.56
      P1  H  6933  6944       L1     9  0.05
      P1  H  6934  6946       L1    16  0.40

> <Gold.Chemscore.Hbond.Weighted>
-9.6371

> <Gold.Chemscore.Metal.Weighted>
-0.0000

> <Gold.Chemscore.Lipo.Weighted>
-9.9483

> <Gold.Chemscore.Internal_Hbond.Weighted>
0.0000

> <Gold.Chemscore.DEClash.Weighted>
0.0106

> <Gold.Chemscore.DEInternal.Weighted>
3.0893

> <Gold.Chemscore.Rot.Weighted>
3.2808

> <Gold.Chemscore.Internal.Correction.Weighted>
   9.000000E+99

> <Gold.Protein.RotatedTorsions>
[ 6907 6896 6895 6894 ] final   19.36 input  -60.11 | X-H torsion
[ 7974 7965 7964 7962 ] final  -37.54 input  175.53 | X-H torsion
[ 8008 7997 7996 7995 ] final -120.54 input   59.86 | X-H torsion
[ 10167 10162 10161 10158 ] final  -65.94 input  -65.29 | X-H torsion
[ 10718 10713 10712 10709 ] final -105.63 input   66.30 | X-H torsion
[ 10763 10752 10751 10750 ] final -157.06 input  -60.55 | X-H torsion
[ 11005 11000 10999 10996 ] final   19.48 input  -57.11 | X-H torsion

> <Gold.Protein.ActiveResidues>
 VAL166  LYS551  ARG553  GLY616  TRP617  ASP618  TYR619  PRO620  LYS621  CYS622 
 ASP623  PHE694  ASN695  SER759  ASP760  ASP761  ALA762  ILE779  LEU786  VAL792 
 PHE793  MET794  SER795  GLU796  ALA797  LYS798  CYS799  TRP800  GLU811  SER814 

> <Gold.Protein.RotatedAtoms>
  151.8797  135.0458  160.0487 H   0  0  0  0  0  0  0  0  0  0  0  0  # atno 6907 bound_to 6896
  152.2523  133.5221  159.5341 H   0  0  0  0  0  0  0  0  0  0  0  0  # atno 6908 bound_to 6896
  150.7088  134.0860  159.3957 H   0  0  0  0  0  0  0  0  0  0  0  0  # atno 6909 bound_to 6896
  146.0566  140.6407  142.9017 H   0  0  0  0  0  0  0  0  0  0  0  0  # atno 7974 bound_to 7965
  155.1334  140.0400  157.2780 H   0  0  0  0  0  0  0  0  0  0  0  0  # atno 8008 bound_to 7997
  154.6526  140.2572  155.7171 H   0  0  0  0  0  0  0  0  0  0  0  0  # atno 8009 bound_to 7997
  156.2584  140.2833  156.0965 H   0  0  0  0  0  0  0  0  0  0  0  0  # atno 8010 bound_to 7997
  140.5693  143.2316  151.6571 H   0  0  0  0  0  0  0  0  0  0  0  0  # atno 10167 bound_to 10162
  156.0354  130.5573  150.7566 H   0  0  0  0  0  0  0  0  0  0  0  0  # atno 10718 bound_to 10713
  154.7665  135.3132  154.8275 H   0  0  0  0  0  0  0  0  0  0  0  0  # atno 10763 bound_to 10752
  153.9022  135.6814  153.4759 H   0  0  0  0  0  0  0  0  0  0  0  0  # atno 10764 bound_to 10752
  153.1272  135.4796  154.9224 H   0  0  0  0  0  0  0  0  0  0  0  0  # atno 10765 bound_to 10752
  140.4132  134.1596  155.7668 H   0  0  0  0  0  0  0  0  0  0  0  0  # atno 11005 bound_to 11000
  144.7151  140.4181  143.7050 LP  0  0  0  0  0  0  0  0  0  0  0  0  # atno 17320 bound_to 7965
  145.6633  139.1585  143.2796 LP  0  0  0  0  0  0  0  0  0  0  0  0  # atno 17321 bound_to 7965
  139.5109  144.3527  152.0637 LP  0  0  0  0  0  0  0  0  0  0  0  0  # atno 17342 bound_to 10162
  140.2662  144.4013  150.6167 LP  0  0  0  0  0  0  0  0  0  0  0  0  # atno 17343 bound_to 10162
  157.5097  131.0924  151.0214 LP  0  0  0  0  0  0  0  0  0  0  0  0  # atno 17370 bound_to 10713
  157.0573  130.5811  149.5380 LP  0  0  0  0  0  0  0  0  0  0  0  0  # atno 17371 bound_to 10713
  141.1813  133.8408  157.1248 LP  0  0  0  0  0  0  0  0  0  0  0  0  # atno 17394 bound_to 11000
  140.0252  134.9927  157.0672 LP  0  0  0  0  0  0  0  0  0  0  0  0  # atno 17395 bound_to 11000

$$$$
