#       Name:                AV-unprocessed.smi:3006
#       Creating user name   scv26
#       Creation time:       Fri Mar 27 16:37:46 2020


#       File generated by GOLD software.
#

@<TRIPOS>MOLECULE
AV-unprocessed.smi:3006
    48    49     1
SMALL
NO_CHARGES


@<TRIPOS>ATOM
      1 ****        -7.1804   3.0092  -0.9824 C.3            1 S1                 0.0000
      2 ****        -6.0896   2.6095  -0.0491 C.2            1 S1                 0.0000
      3 ****        -4.9229   2.1035  -0.4565 N.2            1 S1                 0.0000
      4 ****        -4.0676   1.7976   0.6070 C.2            1 S1                 0.0000
      5 ****        -2.7153   1.2115   0.3361 C.3            1 S1                 0.0000
      6 ****        -2.7924  -0.2792  -0.0320 C.3            1 S1                 0.0000
      7 ****        -1.4701  -0.8353  -0.2949 N.am           1 S1                 0.0000
      8 ****        -0.6125  -1.2740   0.6420 C.2            1 S1                 0.0000
      9 ****        -0.8905  -1.2632   1.8421 O.2            1 S1                 0.0000
     10 ****         0.5491  -1.7745   0.1538 N.am           1 S1                 0.0000
     11 ****         1.0979  -1.5698  -1.1912 C.3            1 S1                 0.0000
     12 ****         2.3060  -0.6180  -1.0940 C.3            1 S1                 0.0000
     13 ****         3.3537  -1.1668  -0.2153 N.3            1 S1                 0.0000
     14 ****         4.5150  -0.2579  -0.1273 C.3            1 S1                 0.0000
     15 ****         5.1504  -0.0100  -1.5131 C.3            1 S1                 0.0000
     16 ****         5.6077  -0.8047   0.8176 C.3            1 S1                 0.0000
     17 ****         2.7715  -1.4365   1.1108 C.3            1 S1                 0.0000
     18 ****         1.5653  -2.3886   1.0072 C.3            1 S1                 0.0000
     19 ****        -4.6078   2.0863   1.8356 C.2            1 S1                 0.0000
     20 ****        -6.2132   2.7494   1.7006 S.3            1 S1                 0.0000
     21 ****        -6.7726   3.5785  -1.8179 H              1 S1                 0.0000
     22 ****        -7.9142   3.6271  -0.4648 H              1 S1                 0.0000
     23 ****        -7.6808   2.1225  -1.3717 H              1 S1                 0.0000
     24 ****        -2.2283   1.7609  -0.4705 H              1 S1                 0.0000
     25 ****        -2.0774   1.3394   1.2115 H              1 S1                 0.0000
     26 ****        -3.2873  -0.8433   0.7605 H              1 S1                 0.0000
     27 ****        -3.3975  -0.4109  -0.9295 H              1 S1                 0.0000
     28 ****        -1.1836  -0.8932  -1.2614 H              1 S1                 0.0000
     29 ****         1.4084  -2.5302  -1.6058 H              1 S1                 0.0000
     30 ****         0.3782  -1.1648  -1.9023 H              1 S1                 0.0000
     31 ****         2.6854  -0.4769  -2.1042 H              1 S1                 0.0000
     32 ****         1.9871   0.3600  -0.7294 H              1 S1                 0.0000
     33 ****         4.1769   0.7012   0.2682 H              1 S1                 0.0000
     34 ****         6.0875   0.5398  -1.4211 H              1 S1                 0.0000
     35 ****         4.5157   0.5921  -2.1622 H              1 S1                 0.0000
     36 ****         5.3714  -0.9480  -2.0237 H              1 S1                 0.0000
     37 ****         6.5151  -0.2032   0.7560 H              1 S1                 0.0000
     38 ****         5.8782  -1.8305   0.5647 H              1 S1                 0.0000
     39 ****         5.3041  -0.7776   1.8637 H              1 S1                 0.0000
     40 ****         3.5018  -1.9139   1.7618 H              1 S1                 0.0000
     41 ****         2.4746  -0.5008   1.5873 H              1 S1                 0.0000
     42 ****         1.1889  -2.6189   2.0049 H              1 S1                 0.0000
     43 ****         1.8728  -3.3446   0.5801 H              1 S1                 0.0000
     44 ****        -4.1607   1.9471   2.8088 H              1 S1                 0.0000
     45 ****        -4.6864   1.9590  -1.4173 LP             1 S1                 0.0000
     46 ****        -1.7791  -0.9201   2.1464 LP             1 S1                 0.0000
     47 ****        -0.2275  -1.5976   2.5119 LP             1 S1                 0.0000
     48 ****         3.6947  -2.0236  -0.6022 LP             1 S1                 0.0000
@<TRIPOS>BOND
    1    1    2 1     
    2    1   21 1     
    3    1   22 1     
    4    1   23 1     
    5    2   20 1     
    6    2    3 2     
    7    3    4 1     
    8    4    5 1     
    9    4   19 2     
   10    5    6 1     
   11    5   24 1     
   12    5   25 1     
   13    6    7 1     
   14    6   26 1     
   15    6   27 1     
   16    7    8 am    
   17    7   28 1     
   18    8    9 2     
   19    8   10 am    
   20   10   18 1     
   21   10   11 1     
   22   11   12 1     
   23   11   29 1     
   24   11   30 1     
   25   12   13 1     
   26   12   31 1     
   27   12   32 1     
   28   13   14 1     
   29   13   17 1     
   30   14   15 1     
   31   14   16 1     
   32   14   33 1     
   33   15   34 1     
   34   15   35 1     
   35   15   36 1     
   36   16   37 1     
   37   16   38 1     
   38   16   39 1     
   39   17   18 1     
   40   17   40 1     
   41   17   41 1     
   42   18   42 1     
   43   18   43 1     
   44   19   20 1     
   45   19   44 1     
   46    3   45 1     
   47    9   46 1     
   48    9   47 1     
   49   13   48 1     
@<TRIPOS>SUBSTRUCTURE
      1 S1             1
@<TRIPOS>SET
LONE_PAIRS      STATIC     ATOMS    <user>   **** ""
4 45 46 47 48
DONOR_HYDROGENS      STATIC     ATOMS    <user>   **** ""
1 28
ATOM$BLUE        STATIC     ATOMS    COLORGROUP SYSTEM
4 45 46 47 48
ATOM$RED        STATIC     ATOMS    COLORGROUP SYSTEM
1 28
