AV-unprocessed.smi:35|AV-procd|sdf|249|dock7
  -GOLD-   2262016 13D 1   1.00000     0.00000
 Structure written by MMmdl.
 29 30  0  0  0  0  0  0  0  0  1 V2000
  153.4143  138.2546  160.2069 O   0  0  0  0  0  0  0  0  0  0  0  0
  153.0682  138.3295  159.0300 C   0  0  0  0  0  0  0  0  0  0  0  0
  153.5070  137.3796  158.1028 N   0  0  0  0  0  0  0  0  0  0  0  0
  153.1826  137.3595  156.7444 C   0  0  0  0  0  0  0  0  0  0  0  0
  153.6173  136.4614  156.0251 O   0  0  0  0  0  0  0  0  0  0  0  0
  152.3457  138.3939  156.2673 N   0  0  0  0  0  0  0  0  0  0  0  0
  151.9543  138.4363  154.8082 C   0  0  2  0  0  0  0  0  0  0  0  0
  151.1329  139.5477  154.6091 O   0  0  0  0  0  0  0  0  0  0  0  0
  149.9862  139.1744  153.8548 C   0  0  2  0  0  0  0  0  0  0  0  0
  148.8358  140.1392  154.1818 C   0  0  0  0  0  0  0  0  0  0  0  0
  149.2202  141.4744  153.9328 O   0  0  0  0  0  0  0  0  0  0  0  0
  149.7473  137.7195  154.2673 C   0  0  1  0  0  0  0  0  0  0  0  0
  148.9688  136.9977  153.3311 O   0  0  0  0  0  0  0  0  0  0  0  0
  151.1649  137.1735  154.4216 C   0  0  1  0  0  0  0  0  0  0  0  0
  151.6655  136.6093  153.2226 O   0  0  0  0  0  0  0  0  0  0  0  0
  151.8786  139.3549  157.1533 C   0  0  0  0  0  0  0  0  0  0  0  0
  152.1994  139.3576  158.4680 C   0  0  0  0  0  0  0  0  0  0  0  0
  151.4276  140.8160  159.5641 Br  0  0  0  0  0  0  0  0  0  0  0  0
  154.1072  136.6432  158.4451 H   0  0  0  0  0  0  0  0  0  0  0  0
  152.8656  138.5802  154.2254 H   0  0  0  0  0  0  0  0  0  0  0  0
  150.2518  139.2319  152.7973 H   0  0  0  0  0  0  0  0  0  0  0  0
  147.9445  139.8983  153.6017 H   0  0  0  0  0  0  0  0  0  0  0  0
  148.5666  140.0537  155.2349 H   0  0  0  0  0  0  0  0  0  0  0  0
  149.6427  141.5131  153.0881 H   0  0  0  0  0  0  0  0  0  0  0  0
  149.2460  137.6904  155.2354 H   0  0  0  0  0  0  0  0  0  0  0  0
  149.2653  137.2201  152.4614 H   0  0  0  0  0  0  0  0  0  0  0  0
  151.2237  136.4180  155.2065 H   0  0  0  0  0  0  0  0  0  0  0  0
  151.4856  137.2065  152.5127 H   0  0  0  0  0  0  0  0  0  0  0  0
  151.2300  140.1374  156.7884 H   0  0  0  0  0  0  0  0  0  0  0  0
  1  2  2  0  0  0  0
  2 17  1  0  0  0  0
  2  3  1  0  0  0  0
  3 19  1  0  0  0  0
  3  4  1  0  0  0  0
  4  5  2  0  0  0  0
  4  6  1  0  0  0  0
  6  7  1  0  0  0  0
  6 16  1  0  0  0  0
  7 14  1  0  0  0  0
  7  8  1  0  0  0  0
  7 20  1  0  0  0  0
  8  9  1  0  0  0  0
  9 10  1  0  0  0  0
  9 12  1  0  0  0  0
  9 21  1  0  0  0  0
 10 11  1  0  0  0  0
 10 22  1  0  0  0  0
 10 23  1  0  0  0  0
 11 24  1  0  0  0  0
 12 13  1  0  0  0  0
 12 14  1  0  0  0  0
 12 25  1  0  0  0  0
 13 26  1  0  0  0  0
 14 15  1  0  0  0  0
 14 27  1  0  0  0  0
 15 28  1  0  0  0  0
 16 17  2  0  0  0  0
 16 29  1  0  0  0  0
 17 18  1  0  0  0  0
M  END
> <s_m_source_file>
AV-unprocessed.smi

> <i_m_source_file_index>
35

> <i_lp_mmshare_version>
43012

> <i_f3d_flags>
0

> <s_epik_input>
Tz1jMVtuSF1jKD1PKW4oW2NIXWMxQnIpW0NAQEhdMk9bQ0BASF0oW0NIMl1bT0hdKVtDQEBIXShbT0hdKVtDQEhdMltPSF0=

> <s_epik_cmdline>
J2VwaWtfcHl0aG9uJywgJy1waCcsICc3LjAnLCAnLXRuJywgJzgnLCAnLW1hJywgJzIwMCcsICctbWV0YWxfYmluZGluZycsICctaW1hZScsICc8aW5maWxlLm1hZT4nLCAnLW9tYWUnLCAnPG91dGZpbGUubWFlPic=

> <r_lp_tautomer_probability>
0.999537

> <r_epik_Ionization_Penalty>
0.10812

> <r_epik_Ionization_Penalty_Charging>
0.108119

> <r_epik_Ionization_Penalty_Neutral>
4.93006e-07

> <r_epik_State_Penalty>
0.0979238

> <r_epik_Charging_Adjusted_Penalty>
0.206043

> <i_epik_Tot_Q>
0

> <i_epik_Tot_abs_Q>
0

> <r_epik_Metal_State_Penalty>
3.07911

> <b_epik_Metal_Only>
0

> <s_epik_Chemistry_Notes>
This compound contains an acetal/aminal-like group ( X-CH(R)-Y where X, Y are N, S, or O) that may be acid/base labile, releasing an aldehyde.

> <s_lp_Force_Field>
OPLS_2005

> <r_lp_Energy>
30.5202

> <b_lp_Chiralities_Consistent>
1

> <s_lp_Variant>
AV-unprocessed.smi:35-3

> <Gold.Version>
5.8.1

> <Gold.Id.Protein>
6NUR|6NUR_protein|mol2

> <Gold.PLP.Fitness>
45.2129

> <Gold.PLP.PLP>
-29.1955

> <Gold.PLP.part.hbond>
-8.3282

> <Gold.PLP.part.metal>
0.0000

> <Gold.PLP.part.buried>
-2.3748

> <Gold.PLP.part.nonpolar>
-18.8641

> <Gold.PLP.part.repulsive>
0.1799

> <Gold.PLP.ligand.clash>
0.0000

> <Gold.PLP.ligand.torsion>
0.0232

> <Gold.PLP.Chemscore.Hbond>
5.3520

> <Gold.PLP.Chemscore.CHOScore>
0.0000

> <Gold.PLP.Chemscore.Metal>
0.0000

> <Gold.Chemscore.Hbonds>
donor molecule, donor type, donor heavy atom, donor atom, acceptor molecule, acceptor atom, score
      L1  H    11    24       P1  7957  0.03
      P1  H  7989  7998       L1     8  0.75
      P1  H 10752 10763       L1    15  0.90
      P1  H 10752 10764       L1     5  0.23

> <Gold.PLP.Chemscore.Internal.Correction>
0.0077

> <Gold.Rescore>
     Score         DG    S(hbond)    S(metal)    S(lipo)     H(rot)  DE(clash)    DE(int)     intcor
     13.78     -14.80       4.08        0.00      43.54       3.67       0.03       0.99       ----

> <Gold.Chemscore.Fitness>
13.7787

> <Gold.Chemscore.DG>
-14.8014

> <Gold.Chemscore.ZeroCoef>
-5.4800

> <Gold.Chemscore.Hbond>
4.0788

> <Gold.Chemscore.Metal>
0.0000

> <Gold.Chemscore.Lipo>
43.5367

> <Gold.Chemscore.Internal_Hbond>
0.0000

> <Gold.Chemscore.DEClash>
0.0285

> <Gold.Chemscore.DEInternal>
0.9942

> <Gold.Chemscore.Rot>
3.6701

> <Gold.Chemscore.Internal.Correction>
   9.000000E+99

> <Gold.Chemscore.Hbonds>
donor molecule, donor type, donor heavy atom, donor atom, acceptor molecule, acceptor atom, score
      L1  H    11    24       P1  7957  0.07
      L1  H    13    26       P1  7948  0.01
      L1  H    15    28       P1  7949  0.01
      P1  H  7989  7998       L1     8  0.09
      P1  H 10752 10763       L1    15  0.18
      P1  H 10752 10764       L1     5  0.23

> <Gold.Chemscore.Hbond.Weighted>
-13.6231

> <Gold.Chemscore.Metal.Weighted>
-0.0000

> <Gold.Chemscore.Lipo.Weighted>
-5.0938

> <Gold.Chemscore.Internal_Hbond.Weighted>
0.0000

> <Gold.Chemscore.DEClash.Weighted>
0.0285

> <Gold.Chemscore.DEInternal.Weighted>
0.9942

> <Gold.Chemscore.Rot.Weighted>
9.3955

> <Gold.Chemscore.Internal.Correction.Weighted>
   9.000000E+99

> <Gold.Protein.RotatedTorsions>
[ 6907 6896 6895 6894 ] final  120.30 input  -60.11 | X-H torsion
[ 7974 7965 7964 7962 ] final  -93.38 input  175.53 | X-H torsion
[ 8008 7997 7996 7995 ] final  170.24 input   59.86 | X-H torsion
[ 10167 10162 10161 10158 ] final  128.26 input  -65.29 | X-H torsion
[ 10718 10713 10712 10709 ] final -176.25 input   66.30 | X-H torsion
[ 10763 10752 10751 10750 ] final   19.56 input  -60.55 | X-H torsion
[ 11005 11000 10999 10996 ] final  159.49 input  -57.11 | X-H torsion

> <Gold.Protein.ActiveResidues>
 VAL166  LYS551  ARG553  GLY616  TRP617  ASP618  TYR619  PRO620  LYS621  CYS622 
 ASP623  PHE694  ASN695  SER759  ASP760  ASP761  ALA762  ILE779  LEU786  VAL792 
 PHE793  MET794  SER795  GLU796  ALA797  LYS798  CYS799  TRP800  GLU811  SER814 

> <Gold.Protein.RotatedAtoms>
  152.4408  133.7444  159.6658 H   0  0  0  0  0  0  0  0  0  0  0  0  # atno 6907 bound_to 6896
  150.8298  133.8099  159.3109 H   0  0  0  0  0  0  0  0  0  0  0  0  # atno 6908 bound_to 6896
  151.5756  135.1063  160.0057 H   0  0  0  0  0  0  0  0  0  0  0  0  # atno 6909 bound_to 6896
  145.3874  140.9524  143.2360 H   0  0  0  0  0  0  0  0  0  0  0  0  # atno 7974 bound_to 7965
  156.1384  140.1543  156.8959 H   0  0  0  0  0  0  0  0  0  0  0  0  # atno 8008 bound_to 7997
  154.4966  140.0836  156.7749 H   0  0  0  0  0  0  0  0  0  0  0  0  # atno 8009 bound_to 7997
  155.4125  140.3419  155.4267 H   0  0  0  0  0  0  0  0  0  0  0  0  # atno 8010 bound_to 7997
  139.5536  144.6832  151.4249 H   0  0  0  0  0  0  0  0  0  0  0  0  # atno 10167 bound_to 10162
  156.8119  130.9589  151.3115 H   0  0  0  0  0  0  0  0  0  0  0  0  # atno 10718 bound_to 10713
  153.1152  135.6706  153.9431 H   0  0  0  0  0  0  0  0  0  0  0  0  # atno 10763 bound_to 10752
  153.8963  135.3041  155.3449 H   0  0  0  0  0  0  0  0  0  0  0  0  # atno 10764 bound_to 10752
  154.7569  135.5007  153.9469 H   0  0  0  0  0  0  0  0  0  0  0  0  # atno 10765 bound_to 10752
  140.1967  134.8368  157.2972 H   0  0  0  0  0  0  0  0  0  0  0  0  # atno 11005 bound_to 11000
  144.8465  139.5389  143.6876 LP  0  0  0  0  0  0  0  0  0  0  0  0  # atno 17320 bound_to 7965
  146.2814  139.6887  142.9226 LP  0  0  0  0  0  0  0  0  0  0  0  0  # atno 17321 bound_to 7965
  140.6804  143.8094  150.7114 LP  0  0  0  0  0  0  0  0  0  0  0  0  # atno 17342 bound_to 10162
  140.1546  143.4328  152.2108 LP  0  0  0  0  0  0  0  0  0  0  0  0  # atno 17343 bound_to 10162
  157.6501  130.8877  149.9617 LP  0  0  0  0  0  0  0  0  0  0  0  0  # atno 17370 bound_to 10713
  156.1039  130.3654  150.0168 LP  0  0  0  0  0  0  0  0  0  0  0  0  # atno 17371 bound_to 10713
  140.2099  134.4151  155.7618 LP  0  0  0  0  0  0  0  0  0  0  0  0  # atno 17394 bound_to 11000
  141.2227  133.7113  156.8322 LP  0  0  0  0  0  0  0  0  0  0  0  0  # atno 17395 bound_to 11000

$$$$
