AV-unprocessed.smi:1328|AV-procd|sdf|5482|dock4
  -GOLD-   22720 5 53D 1   1.00000     0.00000
 Structure written by MMmdl.
 38 39  0  0  0  0  0  0  0  0  1 V2000
  153.2991  137.6991  156.8308 C   0  0  0  0  0  0  0  0  0  0  0  0
  151.9837  137.8030  156.1132 C   0  0  0  0  0  0  0  0  0  0  0  0
  151.4329  136.7164  155.5985 N   0  0  0  0  0  0  0  0  0  0  0  0
  150.2352  137.1355  155.0109 O   0  0  0  0  0  0  0  0  0  0  0  0
  150.1118  138.4746  155.1958 C   0  0  0  0  0  0  0  0  0  0  0  0
  148.8853  139.1190  154.6438 C   0  0  0  0  0  0  0  0  0  0  0  0
  151.1874  138.9621  155.8856 C   0  0  0  0  0  0  0  0  0  0  0  0
  151.4657  140.3802  156.3109 C   0  0  0  0  0  0  0  0  0  0  0  0
  151.5650  140.4466  157.8348 C   0  0  0  0  0  0  0  0  0  0  0  0
  151.0916  139.5415  158.5214 O   0  0  0  0  0  0  0  0  0  0  0  0
  152.1906  141.5192  158.3450 N   0  0  0  0  0  0  0  0  0  0  0  0
  152.4521  141.7704  159.7607 C   0  0  1  0  0  0  0  0  0  0  0  0
  153.9641  141.6603  160.0042 C   0  0  0  0  0  0  0  0  0  0  0  0
  151.9040  143.1504  160.1795 C   0  0  1  0  0  0  0  0  0  0  0  0
  152.4279  144.3340  159.3640 C   0  0  0  0  0  0  0  0  0  0  0  0
  151.3445  145.3877  159.5279 C   0  0  0  0  0  0  0  0  0  0  0  0
  150.1319  144.5993  160.0308 C   0  0  0  0  0  0  0  0  0  0  0  0
  150.5079  143.2318  159.9392 O   0  0  0  0  0  0  0  0  0  0  0  0
  154.1063  138.1065  156.2223 H   0  0  0  0  0  0  0  0  0  0  0  0
  153.5499  136.6644  157.0665 H   0  0  0  0  0  0  0  0  0  0  0  0
  153.2786  138.2525  157.7695 H   0  0  0  0  0  0  0  0  0  0  0  0
  148.1972  139.3846  155.4465 H   0  0  0  0  0  0  0  0  0  0  0  0
  148.3640  138.4506  153.9582 H   0  0  0  0  0  0  0  0  0  0  0  0
  149.1380  140.0291  154.0998 H   0  0  0  0  0  0  0  0  0  0  0  0
  152.3855  140.7564  155.8605 H   0  0  0  0  0  0  0  0  0  0  0  0
  150.6737  141.0556  155.9859 H   0  0  0  0  0  0  0  0  0  0  0  0
  152.5371  142.2104  157.6957 H   0  0  0  0  0  0  0  0  0  0  0  0
  151.9658  141.0035  160.3663 H   0  0  0  0  0  0  0  0  0  0  0  0
  154.2048  141.7996  161.0583 H   0  0  0  0  0  0  0  0  0  0  0  0
  154.5146  142.4108  159.4359 H   0  0  0  0  0  0  0  0  0  0  0  0
  154.3386  140.6791  159.7106 H   0  0  0  0  0  0  0  0  0  0  0  0
  152.0876  143.3251  161.2417 H   0  0  0  0  0  0  0  0  0  0  0  0
  153.4076  144.6771  159.6973 H   0  0  0  0  0  0  0  0  0  0  0  0
  152.5079  144.0581  158.3115 H   0  0  0  0  0  0  0  0  0  0  0  0
  151.6350  146.1459  160.2557 H   0  0  0  0  0  0  0  0  0  0  0  0
  151.1401  145.8907  158.5823 H   0  0  0  0  0  0  0  0  0  0  0  0
  149.9205  144.8458  161.0722 H   0  0  0  0  0  0  0  0  0  0  0  0
  149.2332  144.7955  159.4457 H   0  0  0  0  0  0  0  0  0  0  0  0
  1  2  1  0  0  0  0
  1 19  1  0  0  0  0
  1 20  1  0  0  0  0
  1 21  1  0  0  0  0
  2  7  1  0  0  0  0
  2  3  2  0  0  0  0
  3  4  1  0  0  0  0
  4  5  1  0  0  0  0
  5  6  1  0  0  0  0
  5  7  2  0  0  0  0
  6 22  1  0  0  0  0
  6 23  1  0  0  0  0
  6 24  1  0  0  0  0
  7  8  1  0  0  0  0
  8  9  1  0  0  0  0
  8 25  1  0  0  0  0
  8 26  1  0  0  0  0
  9 10  2  0  0  0  0
  9 11  1  0  0  0  0
 11 12  1  0  0  0  0
 11 27  1  0  0  0  0
 12 13  1  0  0  0  0
 12 14  1  0  0  0  0
 12 28  1  0  0  0  0
 13 29  1  0  0  0  0
 13 30  1  0  0  0  0
 13 31  1  0  0  0  0
 14 18  1  0  0  0  0
 14 15  1  0  0  0  0
 14 32  1  0  0  0  0
 15 16  1  0  0  0  0
 15 33  1  0  0  0  0
 15 34  1  0  0  0  0
 16 17  1  0  0  0  0
 16 35  1  0  0  0  0
 16 36  1  0  0  0  0
 17 18  1  0  0  0  0
 17 37  1  0  0  0  0
 17 38  1  0  0  0  0
M  END
> <s_m_source_file>
AV-unprocessed.smi

> <i_m_source_file_index>
1328

> <i_lp_mmshare_version>
43012

> <i_f3d_flags>
0

> <s_epik_input>
W0NIM11jMW5vYyhbQ0gzXSljMVtDSDJdQyg9TylbTkhdW0NASF0oW0NIM10pW0NAQEhdMltDSDJdW0NIMl1bQ0gyXU8y

> <s_epik_cmdline>
J2VwaWtfcHl0aG9uJywgJy1waCcsICc3LjAnLCAnLXRuJywgJzgnLCAnLW1hJywgJzIwMCcsICctbWV0YWxfYmluZGluZycsICctaW1hZScsICc8aW5maWxlLm1hZT4nLCAnLW9tYWUnLCAnPG91dGZpbGUubWFlPic=

> <r_lp_tautomer_probability>
1

> <r_epik_Ionization_Penalty>
2.66156e-08

> <r_epik_Ionization_Penalty_Charging>
0

> <r_epik_Ionization_Penalty_Neutral>
2.66156e-08

> <r_epik_State_Penalty>
-0

> <r_epik_Charging_Adjusted_Penalty>
0

> <i_epik_Tot_Q>
0

> <i_epik_Tot_abs_Q>
0

> <r_epik_Metal_State_Penalty>
-0

> <b_epik_Metal_Only>
0

> <s_lp_Force_Field>
OPLS_2005

> <r_lp_Energy>
12.2386

> <b_lp_Chiralities_Consistent>
1

> <s_lp_Variant>
AV-unprocessed.smi:1328-4

> <Gold.Version>
5.8.1

> <Gold.Id.Protein>
6NUR|6NUR_protein|mol2

> <Gold.PLP.Fitness>
38.5821

> <Gold.PLP.PLP>
-36.2056

> <Gold.PLP.part.hbond>
-2.0000

> <Gold.PLP.part.metal>
0.0000

> <Gold.PLP.part.buried>
-3.9415

> <Gold.PLP.part.nonpolar>
-31.3342

> <Gold.PLP.part.repulsive>
0.4620

> <Gold.PLP.ligand.clash>
0.0000

> <Gold.PLP.ligand.torsion>
0.3311

> <Gold.PLP.Chemscore.Hbond>
1.0000

> <Gold.PLP.Chemscore.CHOScore>
0.0000

> <Gold.PLP.Chemscore.Metal>
0.0000

> <Gold.Chemscore.Hbonds>
donor molecule, donor type, donor heavy atom, donor atom, acceptor molecule, acceptor atom, score
      P1  H 10752 10763       L1     3  0.65

> <Gold.PLP.Chemscore.Internal.Correction>
0.0388

> <Gold.Rescore>
     Score         DG    S(hbond)    S(metal)    S(lipo)     H(rot)  DE(clash)    DE(int)     intcor
     15.67     -16.61       0.88        0.00     103.23       1.52       0.60       0.34       ----

> <Gold.Chemscore.Fitness>
15.6667

> <Gold.Chemscore.DG>
-16.6136

> <Gold.Chemscore.ZeroCoef>
-5.4800

> <Gold.Chemscore.Hbond>
0.8793

> <Gold.Chemscore.Metal>
0.0000

> <Gold.Chemscore.Lipo>
103.2278

> <Gold.Chemscore.Internal_Hbond>
0.0000

> <Gold.Chemscore.DEClash>
0.6025

> <Gold.Chemscore.DEInternal>
0.3444

> <Gold.Chemscore.Rot>
1.5159

> <Gold.Chemscore.Internal.Correction>
   9.000000E+99

> <Gold.Chemscore.Hbonds>
donor molecule, donor type, donor heavy atom, donor atom, acceptor molecule, acceptor atom, score
      P1  H 10752 10763       L1     3  0.43

> <Gold.Chemscore.Hbond.Weighted>
-2.9367

> <Gold.Chemscore.Metal.Weighted>
-0.0000

> <Gold.Chemscore.Lipo.Weighted>
-12.0777

> <Gold.Chemscore.Internal_Hbond.Weighted>
0.0000

> <Gold.Chemscore.DEClash.Weighted>
0.6025

> <Gold.Chemscore.DEInternal.Weighted>
0.3444

> <Gold.Chemscore.Rot.Weighted>
3.8807

> <Gold.Chemscore.Internal.Correction.Weighted>
   9.000000E+99

> <Gold.Protein.RotatedTorsions>
[ 6907 6896 6895 6894 ] final  105.50 input  -60.11 | X-H torsion
[ 7974 7965 7964 7962 ] final   16.54 input  175.53 | X-H torsion
[ 8008 7997 7996 7995 ] final  118.41 input   59.86 | X-H torsion
[ 10167 10162 10161 10158 ] final  -98.15 input  -65.29 | X-H torsion
[ 10718 10713 10712 10709 ] final  145.31 input   66.30 | X-H torsion
[ 10763 10752 10751 10750 ] final   51.57 input  -60.55 | X-H torsion
[ 11005 11000 10999 10996 ] final -103.98 input  -57.11 | X-H torsion

> <Gold.Protein.ActiveResidues>
 VAL166  LYS551  ARG553  GLY616  TRP617  ASP618  TYR619  PRO620  LYS621  CYS622 
 ASP623  PHE694  ASN695  SER759  ASP760  ASP761  ALA762  ILE779  LEU786  VAL792 
 PHE793  MET794  SER795  GLU796  ALA797  LYS798  CYS799  TRP800  GLU811  SER814 

> <Gold.Protein.RotatedAtoms>
  152.5228  133.9519  159.7675 H   0  0  0  0  0  0  0  0  0  0  0  0  # atno 6907 bound_to 6896
  150.9827  133.6220  159.2727 H   0  0  0  0  0  0  0  0  0  0  0  0  # atno 6908 bound_to 6896
  151.3392  135.0865  159.9418 H   0  0  0  0  0  0  0  0  0  0  0  0  # atno 6909 bound_to 6896
  146.2246  139.8732  142.8583 H   0  0  0  0  0  0  0  0  0  0  0  0  # atno 7974 bound_to 7965
  156.2545  140.2875  156.0830 H   0  0  0  0  0  0  0  0  0  0  0  0  # atno 8008 bound_to 7997
  155.1545  140.0398  157.2846 H   0  0  0  0  0  0  0  0  0  0  0  0  # atno 8009 bound_to 7997
  154.6436  140.2528  155.7300 H   0  0  0  0  0  0  0  0  0  0  0  0  # atno 8010 bound_to 7997
  140.2760  143.3313  152.0488 H   0  0  0  0  0  0  0  0  0  0  0  0  # atno 10167 bound_to 10162
  157.3468  131.0944  151.1034 H   0  0  0  0  0  0  0  0  0  0  0  0  # atno 10718 bound_to 10713
  152.9786  135.5841  154.4437 H   0  0  0  0  0  0  0  0  0  0  0  0  # atno 10763 bound_to 10752
  154.4035  135.2769  155.2083 H   0  0  0  0  0  0  0  0  0  0  0  0  # atno 10764 bound_to 10752
  154.3904  135.6126  153.5894 H   0  0  0  0  0  0  0  0  0  0  0  0  # atno 10765 bound_to 10752
  141.1121  133.8685  157.1554 H   0  0  0  0  0  0  0  0  0  0  0  0  # atno 11005 bound_to 11000
  145.2587  141.0069  143.3839 LP  0  0  0  0  0  0  0  0  0  0  0  0  # atno 17320 bound_to 7965
  144.9316  139.4292  143.6492 LP  0  0  0  0  0  0  0  0  0  0  0  0  # atno 17321 bound_to 7965
  139.4975  144.6624  151.6434 LP  0  0  0  0  0  0  0  0  0  0  0  0  # atno 17342 bound_to 10162
  140.5851  143.9878  150.6291 LP  0  0  0  0  0  0  0  0  0  0  0  0  # atno 17343 bound_to 10162
  157.2225  130.6488  149.5817 LP  0  0  0  0  0  0  0  0  0  0  0  0  # atno 17370 bound_to 10713
  155.9715  130.4624  150.6146 LP  0  0  0  0  0  0  0  0  0  0  0  0  # atno 17371 bound_to 10713
  140.0021  135.0023  157.0213 LP  0  0  0  0  0  0  0  0  0  0  0  0  # atno 17394 bound_to 11000
  140.4746  134.1351  155.7208 LP  0  0  0  0  0  0  0  0  0  0  0  0  # atno 17395 bound_to 11000

$$$$
