AV-unprocessed.smi:2739|AV-procd|sdf|10550|dock5
  -GOLD-   2272015 03D 1   1.00000     0.00000
 Structure written by MMmdl.
 35 35  0  0  0  0  0  0  0  0  1 V2000
  152.4929  143.2909  161.9029 C   0  0  0  0  0  0  0  0  0  0  0  0
  153.4400  142.1385  161.5391 C   0  0  0  0  0  0  0  0  0  0  0  0
  153.5910  141.9169  160.0225 C   0  0  2  0  0  0  0  0  0  0  0  0
  153.3845  143.2217  159.2372 C   0  0  0  0  0  0  0  0  0  0  0  0
  152.6407  140.9083  159.5606 N   0  0  0  0  0  0  0  0  0  0  0  0
  152.9544  139.7927  158.8834 C   0  0  0  0  0  0  0  0  0  0  0  0
  154.1068  139.4713  158.5946 O   0  0  0  0  0  0  0  0  0  0  0  0
  151.7842  138.9104  158.4491 C   0  0  0  0  0  0  0  0  0  0  0  0
  151.4981  139.0961  157.0383 N   0  0  0  0  0  0  0  0  0  0  0  0
  152.3157  138.8399  155.9587 C   0  0  0  0  0  0  0  0  0  0  0  0
  151.6232  139.1876  154.8350 C   0  0  0  0  0  0  0  0  0  0  0  0
  150.3722  139.6584  155.3301 C   0  0  0  0  0  0  0  0  0  0  0  0
  149.1917  140.1802  154.5533 C   0  0  2  0  0  0  0  0  0  0  0  0
  148.2293  139.0495  154.1660 C   0  0  0  0  0  0  0  0  0  0  0  0
  149.5856  140.8514  153.3745 O   0  0  0  0  0  0  0  0  0  0  0  0
  150.3035  139.5950  156.6525 N   0  0  0  0  0  0  0  0  0  0  0  0
  152.3822  143.3729  162.9843 H   0  0  0  0  0  0  0  0  0  0  0  0
  151.5006  143.1321  161.4794 H   0  0  0  0  0  0  0  0  0  0  0  0
  152.8652  144.2479  161.5368 H   0  0  0  0  0  0  0  0  0  0  0  0
  154.4182  142.3206  161.9862 H   0  0  0  0  0  0  0  0  0  0  0  0
  153.0635  141.2234  161.9979 H   0  0  0  0  0  0  0  0  0  0  0  0
  154.6080  141.5660  159.8376 H   0  0  0  0  0  0  0  0  0  0  0  0
  154.0915  143.9878  159.5560 H   0  0  0  0  0  0  0  0  0  0  0  0
  152.3780  143.6163  159.3817 H   0  0  0  0  0  0  0  0  0  0  0  0
  153.5305  143.0663  158.1677 H   0  0  0  0  0  0  0  0  0  0  0  0
  151.6643  141.0860  159.7469 H   0  0  0  0  0  0  0  0  0  0  0  0
  152.0254  137.8611  158.6241 H   0  0  0  0  0  0  0  0  0  0  0  0
  150.8935  139.1383  159.0375 H   0  0  0  0  0  0  0  0  0  0  0  0
  153.3117  138.4398  156.0797 H   0  0  0  0  0  0  0  0  0  0  0  0
  151.9602  139.1191  153.8113 H   0  0  0  0  0  0  0  0  0  0  0  0
  148.6491  140.9047  155.1619 H   0  0  0  0  0  0  0  0  0  0  0  0
  147.8513  138.5358  155.0502 H   0  0  0  0  0  0  0  0  0  0  0  0
  148.7224  138.3081  153.5362 H   0  0  0  0  0  0  0  0  0  0  0  0
  147.3695  139.4349  153.6171 H   0  0  0  0  0  0  0  0  0  0  0  0
  149.4353  140.2760  152.6400 H   0  0  0  0  0  0  0  0  0  0  0  0
  1  2  1  0  0  0  0
  1 17  1  0  0  0  0
  1 18  1  0  0  0  0
  1 19  1  0  0  0  0
  2  3  1  0  0  0  0
  2 20  1  0  0  0  0
  2 21  1  0  0  0  0
  3  4  1  0  0  0  0
  3  5  1  0  0  0  0
  3 22  1  0  0  0  0
  4 23  1  0  0  0  0
  4 24  1  0  0  0  0
  4 25  1  0  0  0  0
  5  6  1  0  0  0  0
  5 26  1  0  0  0  0
  6  7  2  0  0  0  0
  6  8  1  0  0  0  0
  8  9  1  0  0  0  0
  8 27  1  0  0  0  0
  8 28  1  0  0  0  0
  9 16  1  0  0  0  0
  9 10  1  0  0  0  0
 10 11  2  0  0  0  0
 10 29  1  0  0  0  0
 11 12  1  0  0  0  0
 11 30  1  0  0  0  0
 12 13  1  0  0  0  0
 12 16  2  0  0  0  0
 13 14  1  0  0  0  0
 13 15  1  0  0  0  0
 13 31  1  0  0  0  0
 14 32  1  0  0  0  0
 14 33  1  0  0  0  0
 14 34  1  0  0  0  0
 15 35  1  0  0  0  0
M  END
> <s_m_source_file>
AV-unprocessed.smi

> <i_m_source_file_index>
2739

> <i_lp_mmshare_version>
43012

> <i_f3d_flags>
0

> <s_epik_input>
W0NIM11bQ0gyXVtDQEhdKFtDSDNdKVtOSF1DKD1PKVtDSDJdbjFbY0hdW2NIXWMobjEpW0NASF0oW0NIM10pW09IXQ==

> <s_epik_cmdline>
J2VwaWtfcHl0aG9uJywgJy1waCcsICc3LjAnLCAnLXRuJywgJzgnLCAnLW1hJywgJzIwMCcsICctbWV0YWxfYmluZGluZycsICctaW1hZScsICc8aW5maWxlLm1hZT4nLCAnLW9tYWUnLCAnPG91dGZpbGUubWFlPic=

> <r_lp_tautomer_probability>
1

> <r_epik_Ionization_Penalty>
5.22246e-06

> <r_epik_Ionization_Penalty_Charging>
0

> <r_epik_Ionization_Penalty_Neutral>
5.22246e-06

> <r_epik_State_Penalty>
-0

> <r_epik_Charging_Adjusted_Penalty>
0

> <i_epik_Tot_Q>
0

> <i_epik_Tot_abs_Q>
0

> <r_epik_Metal_State_Penalty>
-0

> <b_epik_Metal_Only>
0

> <s_lp_Force_Field>
OPLS_2005

> <r_lp_Energy>
0.862384

> <b_lp_Chiralities_Consistent>
1

> <s_lp_Variant>
AV-unprocessed.smi:2739-1

> <Gold.Version>
5.8.1

> <Gold.Id.Protein>
6NUR|6NUR_protein|mol2

> <Gold.PLP.Fitness>
41.5160

> <Gold.PLP.PLP>
-35.4382

> <Gold.PLP.part.hbond>
-3.4037

> <Gold.PLP.part.metal>
0.0000

> <Gold.PLP.part.buried>
-3.8423

> <Gold.PLP.part.nonpolar>
-28.4745

> <Gold.PLP.part.repulsive>
0.1249

> <Gold.PLP.ligand.clash>
0.0000

> <Gold.PLP.ligand.torsion>
1.4449

> <Gold.PLP.Chemscore.Hbond>
2.9776

> <Gold.PLP.Chemscore.CHOScore>
0.0000

> <Gold.PLP.Chemscore.Metal>
0.0000

> <Gold.Chemscore.Hbonds>
donor molecule, donor type, donor heavy atom, donor atom, acceptor molecule, acceptor atom, score
      L1  H    15    35       P1  7957  0.87
      P1  H  7989  7998       L1    15  0.27
      P1  H  7997  8008       L1     7  1.00
      P1  H  8011  8017       L1    15  0.75

> <Gold.PLP.Chemscore.Internal.Correction>
0.0347

> <Gold.Rescore>
     Score         DG    S(hbond)    S(metal)    S(lipo)     H(rot)  DE(clash)    DE(int)     intcor
     15.57     -17.01       2.24        0.00      85.77       2.34       0.00       1.43       ----

> <Gold.Chemscore.Fitness>
15.5700

> <Gold.Chemscore.DG>
-17.0059

> <Gold.Chemscore.ZeroCoef>
-5.4800

> <Gold.Chemscore.Hbond>
2.2436

> <Gold.Chemscore.Metal>
0.0000

> <Gold.Chemscore.Lipo>
85.7697

> <Gold.Chemscore.Internal_Hbond>
0.0000

> <Gold.Chemscore.DEClash>
0.0025

> <Gold.Chemscore.DEInternal>
1.4334

> <Gold.Chemscore.Rot>
2.3448

> <Gold.Chemscore.Internal.Correction>
   9.000000E+99

> <Gold.Chemscore.Hbonds>
donor molecule, donor type, donor heavy atom, donor atom, acceptor molecule, acceptor atom, score
      L1  H    15    35       P1  7957  0.82
      P1  H  7989  7998       L1    15  0.05
      P1  H  7997  8008       L1     7  1.00
      P1  H  8011  8017       L1    15  0.09

> <Gold.Chemscore.Hbond.Weighted>
-7.4936

> <Gold.Chemscore.Metal.Weighted>
-0.0000

> <Gold.Chemscore.Lipo.Weighted>
-10.0351

> <Gold.Chemscore.Internal_Hbond.Weighted>
0.0000

> <Gold.Chemscore.DEClash.Weighted>
0.0025

> <Gold.Chemscore.DEInternal.Weighted>
1.4334

> <Gold.Chemscore.Rot.Weighted>
6.0027

> <Gold.Chemscore.Internal.Correction.Weighted>
   9.000000E+99

> <Gold.Protein.RotatedTorsions>
[ 6907 6896 6895 6894 ] final   74.95 input  -60.11 | X-H torsion
[ 7974 7965 7964 7962 ] final   23.87 input  175.53 | X-H torsion
[ 8008 7997 7996 7995 ] final -114.03 input   59.86 | X-H torsion
[ 10167 10162 10161 10158 ] final  -39.42 input  -65.29 | X-H torsion
[ 10718 10713 10712 10709 ] final  -56.66 input   66.30 | X-H torsion
[ 10763 10752 10751 10750 ] final  135.19 input  -60.55 | X-H torsion
[ 11005 11000 10999 10996 ] final  -23.10 input  -57.11 | X-H torsion

> <Gold.Protein.ActiveResidues>
 VAL166  LYS551  ARG553  GLY616  TRP617  ASP618  TYR619  PRO620  LYS621  CYS622 
 ASP623  PHE694  ASN695  SER759  ASP760  ASP761  ALA762  ILE779  LEU786  VAL792 
 PHE793  MET794  SER795  GLU796  ALA797  LYS798  CYS799  TRP800  GLU811  SER814 

> <Gold.Protein.RotatedAtoms>
  152.5002  134.4194  159.9475 H   0  0  0  0  0  0  0  0  0  0  0  0  # atno 6907 bound_to 6896
  151.4166  133.3705  159.2758 H   0  0  0  0  0  0  0  0  0  0  0  0  # atno 6908 bound_to 6896
  150.9253  134.8692  159.7575 H   0  0  0  0  0  0  0  0  0  0  0  0  # atno 6909 bound_to 6896
  146.1964  139.7684  142.8794 H   0  0  0  0  0  0  0  0  0  0  0  0  # atno 7974 bound_to 7965
  155.0300  140.0393  157.2470 H   0  0  0  0  0  0  0  0  0  0  0  0  # atno 8008 bound_to 7997
  154.7304  140.2729  155.6437 H   0  0  0  0  0  0  0  0  0  0  0  0  # atno 8009 bound_to 7997
  156.2840  140.2685  156.2003 H   0  0  0  0  0  0  0  0  0  0  0  0  # atno 8010 bound_to 7997
  140.7064  143.3215  151.2780 H   0  0  0  0  0  0  0  0  0  0  0  0  # atno 10167 bound_to 10162
  156.1271  130.4162  150.0336 H   0  0  0  0  0  0  0  0  0  0  0  0  # atno 10718 bound_to 10713
  153.8359  135.3097  155.3422 H   0  0  0  0  0  0  0  0  0  0  0  0  # atno 10763 bound_to 10752
  154.7953  135.4759  154.0150 H   0  0  0  0  0  0  0  0  0  0  0  0  # atno 10764 bound_to 10752
  153.1605  135.6860  153.8840 H   0  0  0  0  0  0  0  0  0  0  0  0  # atno 10765 bound_to 10752
  140.8720  133.7714  156.0198 H   0  0  0  0  0  0  0  0  0  0  0  0  # atno 11005 bound_to 11000
  145.3628  141.0329  143.3275 LP  0  0  0  0  0  0  0  0  0  0  0  0  # atno 17320 bound_to 7965
  144.8590  139.5206  143.6821 LP  0  0  0  0  0  0  0  0  0  0  0  0  # atno 17321 bound_to 7965
  139.6671  144.0086  152.2730 LP  0  0  0  0  0  0  0  0  0  0  0  0  # atno 17342 bound_to 10162
  139.9672  144.6518  150.8023 LP  0  0  0  0  0  0  0  0  0  0  0  0  # atno 17343 bound_to 10162
  156.8258  130.9375  151.3639 LP  0  0  0  0  0  0  0  0  0  0  0  0  # atno 17370 bound_to 10713
  157.6452  130.8838  149.9524 LP  0  0  0  0  0  0  0  0  0  0  0  0  # atno 17371 bound_to 10713
  140.8562  134.2895  157.5254 LP  0  0  0  0  0  0  0  0  0  0  0  0  # atno 17394 bound_to 11000
  139.8713  134.9494  156.4024 LP  0  0  0  0  0  0  0  0  0  0  0  0  # atno 17395 bound_to 11000

$$$$
