#       Name:                AV-unprocessed.smi:2727
#       Creating user name   scv26
#       Creation time:       Fri Mar 27 14:56:25 2020


#       File generated by GOLD software.
#

@<TRIPOS>MOLECULE
AV-unprocessed.smi:2727
    47    48     1
SMALL
NO_CHARGES


@<TRIPOS>ATOM
      1 ****        -1.9684   2.2963  -1.8381 O.2            1 S1                 0.0000
      2 ****        -2.4413   1.1646  -1.9474 C.2            1 S1                 0.0000
      3 ****        -1.6936   0.0526  -2.0022 N.am           1 S1                 0.0000
      4 ****        -0.2361   0.0223  -1.9494 C.3            1 S1                 0.0000
      5 ****         0.2831   0.1660  -0.5039 C.3            1 S1                 0.0000
      6 ****         1.8156   0.0847  -0.3849 C.2            1 S1                 0.0000
      7 ****         2.4950   0.0432  -1.4125 O.2            1 S1                 0.0000
      8 ****         2.3794   0.0591   0.8479 N.am           1 S1                 0.0000
      9 ****         3.8330  -0.0506   1.0231 C.3            1 S1                 0.0000
     10 ****         4.3235  -1.5098   0.9246 C.3            1 S1                 0.0000
     11 ****         3.3621  -2.5854   1.4765 C.3            1 S1                 0.0000
     12 ****         2.6587  -2.2243   2.7998 C.3            1 S1                 0.0000
     13 ****         1.3811  -1.3780   2.6137 C.3            1 S1                 0.0000
     14 ****         1.6339   0.0567   2.1149 C.3            1 S1                 0.0000
     15 ****        -3.7516   0.8777  -2.0260 N.am           1 S1                 0.0000
     16 ****        -4.8378   1.7884  -1.9910 C.2            1 S1                 0.0000
     17 ****        -4.7601   3.1143  -1.8667 N.2            1 S1                 0.0000
     18 ****        -6.0787   3.5451  -1.8819 C.2            1 S1                 0.0000
     19 ****        -6.8864   2.4452  -2.0163 C.2            1 S1                 0.0000
     20 ****        -6.1100   1.3194  -2.0867 O.3            1 S1                 0.0000
     21 ****        -2.1639  -0.8360  -2.0929 H              1 S1                 0.0000
     22 ****         0.0911  -0.9280  -2.3731 H              1 S1                 0.0000
     23 ****         0.1720   0.8067  -2.5898 H              1 S1                 0.0000
     24 ****        -0.0419   1.1230  -0.0942 H              1 S1                 0.0000
     25 ****        -0.1643  -0.6159   0.1098 H              1 S1                 0.0000
     26 ****         4.3610   0.5713   0.2981 H              1 S1                 0.0000
     27 ****         4.1279   0.3516   1.9927 H              1 S1                 0.0000
     28 ****         4.5350  -1.7464  -0.1188 H              1 S1                 0.0000
     29 ****         5.2812  -1.5838   1.4408 H              1 S1                 0.0000
     30 ****         2.6101  -2.8263   0.7239 H              1 S1                 0.0000
     31 ****         3.9324  -3.5042   1.6168 H              1 S1                 0.0000
     32 ****         2.3697  -3.1532   3.2925 H              1 S1                 0.0000
     33 ****         3.3536  -1.7313   3.4806 H              1 S1                 0.0000
     34 ****         0.7016  -1.8933   1.9344 H              1 S1                 0.0000
     35 ****         0.8567  -1.3221   3.5680 H              1 S1                 0.0000
     36 ****         2.1813   0.6121   2.8773 H              1 S1                 0.0000
     37 ****         0.6875   0.5897   2.0279 H              1 S1                 0.0000
     38 ****        -4.0002  -0.0960  -2.1175 H              1 S1                 0.0000
     39 ****        -6.3366   4.5903  -1.7964 H              1 S1                 0.0000
     40 ****        -7.9554   2.3027  -2.0734 H              1 S1                 0.0000
     41 ****        -0.9776   2.4213  -1.7853 LP             1 S1                 0.0000
     42 ****        -2.5751   3.0904  -1.8021 LP             1 S1                 0.0000
     43 ****         2.0495   0.0625  -2.3076 LP             1 S1                 0.0000
     44 ****         3.4917  -0.0097  -1.3511 LP             1 S1                 0.0000
     45 ****        -3.9352   3.6732  -1.7815 LP             1 S1                 0.0000
     46 ****        -6.3170   0.6975  -1.3315 LP             1 S1                 0.0000
     47 ****        -6.2494   0.8457  -2.9563 LP             1 S1                 0.0000
@<TRIPOS>BOND
    1    1    2 2     
    2    2    3 am    
    3    2   15 am    
    4    3    4 1     
    5    3   21 1     
    6    4    5 1     
    7    4   22 1     
    8    4   23 1     
    9    5    6 1     
   10    5   24 1     
   11    5   25 1     
   12    6    7 2     
   13    6    8 am    
   14    8   14 1     
   15    8    9 1     
   16    9   10 1     
   17    9   26 1     
   18    9   27 1     
   19   10   11 1     
   20   10   28 1     
   21   10   29 1     
   22   11   12 1     
   23   11   30 1     
   24   11   31 1     
   25   12   13 1     
   26   12   32 1     
   27   12   33 1     
   28   13   14 1     
   29   13   34 1     
   30   13   35 1     
   31   14   36 1     
   32   14   37 1     
   33   15   16 1     
   34   15   38 1     
   35   16   20 1     
   36   16   17 2     
   37   17   18 1     
   38   18   19 2     
   39   18   39 1     
   40   19   20 1     
   41   19   40 1     
   42    1   41 1     
   43    1   42 1     
   44    7   43 1     
   45    7   44 1     
   46   17   45 1     
   47   20   46 1     
   48   20   47 1     
@<TRIPOS>SUBSTRUCTURE
      1 S1             1
@<TRIPOS>SET
LONE_PAIRS      STATIC     ATOMS    <user>   **** ""
7 41 42 43 44 45 46 47
DONOR_HYDROGENS      STATIC     ATOMS    <user>   **** ""
2 21 38
ATOM$BLUE        STATIC     ATOMS    COLORGROUP SYSTEM
7 41 42 43 44 45 46 47
ATOM$RED        STATIC     ATOMS    COLORGROUP SYSTEM
2 21 38
