#       Name:                AV-unprocessed.smi:1927
#       Creating user name   scv26
#       Creation time:       Fri Mar 27 09:53:59 2020


#       File generated by GOLD software.
#

@<TRIPOS>MOLECULE
AV-unprocessed.smi:1927
    39    40     1
SMALL
NO_CHARGES


@<TRIPOS>ATOM
      1 ****        -2.3048  -3.3463   0.3008 C.3            1 S1                 0.0000
      2 ****        -3.1149  -2.0599   0.3050 C.ar           1 S1                 0.0000
      3 ****        -4.5174  -2.1265   0.1640 C.ar           1 S1                 0.0000
      4 ****        -5.2641  -0.9358   0.1665 C.ar           1 S1                 0.0000
      5 ****        -4.5720   0.2787   0.3113 C.ar           1 S1                 0.0000
      6 ****        -3.2323   0.3516   0.4474 N.ar           1 S1                 0.0000
      7 ****        -2.4966  -0.7884   0.4470 C.ar           1 S1                 0.0000
      8 ****        -1.0803  -0.7893   0.5899 N.am           1 S1                 0.0000
      9 ****        -0.2514   0.2596   0.7353 C.2            1 S1                 0.0000
     10 ****        -0.5924   1.4427   0.7498 O.2            1 S1                 0.0000
     11 ****         1.0206  -0.1463   0.8609 N.am           1 S1                 0.0000
     12 ****         2.1772   0.7271   1.0323 C.3            1 S1                 0.0000
     13 ****         2.9033   0.9816  -0.3013 C.3            1 S1                 0.0000
     14 ****         4.1577   1.8198  -0.1637 C.3            1 S1                 0.0000
     15 ****         4.3861   2.2935  -1.5965 C.3            1 S1                 0.0000
     16 ****         3.0969   2.3555  -2.2010 O.3            1 S1                 0.0000
     17 ****         2.1193   1.8075  -1.3226 C.3            1 S1                 0.0000
     18 ****        -2.9466  -4.2201   0.1838 H              1 S1                 0.0000
     19 ****        -1.7560  -3.4557   1.2367 H              1 S1                 0.0000
     20 ****        -1.5899  -3.3441  -0.5226 H              1 S1                 0.0000
     21 ****        -5.0186  -3.0772   0.0554 H              1 S1                 0.0000
     22 ****        -6.3387  -0.9532   0.0607 H              1 S1                 0.0000
     23 ****        -5.1075   1.2165   0.3203 H              1 S1                 0.0000
     24 ****        -0.6482  -1.7011   0.5881 H              1 S1                 0.0000
     25 ****         1.2051  -1.1385   0.8367 H              1 S1                 0.0000
     26 ****         1.8904   1.6697   1.5021 H              1 S1                 0.0000
     27 ****         2.8585   0.2371   1.7281 H              1 S1                 0.0000
     28 ****         3.1747   0.0271  -0.7558 H              1 S1                 0.0000
     29 ****         3.9736   2.6761   0.4872 H              1 S1                 0.0000
     30 ****         5.0041   1.2624   0.2386 H              1 S1                 0.0000
     31 ****         4.8917   3.2585  -1.6375 H              1 S1                 0.0000
     32 ****         4.9916   1.5712  -2.1453 H              1 S1                 0.0000
     33 ****         1.3831   1.2155  -1.8667 H              1 S1                 0.0000
     34 ****         1.5964   2.6306  -0.8335 H              1 S1                 0.0000
     35 ****        -2.7841   1.2399   0.5479 LP             1 S1                 0.0000
     36 ****        -1.5569   1.6863   0.6480 LP             1 S1                 0.0000
     37 ****         0.0952   2.1599   0.8633 LP             1 S1                 0.0000
     38 ****         3.1057   1.8332  -3.0537 LP             1 S1                 0.0000
     39 ****         2.8686   3.3092  -2.3967 LP             1 S1                 0.0000
@<TRIPOS>BOND
    1    1    2 1     
    2    1   18 1     
    3    1   19 1     
    4    1   20 1     
    5    2    7 ar    
    6    2    3 ar    
    7    3    4 ar    
    8    3   21 1     
    9    4    5 ar    
   10    4   22 1     
   11    5    6 ar    
   12    5   23 1     
   13    6    7 ar    
   14    7    8 1     
   15    8    9 am    
   16    8   24 1     
   17    9   10 2     
   18    9   11 am    
   19   11   12 1     
   20   11   25 1     
   21   12   13 1     
   22   12   26 1     
   23   12   27 1     
   24   13   17 1     
   25   13   14 1     
   26   13   28 1     
   27   14   15 1     
   28   14   29 1     
   29   14   30 1     
   30   15   16 1     
   31   15   31 1     
   32   15   32 1     
   33   16   17 1     
   34   17   33 1     
   35   17   34 1     
   36    6   35 1     
   37   10   36 1     
   38   10   37 1     
   39   16   38 1     
   40   16   39 1     
@<TRIPOS>SUBSTRUCTURE
      1 S1             1
@<TRIPOS>SET
LONE_PAIRS      STATIC     ATOMS    <user>   **** ""
5 35 36 37 38 39
DONOR_HYDROGENS      STATIC     ATOMS    <user>   **** ""
2 24 25
ATOM$BLUE        STATIC     ATOMS    COLORGROUP SYSTEM
5 35 36 37 38 39
ATOM$RED        STATIC     ATOMS    COLORGROUP SYSTEM
2 24 25
