AV-unprocessed.smi:648|AV-procd|sdf|3174|dock9
  -GOLD-   22720 0103D 1   1.00000     0.00000
 Structure written by MMmdl.
 45 46  0  0  0  0  0  0  0  0  1 V2000
  152.8286  140.1527  159.6223 C   0  0  0  0  0  0  0  0  0  0  0  0
  152.1579  141.3627  158.9556 C   0  0  2  0  0  0  0  0  0  0  0  0
  152.3461  142.6361  159.7990 C   0  0  0  0  0  0  0  0  0  0  0  0
  151.6998  143.8916  159.1701 C   0  0  0  0  0  0  0  0  0  0  0  0
  151.7289  145.0297  160.2108 C   0  0  0  0  0  0  0  0  0  0  0  0
  152.5156  144.3755  157.9494 C   0  0  0  0  0  0  0  0  0  0  0  0
  150.2164  143.6036  158.8007 C   0  0  0  0  0  0  0  0  0  0  0  0
  149.9292  142.2864  158.0217 C   0  0  1  0  0  0  0  0  0  0  0  0
  148.4046  141.9907  158.0730 C   0  0  0  0  0  0  0  0  0  0  0  0
  147.6397  143.0241  157.4825 O   0  0  0  0  0  0  0  0  0  0  0  0
  150.3505  142.4438  156.6138 N   0  0  0  0  0  0  0  0  0  0  0  0
  150.2874  141.2804  155.7254 C   0  0  0  0  0  0  0  0  0  0  0  0
  151.5505  140.4237  155.8764 C   0  0  0  0  0  0  0  0  0  0  0  0
  151.3366  139.0722  155.4002 N   0  0  0  0  0  0  0  0  0  0  0  0
  152.1626  138.0256  155.3574 C   0  0  0  0  0  0  0  0  0  0  0  0
  151.6118  136.9299  154.8529 N   0  0  0  0  0  0  0  0  0  0  0  0
  150.3588  137.4065  154.5868 C   0  0  0  0  0  0  0  0  0  0  0  0
  150.1414  138.6846  154.8971 N   0  0  0  0  0  0  0  0  0  0  0  0
  150.6601  141.1060  158.7157 C   0  0  0  0  0  0  0  0  0  0  0  0
  152.3931  139.9456  160.6002 H   0  0  0  0  0  0  0  0  0  0  0  0
  153.8962  140.3240  159.7627 H   0  0  0  0  0  0  0  0  0  0  0  0
  152.7171  139.2563  159.0117 H   0  0  0  0  0  0  0  0  0  0  0  0
  152.6437  141.5004  157.9900 H   0  0  0  0  0  0  0  0  0  0  0  0
  151.9130  142.4635  160.7855 H   0  0  0  0  0  0  0  0  0  0  0  0
  153.4092  142.8137  159.9679 H   0  0  0  0  0  0  0  0  0  0  0  0
  151.2819  145.9420  159.8145 H   0  0  0  0  0  0  0  0  0  0  0  0
  152.7496  145.2683  160.5117 H   0  0  0  0  0  0  0  0  0  0  0  0
  151.1789  144.7640  161.1145 H   0  0  0  0  0  0  0  0  0  0  0  0
  152.0548  145.2495  157.4879 H   0  0  0  0  0  0  0  0  0  0  0  0
  152.6167  143.6171  157.1759 H   0  0  0  0  0  0  0  0  0  0  0  0
  153.5274  144.6586  158.2411 H   0  0  0  0  0  0  0  0  0  0  0  0
  149.6519  143.5579  159.7335 H   0  0  0  0  0  0  0  0  0  0  0  0
  149.8033  144.4581  158.2624 H   0  0  0  0  0  0  0  0  0  0  0  0
  148.1565  141.0437  157.5946 H   0  0  0  0  0  0  0  0  0  0  0  0
  148.0749  141.8932  159.1081 H   0  0  0  0  0  0  0  0  0  0  0  0
  148.0811  143.3141  156.6988 H   0  0  0  0  0  0  0  0  0  0  0  0
  149.8264  143.2079  156.1985 H   0  0  0  0  0  0  0  0  0  0  0  0
  149.4181  140.6654  155.9548 H   0  0  0  0  0  0  0  0  0  0  0  0
  150.1975  141.5918  154.6855 H   0  0  0  0  0  0  0  0  0  0  0  0
  152.3813  140.8619  155.3212 H   0  0  0  0  0  0  0  0  0  0  0  0
  151.8555  140.3776  156.9229 H   0  0  0  0  0  0  0  0  0  0  0  0
  153.1849  138.0653  155.7038 H   0  0  0  0  0  0  0  0  0  0  0  0
  149.5836  136.7931  154.1517 H   0  0  0  0  0  0  0  0  0  0  0  0
  150.5183  140.1747  158.1683 H   0  0  0  0  0  0  0  0  0  0  0  0
  150.1946  140.9296  159.6867 H   0  0  0  0  0  0  0  0  0  0  0  0
  1  2  1  0  0  0  0
  1 20  1  0  0  0  0
  1 21  1  0  0  0  0
  1 22  1  0  0  0  0
  2 19  1  0  0  0  0
  2  3  1  0  0  0  0
  2 23  1  0  0  0  0
  3  4  1  0  0  0  0
  3 24  1  0  0  0  0
  3 25  1  0  0  0  0
  4  5  1  0  0  0  0
  4  6  1  0  0  0  0
  4  7  1  0  0  0  0
  5 26  1  0  0  0  0
  5 27  1  0  0  0  0
  5 28  1  0  0  0  0
  6 29  1  0  0  0  0
  6 30  1  0  0  0  0
  6 31  1  0  0  0  0
  7  8  1  0  0  0  0
  7 32  1  0  0  0  0
  7 33  1  0  0  0  0
  8  9  1  0  0  0  0
  8 11  1  0  0  0  0
  8 19  1  0  0  0  0
  9 10  1  0  0  0  0
  9 34  1  0  0  0  0
  9 35  1  0  0  0  0
 10 36  1  0  0  0  0
 11 12  1  0  0  0  0
 11 37  1  0  0  0  0
 12 13  1  0  0  0  0
 12 38  1  0  0  0  0
 12 39  1  0  0  0  0
 13 14  1  0  0  0  0
 13 40  1  0  0  0  0
 13 41  1  0  0  0  0
 14 18  1  0  0  0  0
 14 15  1  0  0  0  0
 15 16  2  0  0  0  0
 15 42  1  0  0  0  0
 16 17  1  0  0  0  0
 17 18  2  0  0  0  0
 17 43  1  0  0  0  0
 19 44  1  0  0  0  0
 19 45  1  0  0  0  0
M  END
> <s_m_source_file>
AV-unprocessed.smi

> <i_m_source_file_index>
648

> <i_lp_mmshare_version>
43012

> <i_f3d_flags>
0

> <s_epik_input>
W0NIM11DMShbQ0gzXSlbQ0gyXVtDQEBIXShbQ0gzXSlbQ0gyXVtDQF0oW0NIMl0xKShbQ0gyXVtPSF0pW05IXVtDSDJdW0NIMl1uMltjSF1uW2NIXW4y

> <s_epik_cmdline>
J2VwaWtfcHl0aG9uJywgJy1waCcsICc3LjAnLCAnLXRuJywgJzgnLCAnLW1hJywgJzIwMCcsICctbWV0YWxfYmluZGluZycsICctaW1hZScsICc8aW5maWxlLm1hZT4nLCAnLW9tYWUnLCAnPG91dGZpbGUubWFlPic=

> <r_lp_tautomer_probability>
1

> <r_epik_Ionization_Penalty>
2.45849

> <r_epik_Ionization_Penalty_Charging>
0

> <r_epik_Ionization_Penalty_Neutral>
2.45849

> <r_epik_State_Penalty>
2.62037

> <r_epik_Charging_Adjusted_Penalty>
2.62037

> <i_epik_Tot_Q>
0

> <i_epik_Tot_abs_Q>
0

> <r_epik_Metal_State_Penalty>
2.62024

> <b_epik_Metal_Only>
0

> <s_lp_Force_Field>
OPLS_2005

> <r_lp_Energy>
32.3104

> <b_lp_Chiralities_Consistent>
1

> <s_lp_Variant>
AV-unprocessed.smi:648-5

> <Gold.Version>
5.8.1

> <Gold.Id.Protein>
6NUR|6NUR_protein|mol2

> <Gold.PLP.Fitness>
54.5399

> <Gold.PLP.PLP>
-43.2910

> <Gold.PLP.part.hbond>
-3.9883

> <Gold.PLP.part.metal>
0.0000

> <Gold.PLP.part.buried>
-3.6412

> <Gold.PLP.part.nonpolar>
-36.1268

> <Gold.PLP.part.repulsive>
0.2659

> <Gold.PLP.ligand.clash>
0.0000

> <Gold.PLP.ligand.torsion>
0.2568

> <Gold.PLP.Chemscore.Hbond>
2.9184

> <Gold.PLP.Chemscore.CHOScore>
1.0014

> <Gold.PLP.Chemscore.Metal>
0.0000

> <Gold.Chemscore.Hbonds>
donor molecule, donor type, donor heavy atom, donor atom, acceptor molecule, acceptor atom, score
      L1  H    10    36       P1  8028  0.78
      L1  H    11    37       P1  8028  1.00
      P1  H 10752 10764       L1    16  1.00
      L1  C    17    43       P1  7948  1.00

> <Gold.PLP.Chemscore.Internal.Correction>
0.0029

> <Gold.Rescore>
     Score         DG    S(hbond)    S(metal)    S(lipo)     H(rot)  DE(clash)    DE(int)     intcor
     15.09     -16.28       2.21        0.00      97.40       3.12       0.06       1.13       ----

> <Gold.Chemscore.Fitness>
15.0889

> <Gold.Chemscore.DG>
-16.2757

> <Gold.Chemscore.ZeroCoef>
-5.4800

> <Gold.Chemscore.Hbond>
2.2104

> <Gold.Chemscore.Metal>
0.0000

> <Gold.Chemscore.Lipo>
97.4020

> <Gold.Chemscore.Internal_Hbond>
0.0000

> <Gold.Chemscore.DEClash>
0.0595

> <Gold.Chemscore.DEInternal>
1.1274

> <Gold.Chemscore.Rot>
3.1183

> <Gold.Chemscore.Internal.Correction>
   9.000000E+99

> <Gold.Chemscore.Hbonds>
donor molecule, donor type, donor heavy atom, donor atom, acceptor molecule, acceptor atom, score
      L1  H    10    36       P1  8028  0.11
      L1  H    11    37       P1  8028  1.00
      P1  H 10752 10764       L1    16  0.77

> <Gold.Chemscore.Hbond.Weighted>
-7.3826

> <Gold.Chemscore.Metal.Weighted>
-0.0000

> <Gold.Chemscore.Lipo.Weighted>
-11.3960

> <Gold.Chemscore.Internal_Hbond.Weighted>
0.0000

> <Gold.Chemscore.DEClash.Weighted>
0.0595

> <Gold.Chemscore.DEInternal.Weighted>
1.1274

> <Gold.Chemscore.Rot.Weighted>
7.9829

> <Gold.Chemscore.Internal.Correction.Weighted>
   9.000000E+99

> <Gold.Protein.RotatedTorsions>
[ 6907 6896 6895 6894 ] final  -13.15 input  -60.11 | X-H torsion
[ 7974 7965 7964 7962 ] final   81.52 input  175.53 | X-H torsion
[ 8008 7997 7996 7995 ] final  169.76 input   59.86 | X-H torsion
[ 10167 10162 10161 10158 ] final  -85.19 input  -65.29 | X-H torsion
[ 10718 10713 10712 10709 ] final   80.61 input   66.30 | X-H torsion
[ 10763 10752 10751 10750 ] final  -74.69 input  -60.55 | X-H torsion
[ 11005 11000 10999 10996 ] final  100.34 input  -57.11 | X-H torsion

> <Gold.Protein.ActiveResidues>
 VAL166  LYS551  ARG553  GLY616  TRP617  ASP618  TYR619  PRO620  LYS621  CYS622 
 ASP623  PHE694  ASN695  SER759  ASP760  ASP761  ALA762  ILE779  LEU786  VAL792 
 PHE793  MET794  SER795  GLU796  ALA797  LYS798  CYS799  TRP800  GLU811  SER814 

> <Gold.Protein.RotatedAtoms>
  151.3594  135.0901  159.9429 H   0  0  0  0  0  0  0  0  0  0  0  0  # atno 6907 bound_to 6896
  152.5166  133.9274  159.7574 H   0  0  0  0  0  0  0  0  0  0  0  0  # atno 6908 bound_to 6896
  150.9665  133.6335  159.2774 H   0  0  0  0  0  0  0  0  0  0  0  0  # atno 6909 bound_to 6896
  145.6371  139.2417  143.2051 H   0  0  0  0  0  0  0  0  0  0  0  0  # atno 7974 bound_to 7965
  156.1428  140.1556  156.8893 H   0  0  0  0  0  0  0  0  0  0  0  0  # atno 8008 bound_to 7997
  154.5002  140.0827  156.7820 H   0  0  0  0  0  0  0  0  0  0  0  0  # atno 8009 bound_to 7997
  155.4046  140.3416  155.4261 H   0  0  0  0  0  0  0  0  0  0  0  0  # atno 8010 bound_to 7997
  140.4061  143.2642  151.9079 H   0  0  0  0  0  0  0  0  0  0  0  0  # atno 10167 bound_to 10162
  157.6811  130.9967  150.2105 H   0  0  0  0  0  0  0  0  0  0  0  0  # atno 10718 bound_to 10713
  154.4765  135.5856  153.6359 H   0  0  0  0  0  0  0  0  0  0  0  0  # atno 10763 bound_to 10752
  152.9841  135.6079  154.3300 H   0  0  0  0  0  0  0  0  0  0  0  0  # atno 10764 bound_to 10752
  154.3187  135.2844  155.2509 H   0  0  0  0  0  0  0  0  0  0  0  0  # atno 10765 bound_to 10752
  139.8771  134.9136  156.4741 H   0  0  0  0  0  0  0  0  0  0  0  0  # atno 11005 bound_to 11000
  146.1310  140.7185  142.9412 LP  0  0  0  0  0  0  0  0  0  0  0  0  # atno 17320 bound_to 7965
  144.7171  140.4248  143.7036 LP  0  0  0  0  0  0  0  0  0  0  0  0  # atno 17321 bound_to 7965
  139.4783  144.5584  151.8277 LP  0  0  0  0  0  0  0  0  0  0  0  0  # atno 17342 bound_to 10162
  140.4688  144.1617  150.5915 LP  0  0  0  0  0  0  0  0  0  0  0  0  # atno 17343 bound_to 10162
  156.2777  130.3729  149.7967 LP  0  0  0  0  0  0  0  0  0  0  0  0  # atno 17370 bound_to 10713
  156.5665  130.8406  151.3344 LP  0  0  0  0  0  0  0  0  0  0  0  0  # atno 17371 bound_to 10713
  140.8775  133.7943  155.9430 LP  0  0  0  0  0  0  0  0  0  0  0  0  # atno 17394 bound_to 11000
  140.8889  134.2520  157.5105 LP  0  0  0  0  0  0  0  0  0  0  0  0  # atno 17395 bound_to 11000

$$$$
