#       Name:                AV-unprocessed.smi:2504
#       Creating user name   scv26
#       Creation time:       Fri Mar 27 13:48:01 2020


#       File generated by GOLD software.
#

@<TRIPOS>MOLECULE
AV-unprocessed.smi:2504
    50    52     1
SMALL
NO_CHARGES


@<TRIPOS>ATOM
      1 ****        -3.5547   1.5778   0.8828 O.2            1 S1                 0.0000
      2 ****        -2.9209   1.5356  -0.1723 C.2            1 S1                 0.0000
      3 ****        -3.6504   1.4448  -1.5290 C.3            1 S1                 0.0000
      4 ****        -4.8742   2.3735  -1.6071 C.3            1 S1                 0.0000
      5 ****        -6.0930   1.5424  -1.1758 C.3            1 S1                 0.0000
      6 ****        -5.6366   0.0776  -1.1354 C.3            1 S1                 0.0000
      7 ****        -4.2452   0.0505  -1.7747 C.3            1 S1                 0.0000
      8 ****        -1.5238   1.4841  -0.1796 N.am           1 S1                 0.0000
      9 ****        -0.7848   0.9930   0.9739 C.3            1 S1                 0.0000
     10 ****         0.2895   0.5731  -0.0356 C.3            1 S1                 0.0000
     11 ****         0.9388  -1.1281   0.2757 S.o2           1 S1                 0.0000
     12 ****         1.5489  -1.1523   1.6139 O.2            1 S1                 0.0000
     13 ****        -0.0778  -2.1287  -0.0825 O.2            1 S1                 0.0000
     14 ****         2.2105  -1.2506  -0.8853 N.3            1 S1                 0.0000
     15 ****         3.1736  -2.3489  -0.7730 C.3            1 S1                 0.0000
     16 ****         4.5768  -1.8291  -0.4153 C.3            1 S1                 0.0000
     17 ****         4.6480  -1.1856   0.9573 C.ar           1 S1                 0.0000
     18 ****         4.8181  -1.9798   2.1129 C.ar           1 S1                 0.0000
     19 ****         4.8622  -1.3591   3.3785 C.ar           1 S1                 0.0000
     20 ****         4.7342   0.0424   3.4602 C.ar           1 S1                 0.0000
     21 ****         4.5745   0.7700   2.3330 N.pl3          1 S1                 1.0000
     22 ****         4.5301   0.2139   1.1025 C.ar           1 S1                 0.0000
     23 ****        -0.7870   0.6597  -1.1260 C.3            1 S1                 0.0000
     24 ****        -2.9501   1.7065  -2.3232 H              1 S1                 0.0000
     25 ****        -4.7647   3.2750  -1.0023 H              1 S1                 0.0000
     26 ****        -5.0080   2.7034  -2.6380 H              1 S1                 0.0000
     27 ****        -6.4492   1.8542  -0.1933 H              1 S1                 0.0000
     28 ****        -6.9161   1.6799  -1.8777 H              1 S1                 0.0000
     29 ****        -5.5702  -0.2544  -0.0985 H              1 S1                 0.0000
     30 ****        -6.3336  -0.5880  -1.6453 H              1 S1                 0.0000
     31 ****        -4.3374  -0.1170  -2.8486 H              1 S1                 0.0000
     32 ****        -3.6328  -0.7587  -1.3748 H              1 S1                 0.0000
     33 ****        -0.4761   1.7745   1.6686 H              1 S1                 0.0000
     34 ****        -1.2686   0.1512   1.4741 H              1 S1                 0.0000
     35 ****         1.0931   1.3047  -0.1346 H              1 S1                 0.0000
     36 ****         1.8490  -1.1733  -1.8362 H              1 S1                 0.0000
     37 ****         2.8289  -3.0748  -0.0352 H              1 S1                 0.0000
     38 ****         3.2090  -2.8700  -1.7300 H              1 S1                 0.0000
     39 ****         5.2876  -2.6557  -0.4468 H              1 S1                 0.0000
     40 ****         4.9133  -1.1141  -1.1675 H              1 S1                 0.0000
     41 ****         4.9074  -3.0535   2.0323 H              1 S1                 0.0000
     42 ****         4.9887  -1.9504   4.2736 H              1 S1                 0.0000
     43 ****         4.7535   0.5990   4.3858 H              1 S1                 0.0000
     44 ****         4.3903   0.8990   0.2792 H              1 S1                 0.0000
     45 ****        -1.2796  -0.2867  -1.3514 H              1 S1                 0.0000
     46 ****        -0.4742   1.1916  -2.0248 H              1 S1                 0.0000
     47 ****         4.4821   1.7827   2.4150 H              1 S1                 0.0000
     48 ****        -4.5543   1.5533   0.8670 LP             1 S1                 0.0000
     49 ****        -3.0697   1.6365   1.7554 LP             1 S1                 0.0000
     50 ****         2.7775  -0.4623  -0.6462 LP             1 S1                 0.0000
@<TRIPOS>BOND
    1    1    2 2     
    2    2    3 1     
    3    2    8 am    
    4    3    7 1     
    5    3    4 1     
    6    3   24 1     
    7    4    5 1     
    8    4   25 1     
    9    4   26 1     
   10    5    6 1     
   11    5   27 1     
   12    5   28 1     
   13    6    7 1     
   14    6   29 1     
   15    6   30 1     
   16    7   31 1     
   17    7   32 1     
   18    8   23 1     
   19    8    9 1     
   20    9   10 1     
   21    9   33 1     
   22    9   34 1     
   23   10   11 1     
   24   10   23 1     
   25   10   35 1     
   26   11   12 2     
   27   11   13 2     
   28   11   14 1     
   29   14   15 1     
   30   14   36 1     
   31   15   16 1     
   32   15   37 1     
   33   15   38 1     
   34   16   17 1     
   35   16   39 1     
   36   16   40 1     
   37   17   22 ar    
   38   17   18 ar    
   39   18   19 ar    
   40   18   41 1     
   41   19   20 ar    
   42   19   42 1     
   43   20   21 ar    
   44   20   43 1     
   45   21   22 ar    
   46   21   47 1     
   47   22   44 1     
   48   23   45 1     
   49   23   46 1     
   50    1   48 1     
   51    1   49 1     
   52   14   50 1     
@<TRIPOS>SUBSTRUCTURE
      1 S1             1
@<TRIPOS>SET
LONE_PAIRS      STATIC     ATOMS    <user>   **** ""
5 48 49 12 13 50
DONOR_HYDROGENS      STATIC     ATOMS    <user>   **** ""
2 36 47
ATOM$BLUE        STATIC     ATOMS    COLORGROUP SYSTEM
5 48 49 12 13 50
ATOM$RED        STATIC     ATOMS    COLORGROUP SYSTEM
2 36 47
