AV-unprocessed.smi:3158|AV-procd|sdf|12045|dock10
  -GOLD-   2272017473D 1   1.00000     0.00000
 Structure written by MMmdl.
 39 39  0  0  0  0  0  0  0  0  1 V2000
  148.6761  141.5185  154.6292 C   0  0  0  0  0  0  0  0  0  0  0  0
  149.7994  140.5217  154.9497 C   0  0  0  0  0  0  0  0  0  0  0  0
  149.4529  139.0627  154.5992 C   0  0  2  0  0  0  0  0  0  0  0  0
  150.7176  138.2002  154.4608 C   0  0  0  0  0  0  0  0  0  0  0  0
  148.6786  139.0108  153.3617 N   0  0  0  0  0  0  0  0  0  0  0  0
  147.3631  138.7584  153.2738 C   0  0  0  0  0  0  0  0  0  0  0  0
  146.6484  138.5408  154.2527 O   0  0  0  0  0  0  0  0  0  0  0  0
  146.7701  138.7047  151.8556 C   0  0  2  0  0  0  0  0  0  0  0  0
  146.8004  140.0936  151.1976 C   0  0  0  0  0  0  0  0  0  0  0  0
  145.3978  138.1672  151.8190 N   0  0  0  0  0  0  0  0  0  0  0  0
  145.2814  136.7812  152.2591 C   0  0  0  0  0  0  0  0  0  0  0  0
  145.4822  135.8459  151.0588 C   0  0  0  0  0  0  0  0  0  0  0  0
  144.6532  134.6613  151.1659 N   0  0  0  0  0  0  0  0  0  0  0  0
  144.6068  133.5692  150.3257 C   0  0  0  0  0  0  0  0  0  0  0  0
  143.6702  132.7112  150.8269 C   0  0  0  0  0  0  0  0  0  0  0  0
  143.1906  133.3761  151.9898 C   0  0  0  0  0  0  0  0  0  0  0  0
  143.7803  134.5438  152.1895 N   0  0  0  0  0  0  0  0  0  0  0  0
  148.9543  142.5261  154.9382 H   0  0  0  0  0  0  0  0  0  0  0  0
  147.7557  141.2544  155.1504 H   0  0  0  0  0  0  0  0  0  0  0  0
  148.4596  141.5502  153.5612 H   0  0  0  0  0  0  0  0  0  0  0  0
  150.7077  140.8222  154.4255 H   0  0  0  0  0  0  0  0  0  0  0  0
  150.0287  140.5888  156.0139 H   0  0  0  0  0  0  0  0  0  0  0  0
  148.8510  138.6577  155.4151 H   0  0  0  0  0  0  0  0  0  0  0  0
  151.3001  138.2084  155.3824 H   0  0  0  0  0  0  0  0  0  0  0  0
  151.3599  138.5632  153.6577 H   0  0  0  0  0  0  0  0  0  0  0  0
  150.4672  137.1616  154.2422 H   0  0  0  0  0  0  0  0  0  0  0  0
  149.1858  139.1669  152.5026 H   0  0  0  0  0  0  0  0  0  0  0  0
  147.3998  138.0485  151.2517 H   0  0  0  0  0  0  0  0  0  0  0  0
  147.8092  140.5085  151.1929 H   0  0  0  0  0  0  0  0  0  0  0  0
  146.1514  140.8004  151.7165 H   0  0  0  0  0  0  0  0  0  0  0  0
  146.4667  140.0405  150.1608 H   0  0  0  0  0  0  0  0  0  0  0  0
  144.7581  138.7484  152.3420 H   0  0  0  0  0  0  0  0  0  0  0  0
  146.0307  136.5739  153.0245 H   0  0  0  0  0  0  0  0  0  0  0  0
  144.3007  136.5969  152.6994 H   0  0  0  0  0  0  0  0  0  0  0  0
  145.2322  136.3582  150.1286 H   0  0  0  0  0  0  0  0  0  0  0  0
  146.5260  135.5368  150.9807 H   0  0  0  0  0  0  0  0  0  0  0  0
  145.2360  133.4950  149.4509 H   0  0  0  0  0  0  0  0  0  0  0  0
  143.3721  131.7548  150.4239 H   0  0  0  0  0  0  0  0  0  0  0  0
  142.4365  133.0477  152.6899 H   0  0  0  0  0  0  0  0  0  0  0  0
  1  2  1  0  0  0  0
  1 18  1  0  0  0  0
  1 19  1  0  0  0  0
  1 20  1  0  0  0  0
  2  3  1  0  0  0  0
  2 21  1  0  0  0  0
  2 22  1  0  0  0  0
  3  4  1  0  0  0  0
  3  5  1  0  0  0  0
  3 23  1  0  0  0  0
  4 24  1  0  0  0  0
  4 25  1  0  0  0  0
  4 26  1  0  0  0  0
  5  6  1  0  0  0  0
  5 27  1  0  0  0  0
  6  7  2  0  0  0  0
  6  8  1  0  0  0  0
  8  9  1  0  0  0  0
  8 10  1  0  0  0  0
  8 28  1  0  0  0  0
  9 29  1  0  0  0  0
  9 30  1  0  0  0  0
  9 31  1  0  0  0  0
 10 11  1  0  0  0  0
 10 32  1  0  0  0  0
 11 12  1  0  0  0  0
 11 33  1  0  0  0  0
 11 34  1  0  0  0  0
 12 13  1  0  0  0  0
 12 35  1  0  0  0  0
 12 36  1  0  0  0  0
 13 17  1  0  0  0  0
 13 14  1  0  0  0  0
 14 15  2  0  0  0  0
 14 37  1  0  0  0  0
 15 16  1  0  0  0  0
 15 38  1  0  0  0  0
 16 17  2  0  0  0  0
 16 39  1  0  0  0  0
M  END
> <s_m_source_file>
AV-unprocessed.smi

> <i_m_source_file_index>
3158

> <i_lp_mmshare_version>
43012

> <i_f3d_flags>
0

> <s_epik_input>
W0NIM11bQ0gyXVtDQEhdKFtDSDNdKVtOSF1DKD1PKVtDQEhdKFtDSDNdKVtOSF1bQ0gyXVtDSDJdbjFbY0hdW2NIXVtjSF1uMQ==

> <s_epik_cmdline>
J2VwaWtfcHl0aG9uJywgJy1waCcsICc3LjAnLCAnLXRuJywgJzgnLCAnLW1hJywgJzIwMCcsICctbWV0YWxfYmluZGluZycsICctaW1hZScsICc8aW5maWxlLm1hZT4nLCAnLW9tYWUnLCAnPG91dGZpbGUubWFlPic=

> <r_lp_tautomer_probability>
1

> <r_epik_Ionization_Penalty>
0.724013

> <r_epik_Ionization_Penalty_Charging>
0

> <r_epik_Ionization_Penalty_Neutral>
0.724013

> <r_epik_State_Penalty>
0.74758

> <r_epik_Charging_Adjusted_Penalty>
0.74758

> <i_epik_Tot_Q>
0

> <i_epik_Tot_abs_Q>
0

> <r_epik_Metal_State_Penalty>
0.746846

> <b_epik_Metal_Only>
0

> <s_lp_Force_Field>
OPLS_2005

> <r_lp_Energy>
5.18205

> <b_lp_Chiralities_Consistent>
1

> <s_lp_Variant>
AV-unprocessed.smi:3158-5

> <Gold.Version>
5.8.1

> <Gold.Id.Protein>
6NUR|6NUR_protein|mol2

> <Gold.PLP.Fitness>
45.5870

> <Gold.PLP.PLP>
-35.4607

> <Gold.PLP.part.hbond>
-3.4191

> <Gold.PLP.part.metal>
0.0000

> <Gold.PLP.part.buried>
0.5767

> <Gold.PLP.part.nonpolar>
-32.3079

> <Gold.PLP.part.repulsive>
0.3632

> <Gold.PLP.ligand.clash>
0.0000

> <Gold.PLP.ligand.torsion>
0.9260

> <Gold.PLP.Chemscore.Hbond>
1.9588

> <Gold.PLP.Chemscore.CHOScore>
1.9690

> <Gold.PLP.Chemscore.Metal>
0.0000

> <Gold.Chemscore.Hbonds>
donor molecule, donor type, donor heavy atom, donor atom, acceptor molecule, acceptor atom, score
      L1  H     5    27       P1  7957  1.00
      L1  H    10    32       P1 10175  0.96
      L1  C    14    37       P1  7921  1.00
      L1  C    16    39       P1 10957  1.00

> <Gold.PLP.Chemscore.Internal.Correction>
0.1949

> <Gold.Rescore>
     Score         DG    S(hbond)    S(metal)    S(lipo)     H(rot)  DE(clash)    DE(int)     intcor
     13.19     -16.30       1.96        0.00      83.05       2.12       1.33       1.77       ----

> <Gold.Chemscore.Fitness>
13.1906

> <Gold.Chemscore.DG>
-16.2990

> <Gold.Chemscore.ZeroCoef>
-5.4800

> <Gold.Chemscore.Hbond>
1.9575

> <Gold.Chemscore.Metal>
0.0000

> <Gold.Chemscore.Lipo>
83.0489

> <Gold.Chemscore.Internal_Hbond>
0.0000

> <Gold.Chemscore.DEClash>
1.3338

> <Gold.Chemscore.DEInternal>
1.7746

> <Gold.Chemscore.Rot>
2.1234

> <Gold.Chemscore.Internal.Correction>
   9.000000E+99

> <Gold.Chemscore.Hbonds>
donor molecule, donor type, donor heavy atom, donor atom, acceptor molecule, acceptor atom, score
      L1  H     5    27       P1  7957  0.97
      L1  H    10    32       P1 10175  0.87

> <Gold.Chemscore.Hbond.Weighted>
-6.5381

> <Gold.Chemscore.Metal.Weighted>
-0.0000

> <Gold.Chemscore.Lipo.Weighted>
-9.7167

> <Gold.Chemscore.Internal_Hbond.Weighted>
0.0000

> <Gold.Chemscore.DEClash.Weighted>
1.3338

> <Gold.Chemscore.DEInternal.Weighted>
1.7746

> <Gold.Chemscore.Rot.Weighted>
5.4359

> <Gold.Chemscore.Internal.Correction.Weighted>
   9.000000E+99

> <Gold.Protein.RotatedTorsions>
[ 6907 6896 6895 6894 ] final  102.32 input  -60.11 | X-H torsion
[ 7974 7965 7964 7962 ] final  -26.68 input  175.53 | X-H torsion
[ 8008 7997 7996 7995 ] final   99.00 input   59.86 | X-H torsion
[ 10167 10162 10161 10158 ] final  123.05 input  -65.29 | X-H torsion
[ 10718 10713 10712 10709 ] final  152.72 input   66.30 | X-H torsion
[ 10763 10752 10751 10750 ] final   74.87 input  -60.55 | X-H torsion
[ 11005 11000 10999 10996 ] final  173.54 input  -57.11 | X-H torsion

> <Gold.Protein.ActiveResidues>
 VAL166  LYS551  ARG553  GLY616  TRP617  ASP618  TYR619  PRO620  LYS621  CYS622 
 ASP623  PHE694  ASN695  SER759  ASP760  ASP761  ALA762  ILE779  LEU786  VAL792 
 PHE793  MET794  SER795  GLU796  ALA797  LYS798  CYS799  TRP800  GLU811  SER814 

> <Gold.Protein.RotatedAtoms>
  152.5327  133.9994  159.7887 H   0  0  0  0  0  0  0  0  0  0  0  0  # atno 6907 bound_to 6896
  151.0215  133.5864  159.2678 H   0  0  0  0  0  0  0  0  0  0  0  0  # atno 6908 bound_to 6896
  151.2902  135.0746  159.9255 H   0  0  0  0  0  0  0  0  0  0  0  0  # atno 6909 bound_to 6896
  146.1409  140.5052  142.8652 H   0  0  0  0  0  0  0  0  0  0  0  0  # atno 7974 bound_to 7965
  156.1061  140.3235  155.8008 H   0  0  0  0  0  0  0  0  0  0  0  0  # atno 8008 bound_to 7997
  155.4754  140.0550  157.2991 H   0  0  0  0  0  0  0  0  0  0  0  0  # atno 8009 bound_to 7997
  154.4728  140.2019  155.9966 H   0  0  0  0  0  0  0  0  0  0  0  0  # atno 8010 bound_to 7997
  139.5822  144.6991  151.3500 H   0  0  0  0  0  0  0  0  0  0  0  0  # atno 10167 bound_to 10162
  157.2541  131.0785  151.1710 H   0  0  0  0  0  0  0  0  0  0  0  0  # atno 10718 bound_to 10713
  153.0616  135.5009  154.8106 H   0  0  0  0  0  0  0  0  0  0  0  0  # atno 10763 bound_to 10752
  154.6891  135.2981  154.9507 H   0  0  0  0  0  0  0  0  0  0  0  0  # atno 10764 bound_to 10752
  154.0268  135.6735  153.4830 H   0  0  0  0  0  0  0  0  0  0  0  0  # atno 10765 bound_to 10752
  140.3416  134.7272  157.4206 H   0  0  0  0  0  0  0  0  0  0  0  0  # atno 11005 bound_to 11000
  144.7791  140.5803  143.6617 LP  0  0  0  0  0  0  0  0  0  0  0  0  # atno 17320 bound_to 7965
  145.5049  139.1481  143.3637 LP  0  0  0  0  0  0  0  0  0  0  0  0  # atno 17321 bound_to 7965
  140.7099  143.7418  150.7547 LP  0  0  0  0  0  0  0  0  0  0  0  0  # atno 17342 bound_to 10162
  140.0954  143.4838  152.2455 LP  0  0  0  0  0  0  0  0  0  0  0  0  # atno 17343 bound_to 10162
  157.3246  130.6954  149.6289 LP  0  0  0  0  0  0  0  0  0  0  0  0  # atno 17370 bound_to 10713
  155.9665  130.4325  150.4967 LP  0  0  0  0  0  0  0  0  0  0  0  0  # atno 17371 bound_to 10713
  140.0777  134.5775  155.8574 LP  0  0  0  0  0  0  0  0  0  0  0  0  # atno 17394 bound_to 11000
  141.2037  133.6634  156.6078 LP  0  0  0  0  0  0  0  0  0  0  0  0  # atno 17395 bound_to 11000

$$$$
