AV-unprocessed.smi:3258|AV-procd|sdf|12470|dock8
  -GOLD-   2272018373D 1   1.00000     0.00000
 Structure written by MMmdl.
 38 39  0  0  0  0  0  0  0  0  1 V2000
  146.8301  141.9519  153.5818 C   0  0  0  0  0  0  0  0  0  0  0  0
  148.1723  141.2629  153.8786 C   0  0  2  0  0  0  0  0  0  0  0  0
  148.0162  139.7999  154.3485 C   0  0  0  0  0  0  0  0  0  0  0  0
  147.2102  139.0027  153.4417 N   0  0  0  0  0  0  0  0  0  0  0  0
  147.0695  139.1436  152.0773 C   0  0  0  0  0  0  0  0  0  0  0  0
  146.2109  138.1697  151.6547 C   0  0  0  0  0  0  0  0  0  0  0  0
  145.8778  137.4717  152.8492 C   0  0  0  0  0  0  0  0  0  0  0  0
  146.4785  137.9713  153.9172 N   0  0  0  0  0  0  0  0  0  0  0  0
  148.8968  142.0384  154.8815 N   0  0  0  0  0  0  0  0  0  0  0  0
  150.0371  141.6594  155.4761 C   0  0  0  0  0  0  0  0  0  0  0  0
  150.6169  140.5985  155.2431 O   0  0  0  0  0  0  0  0  0  0  0  0
  150.4634  142.5722  156.3602 N   0  0  0  0  0  0  0  0  0  0  0  0
  151.6655  142.4569  157.1801 C   0  0  0  0  0  0  0  0  0  0  0  0
  151.4621  143.0527  158.5859 C   0  0  1  0  0  0  0  0  0  0  0  0
  152.5092  142.6642  159.6126 C   0  0  0  0  0  0  0  0  0  0  0  0
  152.3297  143.7443  160.6753 C   0  0  0  0  0  0  0  0  0  0  0  0
  151.8693  144.9023  159.9838 O   0  0  0  0  0  0  0  0  0  0  0  0
  151.5701  144.5763  158.6302 C   0  0  0  0  0  0  0  0  0  0  0  0
  146.2978  141.4572  152.7692 H   0  0  0  0  0  0  0  0  0  0  0  0
  146.9798  142.9900  153.2833 H   0  0  0  0  0  0  0  0  0  0  0  0
  146.1799  141.9469  154.4572 H   0  0  0  0  0  0  0  0  0  0  0  0
  148.7512  141.2696  152.9529 H   0  0  0  0  0  0  0  0  0  0  0  0
  148.9926  139.3213  154.4337 H   0  0  0  0  0  0  0  0  0  0  0  0
  147.5681  139.7671  155.3432 H   0  0  0  0  0  0  0  0  0  0  0  0
  147.5853  139.9180  151.5285 H   0  0  0  0  0  0  0  0  0  0  0  0
  145.8728  137.9837  150.6462 H   0  0  0  0  0  0  0  0  0  0  0  0
  145.2222  136.6220  152.9711 H   0  0  0  0  0  0  0  0  0  0  0  0
  148.4974  142.9280  155.1428 H   0  0  0  0  0  0  0  0  0  0  0  0
  149.9133  143.4105  156.4783 H   0  0  0  0  0  0  0  0  0  0  0  0
  151.9935  141.4180  157.2449 H   0  0  0  0  0  0  0  0  0  0  0  0
  152.4646  142.9956  156.6706 H   0  0  0  0  0  0  0  0  0  0  0  0
  150.4793  142.7651  158.9635 H   0  0  0  0  0  0  0  0  0  0  0  0
  152.3738  141.6570  160.0077 H   0  0  0  0  0  0  0  0  0  0  0  0
  153.5086  142.7295  159.1798 H   0  0  0  0  0  0  0  0  0  0  0  0
  151.5670  143.4464  161.3958 H   0  0  0  0  0  0  0  0  0  0  0  0
  153.2510  143.9460  161.2219 H   0  0  0  0  0  0  0  0  0  0  0  0
  152.3927  144.9240  158.0034 H   0  0  0  0  0  0  0  0  0  0  0  0
  150.6580  145.0703  158.2944 H   0  0  0  0  0  0  0  0  0  0  0  0
  1  2  1  0  0  0  0
  1 19  1  0  0  0  0
  1 20  1  0  0  0  0
  1 21  1  0  0  0  0
  2  3  1  0  0  0  0
  2  9  1  0  0  0  0
  2 22  1  0  0  0  0
  3  4  1  0  0  0  0
  3 23  1  0  0  0  0
  3 24  1  0  0  0  0
  4  8  1  0  0  0  0
  4  5  1  0  0  0  0
  5  6  2  0  0  0  0
  5 25  1  0  0  0  0
  6  7  1  0  0  0  0
  6 26  1  0  0  0  0
  7  8  2  0  0  0  0
  7 27  1  0  0  0  0
  9 10  1  0  0  0  0
  9 28  1  0  0  0  0
 10 11  2  0  0  0  0
 10 12  1  0  0  0  0
 12 13  1  0  0  0  0
 12 29  1  0  0  0  0
 13 14  1  0  0  0  0
 13 30  1  0  0  0  0
 13 31  1  0  0  0  0
 14 18  1  0  0  0  0
 14 15  1  0  0  0  0
 14 32  1  0  0  0  0
 15 16  1  0  0  0  0
 15 33  1  0  0  0  0
 15 34  1  0  0  0  0
 16 17  1  0  0  0  0
 16 35  1  0  0  0  0
 16 36  1  0  0  0  0
 17 18  1  0  0  0  0
 18 37  1  0  0  0  0
 18 38  1  0  0  0  0
M  END
> <s_m_source_file>
AV-unprocessed.smi

> <i_m_source_file_index>
3258

> <i_lp_mmshare_version>
43012

> <i_f3d_flags>
0

> <s_epik_input>
bjFbY0hdW2NIXVtjSF1uMVtDSDJdW0NAQEhdKFtDSDNdKVtOSF1DKD1PKVtOSF1bQ0gyXVtDQEBIXTJbQ0gyXVtDSDJdT1tDSDJdMg==

> <s_epik_cmdline>
J2VwaWtfcHl0aG9uJywgJy1waCcsICc3LjAnLCAnLXRuJywgJzgnLCAnLW1hJywgJzIwMCcsICctbWV0YWxfYmluZGluZycsICctaW1hZScsICc8aW5maWxlLm1hZT4nLCAnLW9tYWUnLCAnPG91dGZpbGUubWFlPic=

> <r_lp_tautomer_probability>
1

> <r_epik_Ionization_Penalty>
6.85079e-05

> <r_epik_Ionization_Penalty_Charging>
0

> <r_epik_Ionization_Penalty_Neutral>
6.85079e-05

> <r_epik_State_Penalty>
-0

> <r_epik_Charging_Adjusted_Penalty>
0

> <i_epik_Tot_Q>
0

> <i_epik_Tot_abs_Q>
0

> <r_epik_Metal_State_Penalty>
-0

> <b_epik_Metal_Only>
0

> <s_lp_Force_Field>
OPLS_2005

> <r_lp_Energy>
15.6708

> <b_lp_Chiralities_Consistent>
1

> <s_lp_Variant>
AV-unprocessed.smi:3258-3

> <Gold.Version>
5.8.1

> <Gold.Id.Protein>
6NUR|6NUR_protein|mol2

> <Gold.PLP.Fitness>
46.0360

> <Gold.PLP.PLP>
-36.2406

> <Gold.PLP.part.hbond>
-3.0000

> <Gold.PLP.part.metal>
0.0000

> <Gold.PLP.part.buried>
-3.2922

> <Gold.PLP.part.nonpolar>
-30.4065

> <Gold.PLP.part.repulsive>
0.5765

> <Gold.PLP.ligand.clash>
0.0000

> <Gold.PLP.ligand.torsion>
0.7978

> <Gold.PLP.Chemscore.Hbond>
2.8000

> <Gold.PLP.Chemscore.CHOScore>
0.9833

> <Gold.PLP.Chemscore.Metal>
0.0000

> <Gold.Chemscore.Hbonds>
donor molecule, donor type, donor heavy atom, donor atom, acceptor molecule, acceptor atom, score
      L1  H     9    28       P1  8028  0.91
      L1  H    12    29       P1  8028  0.94
      P1  H  7989  7998       L1    11  0.94
      L1  C     5    25       P1  7957  0.93

> <Gold.PLP.Chemscore.Internal.Correction>
0.0411

> <Gold.Rescore>
     Score         DG    S(hbond)    S(metal)    S(lipo)     H(rot)  DE(clash)    DE(int)     intcor
     16.77     -20.44       2.44        0.00      99.30       1.87       1.67       2.00       ----

> <Gold.Chemscore.Fitness>
16.7736

> <Gold.Chemscore.DG>
-20.4387

> <Gold.Chemscore.ZeroCoef>
-5.4800

> <Gold.Chemscore.Hbond>
2.4353

> <Gold.Chemscore.Metal>
0.0000

> <Gold.Chemscore.Lipo>
99.2999

> <Gold.Chemscore.Internal_Hbond>
0.0000

> <Gold.Chemscore.DEClash>
1.6670

> <Gold.Chemscore.DEInternal>
1.9982

> <Gold.Chemscore.Rot>
1.8724

> <Gold.Chemscore.Internal.Correction>
   9.000000E+99

> <Gold.Chemscore.Hbonds>
donor molecule, donor type, donor heavy atom, donor atom, acceptor molecule, acceptor atom, score
      L1  H     9    28       P1  8028  0.89
      L1  H    12    29       P1  8028  0.91
      P1  H  7989  7998       L1    11  0.46

> <Gold.Chemscore.Hbond.Weighted>
-8.1339

> <Gold.Chemscore.Metal.Weighted>
-0.0000

> <Gold.Chemscore.Lipo.Weighted>
-11.6181

> <Gold.Chemscore.Internal_Hbond.Weighted>
0.0000

> <Gold.Chemscore.DEClash.Weighted>
1.6670

> <Gold.Chemscore.DEInternal.Weighted>
1.9982

> <Gold.Chemscore.Rot.Weighted>
4.7933

> <Gold.Chemscore.Internal.Correction.Weighted>
   9.000000E+99

> <Gold.Protein.RotatedTorsions>
[ 6907 6896 6895 6894 ] final   75.32 input  -60.11 | X-H torsion
[ 7974 7965 7964 7962 ] final  162.80 input  175.53 | X-H torsion
[ 8008 7997 7996 7995 ] final -101.00 input   59.86 | X-H torsion
[ 10167 10162 10161 10158 ] final  -62.87 input  -65.29 | X-H torsion
[ 10718 10713 10712 10709 ] final  -99.91 input   66.30 | X-H torsion
[ 10763 10752 10751 10750 ] final  -58.50 input  -60.55 | X-H torsion
[ 11005 11000 10999 10996 ] final   41.22 input  -57.11 | X-H torsion

> <Gold.Protein.ActiveResidues>
 VAL166  LYS551  ARG553  GLY616  TRP617  ASP618  TYR619  PRO620  LYS621  CYS622 
 ASP623  PHE694  ASN695  SER759  ASP760  ASP761  ALA762  ILE779  LEU786  VAL792 
 PHE793  MET794  SER795  GLU796  ALA797  LYS798  CYS799  TRP800  GLU811  SER814 

> <Gold.Protein.RotatedAtoms>
  152.5020  134.4138  159.9457 H   0  0  0  0  0  0  0  0  0  0  0  0  # atno 6907 bound_to 6896
  151.4107  133.3722  159.2751 H   0  0  0  0  0  0  0  0  0  0  0  0  # atno 6908 bound_to 6896
  150.9293  134.8731  159.7600 H   0  0  0  0  0  0  0  0  0  0  0  0  # atno 6909 bound_to 6896
  144.7619  139.8091  143.6329 H   0  0  0  0  0  0  0  0  0  0  0  0  # atno 7974 bound_to 7965
  154.8364  140.0437  157.1512 H   0  0  0  0  0  0  0  0  0  0  0  0  # atno 8008 bound_to 7997
  154.9095  140.3011  155.5253 H   0  0  0  0  0  0  0  0  0  0  0  0  # atno 8009 bound_to 7997
  156.2990  140.2361  156.4133 H   0  0  0  0  0  0  0  0  0  0  0  0  # atno 8010 bound_to 7997
  140.5909  143.2341  151.6141 H   0  0  0  0  0  0  0  0  0  0  0  0  # atno 10167 bound_to 10162
  156.0147  130.5304  150.6740 H   0  0  0  0  0  0  0  0  0  0  0  0  # atno 10718 bound_to 10713
  154.2390  135.6347  153.5201 H   0  0  0  0  0  0  0  0  0  0  0  0  # atno 10763 bound_to 10752
  152.9934  135.5537  154.5931 H   0  0  0  0  0  0  0  0  0  0  0  0  # atno 10764 bound_to 10752
  154.5432  135.2896  155.1051 H   0  0  0  0  0  0  0  0  0  0  0  0  # atno 10765 bound_to 10752
  140.1856  134.4050  155.8175 H   0  0  0  0  0  0  0  0  0  0  0  0  # atno 11005 bound_to 11000
  146.1691  139.4834  142.9939 LP  0  0  0  0  0  0  0  0  0  0  0  0  # atno 17320 bound_to 7965
  145.6591  141.0245  143.1719 LP  0  0  0  0  0  0  0  0  0  0  0  0  # atno 17321 bound_to 7965
  139.5227  144.3155  152.0956 LP  0  0  0  0  0  0  0  0  0  0  0  0  # atno 17342 bound_to 10162
  140.2319  144.4359  150.6296 LP  0  0  0  0  0  0  0  0  0  0  0  0  # atno 17343 bound_to 10162
  157.4456  131.0866  151.0898 LP  0  0  0  0  0  0  0  0  0  0  0  0  # atno 17370 bound_to 10713
  157.1429  130.6151  149.5560 LP  0  0  0  0  0  0  0  0  0  0  0  0  # atno 17371 bound_to 10713
  141.2224  133.7021  156.8006 LP  0  0  0  0  0  0  0  0  0  0  0  0  # atno 17394 bound_to 11000
  140.2218  134.8751  157.3385 LP  0  0  0  0  0  0  0  0  0  0  0  0  # atno 17395 bound_to 11000

$$$$
