AV-unprocessed.smi:2084|AV-procd|sdf|8514|dock4
  -GOLD-   2272011233D 1   1.00000     0.00000
 Structure written by MMmdl.
 39 40  0  0  0  0  0  0  0  0  2 V2000
  146.5523  138.8459  153.5546 C   0  0  0  0  0  0  0  0  0  0  0  0
  146.4991  140.2197  152.9815 N   0  3  0  0  0  0  0  0  0  0  0  0
  147.0126  140.2113  151.5872 C   0  0  0  0  0  0  0  0  0  0  0  0
  147.0368  141.3273  153.8543 C   0  0  0  0  0  0  0  0  0  0  0  0
  148.5787  141.1539  154.0373 C   0  0  0  0  0  0  0  0  0  0  0  0
  149.1714  142.0995  154.9848 N   0  0  0  0  0  0  0  0  0  0  0  0
  150.1134  141.8106  155.8942 C   0  0  0  0  0  0  0  0  0  0  0  0
  150.6002  140.6893  156.0360 O   0  0  0  0  0  0  0  0  0  0  0  0
  150.4482  142.8984  156.6063 N   0  0  0  0  0  0  0  0  0  0  0  0
  151.3977  142.9908  157.6540 C   0  0  0  0  0  0  0  0  0  0  0  0
  151.9341  141.8691  158.1380 N   0  0  0  0  0  0  0  0  0  0  0  0
  152.8503  142.1254  159.1623 C   0  0  0  0  0  0  0  0  0  0  0  0
  153.0020  143.4600  159.4460 C   0  0  0  0  0  0  0  0  0  0  0  0
  151.9933  144.4582  158.4341 S   0  0  0  0  0  0  0  0  0  0  0  0
  146.7428  142.7200  153.2167 C   0  0  0  0  0  0  0  0  0  0  0  0
  145.7010  143.4019  154.1065 C   0  0  0  0  0  0  0  0  0  0  0  0
  145.9708  142.8389  155.4967 C   0  0  0  0  0  0  0  0  0  0  0  0
  146.3317  141.3744  155.2414 C   0  0  0  0  0  0  0  0  0  0  0  0
  147.5673  138.4512  153.5829 H   0  0  0  0  0  0  0  0  0  0  0  0
  145.9647  138.1674  152.9352 H   0  0  0  0  0  0  0  0  0  0  0  0
  146.1354  138.7757  154.5568 H   0  0  0  0  0  0  0  0  0  0  0  0
  148.1024  140.1872  151.5631 H   0  0  0  0  0  0  0  0  0  0  0  0
  146.6683  141.0764  151.0224 H   0  0  0  0  0  0  0  0  0  0  0  0
  146.6502  139.3367  151.0457 H   0  0  0  0  0  0  0  0  0  0  0  0
  148.8142  140.1732  154.4481 H   0  0  0  0  0  0  0  0  0  0  0  0
  149.0729  141.2029  153.0654 H   0  0  0  0  0  0  0  0  0  0  0  0
  148.8353  143.0507  154.9430 H   0  0  0  0  0  0  0  0  0  0  0  0
  149.9722  143.7578  156.3752 H   0  0  0  0  0  0  0  0  0  0  0  0
  153.3518  141.2950  159.6370 H   0  0  0  0  0  0  0  0  0  0  0  0
  153.6433  143.9145  160.1866 H   0  0  0  0  0  0  0  0  0  0  0  0
  147.6305  143.3505  153.2034 H   0  0  0  0  0  0  0  0  0  0  0  0
  146.4317  142.6745  152.1734 H   0  0  0  0  0  0  0  0  0  0  0  0
  145.7704  144.4897  154.0743 H   0  0  0  0  0  0  0  0  0  0  0  0
  144.6958  143.1250  153.7870 H   0  0  0  0  0  0  0  0  0  0  0  0
  146.8162  143.3600  155.9474 H   0  0  0  0  0  0  0  0  0  0  0  0
  145.1178  142.9494  156.1668 H   0  0  0  0  0  0  0  0  0  0  0  0
  145.4131  140.7912  155.2553 H   0  0  0  0  0  0  0  0  0  0  0  0
  146.9490  140.9691  156.0440 H   0  0  0  0  0  0  0  0  0  0  0  0
  145.5125  140.4200  152.8962 H   0  0  0  0  0  0  0  0  0  0  0  0
  1  2  1  0  0  0  0
  1 19  1  0  0  0  0
  1 20  1  0  0  0  0
  1 21  1  0  0  0  0
  2  3  1  0  0  0  0
  2  4  1  0  0  0  0
  2 39  1  0  0  0  0
  3 22  1  0  0  0  0
  3 23  1  0  0  0  0
  3 24  1  0  0  0  0
  4 18  1  0  0  0  0
  4  5  1  0  0  0  0
  4 15  1  0  0  0  0
  5  6  1  0  0  0  0
  5 25  1  0  0  0  0
  5 26  1  0  0  0  0
  6  7  1  0  0  0  0
  6 27  1  0  0  0  0
  7  8  2  0  0  0  0
  7  9  1  0  0  0  0
  9 10  1  0  0  0  0
  9 28  1  0  0  0  0
 10 14  1  0  0  0  0
 10 11  2  0  0  0  0
 11 12  1  0  0  0  0
 12 13  2  0  0  0  0
 12 29  1  0  0  0  0
 13 14  1  0  0  0  0
 13 30  1  0  0  0  0
 15 16  1  0  0  0  0
 15 31  1  0  0  0  0
 15 32  1  0  0  0  0
 16 17  1  0  0  0  0
 16 33  1  0  0  0  0
 16 34  1  0  0  0  0
 17 18  1  0  0  0  0
 17 35  1  0  0  0  0
 17 36  1  0  0  0  0
 18 37  1  0  0  0  0
 18 38  1  0  0  0  0
M  CHG  1   2   1
M  END
> <s_m_source_file>
AV-unprocessed.smi

> <i_m_source_file_index>
2084

> <i_lp_mmshare_version>
43012

> <i_f3d_flags>
0

> <s_epik_input>
W0NIMl0xW0NIMl1bQ0gyXVtDSDJdQzEoTihbQ0gzXSlbQ0gzXSlbQ0gyXVtOSF1DKD1PKVtOSF1jMm5bY0hdW2NIXXMy

> <s_epik_cmdline>
J2VwaWtfcHl0aG9uJywgJy1waCcsICc3LjAnLCAnLXRuJywgJzgnLCAnLW1hJywgJzIwMCcsICctbWV0YWxfYmluZGluZycsICctaW1hZScsICc8aW5maWxlLm1hZT4nLCAnLW9tYWUnLCAnPG91dGZpbGUubWFlPic=

> <r_lp_tautomer_probability>
1

> <r_epik_Ionization_Penalty>
0.0027968

> <r_epik_Ionization_Penalty_Charging>
0.00256589

> <r_epik_Ionization_Penalty_Neutral>
0.000230907

> <r_epik_State_Penalty>
-0

> <r_epik_Charging_Adjusted_Penalty>
0.00256589

> <i_epik_Tot_Q>
1

> <i_epik_Tot_abs_Q>
1

> <r_epik_Metal_State_Penalty>
0.0129581

> <b_epik_Metal_Only>
0

> <s_lp_Force_Field>
OPLS_2005

> <r_lp_Energy>
35.9551

> <b_lp_Chiralities_Consistent>
1

> <s_lp_Variant>
AV-unprocessed.smi:2084-1

> <Gold.Version>
5.8.1

> <Gold.Id.Protein>
6NUR|6NUR_protein|mol2

> <Gold.PLP.Fitness>
48.7298

> <Gold.PLP.PLP>
-37.1138

> <Gold.PLP.part.hbond>
-3.0000

> <Gold.PLP.part.metal>
0.0000

> <Gold.PLP.part.buried>
-3.8835

> <Gold.PLP.part.nonpolar>
-31.4882

> <Gold.PLP.part.repulsive>
0.2770

> <Gold.PLP.ligand.clash>
0.0000

> <Gold.PLP.ligand.torsion>
0.2396

> <Gold.PLP.Chemscore.Hbond>
3.9920

> <Gold.PLP.Chemscore.CHOScore>
0.0000

> <Gold.PLP.Chemscore.Metal>
0.0000

> <Gold.Chemscore.Hbonds>
donor molecule, donor type, donor heavy atom, donor atom, acceptor molecule, acceptor atom, score
      L1  H     2    39       P1 10175  2.00
      L1  H     6    27       P1  8028  0.98
      L1  H     9    28       P1  8028  1.00

> <Gold.PLP.Chemscore.Internal.Correction>
0.1191

> <Gold.Rescore>
     Score         DG    S(hbond)    S(metal)    S(lipo)     H(rot)  DE(clash)    DE(int)     intcor
     17.68     -20.78       2.88        0.00      83.11       1.59       1.38       1.72       ----

> <Gold.Chemscore.Fitness>
17.6811

> <Gold.Chemscore.DG>
-20.7799

> <Gold.Chemscore.ZeroCoef>
-5.4800

> <Gold.Chemscore.Hbond>
2.8843

> <Gold.Chemscore.Metal>
0.0000

> <Gold.Chemscore.Lipo>
83.1107

> <Gold.Chemscore.Internal_Hbond>
0.0000

> <Gold.Chemscore.DEClash>
1.3799

> <Gold.Chemscore.DEInternal>
1.7189

> <Gold.Chemscore.Rot>
1.5850

> <Gold.Chemscore.Internal.Correction>
   9.000000E+99

> <Gold.Chemscore.Hbonds>
donor molecule, donor type, donor heavy atom, donor atom, acceptor molecule, acceptor atom, score
      L1  H     2    39       P1 10175  0.88
      L1  H     6    27       P1  8028  0.93
      L1  H     9    28       P1  8028  0.98

> <Gold.Chemscore.Hbond.Weighted>
-9.6337

> <Gold.Chemscore.Metal.Weighted>
-0.0000

> <Gold.Chemscore.Lipo.Weighted>
-9.7239

> <Gold.Chemscore.Internal_Hbond.Weighted>
0.0000

> <Gold.Chemscore.DEClash.Weighted>
1.3799

> <Gold.Chemscore.DEInternal.Weighted>
1.7189

> <Gold.Chemscore.Rot.Weighted>
4.0577

> <Gold.Chemscore.Internal.Correction.Weighted>
   9.000000E+99

> <Gold.Protein.RotatedTorsions>
[ 6907 6896 6895 6894 ] final  -12.33 input  -60.11 | X-H torsion
[ 7974 7965 7964 7962 ] final -109.39 input  175.53 | X-H torsion
[ 8008 7997 7996 7995 ] final   -4.96 input   59.86 | X-H torsion
[ 10167 10162 10161 10158 ] final   46.84 input  -65.29 | X-H torsion
[ 10718 10713 10712 10709 ] final   44.47 input   66.30 | X-H torsion
[ 10763 10752 10751 10750 ] final -112.33 input  -60.55 | X-H torsion
[ 11005 11000 10999 10996 ] final   65.38 input  -57.11 | X-H torsion

> <Gold.Protein.ActiveResidues>
 VAL166  LYS551  ARG553  GLY616  TRP617  ASP618  TYR619  PRO620  LYS621  CYS622 
 ASP623  PHE694  ASN695  SER759  ASP760  ASP761  ALA762  ILE779  LEU786  VAL792 
 PHE793  MET794  SER795  GLU796  ALA797  LYS798  CYS799  TRP800  GLU811  SER814 

> <Gold.Protein.RotatedAtoms>
  151.3722  135.0924  159.9468 H   0  0  0  0  0  0  0  0  0  0  0  0  # atno 6907 bound_to 6896
  152.5132  133.9153  159.7518 H   0  0  0  0  0  0  0  0  0  0  0  0  # atno 6908 bound_to 6896
  150.9569  133.6432  159.2790 H   0  0  0  0  0  0  0  0  0  0  0  0  # atno 6909 bound_to 6896
  145.1811  140.8971  143.3479 H   0  0  0  0  0  0  0  0  0  0  0  0  # atno 7974 bound_to 7965
  154.6089  140.2470  155.7695 H   0  0  0  0  0  0  0  0  0  0  0  0  # atno 8008 bound_to 7997
  156.2358  140.2950  156.0259 H   0  0  0  0  0  0  0  0  0  0  0  0  # atno 8009 bound_to 7997
  155.2086  140.0396  157.2920 H   0  0  0  0  0  0  0  0  0  0  0  0  # atno 8010 bound_to 7997
  140.3098  144.2834  150.6202 H   0  0  0  0  0  0  0  0  0  0  0  0  # atno 10167 bound_to 10162
  157.4271  130.8003  149.7569 H   0  0  0  0  0  0  0  0  0  0  0  0  # atno 10718 bound_to 10713
  154.8344  135.4495  154.1177 H   0  0  0  0  0  0  0  0  0  0  0  0  # atno 10763 bound_to 10752
  153.2421  135.6917  153.7777 H   0  0  0  0  0  0  0  0  0  0  0  0  # atno 10764 bound_to 10752
  153.7121  135.3355  155.3224 H   0  0  0  0  0  0  0  0  0  0  0  0  # atno 10765 bound_to 10752
  139.9898  134.6610  156.0111 H   0  0  0  0  0  0  0  0  0  0  0  0  # atno 11005 bound_to 11000
  145.0135  139.3488  143.6108 LP  0  0  0  0  0  0  0  0  0  0  0  0  # atno 17320 bound_to 7965
  146.3453  139.9408  142.8741 LP  0  0  0  0  0  0  0  0  0  0  0  0  # atno 17321 bound_to 7965
  140.5578  143.2196  151.7817 LP  0  0  0  0  0  0  0  0  0  0  0  0  # atno 17342 bound_to 10162
  139.4896  144.4389  151.9787 LP  0  0  0  0  0  0  0  0  0  0  0  0  # atno 17343 bound_to 10162
  155.9900  130.3947  150.3046 LP  0  0  0  0  0  0  0  0  0  0  0  0  # atno 17370 bound_to 10713
  157.1200  131.0244  151.3013 LP  0  0  0  0  0  0  0  0  0  0  0  0  # atno 17371 bound_to 10713
  141.1556  133.6543  156.4151 LP  0  0  0  0  0  0  0  0  0  0  0  0  # atno 17394 bound_to 11000
  140.4931  134.6557  157.5218 LP  0  0  0  0  0  0  0  0  0  0  0  0  # atno 17395 bound_to 11000

$$$$
