AV-unprocessed.smi:2837|AV-procd|sdf|10925|dock7
  -GOLD-   2272015373D 1   1.00000     0.00000
 Structure written by MMmdl.
 33 35  0  0  0  0  0  0  0  0  2 V2000
  153.9849  141.1072  161.3565 F   0  0  0  0  0  0  0  0  0  0  0  0
  153.0017  142.0331  161.2518 C   0  0  0  0  0  0  0  0  0  0  0  0
  153.0378  142.7964  162.3714 F   0  0  0  0  0  0  0  0  0  0  0  0
  153.2090  142.7994  160.1478 O   0  0  0  0  0  0  0  0  0  0  0  0
  152.3489  142.6887  159.0792 C   0  0  0  0  0  0  0  0  0  0  0  0
  152.2086  141.4291  158.4606 C   0  0  0  0  0  0  0  0  0  0  0  0
  151.3459  141.2804  157.3553 C   0  0  0  0  0  0  0  0  0  0  0  0
  150.6360  142.4048  156.8715 C   0  0  0  0  0  0  0  0  0  0  0  0
  149.7524  142.3801  155.7835 N   0  0  0  0  0  0  0  0  0  0  0  0
  149.4931  141.1487  155.0464 C   0  0  1  0  0  0  0  0  0  0  0  0
  148.7644  140.0929  155.8815 C   0  0  0  0  0  0  0  0  0  0  0  0
  147.5651  139.7537  154.9850 C   0  0  1  0  0  0  0  0  0  0  0  0
  146.5085  140.8652  155.0139 C   0  0  0  0  0  0  0  0  0  0  0  0
  147.1924  141.9639  154.2028 C   0  0  0  0  0  0  0  0  0  0  0  0
  148.5374  141.3075  153.8464 C   0  0  2  0  0  0  0  0  0  0  0  0
  148.1219  139.9608  153.6974 O   0  0  0  0  0  0  0  0  0  0  0  0
  150.8056  143.5970  157.4847 N   0  3  0  0  0  0  0  0  0  0  0  0
  151.6204  143.7796  158.5467 C   0  0  0  0  0  0  0  0  0  0  0  0
  152.0497  141.5041  161.2017 H   0  0  0  0  0  0  0  0  0  0  0  0
  152.7584  140.5779  158.8350 H   0  0  0  0  0  0  0  0  0  0  0  0
  151.2438  140.3074  156.8989 H   0  0  0  0  0  0  0  0  0  0  0  0
  149.4311  143.2508  155.3857 H   0  0  0  0  0  0  0  0  0  0  0  0
  150.4388  140.7225  154.7095 H   0  0  0  0  0  0  0  0  0  0  0  0
  149.4018  139.2197  156.0252 H   0  0  0  0  0  0  0  0  0  0  0  0
  148.4504  140.4464  156.8649 H   0  0  0  0  0  0  0  0  0  0  0  0
  147.1600  138.7544  155.1462 H   0  0  0  0  0  0  0  0  0  0  0  0
  145.5907  140.5420  154.5213 H   0  0  0  0  0  0  0  0  0  0  0  0
  146.2603  141.1781  156.0287 H   0  0  0  0  0  0  0  0  0  0  0  0
  146.6202  142.1764  153.2993 H   0  0  0  0  0  0  0  0  0  0  0  0
  147.3024  142.8968  154.7560 H   0  0  0  0  0  0  0  0  0  0  0  0
  149.0065  141.7251  152.9554 H   0  0  0  0  0  0  0  0  0  0  0  0
  151.6632  144.7903  158.9263 H   0  0  0  0  0  0  0  0  0  0  0  0
  150.2945  144.4043  157.1270 H   0  0  0  0  0  0  0  0  0  0  0  0
  1  2  1  0  0  0  0
  2  3  1  0  0  0  0
  2  4  1  0  0  0  0
  2 19  1  0  0  0  0
  4  5  1  0  0  0  0
  5 18  1  0  0  0  0
  5  6  2  0  0  0  0
  6  7  1  0  0  0  0
  6 20  1  0  0  0  0
  7  8  2  0  0  0  0
  7 21  1  0  0  0  0
  8  9  1  0  0  0  0
  8 17  1  0  0  0  0
  9 10  1  0  0  0  0
  9 22  1  0  0  0  0
 10 15  1  0  0  0  0
 10 11  1  0  0  0  0
 10 23  1  0  0  0  0
 11 12  1  0  0  0  0
 11 24  1  0  0  0  0
 11 25  1  0  0  0  0
 12 16  1  0  0  0  0
 12 13  1  0  0  0  0
 12 26  1  0  0  0  0
 13 14  1  0  0  0  0
 13 27  1  0  0  0  0
 13 28  1  0  0  0  0
 14 15  1  0  0  0  0
 14 29  1  0  0  0  0
 14 30  1  0  0  0  0
 15 16  1  0  0  0  0
 15 31  1  0  0  0  0
 17 18  2  0  0  0  0
 17 33  1  0  0  0  0
 18 32  1  0  0  0  0
M  CHG  1  17   1
M  END
> <s_m_source_file>
AV-unprocessed.smi

> <i_m_source_file_index>
2837

> <i_lp_mmshare_version>
43012

> <i_f3d_flags>
0

> <s_epik_input>
RltDSF0oRilPYzFbY0hdW2NIXWMobltjSF0xKVtOSF1bQ0BIXShbQ0gyXVtDQEBIXTIzKVtDQEBIXShPMylbQ0gyXVtDSDJdMg==

> <s_epik_cmdline>
J2VwaWtfcHl0aG9uJywgJy1waCcsICc3LjAnLCAnLXRuJywgJzgnLCAnLW1hJywgJzIwMCcsICctbWV0YWxfYmluZGluZycsICctaW1hZScsICc8aW5maWxlLm1hZT4nLCAnLW9tYWUnLCAnPG91dGZpbGUubWFlPic=

> <r_lp_tautomer_probability>
0.999429

> <r_epik_Ionization_Penalty>
2.29716

> <r_epik_Ionization_Penalty_Charging>
2.29716

> <r_epik_Ionization_Penalty_Neutral>
1.42285e-06

> <r_epik_State_Penalty>
2.44762

> <r_epik_Charging_Adjusted_Penalty>
4.74478

> <i_epik_Tot_Q>
1

> <i_epik_Tot_abs_Q>
1

> <r_epik_Metal_State_Penalty>
6.53078

> <b_epik_Metal_Only>
0

> <s_lp_Force_Field>
OPLS_2005

> <r_lp_Energy>
46.8356

> <b_lp_Chiralities_Consistent>
1

> <s_lp_Variant>
AV-unprocessed.smi:2837-6

> <Gold.Version>
5.8.1

> <Gold.Id.Protein>
6NUR|6NUR_protein|mol2

> <Gold.PLP.Fitness>
47.1234

> <Gold.PLP.PLP>
-38.1032

> <Gold.PLP.part.hbond>
-1.9921

> <Gold.PLP.part.metal>
0.0000

> <Gold.PLP.part.buried>
-5.1618

> <Gold.PLP.part.nonpolar>
-32.2357

> <Gold.PLP.part.repulsive>
0.7658

> <Gold.PLP.ligand.clash>
0.0000

> <Gold.PLP.ligand.torsion>
0.7279

> <Gold.PLP.Chemscore.Hbond>
3.4880

> <Gold.PLP.Chemscore.CHOScore>
0.0000

> <Gold.PLP.Chemscore.Metal>
0.0000

> <Gold.Chemscore.Hbonds>
donor molecule, donor type, donor heavy atom, donor atom, acceptor molecule, acceptor atom, score
      L1  H     9    22       P1  8028  1.92
      L1  H    17    33       P1  8028  1.47

> <Gold.PLP.Chemscore.Internal.Correction>
0.0119

> <Gold.Rescore>
     Score         DG    S(hbond)    S(metal)    S(lipo)     H(rot)  DE(clash)    DE(int)     intcor
     15.68     -16.44       1.69        0.00      74.65       1.34       0.01       0.75       ----

> <Gold.Chemscore.Fitness>
15.6763

> <Gold.Chemscore.DG>
-16.4372

> <Gold.Chemscore.ZeroCoef>
-5.4800

> <Gold.Chemscore.Hbond>
1.6901

> <Gold.Chemscore.Metal>
0.0000

> <Gold.Chemscore.Lipo>
74.6538

> <Gold.Chemscore.Internal_Hbond>
0.0000

> <Gold.Chemscore.DEClash>
0.0121

> <Gold.Chemscore.DEInternal>
0.7488

> <Gold.Chemscore.Rot>
1.3368

> <Gold.Chemscore.Internal.Correction>
   9.000000E+99

> <Gold.Chemscore.Hbonds>
donor molecule, donor type, donor heavy atom, donor atom, acceptor molecule, acceptor atom, score
      L1  H     9    22       P1  8028  0.90
      L1  H    17    33       P1  8028  0.51

> <Gold.Chemscore.Hbond.Weighted>
-5.6450

> <Gold.Chemscore.Metal.Weighted>
-0.0000

> <Gold.Chemscore.Lipo.Weighted>
-8.7345

> <Gold.Chemscore.Internal_Hbond.Weighted>
0.0000

> <Gold.Chemscore.DEClash.Weighted>
0.0121

> <Gold.Chemscore.DEInternal.Weighted>
0.7488

> <Gold.Chemscore.Rot.Weighted>
3.4223

> <Gold.Chemscore.Internal.Correction.Weighted>
   9.000000E+99

> <Gold.Protein.RotatedTorsions>
[ 6907 6896 6895 6894 ] final  -16.28 input  -60.11 | X-H torsion
[ 7974 7965 7964 7962 ] final -145.49 input  175.53 | X-H torsion
[ 8008 7997 7996 7995 ] final  -83.29 input   59.86 | X-H torsion
[ 10167 10162 10161 10158 ] final   52.71 input  -65.29 | X-H torsion
[ 10718 10713 10712 10709 ] final -149.35 input   66.30 | X-H torsion
[ 10763 10752 10751 10750 ] final   66.42 input  -60.55 | X-H torsion
[ 11005 11000 10999 10996 ] final  110.68 input  -57.11 | X-H torsion

> <Gold.Protein.ActiveResidues>
 VAL166  LYS551  ARG553  GLY616  TRP617  ASP618  TYR619  PRO620  LYS621  CYS622 
 ASP623  PHE694  ASN695  SER759  ASP760  ASP761  ALA762  ILE779  LEU786  VAL792 
 PHE793  MET794  SER795  GLU796  ALA797  LYS798  CYS799  TRP800  GLU811  SER814 

> <Gold.Protein.RotatedAtoms>
  151.3110  135.0794  159.9272 H   0  0  0  0  0  0  0  0  0  0  0  0  # atno 6907 bound_to 6896
  152.5277  133.9736  159.7784 H   0  0  0  0  0  0  0  0  0  0  0  0  # atno 6908 bound_to 6896
  151.0039  133.5977  159.2721 H   0  0  0  0  0  0  0  0  0  0  0  0  # atno 6909 bound_to 6896
  144.8224  140.5577  143.5569 H   0  0  0  0  0  0  0  0  0  0  0  0  # atno 7974 bound_to 7965
  154.6175  140.0621  156.9573 H   0  0  0  0  0  0  0  0  0  0  0  0  # atno 8008 bound_to 7997
  155.1872  140.3304  155.4346 H   0  0  0  0  0  0  0  0  0  0  0  0  # atno 8009 bound_to 7997
  156.2412  140.1887  156.6964 H   0  0  0  0  0  0  0  0  0  0  0  0  # atno 8010 bound_to 7997
  140.2485  144.3505  150.6356 H   0  0  0  0  0  0  0  0  0  0  0  0  # atno 10167 bound_to 10162
  156.4320  130.8080  151.2307 H   0  0  0  0  0  0  0  0  0  0  0  0  # atno 10718 bound_to 10713
  153.0139  135.5321  154.6820 H   0  0  0  0  0  0  0  0  0  0  0  0  # atno 10763 bound_to 10752
  154.5978  135.2865  155.0570 H   0  0  0  0  0  0  0  0  0  0  0  0  # atno 10764 bound_to 10752
  154.1639  135.6543  153.5045 H   0  0  0  0  0  0  0  0  0  0  0  0  # atno 10765 bound_to 10752
  139.8887  134.9490  156.6316 H   0  0  0  0  0  0  0  0  0  0  0  0  # atno 11005 bound_to 11000
  145.5075  139.1480  143.3623 LP  0  0  0  0  0  0  0  0  0  0  0  0  # atno 17320 bound_to 7965
  146.2530  140.5215  142.8885 LP  0  0  0  0  0  0  0  0  0  0  0  0  # atno 17321 bound_to 7965
  140.6059  143.2167  151.6982 LP  0  0  0  0  0  0  0  0  0  0  0  0  # atno 17342 bound_to 10162
  139.5054  144.3719  152.0461 LP  0  0  0  0  0  0  0  0  0  0  0  0  # atno 17343 bound_to 10162
  157.7508  131.0195  150.3671 LP  0  0  0  0  0  0  0  0  0  0  0  0  # atno 17370 bound_to 10713
  156.4010  130.3916  149.6959 LP  0  0  0  0  0  0  0  0  0  0  0  0  # atno 17371 bound_to 10713
  140.7662  133.8776  155.8456 LP  0  0  0  0  0  0  0  0  0  0  0  0  # atno 17394 bound_to 11000
  140.9880  134.1317  157.4434 LP  0  0  0  0  0  0  0  0  0  0  0  0  # atno 17395 bound_to 11000

$$$$
