AV-unprocessed.smi:2053|AV-procd|sdf|8330|dock2
  -GOLD-   2272010593D 1   1.00000     0.00000
 Structure written by MMmdl.
 44 45  0  0  0  0  0  0  0  0  1 V2000
  152.0638  144.9631  158.8740 C   0  0  0  0  0  0  0  0  0  0  0  0
  152.0084  143.5690  158.6273 O   0  0  0  0  0  0  0  0  0  0  0  0
  151.2332  143.2504  157.4837 C   0  0  0  0  0  0  0  0  0  0  0  0
  151.1989  141.7294  157.3102 C   0  0  0  0  0  0  0  0  0  0  0  0
  150.7628  141.4303  155.9876 O   0  0  0  0  0  0  0  0  0  0  0  0
  150.7217  140.1095  155.5901 C   0  0  0  0  0  0  0  0  0  0  0  0
  150.8794  139.1072  156.5676 C   0  0  0  0  0  0  0  0  0  0  0  0
  150.8386  137.7582  156.1678 C   0  0  0  0  0  0  0  0  0  0  0  0
  150.6519  137.4492  154.8054 C   0  0  0  0  0  0  0  0  0  0  0  0
  150.5926  136.0790  154.4347 N   0  0  0  0  0  0  0  0  0  0  0  0
  150.1126  135.0372  155.1381 C   0  0  0  0  0  0  0  0  0  0  0  0
  149.5875  135.1298  156.2478 O   0  0  0  0  0  0  0  0  0  0  0  0
  150.2509  133.6615  154.4655 C   0  0  2  0  0  0  0  0  0  0  0  0
  149.0567  133.3379  153.5415 C   0  0  0  0  0  0  0  0  0  0  0  0
  148.8582  131.8299  153.6696 C   0  0  0  0  0  0  0  0  0  0  0  0
  149.2816  131.5246  155.1033 C   0  0  0  0  0  0  0  0  0  0  0  0
  150.3181  132.5136  155.3884 N   0  0  0  0  0  0  0  0  0  0  0  0
  151.2892  132.4489  156.8253 S   0  0  0  0  0  0  0  0  0  0  0  0
  152.4077  131.0193  156.5202 C   0  0  0  0  0  0  0  0  0  0  0  0
  152.1109  133.6684  156.8543 O   0  0  0  0  0  0  0  0  0  0  0  0
  150.4092  132.1279  157.9593 O   0  0  0  0  0  0  0  0  0  0  0  0
  150.4891  138.5277  153.9021 C   0  0  0  0  0  0  0  0  0  0  0  0
  150.5263  139.8235  154.2792 N   0  0  0  0  0  0  0  0  0  0  0  0
  152.6655  145.1542  159.7626 H   0  0  0  0  0  0  0  0  0  0  0  0
  151.0679  145.3731  159.0471 H   0  0  0  0  0  0  0  0  0  0  0  0
  152.5208  145.4939  158.0377 H   0  0  0  0  0  0  0  0  0  0  0  0
  150.2188  143.6359  157.5991 H   0  0  0  0  0  0  0  0  0  0  0  0
  151.6655  143.7162  156.5967 H   0  0  0  0  0  0  0  0  0  0  0  0
  152.1951  141.3188  157.4839 H   0  0  0  0  0  0  0  0  0  0  0  0
  150.5189  141.2909  158.0427 H   0  0  0  0  0  0  0  0  0  0  0  0
  151.0268  139.3684  157.6051 H   0  0  0  0  0  0  0  0  0  0  0  0
  150.9530  136.9727  156.9007 H   0  0  0  0  0  0  0  0  0  0  0  0
  150.9241  135.8672  153.5047 H   0  0  0  0  0  0  0  0  0  0  0  0
  151.1654  133.6458  153.8703 H   0  0  0  0  0  0  0  0  0  0  0  0
  148.1418  133.8414  153.8569 H   0  0  0  0  0  0  0  0  0  0  0  0
  149.2468  133.6317  152.5088 H   0  0  0  0  0  0  0  0  0  0  0  0
  147.8360  131.5172  153.4549 H   0  0  0  0  0  0  0  0  0  0  0  0
  149.5206  131.3128  152.9740 H   0  0  0  0  0  0  0  0  0  0  0  0
  148.4529  131.6652  155.7979 H   0  0  0  0  0  0  0  0  0  0  0  0
  149.6630  130.5092  155.2129 H   0  0  0  0  0  0  0  0  0  0  0  0
  153.1273  130.9472  157.3354 H   0  0  0  0  0  0  0  0  0  0  0  0
  152.9409  131.1661  155.5815 H   0  0  0  0  0  0  0  0  0  0  0  0
  151.8340  130.0953  156.4728 H   0  0  0  0  0  0  0  0  0  0  0  0
  150.3008  138.3713  152.8515 H   0  0  0  0  0  0  0  0  0  0  0  0
  1  2  1  0  0  0  0
  1 24  1  0  0  0  0
  1 25  1  0  0  0  0
  1 26  1  0  0  0  0
  2  3  1  0  0  0  0
  3  4  1  0  0  0  0
  3 27  1  0  0  0  0
  3 28  1  0  0  0  0
  4  5  1  0  0  0  0
  4 29  1  0  0  0  0
  4 30  1  0  0  0  0
  5  6  1  0  0  0  0
  6 23  1  0  0  0  0
  6  7  2  0  0  0  0
  7  8  1  0  0  0  0
  7 31  1  0  0  0  0
  8  9  2  0  0  0  0
  8 32  1  0  0  0  0
  9 10  1  0  0  0  0
  9 22  1  0  0  0  0
 10 11  1  0  0  0  0
 10 33  1  0  0  0  0
 11 12  2  0  0  0  0
 11 13  1  0  0  0  0
 13 17  1  0  0  0  0
 13 14  1  0  0  0  0
 13 34  1  0  0  0  0
 14 15  1  0  0  0  0
 14 35  1  0  0  0  0
 14 36  1  0  0  0  0
 15 16  1  0  0  0  0
 15 37  1  0  0  0  0
 15 38  1  0  0  0  0
 16 17  1  0  0  0  0
 16 39  1  0  0  0  0
 16 40  1  0  0  0  0
 17 18  1  0  0  0  0
 18 19  1  0  0  0  0
 18 20  2  0  0  0  0
 18 21  2  0  0  0  0
 19 41  1  0  0  0  0
 19 42  1  0  0  0  0
 19 43  1  0  0  0  0
 22 23  2  0  0  0  0
 22 44  1  0  0  0  0
M  END
> <s_m_source_file>
AV-unprocessed.smi

> <i_m_source_file_index>
2053

> <i_lp_mmshare_version>
43012

> <i_f3d_flags>
0

> <s_epik_input>
W0NIM11PW0NIMl1bQ0gyXU9jMVtjSF1bY0hdYyhbY0hdbjEpW05IXUMoPU8pW0NAQEhdMltDSDJdW0NIMl1bQ0gyXU4yUyg9TykoPU8pW0NIM10=

> <s_epik_cmdline>
J2VwaWtfcHl0aG9uJywgJy1waCcsICc3LjAnLCAnLXRuJywgJzgnLCAnLW1hJywgJzIwMCcsICctbWV0YWxfYmluZGluZycsICctaW1hZScsICc8aW5maWxlLm1hZT4nLCAnLW9tYWUnLCAnPG91dGZpbGUubWFlPic=

> <r_lp_tautomer_probability>
1

> <r_epik_Ionization_Penalty>
1.28704e-05

> <r_epik_Ionization_Penalty_Charging>
0

> <r_epik_Ionization_Penalty_Neutral>
1.28704e-05

> <r_epik_State_Penalty>
-0

> <r_epik_Charging_Adjusted_Penalty>
0

> <i_epik_Tot_Q>
0

> <i_epik_Tot_abs_Q>
0

> <r_epik_Metal_State_Penalty>
-0

> <b_epik_Metal_Only>
0

> <s_lp_Force_Field>
OPLS_2005

> <r_lp_Energy>
14.296

> <b_lp_Chiralities_Consistent>
1

> <s_lp_Variant>
AV-unprocessed.smi:2053-1

> <Gold.Version>
5.8.1

> <Gold.Id.Protein>
6NUR|6NUR_protein|mol2

> <Gold.PLP.Fitness>
50.1432

> <Gold.PLP.PLP>
-39.3508

> <Gold.PLP.part.hbond>
-4.5528

> <Gold.PLP.part.metal>
0.0000

> <Gold.PLP.part.buried>
-4.8920

> <Gold.PLP.part.nonpolar>
-30.5245

> <Gold.PLP.part.repulsive>
0.3287

> <Gold.PLP.ligand.clash>
0.2160

> <Gold.PLP.ligand.torsion>
2.1980

> <Gold.PLP.Chemscore.Hbond>
2.5500

> <Gold.PLP.Chemscore.CHOScore>
1.8308

> <Gold.PLP.Chemscore.Metal>
0.0000

> <Gold.Chemscore.Hbonds>
donor molecule, donor type, donor heavy atom, donor atom, acceptor molecule, acceptor atom, score
      L1  H    10    33       P1  7949  0.75
      P1  H  6896  6907       L1    21  0.85
      P1  H  7989  7998       L1    23  1.00
      L1  C    22    44       P1  7948  0.51
      L1  C    22    44       P1  7949  0.05
      L1  C    22    44       P1  7957  0.91

> <Gold.PLP.Chemscore.Internal.Correction>
2.2621

> <Gold.Rescore>
     Score         DG    S(hbond)    S(metal)    S(lipo)     H(rot)  DE(clash)    DE(int)     intcor
      7.45     -13.49       0.95        0.00      83.83       1.94       0.33       5.70       ----

> <Gold.Chemscore.Fitness>
7.4507

> <Gold.Chemscore.DG>
-13.4853

> <Gold.Chemscore.ZeroCoef>
-5.4800

> <Gold.Chemscore.Hbond>
0.9460

> <Gold.Chemscore.Metal>
0.0000

> <Gold.Chemscore.Lipo>
83.8338

> <Gold.Chemscore.Internal_Hbond>
0.0000

> <Gold.Chemscore.DEClash>
0.3304

> <Gold.Chemscore.DEInternal>
5.7042

> <Gold.Chemscore.Rot>
1.9386

> <Gold.Chemscore.Internal.Correction>
   9.000000E+99

> <Gold.Chemscore.Hbonds>
donor molecule, donor type, donor heavy atom, donor atom, acceptor molecule, acceptor atom, score
      L1  H    10    33       P1  7949  0.09
      P1  H  6896  6907       L1    21  0.14
      P1  H  7989  7998       L1    23  0.38

> <Gold.Chemscore.Hbond.Weighted>
-3.1596

> <Gold.Chemscore.Metal.Weighted>
-0.0000

> <Gold.Chemscore.Lipo.Weighted>
-9.8086

> <Gold.Chemscore.Internal_Hbond.Weighted>
0.0000

> <Gold.Chemscore.DEClash.Weighted>
0.3304

> <Gold.Chemscore.DEInternal.Weighted>
5.7042

> <Gold.Chemscore.Rot.Weighted>
4.9629

> <Gold.Chemscore.Internal.Correction.Weighted>
   9.000000E+99

> <Gold.Protein.RotatedTorsions>
[ 6907 6896 6895 6894 ] final -151.77 input  -60.11 | X-H torsion
[ 7974 7965 7964 7962 ] final   33.86 input  175.53 | X-H torsion
[ 8008 7997 7996 7995 ] final  145.66 input   59.86 | X-H torsion
[ 10167 10162 10161 10158 ] final -142.85 input  -65.29 | X-H torsion
[ 10718 10713 10712 10709 ] final   87.32 input   66.30 | X-H torsion
[ 10763 10752 10751 10750 ] final   41.72 input  -60.55 | X-H torsion
[ 11005 11000 10999 10996 ] final -150.02 input  -57.11 | X-H torsion

> <Gold.Protein.ActiveResidues>
 VAL166  LYS551  ARG553  GLY616  TRP617  ASP618  TYR619  PRO620  LYS621  CYS622 
 ASP623  PHE694  ASN695  SER759  ASP760  ASP761  ALA762  ILE779  LEU786  VAL792 
 PHE793  MET794  SER795  GLU796  ALA797  LYS798  CYS799  TRP800  GLU811  SER814 

> <Gold.Protein.RotatedAtoms>
  151.2180  133.4518  159.2599 H   0  0  0  0  0  0  0  0  0  0  0  0  # atno 6907 bound_to 6896
  151.0912  134.9917  159.8414 H   0  0  0  0  0  0  0  0  0  0  0  0  # atno 6908 bound_to 6896
  152.5435  134.2113  159.8804 H   0  0  0  0  0  0  0  0  0  0  0  0  # atno 6909 bound_to 6896
  146.1392  139.6342  142.9175 H   0  0  0  0  0  0  0  0  0  0  0  0  # atno 7974 bound_to 7965
  156.2877  140.2203  156.5251 H   0  0  0  0  0  0  0  0  0  0  0  0  # atno 8008 bound_to 7997
  154.7496  140.0481  157.0904 H   0  0  0  0  0  0  0  0  0  0  0  0  # atno 8009 bound_to 7997
  155.0127  140.3115  155.4827 H   0  0  0  0  0  0  0  0  0  0  0  0  # atno 8010 bound_to 7997
  139.8049  143.7783  152.2660 H   0  0  0  0  0  0  0  0  0  0  0  0  # atno 10167 bound_to 10162
  157.6939  131.0251  150.3105 H   0  0  0  0  0  0  0  0  0  0  0  0  # atno 10718 bound_to 10713
  152.9901  135.6153  154.2834 H   0  0  0  0  0  0  0  0  0  0  0  0  # atno 10763 bound_to 10752
  154.2562  135.2784  155.2798 H   0  0  0  0  0  0  0  0  0  0  0  0  # atno 10764 bound_to 10752
  154.5245  135.5805  153.6765 H   0  0  0  0  0  0  0  0  0  0  0  0  # atno 10765 bound_to 10752
  140.7446  134.3476  157.5140 H   0  0  0  0  0  0  0  0  0  0  0  0  # atno 11005 bound_to 11000
  145.5086  141.0436  143.2500 LP  0  0  0  0  0  0  0  0  0  0  0  0  # atno 17320 bound_to 7965
  144.7773  139.6602  143.7169 LP  0  0  0  0  0  0  0  0  0  0  0  0  # atno 17321 bound_to 7965
  139.7914  144.7409  150.9950 LP  0  0  0  0  0  0  0  0  0  0  0  0  # atno 17342 bound_to 10162
  140.7819  143.4438  151.0512 LP  0  0  0  0  0  0  0  0  0  0  0  0  # atno 17343 bound_to 10162
  156.3607  130.3846  149.7253 LP  0  0  0  0  0  0  0  0  0  0  0  0  # atno 17370 bound_to 10713
  156.4701  130.7992  151.3010 LP  0  0  0  0  0  0  0  0  0  0  0  0  # atno 17371 bound_to 10713
  139.8799  134.9103  156.3010 LP  0  0  0  0  0  0  0  0  0  0  0  0  # atno 17394 bound_to 11000
  140.9806  133.7270  156.0666 LP  0  0  0  0  0  0  0  0  0  0  0  0  # atno 17395 bound_to 11000

$$$$
