AV-unprocessed.smi:2171|AV-procd|sdf|8827|dock8
  -GOLD-   2272012 23D 1   1.00000     0.00000
 Structure written by MMmdl.
 39 41  0  0  0  0  0  0  0  0  2 V2000
  151.7513  139.9759  155.6362 O   0  0  0  0  0  0  0  0  0  0  0  0
  151.2623  139.3766  156.5933 C   0  0  0  0  0  0  0  0  0  0  0  0
  151.6998  139.7143  158.0178 C   0  0  0  0  0  0  0  0  0  0  0  0
  151.5264  141.1320  158.2805 N   0  0  0  0  0  0  0  0  0  0  0  0
  151.9681  141.8612  159.3648 C   0  0  0  0  0  0  0  0  0  0  0  0
  151.5891  143.1575  159.1641 C   0  0  0  0  0  0  0  0  0  0  0  0
  150.9133  143.1229  157.9123 C   0  0  0  0  0  0  0  0  0  0  0  0
  150.8791  141.9100  157.3844 N   0  0  0  0  0  0  0  0  0  0  0  0
  150.3135  138.4361  156.4707 N   0  0  0  0  0  0  0  0  0  0  0  0
  149.6638  138.0656  155.2181 C   0  0  1  0  0  0  0  0  0  0  0  0
  148.2913  137.4082  155.4178 C   0  0  0  0  0  0  0  0  0  0  0  0
  147.4572  137.8412  154.1985 C   0  0  0  0  0  0  0  0  0  0  0  0
  148.3346  138.7152  153.3881 N   0  3  1  0  0  0  0  0  0  0  0  0
  147.6572  139.6997  152.5062 C   0  0  0  0  0  0  0  0  0  0  0  0
  147.1539  140.9353  153.2713 C   0  0  0  0  0  0  0  0  0  0  0  0
  148.2890  141.5695  154.0815 C   0  0  0  0  0  0  0  0  0  0  0  0
  148.8769  140.5322  155.0438 C   0  0  0  0  0  0  0  0  0  0  0  0
  149.3653  139.2624  154.2980 C   0  0  1  0  0  0  0  0  0  0  0  0
  151.1227  139.1349  158.7404 H   0  0  0  0  0  0  0  0  0  0  0  0
  152.7497  139.4544  158.1597 H   0  0  0  0  0  0  0  0  0  0  0  0
  152.5118  141.4017  160.1773 H   0  0  0  0  0  0  0  0  0  0  0  0
  151.7678  144.0022  159.8127 H   0  0  0  0  0  0  0  0  0  0  0  0
  150.4510  143.9379  157.3749 H   0  0  0  0  0  0  0  0  0  0  0  0
  149.9722  137.9973  157.3144 H   0  0  0  0  0  0  0  0  0  0  0  0
  150.2982  137.3592  154.6785 H   0  0  0  0  0  0  0  0  0  0  0  0
  148.3739  136.3235  155.4950 H   0  0  0  0  0  0  0  0  0  0  0  0
  147.8160  137.7660  156.3324 H   0  0  0  0  0  0  0  0  0  0  0  0
  147.1289  136.9881  153.6042 H   0  0  0  0  0  0  0  0  0  0  0  0
  146.5679  138.3786  154.5292 H   0  0  0  0  0  0  0  0  0  0  0  0
  148.3749  140.0176  151.7490 H   0  0  0  0  0  0  0  0  0  0  0  0
  146.8387  139.2158  151.9722 H   0  0  0  0  0  0  0  0  0  0  0  0
  146.7472  141.6639  152.5694 H   0  0  0  0  0  0  0  0  0  0  0  0
  146.3342  140.6602  153.9357 H   0  0  0  0  0  0  0  0  0  0  0  0
  149.0657  141.9405  153.4115 H   0  0  0  0  0  0  0  0  0  0  0  0
  147.9180  142.4301  154.6390 H   0  0  0  0  0  0  0  0  0  0  0  0
  149.7004  140.9830  155.5990 H   0  0  0  0  0  0  0  0  0  0  0  0
  148.1202  140.2680  155.7838 H   0  0  0  0  0  0  0  0  0  0  0  0
  150.2493  139.5198  153.7127 H   0  0  0  0  0  0  0  0  0  0  0  0
  148.8292  138.0829  152.7748 H   0  0  0  0  0  0  0  0  0  0  0  0
  1  2  2  0  0  0  0
  2  3  1  0  0  0  0
  2  9  1  0  0  0  0
  3  4  1  0  0  0  0
  3 19  1  0  0  0  0
  3 20  1  0  0  0  0
  4  8  1  0  0  0  0
  4  5  1  0  0  0  0
  5  6  2  0  0  0  0
  5 21  1  0  0  0  0
  6  7  1  0  0  0  0
  6 22  1  0  0  0  0
  7  8  2  0  0  0  0
  7 23  1  0  0  0  0
  9 10  1  0  0  0  0
  9 24  1  0  0  0  0
 10 18  1  0  0  0  0
 10 11  1  0  0  0  0
 10 25  1  0  0  0  0
 11 12  1  0  0  0  0
 11 26  1  0  0  0  0
 11 27  1  0  0  0  0
 12 13  1  0  0  0  0
 12 28  1  0  0  0  0
 12 29  1  0  0  0  0
 13 18  1  0  0  0  0
 13 14  1  0  0  0  0
 13 39  1  0  0  0  0
 14 15  1  0  0  0  0
 14 30  1  0  0  0  0
 14 31  1  0  0  0  0
 15 16  1  0  0  0  0
 15 32  1  0  0  0  0
 15 33  1  0  0  0  0
 16 17  1  0  0  0  0
 16 34  1  0  0  0  0
 16 35  1  0  0  0  0
 17 18  1  0  0  0  0
 17 36  1  0  0  0  0
 17 37  1  0  0  0  0
 18 38  1  0  0  0  0
M  CHG  1  13   1
M  END
> <s_m_source_file>
AV-unprocessed.smi

> <i_m_source_file_index>
2171

> <i_lp_mmshare_version>
43012

> <i_f3d_flags>
0

> <s_epik_input>
bjFbY0hdW2NIXVtjSF1uMVtDSDJdQyg9TylbTkhdW0NASF0oW0NIMl1bQ0gyXTIpW0NAQEhdKE4yMylbQ0gyXVtDSDJdW0NIMl1bQ0gyXTM=

> <s_epik_cmdline>
J2VwaWtfcHl0aG9uJywgJy1waCcsICc3LjAnLCAnLXRuJywgJzgnLCAnLW1hJywgJzIwMCcsICctbWV0YWxfYmluZGluZycsICctaW1hZScsICc8aW5maWxlLm1hZT4nLCAnLW9tYWUnLCAnPG91dGZpbGUubWFlPic=

> <r_lp_tautomer_probability>
1

> <r_epik_Ionization_Penalty>
0.00204179

> <r_epik_Ionization_Penalty_Charging>
0.00203239

> <r_epik_Ionization_Penalty_Neutral>
9.40205e-06

> <r_epik_State_Penalty>
0.00138983

> <r_epik_Charging_Adjusted_Penalty>
0.00342221

> <i_epik_Tot_Q>
1

> <i_epik_Tot_abs_Q>
1

> <r_epik_Metal_State_Penalty>
-0

> <b_epik_Metal_Only>
0

> <s_lp_Force_Field>
OPLS_2005

> <r_lp_Energy>
35.3096

> <b_lp_Chiralities_Consistent>
1

> <s_lp_Variant>
AV-unprocessed.smi:2171-2

> <Gold.Version>
5.8.1

> <Gold.Id.Protein>
6NUR|6NUR_protein|mol2

> <Gold.PLP.Fitness>
40.1292

> <Gold.PLP.PLP>
-29.4424

> <Gold.PLP.part.hbond>
-3.0000

> <Gold.PLP.part.metal>
0.0000

> <Gold.PLP.part.buried>
1.1610

> <Gold.PLP.part.nonpolar>
-27.6488

> <Gold.PLP.part.repulsive>
0.1275

> <Gold.PLP.ligand.clash>
0.0000

> <Gold.PLP.ligand.torsion>
0.4070

> <Gold.PLP.Chemscore.Hbond>
2.8320

> <Gold.PLP.Chemscore.CHOScore>
1.0000

> <Gold.PLP.Chemscore.Metal>
0.0000

> <Gold.Chemscore.Hbonds>
donor molecule, donor type, donor heavy atom, donor atom, acceptor molecule, acceptor atom, score
      L1  H    13    39       P1  7948  1.95
      P1  H  7989  7998       L1     1  0.28
      L1  C     7    23       P1  8028  1.00

> <Gold.PLP.Chemscore.Internal.Correction>
0.0047

> <Gold.Rescore>
     Score         DG    S(hbond)    S(metal)    S(lipo)     H(rot)  DE(clash)    DE(int)     intcor
     13.33     -17.59       1.93        0.00      79.87       1.44       1.29       2.96       ----

> <Gold.Chemscore.Fitness>
13.3325

> <Gold.Chemscore.DG>
-17.5891

> <Gold.Chemscore.ZeroCoef>
-5.4800

> <Gold.Chemscore.Hbond>
1.9323

> <Gold.Chemscore.Metal>
0.0000

> <Gold.Chemscore.Lipo>
79.8654

> <Gold.Chemscore.Internal_Hbond>
0.0000

> <Gold.Chemscore.DEClash>
1.2917

> <Gold.Chemscore.DEInternal>
2.9650

> <Gold.Chemscore.Rot>
1.4410

> <Gold.Chemscore.Internal.Correction>
   9.000000E+99

> <Gold.Chemscore.Hbonds>
donor molecule, donor type, donor heavy atom, donor atom, acceptor molecule, acceptor atom, score
      L1  H    13    39       P1  7948  0.88
      P1  H  7989  7998       L1     1  0.27

> <Gold.Chemscore.Hbond.Weighted>
-6.4538

> <Gold.Chemscore.Metal.Weighted>
-0.0000

> <Gold.Chemscore.Lipo.Weighted>
-9.3443

> <Gold.Chemscore.Internal_Hbond.Weighted>
0.0000

> <Gold.Chemscore.DEClash.Weighted>
1.2917

> <Gold.Chemscore.DEInternal.Weighted>
2.9650

> <Gold.Chemscore.Rot.Weighted>
3.6889

> <Gold.Chemscore.Internal.Correction.Weighted>
   9.000000E+99

> <Gold.Protein.RotatedTorsions>
[ 6907 6896 6895 6894 ] final   55.42 input  -60.11 | X-H torsion
[ 7974 7965 7964 7962 ] final    8.69 input  175.53 | X-H torsion
[ 8008 7997 7996 7995 ] final -118.70 input   59.86 | X-H torsion
[ 10167 10162 10161 10158 ] final   -5.06 input  -65.29 | X-H torsion
[ 10718 10713 10712 10709 ] final  124.73 input   66.30 | X-H torsion
[ 10763 10752 10751 10750 ] final   49.12 input  -60.55 | X-H torsion
[ 11005 11000 10999 10996 ] final  165.30 input  -57.11 | X-H torsion

> <Gold.Protein.ActiveResidues>
 VAL166  LYS551  ARG553  GLY616  TRP617  ASP618  TYR619  PRO620  LYS621  CYS622 
 ASP623  PHE694  ASN695  SER759  ASP760  ASP761  ALA762  ILE779  LEU786  VAL792 
 PHE793  MET794  SER795  GLU796  ALA797  LYS798  CYS799  TRP800  GLU811  SER814 

> <Gold.Protein.RotatedAtoms>
  152.3537  134.6970  160.0228 H   0  0  0  0  0  0  0  0  0  0  0  0  # atno 6907 bound_to 6896
  151.7316  133.3312  159.3350 H   0  0  0  0  0  0  0  0  0  0  0  0  # atno 6908 bound_to 6896
  150.7557  134.6292  159.6221 H   0  0  0  0  0  0  0  0  0  0  0  0  # atno 6909 bound_to 6896
  146.2413  139.9895  142.8427 H   0  0  0  0  0  0  0  0  0  0  0  0  # atno 7974 bound_to 7965
  155.1039  140.0396  157.2705 H   0  0  0  0  0  0  0  0  0  0  0  0  # atno 8008 bound_to 7997
  154.6737  140.2618  155.6955 H   0  0  0  0  0  0  0  0  0  0  0  0  # atno 8009 bound_to 7997
  156.2668  140.2792  156.1256 H   0  0  0  0  0  0  0  0  0  0  0  0  # atno 8010 bound_to 7997
  140.6950  143.6351  150.8487 H   0  0  0  0  0  0  0  0  0  0  0  0  # atno 10167 bound_to 10162
  157.5561  131.1092  150.8620 H   0  0  0  0  0  0  0  0  0  0  0  0  # atno 10718 bound_to 10713
  152.9788  135.5922  154.4037 H   0  0  0  0  0  0  0  0  0  0  0  0  # atno 10763 bound_to 10752
  154.3680  135.2767  155.2284 H   0  0  0  0  0  0  0  0  0  0  0  0  # atno 10764 bound_to 10752
  154.4253  135.6049  153.6089 H   0  0  0  0  0  0  0  0  0  0  0  0  # atno 10765 bound_to 10752
  140.2547  134.7949  157.3534 H   0  0  0  0  0  0  0  0  0  0  0  0  # atno 11005 bound_to 11000
  145.1516  140.9626  143.4429 LP  0  0  0  0  0  0  0  0  0  0  0  0  # atno 17320 bound_to 7965
  145.0199  139.3433  143.6077 LP  0  0  0  0  0  0  0  0  0  0  0  0  # atno 17321 bound_to 7965
  140.0068  143.5685  152.2854 LP  0  0  0  0  0  0  0  0  0  0  0  0  # atno 17342 bound_to 10162
  139.6394  144.7653  151.2370 LP  0  0  0  0  0  0  0  0  0  0  0  0  # atno 17343 bound_to 10162
  156.9131  130.5288  149.5280 LP  0  0  0  0  0  0  0  0  0  0  0  0  # atno 17370 bound_to 10713
  156.0619  130.5670  150.9211 LP  0  0  0  0  0  0  0  0  0  0  0  0  # atno 17371 bound_to 10713
  140.1523  134.4834  155.7952 LP  0  0  0  0  0  0  0  0  0  0  0  0  # atno 17394 bound_to 11000
  141.2197  133.6867  156.7400 LP  0  0  0  0  0  0  0  0  0  0  0  0  # atno 17395 bound_to 11000

$$$$
