#       Name:                AV-unprocessed.smi:904
#       Creating user name   scv26
#       Creation time:       Fri Mar 27 01:58:55 2020


#       File generated by GOLD software.
#

@<TRIPOS>MOLECULE
AV-unprocessed.smi:904
    47    48     1
SMALL
NO_CHARGES


@<TRIPOS>ATOM
      1 ****        -1.4509   3.8474  -1.7556 C.3            1 S1                 0.0000
      2 ****        -1.8606   2.4100  -1.9039 C.2            1 S1                 0.0000
      3 ****        -3.1414   2.0882  -1.8305 N.2            1 S1                 0.0000
      4 ****        -3.1703   0.7508  -1.9966 N.pl3          1 S1                 0.0000
      5 ****        -4.4443   0.0588  -1.9718 C.3            1 S1                 0.0000
      6 ****        -1.9053   0.2265  -2.1781 C.2            1 S1                 0.0000
      7 ****        -1.6732  -1.2370  -2.3773 C.3            1 S1                 0.0000
      8 ****        -1.0259   1.2754  -2.1246 C.2            1 S1                 0.0000
      9 ****         0.4769   1.2605  -2.2605 C.3            1 S1                 0.0000
     10 ****         1.1344   1.1723  -0.8819 C.2            1 S1                 0.0000
     11 ****         1.8627   2.0833  -0.4888 O.2            1 S1                 0.0000
     12 ****         0.8789   0.0667  -0.1643 N.am           1 S1                 0.0000
     13 ****         1.4040  -0.2213   1.1659 C.3            1 S1                 0.0000
     14 ****         2.7847  -0.9013   1.0631 C.3            1 S1                 0.0000
     15 ****         3.3229  -1.2932   2.4484 C.3            1 S1                 0.0000
     16 ****         2.3217  -2.1891   3.1975 C.3            1 S1                 0.0000
     17 ****         2.8176  -2.4755   4.4880 O.3            1 S1                 0.0000
     18 ****         0.9481  -1.5066   3.3138 C.3            1 S1                 0.0000
     19 ****         0.4067  -1.1129   1.9299 C.3            1 S1                 0.0000
     20 ****        -0.6349   3.9485  -1.0397 H              1 S1                 0.0000
     21 ****        -2.2752   4.4691  -1.4047 H              1 S1                 0.0000
     22 ****        -1.1099   4.2542  -2.7076 H              1 S1                 0.0000
     23 ****        -4.3943  -0.7810  -1.2786 H              1 S1                 0.0000
     24 ****        -4.6757  -0.3153  -2.9691 H              1 S1                 0.0000
     25 ****        -5.2415   0.7311  -1.6517 H              1 S1                 0.0000
     26 ****        -0.6343  -1.4442  -2.6321 H              1 S1                 0.0000
     27 ****        -2.2968  -1.6239  -3.1835 H              1 S1                 0.0000
     28 ****        -1.9105  -1.7914  -1.4692 H              1 S1                 0.0000
     29 ****         0.8199   0.4219  -2.8663 H              1 S1                 0.0000
     30 ****         0.8330   2.1587  -2.7666 H              1 S1                 0.0000
     31 ****         0.2646  -0.6245  -0.5696 H              1 S1                 0.0000
     32 ****         1.5123   0.7134   1.7198 H              1 S1                 0.0000
     33 ****         2.7125  -1.7931   0.4389 H              1 S1                 0.0000
     34 ****         3.4954  -0.2369   0.5701 H              1 S1                 0.0000
     35 ****         4.2793  -1.8062   2.3410 H              1 S1                 0.0000
     36 ****         3.5188  -0.3894   3.0274 H              1 S1                 0.0000
     37 ****         2.2123  -3.1341   2.6636 H              1 S1                 0.0000
     38 ****         2.9162  -1.6625   4.9596 H              1 S1                 0.0000
     39 ****         0.2399  -2.1706   3.8111 H              1 S1                 0.0000
     40 ****         1.0277  -0.6147   3.9372 H              1 S1                 0.0000
     41 ****        -0.5463  -0.5946   2.0429 H              1 S1                 0.0000
     42 ****         0.2007  -2.0163   1.3539 H              1 S1                 0.0000
     43 ****        -3.9173   2.7018  -1.6840 LP             1 S1                 0.0000
     44 ****         2.0244   2.8805  -1.0704 LP             1 S1                 0.0000
     45 ****         2.2928   2.0262   0.4122 LP             1 S1                 0.0000
     46 ****         3.7041  -2.9324   4.4147 LP             1 S1                 0.0000
     47 ****         2.1752  -3.0700   4.9717 LP             1 S1                 0.0000
@<TRIPOS>BOND
    1    1    2 1     
    2    1   20 1     
    3    1   21 1     
    4    1   22 1     
    5    2    8 1     
    6    2    3 2     
    7    3    4 1     
    8    4    5 1     
    9    4    6 1     
   10    5   23 1     
   11    5   24 1     
   12    5   25 1     
   13    6    7 1     
   14    6    8 2     
   15    7   26 1     
   16    7   27 1     
   17    7   28 1     
   18    8    9 1     
   19    9   10 1     
   20    9   29 1     
   21    9   30 1     
   22   10   11 2     
   23   10   12 am    
   24   12   13 1     
   25   12   31 1     
   26   13   19 1     
   27   13   14 1     
   28   13   32 1     
   29   14   15 1     
   30   14   33 1     
   31   14   34 1     
   32   15   16 1     
   33   15   35 1     
   34   15   36 1     
   35   16   17 1     
   36   16   18 1     
   37   16   37 1     
   38   17   38 1     
   39   18   19 1     
   40   18   39 1     
   41   18   40 1     
   42   19   41 1     
   43   19   42 1     
   44    3   43 1     
   45   11   44 1     
   46   11   45 1     
   47   17   46 1     
   48   17   47 1     
@<TRIPOS>SUBSTRUCTURE
      1 S1             1
@<TRIPOS>SET
LONE_PAIRS      STATIC     ATOMS    <user>   **** ""
5 43 44 45 46 47
DONOR_HYDROGENS      STATIC     ATOMS    <user>   **** ""
2 31 38
ATOM$BLUE        STATIC     ATOMS    COLORGROUP SYSTEM
5 43 44 45 46 47
ATOM$RED        STATIC     ATOMS    COLORGROUP SYSTEM
2 31 38
