AV-unprocessed.smi:1552|AV-procd|sdf|6234|dock6
  -GOLD-   22720 6413D 1   1.00000     0.00000
 Structure written by MMmdl.
 50 51  0  0  0  0  0  0  0  0  2 V2000
  152.0509  139.7078  156.0271 C   0  0  0  0  0  0  0  0  0  0  0  0
  152.1650  140.3825  157.3422 N   0  3  0  0  0  0  0  0  0  0  0  0
  152.0497  139.4263  158.4681 C   0  0  0  0  0  0  0  0  0  0  0  0
  151.3405  141.6194  157.5154 C   0  0  2  0  0  0  0  0  0  0  0  0
  150.8345  142.2044  156.1667 C   0  0  0  0  0  0  0  0  0  0  0  0
  149.4856  141.7625  155.8216 N   0  0  0  0  0  0  0  0  0  0  0  0
  149.0861  141.2377  154.6529 C   0  0  0  0  0  0  0  0  0  0  0  0
  149.8898  141.0680  153.7374 O   0  0  0  0  0  0  0  0  0  0  0  0
  147.6097  140.8302  154.4815 C   0  0  0  0  0  0  0  0  0  0  0  0
  146.6999  141.9806  154.3732 N   0  0  0  0  0  0  0  0  0  0  0  0
  146.7654  142.8245  153.2732 C   0  0  0  0  0  0  0  0  0  0  0  0
  145.9661  143.9060  153.1143 C   0  0  0  0  0  0  0  0  0  0  0  0
  144.9693  144.2429  154.1250 C   0  0  0  0  0  0  0  0  0  0  0  0
  144.1995  145.1994  154.0708 O   0  0  0  0  0  0  0  0  0  0  0  0
  144.9361  143.3721  155.2176 N   0  0  0  0  0  0  0  0  0  0  0  0
  145.7582  142.2572  155.3887 C   0  0  0  0  0  0  0  0  0  0  0  0
  145.6497  141.5568  156.3946 O   0  0  0  0  0  0  0  0  0  0  0  0
  152.0362  142.6501  158.4554 C   0  0  0  0  0  0  0  0  0  0  0  0
  152.2582  142.0764  159.8772 C   0  0  0  0  0  0  0  0  0  0  0  0
  152.9429  143.0879  160.8101 C   0  0  0  0  0  0  0  0  0  0  0  0
  152.1441  144.3948  160.8955 C   0  0  0  0  0  0  0  0  0  0  0  0
  151.9192  144.9869  159.4982 C   0  0  0  0  0  0  0  0  0  0  0  0
  151.2386  143.9732  158.5643 C   0  0  0  0  0  0  0  0  0  0  0  0
  144.2631  143.5674  155.9445 H   0  0  0  0  0  0  0  0  0  0  0  0
  151.0838  139.2178  155.9120 H   0  0  0  0  0  0  0  0  0  0  0  0
  152.8215  138.9426  155.9303 H   0  0  0  0  0  0  0  0  0  0  0  0
  152.1855  140.4083  155.2036 H   0  0  0  0  0  0  0  0  0  0  0  0
  151.0613  138.9686  158.5079 H   0  0  0  0  0  0  0  0  0  0  0  0
  152.2400  139.9188  159.4221 H   0  0  0  0  0  0  0  0  0  0  0  0
  152.7841  138.6273  158.3628 H   0  0  0  0  0  0  0  0  0  0  0  0
  150.4465  141.2995  158.0531 H   0  0  0  0  0  0  0  0  0  0  0  0
  150.8860  143.2930  156.1772 H   0  0  0  0  0  0  0  0  0  0  0  0
  151.5021  141.8852  155.3655 H   0  0  0  0  0  0  0  0  0  0  0  0
  148.7848  141.8560  156.5427 H   0  0  0  0  0  0  0  0  0  0  0  0
  147.5267  140.2065  153.5902 H   0  0  0  0  0  0  0  0  0  0  0  0
  147.2969  140.1942  155.3116 H   0  0  0  0  0  0  0  0  0  0  0  0
  147.4921  142.6166  152.5009 H   0  0  0  0  0  0  0  0  0  0  0  0
  146.0654  144.5262  152.2350 H   0  0  0  0  0  0  0  0  0  0  0  0
  153.0165  142.8949  158.0458 H   0  0  0  0  0  0  0  0  0  0  0  0
  151.3017  141.7771  160.3079 H   0  0  0  0  0  0  0  0  0  0  0  0
  152.8727  141.1770  159.8391 H   0  0  0  0  0  0  0  0  0  0  0  0
  153.0564  142.6576  161.8056 H   0  0  0  0  0  0  0  0  0  0  0  0
  153.9501  143.2969  160.4474 H   0  0  0  0  0  0  0  0  0  0  0  0
  151.1820  144.2069  161.3739 H   0  0  0  0  0  0  0  0  0  0  0  0
  152.6692  145.1129  161.5261 H   0  0  0  0  0  0  0  0  0  0  0  0
  151.3114  145.8894  159.5721 H   0  0  0  0  0  0  0  0  0  0  0  0
  152.8752  145.2933  159.0712 H   0  0  0  0  0  0  0  0  0  0  0  0
  151.1234  144.4379  157.5855 H   0  0  0  0  0  0  0  0  0  0  0  0
  150.2304  143.7675  158.9262 H   0  0  0  0  0  0  0  0  0  0  0  0
  153.1190  140.7114  157.3872 H   0  0  0  0  0  0  0  0  0  0  0  0
  1  2  1  0  0  0  0
  1 25  1  0  0  0  0
  1 26  1  0  0  0  0
  1 27  1  0  0  0  0
  2  3  1  0  0  0  0
  2  4  1  0  0  0  0
  2 50  1  0  0  0  0
  3 28  1  0  0  0  0
  3 29  1  0  0  0  0
  3 30  1  0  0  0  0
  4  5  1  0  0  0  0
  4 18  1  0  0  0  0
  4 31  1  0  0  0  0
  5  6  1  0  0  0  0
  5 32  1  0  0  0  0
  5 33  1  0  0  0  0
  6  7  1  0  0  0  0
  6 34  1  0  0  0  0
  7  8  2  0  0  0  0
  7  9  1  0  0  0  0
  9 10  1  0  0  0  0
  9 35  1  0  0  0  0
  9 36  1  0  0  0  0
 10 16  1  0  0  0  0
 10 11  1  0  0  0  0
 11 12  2  0  0  0  0
 11 37  1  0  0  0  0
 12 13  1  0  0  0  0
 12 38  1  0  0  0  0
 13 14  2  0  0  0  0
 13 15  1  0  0  0  0
 15 24  1  0  0  0  0
 15 16  1  0  0  0  0
 16 17  2  0  0  0  0
 18 23  1  0  0  0  0
 18 19  1  0  0  0  0
 18 39  1  0  0  0  0
 19 20  1  0  0  0  0
 19 40  1  0  0  0  0
 19 41  1  0  0  0  0
 20 21  1  0  0  0  0
 20 42  1  0  0  0  0
 20 43  1  0  0  0  0
 21 22  1  0  0  0  0
 21 44  1  0  0  0  0
 21 45  1  0  0  0  0
 22 23  1  0  0  0  0
 22 46  1  0  0  0  0
 22 47  1  0  0  0  0
 23 48  1  0  0  0  0
 23 49  1  0  0  0  0
M  CHG  1   2   1
M  END
> <s_m_source_file>
AV-unprocessed.smi

> <i_m_source_file_index>
1552

> <i_lp_mmshare_version>
43012

> <i_f3d_flags>
0

> <s_epik_input>
W0NIMl0xW0NIMl1bQ0gyXVtDSDJdW0NIMl1bQ0hdMVtDQEhdKE4oW0NIM10pW0NIM10pW0NIMl1bTkhdQyg9TylbQ0gyXW4yW2NIXVtjSF1jKD1PKVtuSF1jMj1P

> <s_epik_cmdline>
J2VwaWtfcHl0aG9uJywgJy1waCcsICc3LjAnLCAnLXRuJywgJzgnLCAnLW1hJywgJzIwMCcsICctbWV0YWxfYmluZGluZycsICctaW1hZScsICc8aW5maWxlLm1hZT4nLCAnLW9tYWUnLCAnPG91dGZpbGUubWFlPic=

> <r_lp_tautomer_probability>
1

> <r_epik_Ionization_Penalty>
0.00705217

> <r_epik_Ionization_Penalty_Charging>
0.00705209

> <r_epik_Ionization_Penalty_Neutral>
7.66101e-08

> <r_epik_State_Penalty>
-0

> <r_epik_Charging_Adjusted_Penalty>
0.00705209

> <i_epik_Tot_Q>
1

> <i_epik_Tot_abs_Q>
1

> <r_epik_Metal_State_Penalty>
0.375122

> <b_epik_Metal_Only>
0

> <s_lp_Force_Field>
OPLS_2005

> <r_lp_Energy>
35.9588

> <b_lp_Chiralities_Consistent>
1

> <s_lp_Variant>
AV-unprocessed.smi:1552-1

> <Gold.Version>
5.8.1

> <Gold.Id.Protein>
6NUR|6NUR_protein|mol2

> <Gold.PLP.Fitness>
48.5044

> <Gold.PLP.PLP>
-47.6522

> <Gold.PLP.part.hbond>
-3.0000

> <Gold.PLP.part.metal>
0.0000

> <Gold.PLP.part.buried>
-7.3752

> <Gold.PLP.part.nonpolar>
-38.2135

> <Gold.PLP.part.repulsive>
2.0513

> <Gold.PLP.ligand.clash>
0.0000

> <Gold.PLP.ligand.torsion>
1.6686

> <Gold.PLP.Chemscore.Hbond>
1.2480

> <Gold.PLP.Chemscore.CHOScore>
0.0000

> <Gold.PLP.Chemscore.Metal>
0.0000

> <Gold.Chemscore.Hbonds>
donor molecule, donor type, donor heavy atom, donor atom, acceptor molecule, acceptor atom, score
      P1  H  7989  7998       L1     8  0.32
      P1  H  8011  8017       L1     8  0.90

> <Gold.PLP.Chemscore.Internal.Correction>
0.4453

> <Gold.Rescore>
     Score         DG    S(hbond)    S(metal)    S(lipo)     H(rot)  DE(clash)    DE(int)     intcor
     12.70     -16.32       1.26        0.00     111.26       2.50       1.32       2.30       ----

> <Gold.Chemscore.Fitness>
12.6979

> <Gold.Chemscore.DG>
-16.3162

> <Gold.Chemscore.ZeroCoef>
-5.4800

> <Gold.Chemscore.Hbond>
1.2607

> <Gold.Chemscore.Metal>
0.0000

> <Gold.Chemscore.Lipo>
111.2574

> <Gold.Chemscore.Internal_Hbond>
0.0000

> <Gold.Chemscore.DEClash>
1.3207

> <Gold.Chemscore.DEInternal>
2.2976

> <Gold.Chemscore.Rot>
2.4968

> <Gold.Chemscore.Internal.Correction>
   9.000000E+99

> <Gold.Chemscore.Hbonds>
donor molecule, donor type, donor heavy atom, donor atom, acceptor molecule, acceptor atom, score
      P1  H  7989  7998       L1     8  0.32
      P1  H  8011  8017       L1     8  0.79

> <Gold.Chemscore.Hbond.Weighted>
-4.2107

> <Gold.Chemscore.Metal.Weighted>
-0.0000

> <Gold.Chemscore.Lipo.Weighted>
-13.0171

> <Gold.Chemscore.Internal_Hbond.Weighted>
0.0000

> <Gold.Chemscore.DEClash.Weighted>
1.3207

> <Gold.Chemscore.DEInternal.Weighted>
2.2976

> <Gold.Chemscore.Rot.Weighted>
6.3917

> <Gold.Chemscore.Internal.Correction.Weighted>
   9.000000E+99

> <Gold.Protein.RotatedTorsions>
[ 6907 6896 6895 6894 ] final -142.85 input  -60.11 | X-H torsion
[ 7974 7965 7964 7962 ] final  118.17 input  175.53 | X-H torsion
[ 8008 7997 7996 7995 ] final -175.68 input   59.86 | X-H torsion
[ 10167 10162 10161 10158 ] final  145.87 input  -65.29 | X-H torsion
[ 10718 10713 10712 10709 ] final -175.56 input   66.30 | X-H torsion
[ 10763 10752 10751 10750 ] final  164.98 input  -60.55 | X-H torsion
[ 11005 11000 10999 10996 ] final  -18.44 input  -57.11 | X-H torsion

> <Gold.Protein.ActiveResidues>
 VAL166  LYS551  ARG553  GLY616  TRP617  ASP618  TYR619  PRO620  LYS621  CYS622 
 ASP623  PHE694  ASN695  SER759  ASP760  ASP761  ALA762  ILE779  LEU786  VAL792 
 PHE793  MET794  SER795  GLU796  ALA797  LYS798  CYS799  TRP800  GLU811  SER814 

> <Gold.Protein.RotatedAtoms>
  151.0926  133.5304  159.2613 H   0  0  0  0  0  0  0  0  0  0  0  0  # atno 6907 bound_to 6896
  151.2165  135.0501  159.8942 H   0  0  0  0  0  0  0  0  0  0  0  0  # atno 6908 bound_to 6896
  152.5435  134.0734  159.8257 H   0  0  0  0  0  0  0  0  0  0  0  0  # atno 6909 bound_to 6896
  145.1584  139.3169  143.4530 H   0  0  0  0  0  0  0  0  0  0  0  0  # atno 7974 bound_to 7965
  155.9855  140.1190  157.0687 H   0  0  0  0  0  0  0  0  0  0  0  0  # atno 8008 bound_to 7997
  154.4195  140.1136  156.5562 H   0  0  0  0  0  0  0  0  0  0  0  0  # atno 8009 bound_to 7997
  155.6413  140.3473  155.4718 H   0  0  0  0  0  0  0  0  0  0  0  0  # atno 8010 bound_to 7997
  139.4918  144.5871  151.6757 H   0  0  0  0  0  0  0  0  0  0  0  0  # atno 10167 bound_to 10162
  156.8016  130.9554  151.3118 H   0  0  0  0  0  0  0  0  0  0  0  0  # atno 10718 bound_to 10713
  154.3171  135.2756  155.2538 H   0  0  0  0  0  0  0  0  0  0  0  0  # atno 10763 bound_to 10752
  154.4907  135.5834  153.6461 H   0  0  0  0  0  0  0  0  0  0  0  0  # atno 10764 bound_to 10752
  152.9881  135.6134  154.3353 H   0  0  0  0  0  0  0  0  0  0  0  0  # atno 10765 bound_to 10752
  140.8268  133.8027  155.9717 H   0  0  0  0  0  0  0  0  0  0  0  0  # atno 11005 bound_to 11000
  146.3485  140.1685  142.8590 LP  0  0  0  0  0  0  0  0  0  0  0  0  # atno 17320 bound_to 7965
  145.0356  140.8906  143.5083 LP  0  0  0  0  0  0  0  0  0  0  0  0  # atno 17321 bound_to 7965
  140.5489  144.0458  150.6118 LP  0  0  0  0  0  0  0  0  0  0  0  0  # atno 17342 bound_to 10162
  140.3505  143.2966  152.0492 LP  0  0  0  0  0  0  0  0  0  0  0  0  # atno 17343 bound_to 10162
  157.6551  130.8917  149.9712 LP  0  0  0  0  0  0  0  0  0  0  0  0  # atno 17370 bound_to 10713
  156.1098  130.3650  150.0070 LP  0  0  0  0  0  0  0  0  0  0  0  0  # atno 17371 bound_to 10713
  140.9040  134.2342  157.5025 LP  0  0  0  0  0  0  0  0  0  0  0  0  # atno 17394 bound_to 11000
  139.8706  134.9720  156.4756 LP  0  0  0  0  0  0  0  0  0  0  0  0  # atno 17395 bound_to 11000

$$$$
