AV-unprocessed.smi:1206|AV-procd|sdf|5047|dock6
  -GOLD-   22720 4 73D 1   1.00000     0.00000
 Structure written by MMmdl.
 41 42  0  0  0  0  0  0  0  0  2 V2000
  146.8038  136.2280  154.2307 C   0  0  0  0  0  0  0  0  0  0  0  0
  146.9441  137.3740  153.2961 N   0  3  0  0  0  0  0  0  0  0  0  0
  145.9071  137.2942  152.2336 C   0  0  0  0  0  0  0  0  0  0  0  0
  147.1302  138.7393  153.9190 C   0  0  0  0  0  0  0  0  0  0  0  0
  146.0050  138.9487  154.9846 C   0  0  0  0  0  0  0  0  0  0  0  0
  144.6558  138.9596  154.4181 N   0  0  0  0  0  0  0  0  0  0  0  0
  143.6387  138.1687  154.7883 C   0  0  0  0  0  0  0  0  0  0  0  0
  143.7359  137.3036  155.6576 O   0  0  0  0  0  0  0  0  0  0  0  0
  142.5299  138.4398  154.0820 N   0  0  0  0  0  0  0  0  0  0  0  0
  141.2629  137.8109  154.1740 C   0  0  0  0  0  0  0  0  0  0  0  0
  141.0977  136.8662  155.1071 N   0  0  0  0  0  0  0  0  0  0  0  0
  139.8142  136.3345  155.0877 N   0  0  0  0  0  0  0  0  0  0  0  0
  139.0612  136.8989  154.1386 C   0  0  0  0  0  0  0  0  0  0  0  0
  139.8440  138.1391  153.1750 S   0  0  0  0  0  0  0  0  0  0  0  0
  148.5302  138.8513  154.5965 C   0  0  0  0  0  0  0  0  0  0  0  0
  148.8640  140.2609  155.1245 C   0  0  0  0  0  0  0  0  0  0  0  0
  148.7208  141.3307  154.0340 C   0  0  0  0  0  0  0  0  0  0  0  0
  147.3316  141.2807  153.3852 C   0  0  0  0  0  0  0  0  0  0  0  0
  147.0347  139.8717  152.8421 C   0  0  0  0  0  0  0  0  0  0  0  0
  145.9751  136.3776  154.9235 H   0  0  0  0  0  0  0  0  0  0  0  0
  147.7173  136.0586  154.8003 H   0  0  0  0  0  0  0  0  0  0  0  0
  146.6159  135.3038  153.6830 H   0  0  0  0  0  0  0  0  0  0  0  0
  144.9017  137.3187  152.6553 H   0  0  0  0  0  0  0  0  0  0  0  0
  146.0081  136.3583  151.6833 H   0  0  0  0  0  0  0  0  0  0  0  0
  145.9893  138.0961  151.5023 H   0  0  0  0  0  0  0  0  0  0  0  0
  146.0698  138.2102  155.7835 H   0  0  0  0  0  0  0  0  0  0  0  0
  146.1230  139.8999  155.4992 H   0  0  0  0  0  0  0  0  0  0  0  0
  144.4793  139.6435  153.6962 H   0  0  0  0  0  0  0  0  0  0  0  0
  142.5966  139.1782  153.3966 H   0  0  0  0  0  0  0  0  0  0  0  0
  138.0370  136.5827  154.0056 H   0  0  0  0  0  0  0  0  0  0  0  0
  148.6134  138.1546  155.4310 H   0  0  0  0  0  0  0  0  0  0  0  0
  149.3043  138.5626  153.8845 H   0  0  0  0  0  0  0  0  0  0  0  0
  148.2233  140.5100  155.9701 H   0  0  0  0  0  0  0  0  0  0  0  0
  149.8831  140.2720  155.5123 H   0  0  0  0  0  0  0  0  0  0  0  0
  148.9016  142.3202  154.4551 H   0  0  0  0  0  0  0  0  0  0  0  0
  149.4852  141.1758  153.2714 H   0  0  0  0  0  0  0  0  0  0  0  0
  146.5687  141.5938  154.0975 H   0  0  0  0  0  0  0  0  0  0  0  0
  147.2878  142.0017  152.5682 H   0  0  0  0  0  0  0  0  0  0  0  0
  147.7662  139.7109  152.0505 H   0  0  0  0  0  0  0  0  0  0  0  0
  146.0597  139.8644  152.3537 H   0  0  0  0  0  0  0  0  0  0  0  0
  147.8161  137.2001  152.8168 H   0  0  0  0  0  0  0  0  0  0  0  0
  1  2  1  0  0  0  0
  1 20  1  0  0  0  0
  1 21  1  0  0  0  0
  1 22  1  0  0  0  0
  2  3  1  0  0  0  0
  2  4  1  0  0  0  0
  2 41  1  0  0  0  0
  3 23  1  0  0  0  0
  3 24  1  0  0  0  0
  3 25  1  0  0  0  0
  4 19  1  0  0  0  0
  4  5  1  0  0  0  0
  4 15  1  0  0  0  0
  5  6  1  0  0  0  0
  5 26  1  0  0  0  0
  5 27  1  0  0  0  0
  6  7  1  0  0  0  0
  6 28  1  0  0  0  0
  7  8  2  0  0  0  0
  7  9  1  0  0  0  0
  9 10  1  0  0  0  0
  9 29  1  0  0  0  0
 10 14  1  0  0  0  0
 10 11  2  0  0  0  0
 11 12  1  0  0  0  0
 12 13  2  0  0  0  0
 13 14  1  0  0  0  0
 13 30  1  0  0  0  0
 15 16  1  0  0  0  0
 15 31  1  0  0  0  0
 15 32  1  0  0  0  0
 16 17  1  0  0  0  0
 16 33  1  0  0  0  0
 16 34  1  0  0  0  0
 17 18  1  0  0  0  0
 17 35  1  0  0  0  0
 17 36  1  0  0  0  0
 18 19  1  0  0  0  0
 18 37  1  0  0  0  0
 18 38  1  0  0  0  0
 19 39  1  0  0  0  0
 19 40  1  0  0  0  0
M  CHG  1   2   1
M  END
> <s_m_source_file>
AV-unprocessed.smi

> <i_m_source_file_index>
1206

> <i_lp_mmshare_version>
43012

> <i_f3d_flags>
0

> <s_epik_input>
W0NIMl0xW0NIMl1bQ0gyXVtDSDJdW0NIMl1DMShOKFtDSDNdKVtDSDNdKVtDSDJdW05IXUMoPU8pW05IXWMybm5bY0hdczI=

> <s_epik_cmdline>
J2VwaWtfcHl0aG9uJywgJy1waCcsICc3LjAnLCAnLXRuJywgJzgnLCAnLW1hJywgJzIwMCcsICctbWV0YWxfYmluZGluZycsICctaW1hZScsICc8aW5maWxlLm1hZT4nLCAnLW9tYWUnLCAnPG91dGZpbGUubWFlPic=

> <r_lp_tautomer_probability>
1

> <r_epik_Ionization_Penalty>
0.00322257

> <r_epik_Ionization_Penalty_Charging>
0.00246239

> <r_epik_Ionization_Penalty_Neutral>
0.000760187

> <r_epik_State_Penalty>
-0

> <r_epik_Charging_Adjusted_Penalty>
0.00246239

> <i_epik_Tot_Q>
1

> <i_epik_Tot_abs_Q>
1

> <r_epik_Metal_State_Penalty>
0.262153

> <b_epik_Metal_Only>
0

> <s_lp_Force_Field>
OPLS_2005

> <r_lp_Energy>
30.8997

> <b_lp_Chiralities_Consistent>
1

> <s_lp_Variant>
AV-unprocessed.smi:1206-1

> <Gold.Version>
5.8.1

> <Gold.Id.Protein>
6NUR|6NUR_protein|mol2

> <Gold.PLP.Fitness>
41.2373

> <Gold.PLP.PLP>
-26.8988

> <Gold.PLP.part.hbond>
-4.4347

> <Gold.PLP.part.metal>
0.0000

> <Gold.PLP.part.buried>
-1.4213

> <Gold.PLP.part.nonpolar>
-20.1973

> <Gold.PLP.part.repulsive>
0.1220

> <Gold.PLP.ligand.clash>
0.0000

> <Gold.PLP.ligand.torsion>
0.3843

> <Gold.PLP.Chemscore.Hbond>
5.0000

> <Gold.PLP.Chemscore.CHOScore>
0.0000

> <Gold.PLP.Chemscore.Metal>
0.0000

> <Gold.Chemscore.Hbonds>
donor molecule, donor type, donor heavy atom, donor atom, acceptor molecule, acceptor atom, score
      L1  H     2    41       P1  7948  2.00
      L1  H     6    28       P1 10175  1.00
      L1  H     9    29       P1 10175  1.00
      P1  H 11000 11005       L1    12  1.00

> <Gold.PLP.Chemscore.Internal.Correction>
0.1071

> <Gold.Rescore>
     Score         DG    S(hbond)    S(metal)    S(lipo)     H(rot)  DE(clash)    DE(int)     intcor
     18.28     -20.58       3.65        0.00      61.14       1.66       0.04       2.26       ----

> <Gold.Chemscore.Fitness>
18.2801

> <Gold.Chemscore.DG>
-20.5803

> <Gold.Chemscore.ZeroCoef>
-5.4800

> <Gold.Chemscore.Hbond>
3.6532

> <Gold.Chemscore.Metal>
0.0000

> <Gold.Chemscore.Lipo>
61.1418

> <Gold.Chemscore.Internal_Hbond>
0.0000

> <Gold.Chemscore.DEClash>
0.0388

> <Gold.Chemscore.DEInternal>
2.2614

> <Gold.Chemscore.Rot>
1.6621

> <Gold.Chemscore.Internal.Correction>
   9.000000E+99

> <Gold.Chemscore.Hbonds>
donor molecule, donor type, donor heavy atom, donor atom, acceptor molecule, acceptor atom, score
      L1  H     2    41       P1  7948  0.98
      L1  H     6    28       P1 10175  0.99
      L1  H     9    29       P1 10175  0.95
      P1  H 11000 11005       L1    12  0.48

> <Gold.Chemscore.Hbond.Weighted>
-12.2016

> <Gold.Chemscore.Metal.Weighted>
-0.0000

> <Gold.Chemscore.Lipo.Weighted>
-7.1536

> <Gold.Chemscore.Internal_Hbond.Weighted>
0.0000

> <Gold.Chemscore.DEClash.Weighted>
0.0388

> <Gold.Chemscore.DEInternal.Weighted>
2.2614

> <Gold.Chemscore.Rot.Weighted>
4.2549

> <Gold.Chemscore.Internal.Correction.Weighted>
   9.000000E+99

> <Gold.Protein.RotatedTorsions>
[ 6907 6896 6895 6894 ] final  -45.24 input  -60.11 | X-H torsion
[ 7974 7965 7964 7962 ] final  -62.81 input  175.53 | X-H torsion
[ 8008 7997 7996 7995 ] final  -47.68 input   59.86 | X-H torsion
[ 10167 10162 10161 10158 ] final -175.04 input  -65.29 | X-H torsion
[ 10718 10713 10712 10709 ] final  -49.22 input   66.30 | X-H torsion
[ 10763 10752 10751 10750 ] final   44.70 input  -60.55 | X-H torsion
[ 11005 11000 10999 10996 ] final   88.89 input  -57.11 | X-H torsion

> <Gold.Protein.ActiveResidues>
 VAL166  LYS551  ARG553  GLY616  TRP617  ASP618  TYR619  PRO620  LYS621  CYS622 
 ASP623  PHE694  ASN695  SER759  ASP760  ASP761  ALA762  ILE779  LEU786  VAL792 
 PHE793  MET794  SER795  GLU796  ALA797  LYS798  CYS799  TRP800  GLU811  SER814 

> <Gold.Protein.RotatedAtoms>
  150.9241  134.8658  159.7507 H   0  0  0  0  0  0  0  0  0  0  0  0  # atno 6907 bound_to 6896
  152.5007  134.4175  159.9479 H   0  0  0  0  0  0  0  0  0  0  0  0  # atno 6908 bound_to 6896
  151.4207  133.3659  159.2791 H   0  0  0  0  0  0  0  0  0  0  0  0  # atno 6909 bound_to 6896
  145.7868  140.8732  143.0301 H   0  0  0  0  0  0  0  0  0  0  0  0  # atno 7974 bound_to 7965
  154.4019  140.1340  156.4214 H   0  0  0  0  0  0  0  0  0  0  0  0  # atno 8008 bound_to 7997
  155.7639  140.3485  155.5191 H   0  0  0  0  0  0  0  0  0  0  0  0  # atno 8009 bound_to 7997
  155.8833  140.0991  157.1460 H   0  0  0  0  0  0  0  0  0  0  0  0  # atno 8010 bound_to 7997
  139.5602  144.1890  152.1225 H   0  0  0  0  0  0  0  0  0  0  0  0  # atno 10167 bound_to 10162
  156.1914  130.4153  149.9367 H   0  0  0  0  0  0  0  0  0  0  0  0  # atno 10718 bound_to 10713
  152.9836  135.6062  154.3317 H   0  0  0  0  0  0  0  0  0  0  0  0  # atno 10763 bound_to 10752
  154.3020  135.2772  155.2608 H   0  0  0  0  0  0  0  0  0  0  0  0  # atno 10764 bound_to 10752
  154.4856  135.5905  153.6477 H   0  0  0  0  0  0  0  0  0  0  0  0  # atno 10765 bound_to 10752
  139.8887  134.8517  156.3064 H   0  0  0  0  0  0  0  0  0  0  0  0  # atno 11005 bound_to 11000
  144.6788  140.0067  143.7484 LP  0  0  0  0  0  0  0  0  0  0  0  0  # atno 17320 bound_to 7965
  146.0018  139.3097  143.0923 LP  0  0  0  0  0  0  0  0  0  0  0  0  # atno 17321 bound_to 7965
  140.1402  144.5209  150.6749 LP  0  0  0  0  0  0  0  0  0  0  0  0  # atno 17342 bound_to 10162
  140.6880  143.2360  151.5208 LP  0  0  0  0  0  0  0  0  0  0  0  0  # atno 17343 bound_to 10162
  156.7106  130.8968  151.3609 LP  0  0  0  0  0  0  0  0  0  0  0  0  # atno 17370 bound_to 10713
  157.6931  130.9254  150.0569 LP  0  0  0  0  0  0  0  0  0  0  0  0  # atno 17371 bound_to 10713
  140.9879  133.7227  156.0769 LP  0  0  0  0  0  0  0  0  0  0  0  0  # atno 17394 bound_to 11000
  140.7664  134.3882  157.5516 LP  0  0  0  0  0  0  0  0  0  0  0  0  # atno 17395 bound_to 11000

$$$$
