AV-unprocessed.smi:2678|AV-procd|sdf|10368|dock3
  -GOLD-   2272014393D 1   1.00000     0.00000
 Structure written by MMmdl.
 46 47  0  0  0  0  0  0  0  0  1 V2000
  141.3323  138.7931  154.6518 C   0  0  0  0  0  0  0  0  0  0  0  0
  142.1599  139.6901  155.5818 C   0  0  0  0  0  0  0  0  0  0  0  0
  141.4618  141.0347  155.8413 C   0  0  0  0  0  0  0  0  0  0  0  0
  143.4815  139.9043  154.9994 N   0  0  0  0  0  0  0  0  0  0  0  0
  144.6471  139.5343  155.5538 C   0  0  0  0  0  0  0  0  0  0  0  0
  144.7265  138.9577  156.6392 O   0  0  0  0  0  0  0  0  0  0  0  0
  145.9177  139.8730  154.7631 C   0  0  2  0  0  0  0  0  0  0  0  0
  146.6954  138.5959  154.3816 C   0  0  0  0  0  0  0  0  0  0  0  0
  147.9766  138.9355  153.6032 C   0  0  0  0  0  0  0  0  0  0  0  0
  148.8695  139.9062  154.3924 C   0  0  0  0  0  0  0  0  0  0  0  0
  148.1035  141.1851  154.7778 C   0  0  2  0  0  0  0  0  0  0  0  0
  148.9750  142.0613  155.5641 N   0  0  0  0  0  0  0  0  0  0  0  0
  149.7927  141.7317  156.5811 C   0  0  0  0  0  0  0  0  0  0  0  0
  149.8747  140.5720  156.9797 O   0  0  0  0  0  0  0  0  0  0  0  0
  150.4690  142.7735  157.1036 N   0  0  0  0  0  0  0  0  0  0  0  0
  151.3661  142.7943  158.2046 C   0  0  0  0  0  0  0  0  0  0  0  0
  151.9221  143.9712  158.7613 C   0  0  0  0  0  0  0  0  0  0  0  0
  152.7892  143.8555  159.8650 C   0  0  0  0  0  0  0  0  0  0  0  0
  153.0620  142.5715  160.3758 C   0  0  0  0  0  0  0  0  0  0  0  0
  152.5274  141.4428  159.8638 N   0  0  0  0  0  0  0  0  0  0  0  0
  151.6972  141.5616  158.8058 C   0  0  0  0  0  0  0  0  0  0  0  0
  146.8241  140.8295  155.5653 C   0  0  0  0  0  0  0  0  0  0  0  0
  140.3537  138.5803  155.0828 H   0  0  0  0  0  0  0  0  0  0  0  0
  141.8306  137.8382  154.4807 H   0  0  0  0  0  0  0  0  0  0  0  0
  141.1721  139.2651  153.6817 H   0  0  0  0  0  0  0  0  0  0  0  0
  142.2720  139.1670  156.5332 H   0  0  0  0  0  0  0  0  0  0  0  0
  140.4765  140.8844  156.2834 H   0  0  0  0  0  0  0  0  0  0  0  0
  141.3284  141.5982  154.9172 H   0  0  0  0  0  0  0  0  0  0  0  0
  142.0373  141.6544  156.5296 H   0  0  0  0  0  0  0  0  0  0  0  0
  143.5125  140.3719  154.1050 H   0  0  0  0  0  0  0  0  0  0  0  0
  145.6225  140.3784  153.8415 H   0  0  0  0  0  0  0  0  0  0  0  0
  146.9602  138.0330  155.2783 H   0  0  0  0  0  0  0  0  0  0  0  0
  146.0664  137.9390  153.7794 H   0  0  0  0  0  0  0  0  0  0  0  0
  148.5286  138.0220  153.3799 H   0  0  0  0  0  0  0  0  0  0  0  0
  147.7137  139.3800  152.6426 H   0  0  0  0  0  0  0  0  0  0  0  0
  149.2375  139.4089  155.2912 H   0  0  0  0  0  0  0  0  0  0  0  0
  149.7480  140.1605  153.7982 H   0  0  0  0  0  0  0  0  0  0  0  0
  147.8246  141.6924  153.8525 H   0  0  0  0  0  0  0  0  0  0  0  0
  148.9538  143.0382  155.3085 H   0  0  0  0  0  0  0  0  0  0  0  0
  150.2498  143.6770  156.7101 H   0  0  0  0  0  0  0  0  0  0  0  0
  151.6936  144.9532  158.3779 H   0  0  0  0  0  0  0  0  0  0  0  0
  153.2323  144.7326  160.3127 H   0  0  0  0  0  0  0  0  0  0  0  0
  153.7222  142.4478  161.2215 H   0  0  0  0  0  0  0  0  0  0  0  0
  151.2865  140.6383  158.4234 H   0  0  0  0  0  0  0  0  0  0  0  0
  146.2698  141.7361  155.8121 H   0  0  0  0  0  0  0  0  0  0  0  0
  147.0997  140.3724  156.5175 H   0  0  0  0  0  0  0  0  0  0  0  0
  1  2  1  0  0  0  0
  1 23  1  0  0  0  0
  1 24  1  0  0  0  0
  1 25  1  0  0  0  0
  2  3  1  0  0  0  0
  2  4  1  0  0  0  0
  2 26  1  0  0  0  0
  3 27  1  0  0  0  0
  3 28  1  0  0  0  0
  3 29  1  0  0  0  0
  4  5  1  0  0  0  0
  4 30  1  0  0  0  0
  5  6  2  0  0  0  0
  5  7  1  0  0  0  0
  7 22  1  0  0  0  0
  7  8  1  0  0  0  0
  7 31  1  0  0  0  0
  8  9  1  0  0  0  0
  8 32  1  0  0  0  0
  8 33  1  0  0  0  0
  9 10  1  0  0  0  0
  9 34  1  0  0  0  0
  9 35  1  0  0  0  0
 10 11  1  0  0  0  0
 10 36  1  0  0  0  0
 10 37  1  0  0  0  0
 11 12  1  0  0  0  0
 11 22  1  0  0  0  0
 11 38  1  0  0  0  0
 12 13  1  0  0  0  0
 12 39  1  0  0  0  0
 13 14  2  0  0  0  0
 13 15  1  0  0  0  0
 15 16  1  0  0  0  0
 15 40  1  0  0  0  0
 16 21  1  0  0  0  0
 16 17  2  0  0  0  0
 17 18  1  0  0  0  0
 17 41  1  0  0  0  0
 18 19  2  0  0  0  0
 18 42  1  0  0  0  0
 19 20  1  0  0  0  0
 19 43  1  0  0  0  0
 20 21  2  0  0  0  0
 21 44  1  0  0  0  0
 22 45  1  0  0  0  0
 22 46  1  0  0  0  0
M  END
> <s_m_source_file>
AV-unprocessed.smi

> <i_m_source_file_index>
2678

> <i_lp_mmshare_version>
43012

> <i_f3d_flags>
0

> <s_epik_input>
W0NIM11bQ0hdKFtDSDNdKVtOSF1DKD1PKVtDQEBIXTFbQ0gyXVtDSDJdW0NIMl1bQ0BIXShbQ0gyXTEpW05IXUMoPU8pW05IXWMyW2NIXVtjSF1bY0hdbltjSF0y

> <s_epik_cmdline>
J2VwaWtfcHl0aG9uJywgJy1waCcsICc3LjAnLCAnLXRuJywgJzgnLCAnLW1hJywgJzIwMCcsICctbWV0YWxfYmluZGluZycsICctaW1hZScsICc8aW5maWxlLm1hZT4nLCAnLW9tYWUnLCAnPG91dGZpbGUubWFlPic=

> <r_epik_Ionization_Penalty>
0.00482944

> <r_epik_Ionization_Penalty_Charging>
0

> <r_epik_Ionization_Penalty_Neutral>
0.00482944

> <r_epik_State_Penalty>
0.00347168

> <r_epik_Charging_Adjusted_Penalty>
0.00347168

> <i_epik_Tot_Q>
0

> <i_epik_Tot_abs_Q>
0

> <r_epik_Metal_State_Penalty>
-0

> <b_epik_Metal_Only>
0

> <s_lp_Force_Field>
OPLS_2005

> <r_lp_Energy>
22.9796

> <b_lp_Chiralities_Consistent>
1

> <s_lp_Variant>
AV-unprocessed.smi:2678-3

> <Gold.Version>
5.8.1

> <Gold.Id.Protein>
6NUR|6NUR_protein|mol2

> <Gold.PLP.Fitness>
39.0370

> <Gold.PLP.PLP>
-30.6879

> <Gold.PLP.part.hbond>
-3.0000

> <Gold.PLP.part.metal>
0.0000

> <Gold.PLP.part.buried>
-4.2518

> <Gold.PLP.part.nonpolar>
-24.8025

> <Gold.PLP.part.repulsive>
0.1992

> <Gold.PLP.ligand.clash>
0.0000

> <Gold.PLP.ligand.torsion>
0.2265

> <Gold.PLP.Chemscore.Hbond>
2.9280

> <Gold.PLP.Chemscore.CHOScore>
0.0000

> <Gold.PLP.Chemscore.Metal>
0.0000

> <Gold.Chemscore.Hbonds>
donor molecule, donor type, donor heavy atom, donor atom, acceptor molecule, acceptor atom, score
      L1  H     4    30       P1 10175  1.00
      L1  H    12    39       P1  8028  1.00
      L1  H    15    40       P1  8028  0.91

> <Gold.PLP.Chemscore.Internal.Correction>
0.0181

> <Gold.Rescore>
     Score         DG    S(hbond)    S(metal)    S(lipo)     H(rot)  DE(clash)    DE(int)     intcor
     18.46     -21.56       2.90        0.00      86.65       1.46       0.00       3.09       ----

> <Gold.Chemscore.Fitness>
18.4632

> <Gold.Chemscore.DG>
-21.5578

> <Gold.Chemscore.ZeroCoef>
-5.4800

> <Gold.Chemscore.Hbond>
2.8978

> <Gold.Chemscore.Metal>
0.0000

> <Gold.Chemscore.Lipo>
86.6463

> <Gold.Chemscore.Internal_Hbond>
0.0000

> <Gold.Chemscore.DEClash>
0.0048

> <Gold.Chemscore.DEInternal>
3.0898

> <Gold.Chemscore.Rot>
1.4603

> <Gold.Chemscore.Internal.Correction>
   9.000000E+99

> <Gold.Chemscore.Hbonds>
donor molecule, donor type, donor heavy atom, donor atom, acceptor molecule, acceptor atom, score
      L1  H     4    30       P1 10175  0.97
      L1  H    12    39       P1  8028  0.98
      L1  H    15    40       P1  8028  0.86

> <Gold.Chemscore.Hbond.Weighted>
-9.6785

> <Gold.Chemscore.Metal.Weighted>
-0.0000

> <Gold.Chemscore.Lipo.Weighted>
-10.1376

> <Gold.Chemscore.Internal_Hbond.Weighted>
0.0000

> <Gold.Chemscore.DEClash.Weighted>
0.0048

> <Gold.Chemscore.DEInternal.Weighted>
3.0898

> <Gold.Chemscore.Rot.Weighted>
3.7383

> <Gold.Chemscore.Internal.Correction.Weighted>
   9.000000E+99

> <Gold.Protein.RotatedTorsions>
[ 6907 6896 6895 6894 ] final  -29.74 input  -60.11 | X-H torsion
[ 7974 7965 7964 7962 ] final  129.64 input  175.53 | X-H torsion
[ 8008 7997 7996 7995 ] final  160.53 input   59.86 | X-H torsion
[ 10167 10162 10161 10158 ] final  -30.13 input  -65.29 | X-H torsion
[ 10718 10713 10712 10709 ] final  -71.57 input   66.30 | X-H torsion
[ 10763 10752 10751 10750 ] final  -91.17 input  -60.55 | X-H torsion
[ 11005 11000 10999 10996 ] final -172.66 input  -57.11 | X-H torsion

> <Gold.Protein.ActiveResidues>
 VAL166  LYS551  ARG553  GLY616  TRP617  ASP618  TYR619  PRO620  LYS621  CYS622 
 ASP623  PHE694  ASN695  SER759  ASP760  ASP761  ALA762  ILE779  LEU786  VAL792 
 PHE793  MET794  SER795  GLU796  ALA797  LYS798  CYS799  TRP800  GLU811  SER814 

> <Gold.Protein.RotatedAtoms>
  151.1151  135.0048  159.8512 H   0  0  0  0  0  0  0  0  0  0  0  0  # atno 6907 bound_to 6896
  152.5445  134.1789  159.8637 H   0  0  0  0  0  0  0  0  0  0  0  0  # atno 6908 bound_to 6896
  151.1843  133.4661  159.2627 H   0  0  0  0  0  0  0  0  0  0  0  0  # atno 6909 bound_to 6896
  145.0264  139.4085  143.5171 H   0  0  0  0  0  0  0  0  0  0  0  0  # atno 7974 bound_to 7965
  156.2166  140.1801  156.7575 H   0  0  0  0  0  0  0  0  0  0  0  0  # atno 8008 bound_to 7997
  154.5800  140.0668  156.9120 H   0  0  0  0  0  0  0  0  0  0  0  0  # atno 8009 bound_to 7997
  155.2519  140.3329  155.4284 H   0  0  0  0  0  0  0  0  0  0  0  0  # atno 8010 bound_to 7997
  140.7253  143.3873  151.1492 H   0  0  0  0  0  0  0  0  0  0  0  0  # atno 10167 bound_to 10162
  156.0357  130.4354  150.2464 H   0  0  0  0  0  0  0  0  0  0  0  0  # atno 10718 bound_to 10713
  154.6733  135.5277  153.8167 H   0  0  0  0  0  0  0  0  0  0  0  0  # atno 10763 bound_to 10752
  153.0516  135.6534  154.0690 H   0  0  0  0  0  0  0  0  0  0  0  0  # atno 10764 bound_to 10752
  154.0586  135.2963  155.3308 H   0  0  0  0  0  0  0  0  0  0  0  0  # atno 10765 bound_to 10752
  140.4945  134.5953  157.4966 H   0  0  0  0  0  0  0  0  0  0  0  0  # atno 11005 bound_to 11000
  146.3493  139.9791  142.8698 LP  0  0  0  0  0  0  0  0  0  0  0  0  # atno 17320 bound_to 7965
  145.1827  140.9775  143.4257 LP  0  0  0  0  0  0  0  0  0  0  0  0  # atno 17321 bound_to 7965
  139.7473  143.8833  152.3067 LP  0  0  0  0  0  0  0  0  0  0  0  0  # atno 17342 bound_to 10162
  139.8674  144.7086  150.9027 LP  0  0  0  0  0  0  0  0  0  0  0  0  # atno 17343 bound_to 10162
  157.0563  131.0077  151.3237 LP  0  0  0  0  0  0  0  0  0  0  0  0  # atno 17370 bound_to 10713
  157.5103  130.7934  149.7698 LP  0  0  0  0  0  0  0  0  0  0  0  0  # atno 17371 bound_to 10713
  139.9749  134.7231  155.9968 LP  0  0  0  0  0  0  0  0  0  0  0  0  # atno 17394 bound_to 11000
  141.1467  133.6555  156.3889 LP  0  0  0  0  0  0  0  0  0  0  0  0  # atno 17395 bound_to 11000

$$$$
