#       Name:                AV-unprocessed.smi:2492
#       Creating user name   scv26
#       Creation time:       Fri Mar 27 13:44:43 2020


#       File generated by GOLD software.
#

@<TRIPOS>MOLECULE
AV-unprocessed.smi:2492
    39    40     1
SMALL
NO_CHARGES


@<TRIPOS>ATOM
      1 ****        -4.5804  -3.6687   0.3280 C.3            1 S1                 0.0000
      2 ****        -3.1634  -3.0309  -0.6043 S.3            1 S1                 0.0000
      3 ****        -2.8371  -1.4958   0.3107 C.3            1 S1                 0.0000
      4 ****        -2.2802  -1.7343   1.7131 C.3            1 S1                 0.0000
      5 ****        -1.6331  -0.4005   2.0879 C.3            1 S1                 0.0000
      6 ****        -1.1436   0.2214   0.7670 C.3            1 S1                 0.0000
      7 ****         0.3164   0.2140   0.7057 N.am           1 S1                 0.0000
      8 ****         1.0687   0.9084  -0.1604 C.2            1 S1                 0.0000
      9 ****         0.5288   1.6337  -0.9992 O.2            1 S1                 0.0000
     10 ****         2.3981   0.7164  -0.0029 N.pl3          1 S1                -1.0000
     11 ****         3.2670   1.3349  -0.8194 C.2            1 S1                 0.0000
     12 ****         3.9614   2.4377  -0.5357 N.2            1 S1                 0.0000
     13 ****         4.6774   2.6186  -1.6776 C.2            1 S1                 0.0000
     14 ****         5.6311   3.7483  -1.8649 C.3            1 S1                 0.0000
     15 ****         4.4861   1.7163  -2.6282 N.2            1 S1                 0.0000
     16 ****         3.5444   0.8489  -2.0575 O.3            1 S1                 0.0000
     17 ****        -1.7714  -0.6249  -0.3603 C.3            1 S1                 0.0000
     18 ****        -4.9448  -4.5890  -0.1280 H              1 S1                 0.0000
     19 ****        -5.3920  -2.9412   0.3339 H              1 S1                 0.0000
     20 ****        -4.2970  -3.8849   1.3579 H              1 S1                 0.0000
     21 ****        -3.7635  -0.9243   0.3835 H              1 S1                 0.0000
     22 ****        -3.0455  -2.0387   2.4271 H              1 S1                 0.0000
     23 ****        -1.5182  -2.5146   1.6852 H              1 S1                 0.0000
     24 ****        -2.3864   0.2511   2.5329 H              1 S1                 0.0000
     25 ****        -0.8415  -0.5252   2.8281 H              1 S1                 0.0000
     26 ****        -1.5023   1.2509   0.7103 H              1 S1                 0.0000
     27 ****         0.7982  -0.3679   1.3751 H              1 S1                 0.0000
     28 ****         6.6372   3.4403  -1.5805 H              1 S1                 0.0000
     29 ****         5.3410   4.5994  -1.2483 H              1 S1                 0.0000
     30 ****         5.6470   4.0691  -2.9069 H              1 S1                 0.0000
     31 ****        -1.0148  -1.2648  -0.8178 H              1 S1                 0.0000
     32 ****        -2.1888  -0.0049  -1.1543 H              1 S1                 0.0000
     33 ****        -0.4682   1.7032  -1.0326 LP             1 S1                 0.0000
     34 ****         1.0881   2.1524  -1.6459 LP             1 S1                 0.0000
     35 ****         2.7342   0.1142   0.7212 LP             1 S1                 0.0000
     36 ****         3.9568   2.9882   0.2992 LP             1 S1                 0.0000
     37 ****         4.9101   1.6662  -3.5325 LP             1 S1                 0.0000
     38 ****         2.7137   0.8278  -2.6137 LP             1 S1                 0.0000
     39 ****         3.9231  -0.0740  -1.9887 LP             1 S1                 0.0000
@<TRIPOS>BOND
    1    1    2 1     
    2    1   18 1     
    3    1   19 1     
    4    1   20 1     
    5    2    3 1     
    6    3   17 1     
    7    3    4 1     
    8    3   21 1     
    9    4    5 1     
   10    4   22 1     
   11    4   23 1     
   12    5    6 1     
   13    5   24 1     
   14    5   25 1     
   15    6    7 1     
   16    6   17 1     
   17    6   26 1     
   18    7    8 am    
   19    7   27 1     
   20    8    9 2     
   21    8   10 1     
   22   10   11 1     
   23   11   16 1     
   24   11   12 2     
   25   12   13 1     
   26   13   14 1     
   27   13   15 2     
   28   14   28 1     
   29   14   29 1     
   30   14   30 1     
   31   15   16 1     
   32   17   31 1     
   33   17   32 1     
   34    9   33 1     
   35    9   34 1     
   36   10   35 1     
   37   12   36 1     
   38   15   37 1     
   39   16   38 1     
   40   16   39 1     
@<TRIPOS>SUBSTRUCTURE
      1 S1             1
@<TRIPOS>SET
LONE_PAIRS      STATIC     ATOMS    <user>   **** ""
7 33 34 35 36 37 38 39
DONOR_HYDROGENS      STATIC     ATOMS    <user>   **** ""
1 27
ATOM$BLUE        STATIC     ATOMS    COLORGROUP SYSTEM
7 33 34 35 36 37 38 39
ATOM$RED        STATIC     ATOMS    COLORGROUP SYSTEM
1 27
