AV-unprocessed.smi:1958|AV-procd|sdf|7910|dock8
  -GOLD-   2272010 73D 1   1.00000     0.00000
 Structure written by MMmdl.
 47 48  0  0  0  0  0  0  0  0  3 V2000
  152.3320  143.2521  160.0319 C   0  0  0  0  0  0  0  0  0  0  0  0
  152.9013  142.2195  159.2467 O   0  0  0  0  0  0  0  0  0  0  0  0
  152.0851  141.0613  159.1976 C   0  0  0  0  0  0  0  0  0  0  0  0
  152.0913  140.5133  157.7628 C   0  0  0  0  0  0  0  0  0  0  0  0
  150.8690  140.8749  157.0380 N   0  0  0  0  0  0  0  0  0  0  0  0
  149.9160  141.5055  157.8192 N   0  0  0  0  0  0  0  0  0  0  0  0
  148.7795  141.8570  157.3088 C   0  0  0  0  0  0  0  0  0  0  0  0
  147.7218  142.5072  158.1437 C   0  0  0  0  0  0  0  0  0  0  0  0
  148.0739  142.8990  159.2635 O   0  0  0  0  0  0  0  0  0  0  0  0
  146.4717  142.6360  157.6050 N   0  5  0  0  0  0  0  0  0  0  0  0
  145.2171  142.6811  158.3615 C   0  0  0  0  0  0  0  0  0  0  0  0
  144.5331  144.0669  158.2127 C   0  0  2  0  0  0  0  0  0  0  0  0
  143.9911  144.3587  156.7913 C   0  0  0  0  0  0  0  0  0  0  0  0
  145.3924  145.1562  158.7794 N   0  3  0  0  0  0  0  0  0  0  0  0
  144.7781  146.5083  158.8861 C   0  0  0  0  0  0  0  0  0  0  0  0
  145.8444  147.5362  159.2909 C   0  0  0  0  0  0  0  0  0  0  0  0
  146.4236  147.1484  160.5311 O   0  0  0  0  0  0  0  0  0  0  0  0
  147.0749  145.8865  160.4452 C   0  0  0  0  0  0  0  0  0  0  0  0
  146.0615  144.7968  160.0533 C   0  0  0  0  0  0  0  0  0  0  0  0
  148.4918  141.6077  155.9033 C   0  0  0  0  0  0  0  0  0  0  0  0
  149.4359  141.0010  155.1514 C   0  0  0  0  0  0  0  0  0  0  0  0
  150.7242  140.5890  155.7094 C   0  0  0  0  0  0  0  0  0  0  0  0
  151.5988  140.0338  155.0447 O   0  0  0  0  0  0  0  0  0  0  0  0
  152.9979  144.1149  160.0416 H   0  0  0  0  0  0  0  0  0  0  0  0
  152.1846  142.9283  161.0629 H   0  0  0  0  0  0  0  0  0  0  0  0
  151.3722  143.5730  159.6250 H   0  0  0  0  0  0  0  0  0  0  0  0
  152.4646  140.3076  159.8894 H   0  0  0  0  0  0  0  0  0  0  0  0
  151.0687  141.3109  159.5062 H   0  0  0  0  0  0  0  0  0  0  0  0
  152.9696  140.8777  157.2275 H   0  0  0  0  0  0  0  0  0  0  0  0
  152.1995  139.4273  157.7916 H   0  0  0  0  0  0  0  0  0  0  0  0
  144.5269  141.9063  158.0277 H   0  0  0  0  0  0  0  0  0  0  0  0
  145.3662  142.4889  159.4251 H   0  0  0  0  0  0  0  0  0  0  0  0
  143.6453  143.9987  158.8429 H   0  0  0  0  0  0  0  0  0  0  0  0
  143.2690  143.6046  156.4731 H   0  0  0  0  0  0  0  0  0  0  0  0
  144.7776  144.3918  156.0355 H   0  0  0  0  0  0  0  0  0  0  0  0
  143.4694  145.3158  156.7662 H   0  0  0  0  0  0  0  0  0  0  0  0
  144.3346  146.8078  157.9367 H   0  0  0  0  0  0  0  0  0  0  0  0
  143.9793  146.5044  159.6285 H   0  0  0  0  0  0  0  0  0  0  0  0
  146.6140  147.6234  158.5221 H   0  0  0  0  0  0  0  0  0  0  0  0
  145.3926  148.5216  159.4037 H   0  0  0  0  0  0  0  0  0  0  0  0
  147.8896  145.9357  159.7210 H   0  0  0  0  0  0  0  0  0  0  0  0
  147.5222  145.6534  161.4115 H   0  0  0  0  0  0  0  0  0  0  0  0
  145.3130  144.6727  160.8375 H   0  0  0  0  0  0  0  0  0  0  0  0
  146.5820  143.8442  159.9480 H   0  0  0  0  0  0  0  0  0  0  0  0
  147.5530  141.9026  155.4578 H   0  0  0  0  0  0  0  0  0  0  0  0
  149.2357  140.8142  154.1065 H   0  0  0  0  0  0  0  0  0  0  0  0
  146.1376  145.2510  158.1034 H   0  0  0  0  0  0  0  0  0  0  0  0
  1  2  1  0  0  0  0
  1 24  1  0  0  0  0
  1 25  1  0  0  0  0
  1 26  1  0  0  0  0
  2  3  1  0  0  0  0
  3  4  1  0  0  0  0
  3 27  1  0  0  0  0
  3 28  1  0  0  0  0
  4  5  1  0  0  0  0
  4 29  1  0  0  0  0
  4 30  1  0  0  0  0
  5 22  1  0  0  0  0
  5  6  1  0  0  0  0
  6  7  2  0  0  0  0
  7  8  1  0  0  0  0
  7 20  1  0  0  0  0
  8  9  2  0  0  0  0
  8 10  1  0  0  0  0
 10 11  1  0  0  0  0
 11 12  1  0  0  0  0
 11 31  1  0  0  0  0
 11 32  1  0  0  0  0
 12 13  1  0  0  0  0
 12 14  1  0  0  0  0
 12 33  1  0  0  0  0
 13 34  1  0  0  0  0
 13 35  1  0  0  0  0
 13 36  1  0  0  0  0
 14 19  1  0  0  0  0
 14 15  1  0  0  0  0
 14 47  1  0  0  0  0
 15 16  1  0  0  0  0
 15 37  1  0  0  0  0
 15 38  1  0  0  0  0
 16 17  1  0  0  0  0
 16 39  1  0  0  0  0
 16 40  1  0  0  0  0
 17 18  1  0  0  0  0
 18 19  1  0  0  0  0
 18 41  1  0  0  0  0
 18 42  1  0  0  0  0
 19 43  1  0  0  0  0
 19 44  1  0  0  0  0
 20 21  2  0  0  0  0
 20 45  1  0  0  0  0
 21 22  1  0  0  0  0
 21 46  1  0  0  0  0
 22 23  2  0  0  0  0
M  CHG  1  10  -1
M  CHG  1  14   1
M  END
> <s_m_source_file>
AV-unprocessed.smi

> <i_m_source_file_index>
1958

> <i_lp_mmshare_version>
43012

> <i_f3d_flags>
0

> <s_epik_input>
W0NIM11PW0NIMl1bQ0gyXW4xbmMoW2NIXVtjSF1jMT1PKUMoPU8pW05IXVtDSDJdW0NASF0oW0NIM10pTjJbQ0gyXVtDSDJdT1tDSDJdW0NIMl0y

> <s_epik_cmdline>
J2VwaWtfcHl0aG9uJywgJy1waCcsICc3LjAnLCAnLXRuJywgJzgnLCAnLW1hJywgJzIwMCcsICctbWV0YWxfYmluZGluZycsICctaW1hZScsICc8aW5maWxlLm1hZT4nLCAnLW9tYWUnLCAnPG91dGZpbGUubWFlPic=

> <r_lp_tautomer_probability>
1

> <r_epik_Ionization_Penalty>
6.89388

> <r_epik_Ionization_Penalty_Charging>
6.89388

> <r_epik_Ionization_Penalty_Neutral>
1.08445e-11

> <r_epik_State_Penalty>
7.53214

> <r_epik_Charging_Adjusted_Penalty>
14.426

> <i_epik_Tot_Q>
0

> <i_epik_Tot_abs_Q>
2

> <r_epik_Metal_State_Penalty>
3.44743

> <b_epik_Metal_Only>
1

> <s_lp_Force_Field>
OPLS_2005

> <r_lp_Energy>
42.3217

> <b_lp_Chiralities_Consistent>
1

> <s_lp_Variant>
AV-unprocessed.smi:1958-5

> <Gold.Version>
5.8.1

> <Gold.Id.Protein>
6NUR|6NUR_protein|mol2

> <Gold.PLP.Fitness>
44.8882

> <Gold.PLP.PLP>
-36.3640

> <Gold.PLP.part.hbond>
-4.8282

> <Gold.PLP.part.metal>
0.0000

> <Gold.PLP.part.buried>
-6.4321

> <Gold.PLP.part.nonpolar>
-26.5226

> <Gold.PLP.part.repulsive>
0.5694

> <Gold.PLP.ligand.clash>
0.0000

> <Gold.PLP.ligand.torsion>
1.0083

> <Gold.PLP.Chemscore.Hbond>
3.4326

> <Gold.PLP.Chemscore.CHOScore>
0.0000

> <Gold.PLP.Chemscore.Metal>
0.0000

> <Gold.Chemscore.Hbonds>
donor molecule, donor type, donor heavy atom, donor atom, acceptor molecule, acceptor atom, score
      L1  H    14    47       P1  8029  2.00
      P1  H  6933  6944       L1     9  0.22
      P1  H  7989  7998       L1    23  1.00

> <Gold.PLP.Chemscore.Internal.Correction>
0.2429

> <Gold.Rescore>
     Score         DG    S(hbond)    S(metal)    S(lipo)     H(rot)  DE(clash)    DE(int)     intcor
     13.53     -14.88       2.04        0.00      67.33       2.07       0.41       0.94       ----

> <Gold.Chemscore.Fitness>
13.5320

> <Gold.Chemscore.DG>
-14.8771

> <Gold.Chemscore.ZeroCoef>
-5.4800

> <Gold.Chemscore.Hbond>
2.0395

> <Gold.Chemscore.Metal>
0.0000

> <Gold.Chemscore.Lipo>
67.3301

> <Gold.Chemscore.Internal_Hbond>
0.0000

> <Gold.Chemscore.DEClash>
0.4093

> <Gold.Chemscore.DEInternal>
0.9358

> <Gold.Chemscore.Rot>
2.0673

> <Gold.Chemscore.Internal.Correction>
   9.000000E+99

> <Gold.Chemscore.Hbonds>
donor molecule, donor type, donor heavy atom, donor atom, acceptor molecule, acceptor atom, score
      L1  H    14    47       P1  8029  0.88
      P1  H  6933  6944       L1     9  0.22
      P1  H  7989  7998       L1    23  0.53

> <Gold.Chemscore.Hbond.Weighted>
-6.8119

> <Gold.Chemscore.Metal.Weighted>
-0.0000

> <Gold.Chemscore.Lipo.Weighted>
-7.8776

> <Gold.Chemscore.Internal_Hbond.Weighted>
0.0000

> <Gold.Chemscore.DEClash.Weighted>
0.4093

> <Gold.Chemscore.DEInternal.Weighted>
0.9358

> <Gold.Chemscore.Rot.Weighted>
5.2923

> <Gold.Chemscore.Internal.Correction.Weighted>
   9.000000E+99

> <Gold.Protein.RotatedTorsions>
[ 6907 6896 6895 6894 ] final -113.63 input  -60.11 | X-H torsion
[ 7974 7965 7964 7962 ] final  -50.72 input  175.53 | X-H torsion
[ 8008 7997 7996 7995 ] final  126.52 input   59.86 | X-H torsion
[ 10167 10162 10161 10158 ] final    7.44 input  -65.29 | X-H torsion
[ 10718 10713 10712 10709 ] final   75.47 input   66.30 | X-H torsion
[ 10763 10752 10751 10750 ] final   64.23 input  -60.55 | X-H torsion
[ 11005 11000 10999 10996 ] final    4.98 input  -57.11 | X-H torsion

> <Gold.Protein.ActiveResidues>
 VAL166  LYS551  ARG553  GLY616  TRP617  ASP618  TYR619  PRO620  LYS621  CYS622 
 ASP623  PHE694  ASN695  SER759  ASP760  ASP761  ALA762  ILE779  LEU786  VAL792 
 PHE793  MET794  SER795  GLU796  ALA797  LYS798  CYS799  TRP800  GLU811  SER814 

> <Gold.Protein.RotatedAtoms>
  150.7843  133.8916  159.3314 H   0  0  0  0  0  0  0  0  0  0  0  0  # atno 6907 bound_to 6896
  151.6771  135.0965  160.0218 H   0  0  0  0  0  0  0  0  0  0  0  0  # atno 6908 bound_to 6896
  152.3903  133.6631  159.6267 H   0  0  0  0  0  0  0  0  0  0  0  0  # atno 6909 bound_to 6896
  145.9268  140.7785  142.9619 H   0  0  0  0  0  0  0  0  0  0  0  0  # atno 7974 bound_to 7965
  156.2866  140.2690  156.2125 H   0  0  0  0  0  0  0  0  0  0  0  0  # atno 8008 bound_to 7997
  155.0250  140.0386  157.2470 H   0  0  0  0  0  0  0  0  0  0  0  0  # atno 8009 bound_to 7997
  154.7403  140.2724  155.6384 H   0  0  0  0  0  0  0  0  0  0  0  0  # atno 8010 bound_to 7997
  140.6371  143.7860  150.7375 H   0  0  0  0  0  0  0  0  0  0  0  0  # atno 10167 bound_to 10162
  157.6635  130.9728  150.1358 H   0  0  0  0  0  0  0  0  0  0  0  0  # atno 10718 bound_to 10713
  153.0048  135.5400  154.6477 H   0  0  0  0  0  0  0  0  0  0  0  0  # atno 10763 bound_to 10752
  154.5717  135.2842  155.0823 H   0  0  0  0  0  0  0  0  0  0  0  0  # atno 10764 bound_to 10752
  154.1986  135.6488  153.5133 H   0  0  0  0  0  0  0  0  0  0  0  0  # atno 10765 bound_to 10752
  140.5759  134.0059  155.8027 H   0  0  0  0  0  0  0  0  0  0  0  0  # atno 11005 bound_to 11000
  144.6759  140.2064  143.7381 LP  0  0  0  0  0  0  0  0  0  0  0  0  # atno 17320 bound_to 7965
  145.8478  139.2160  143.1790 LP  0  0  0  0  0  0  0  0  0  0  0  0  # atno 17321 bound_to 7965
  140.1484  143.4380  152.2148 LP  0  0  0  0  0  0  0  0  0  0  0  0  # atno 17342 bound_to 10162
  139.5581  144.7387  151.4234 LP  0  0  0  0  0  0  0  0  0  0  0  0  # atno 17343 bound_to 10162
  156.2193  130.3672  149.8575 LP  0  0  0  0  0  0  0  0  0  0  0  0  # atno 17370 bound_to 10713
  156.6432  130.8713  151.3518 LP  0  0  0  0  0  0  0  0  0  0  0  0  # atno 17371 bound_to 10713
  141.1027  133.9743  157.3051 LP  0  0  0  0  0  0  0  0  0  0  0  0  # atno 17394 bound_to 11000
  139.9340  135.0198  156.8494 LP  0  0  0  0  0  0  0  0  0  0  0  0  # atno 17395 bound_to 11000

$$$$
