AV-unprocessed.smi:1032|AV-procd|sdf|4486|dock9
  -GOLD-   22720 2463D 1   1.00000     0.00000
 Structure written by MMmdl.
 47 48  0  0  0  0  0  0  0  0  3 V2000
  151.1277  142.5453  159.1445 C   0  0  0  0  0  0  0  0  0  0  0  0
  150.3586  141.8656  158.0028 C   0  0  2  0  0  0  0  0  0  0  0  0
  150.9507  142.2139  156.6270 C   0  0  0  0  0  0  0  0  0  0  0  0
  150.1538  141.5497  155.4913 C   0  0  0  0  0  0  0  0  0  0  0  0
  148.7184  141.9360  155.5466 N   0  3  1  0  0  0  0  0  0  0  0  0
  147.9208  141.4218  154.4029 C   0  0  0  0  0  0  0  0  0  0  0  0
  148.0258  139.8917  154.2319 C   0  0  2  0  0  0  0  0  0  0  0  0
  149.1518  139.6282  153.4179 O   0  0  0  0  0  0  0  0  0  0  0  0
  146.7801  139.3193  153.5243 C   0  0  0  0  0  0  0  0  0  0  0  0
  147.0010  137.9601  153.0385 N   0  0  0  0  0  0  0  0  0  0  0  0
  146.0425  137.1482  152.5692 C   0  0  0  0  0  0  0  0  0  0  0  0
  144.8519  137.4591  152.5307 O   0  0  0  0  0  0  0  0  0  0  0  0
  146.5476  135.9655  152.1784 N   0  0  0  0  0  0  0  0  0  0  0  0
  145.8648  134.8731  151.5776 C   0  0  0  0  0  0  0  0  0  0  0  0
  144.7737  135.1659  150.7293 C   0  0  0  0  0  0  0  0  0  0  0  0
  144.0572  134.1106  150.1289 C   0  0  0  0  0  0  0  0  0  0  0  0
  144.4098  132.8311  150.3776 N   0  3  0  0  0  0  0  0  0  0  0  0
  145.4340  132.5016  151.1934 C   0  0  0  0  0  0  0  0  0  0  0  0
  146.1886  133.5140  151.8207 C   0  0  0  0  0  0  0  0  0  0  0  0
  148.1115  141.5796  156.8551 C   0  0  0  0  0  0  0  0  0  0  0  0
  148.8673  142.2402  158.0198 C   0  0  0  0  0  0  0  0  0  0  0  0
  151.0795  143.6320  159.0657 H   0  0  0  0  0  0  0  0  0  0  0  0
  152.1792  142.2573  159.1362 H   0  0  0  0  0  0  0  0  0  0  0  0
  150.7181  142.2637  160.1149 H   0  0  0  0  0  0  0  0  0  0  0  0
  150.4406  140.7869  158.1445 H   0  0  0  0  0  0  0  0  0  0  0  0
  150.9518  143.2959  156.4865 H   0  0  0  0  0  0  0  0  0  0  0  0
  151.9928  141.8959  156.5777 H   0  0  0  0  0  0  0  0  0  0  0  0
  150.5939  141.8432  154.5394 H   0  0  0  0  0  0  0  0  0  0  0  0
  150.2429  140.4641  155.5572 H   0  0  0  0  0  0  0  0  0  0  0  0
  146.8801  141.7223  154.5335 H   0  0  0  0  0  0  0  0  0  0  0  0
  148.2583  141.8939  153.4785 H   0  0  0  0  0  0  0  0  0  0  0  0
  148.1592  139.4082  155.1988 H   0  0  0  0  0  0  0  0  0  0  0  0
  149.0616  140.1141  152.6119 H   0  0  0  0  0  0  0  0  0  0  0  0
  145.9336  139.3029  154.2134 H   0  0  0  0  0  0  0  0  0  0  0  0
  146.4728  139.9568  152.6940 H   0  0  0  0  0  0  0  0  0  0  0  0
  147.9539  137.6258  153.0397 H   0  0  0  0  0  0  0  0  0  0  0  0
  147.5274  135.8143  152.3683 H   0  0  0  0  0  0  0  0  0  0  0  0
  144.4885  136.1894  150.5330 H   0  0  0  0  0  0  0  0  0  0  0  0
  143.2167  134.2506  149.4648 H   0  0  0  0  0  0  0  0  0  0  0  0
  145.6145  131.4446  151.3246 H   0  0  0  0  0  0  0  0  0  0  0  0
  146.9898  133.2289  152.4856 H   0  0  0  0  0  0  0  0  0  0  0  0
  147.0700  141.9031  156.8795 H   0  0  0  0  0  0  0  0  0  0  0  0
  148.1097  140.4947  156.9734 H   0  0  0  0  0  0  0  0  0  0  0  0
  148.4172  141.9382  158.9661 H   0  0  0  0  0  0  0  0  0  0  0  0
  148.7561  143.3236  157.9570 H   0  0  0  0  0  0  0  0  0  0  0  0
  148.6798  142.9436  155.4838 H   0  0  0  0  0  0  0  0  0  0  0  0
  143.8768  132.0817  149.9351 H   0  0  0  0  0  0  0  0  0  0  0  0
  1  2  1  0  0  0  0
  1 22  1  0  0  0  0
  1 23  1  0  0  0  0
  1 24  1  0  0  0  0
  2 21  1  0  0  0  0
  2  3  1  0  0  0  0
  2 25  1  0  0  0  0
  3  4  1  0  0  0  0
  3 26  1  0  0  0  0
  3 27  1  0  0  0  0
  4  5  1  0  0  0  0
  4 28  1  0  0  0  0
  4 29  1  0  0  0  0
  5  6  1  0  0  0  0
  5 20  1  0  0  0  0
  5 46  1  0  0  0  0
  6  7  1  0  0  0  0
  6 30  1  0  0  0  0
  6 31  1  0  0  0  0
  7  8  1  0  0  0  0
  7  9  1  0  0  0  0
  7 32  1  0  0  0  0
  8 33  1  0  0  0  0
  9 10  1  0  0  0  0
  9 34  1  0  0  0  0
  9 35  1  0  0  0  0
 10 11  1  0  0  0  0
 10 36  1  0  0  0  0
 11 12  2  0  0  0  0
 11 13  1  0  0  0  0
 13 14  1  0  0  0  0
 13 37  1  0  0  0  0
 14 19  1  0  0  0  0
 14 15  2  0  0  0  0
 15 16  1  0  0  0  0
 15 38  1  0  0  0  0
 16 17  2  0  0  0  0
 16 39  1  0  0  0  0
 17 18  1  0  0  0  0
 17 47  1  0  0  0  0
 18 19  2  0  0  0  0
 18 40  1  0  0  0  0
 19 41  1  0  0  0  0
 20 21  1  0  0  0  0
 20 42  1  0  0  0  0
 20 43  1  0  0  0  0
 21 44  1  0  0  0  0
 21 45  1  0  0  0  0
M  CHG  1   5   1
M  CHG  1  17   1
M  END
> <s_m_source_file>
AV-unprocessed.smi

> <i_m_source_file_index>
1032

> <i_lp_mmshare_version>
43012

> <i_f3d_flags>
0

> <s_epik_input>
W0NIM11bQ0hdMVtDSDJdW0NIMl1OKFtDSDJdW0NIMl0xKVtDSDJdW0NASF0oW09IXSlbQ0gyXVtOSF1DKD1PKVtOSF1jMltjSF1bY0hdbltjSF1bY0hdMg==

> <s_epik_cmdline>
J2VwaWtfcHl0aG9uJywgJy1waCcsICc3LjAnLCAnLXRuJywgJzgnLCAnLW1hJywgJzIwMCcsICctbWV0YWxfYmluZGluZycsICctaW1hZScsICc8aW5maWxlLm1hZT4nLCAnLW9tYWUnLCAnPG91dGZpbGUubWFlPic=

> <r_epik_Ionization_Penalty>
1.02509

> <r_epik_Ionization_Penalty_Charging>
1.02507

> <r_epik_Ionization_Penalty_Neutral>
1.85474e-05

> <r_epik_State_Penalty>
1.07411

> <r_epik_Charging_Adjusted_Penalty>
2.09917

> <i_epik_Tot_Q>
2

> <i_epik_Tot_abs_Q>
2

> <r_epik_Metal_State_Penalty>
1.1725

> <b_epik_Metal_Only>
0

> <s_lp_Force_Field>
OPLS_2005

> <r_lp_Energy>
32.4913

> <b_lp_Chiralities_Consistent>
1

> <s_lp_Variant>
AV-unprocessed.smi:1032-5

> <Gold.Version>
5.8.1

> <Gold.Id.Protein>
6NUR|6NUR_protein|mol2

> <Gold.PLP.Fitness>
44.2266

> <Gold.PLP.PLP>
-33.0706

> <Gold.PLP.part.hbond>
-2.8036

> <Gold.PLP.part.metal>
0.0000

> <Gold.PLP.part.buried>
-6.0284

> <Gold.PLP.part.nonpolar>
-25.0678

> <Gold.PLP.part.repulsive>
0.4773

> <Gold.PLP.ligand.clash>
0.0297

> <Gold.PLP.ligand.torsion>
0.7325

> <Gold.PLP.Chemscore.Hbond>
4.1945

> <Gold.PLP.Chemscore.CHOScore>
0.0000

> <Gold.PLP.Chemscore.Metal>
0.0000

> <Gold.Chemscore.Hbonds>
donor molecule, donor type, donor heavy atom, donor atom, acceptor molecule, acceptor atom, score
      L1  H     5    46       P1  8028  2.00
      L1  H     8    33       P1  7957  0.75
      L1  H    10    36       P1  7948  0.59
      L1  H    13    37       P1  7948  0.82

> <Gold.PLP.Chemscore.Internal.Correction>
0.0670

> <Gold.Rescore>
     Score         DG    S(hbond)    S(metal)    S(lipo)     H(rot)  DE(clash)    DE(int)     intcor
     17.15     -19.32       3.09        0.00      81.20       2.34       0.10       2.07       ----

> <Gold.Chemscore.Fitness>
17.1497

> <Gold.Chemscore.DG>
-19.3202

> <Gold.Chemscore.ZeroCoef>
-5.4800

> <Gold.Chemscore.Hbond>
3.0925

> <Gold.Chemscore.Metal>
0.0000

> <Gold.Chemscore.Lipo>
81.1968

> <Gold.Chemscore.Internal_Hbond>
0.0000

> <Gold.Chemscore.DEClash>
0.1011

> <Gold.Chemscore.DEInternal>
2.0694

> <Gold.Chemscore.Rot>
2.3393

> <Gold.Chemscore.Internal.Correction>
   9.000000E+99

> <Gold.Chemscore.Hbonds>
donor molecule, donor type, donor heavy atom, donor atom, acceptor molecule, acceptor atom, score
      L1  H     5    46       P1  8028  1.00
      L1  H     8    33       P1  7957  0.72
      L1  H    10    36       P1  7948  0.57
      L1  H    13    37       P1  7948  0.78

> <Gold.Chemscore.Hbond.Weighted>
-10.3289

> <Gold.Chemscore.Metal.Weighted>
-0.0000

> <Gold.Chemscore.Lipo.Weighted>
-9.5000

> <Gold.Chemscore.Internal_Hbond.Weighted>
0.0000

> <Gold.Chemscore.DEClash.Weighted>
0.1011

> <Gold.Chemscore.DEInternal.Weighted>
2.0694

> <Gold.Chemscore.Rot.Weighted>
5.9886

> <Gold.Chemscore.Internal.Correction.Weighted>
   9.000000E+99

> <Gold.Protein.RotatedTorsions>
[ 6907 6896 6895 6894 ] final   14.00 input  -60.11 | X-H torsion
[ 7974 7965 7964 7962 ] final  -59.99 input  175.53 | X-H torsion
[ 8008 7997 7996 7995 ] final -156.59 input   59.86 | X-H torsion
[ 10167 10162 10161 10158 ] final   81.39 input  -65.29 | X-H torsion
[ 10718 10713 10712 10709 ] final -101.22 input   66.30 | X-H torsion
[ 10763 10752 10751 10750 ] final    3.52 input  -60.55 | X-H torsion
[ 11005 11000 10999 10996 ] final   52.00 input  -57.11 | X-H torsion

> <Gold.Protein.ActiveResidues>
 VAL166  LYS551  ARG553  GLY616  TRP617  ASP618  TYR619  PRO620  LYS621  CYS622 
 ASP623  PHE694  ASN695  SER759  ASP760  ASP761  ALA762  ILE779  LEU786  VAL792 
 PHE793  MET794  SER795  GLU796  ALA797  LYS798  CYS799  TRP800  GLU811  SER814 

> <Gold.Protein.RotatedAtoms>
  151.7952  135.0724  160.0392 H   0  0  0  0  0  0  0  0  0  0  0  0  # atno 6907 bound_to 6896
  152.3128  133.5766  159.5700 H   0  0  0  0  0  0  0  0  0  0  0  0  # atno 6908 bound_to 6896
  150.7328  134.0043  159.3690 H   0  0  0  0  0  0  0  0  0  0  0  0  # atno 6909 bound_to 6896
  145.8209  140.8541  143.0133 H   0  0  0  0  0  0  0  0  0  0  0  0  # atno 7974 bound_to 7965
  155.7195  140.0788  157.2337 H   0  0  0  0  0  0  0  0  0  0  0  0  # atno 8008 bound_to 7997
  154.4047  140.1615  156.2440 H   0  0  0  0  0  0  0  0  0  0  0  0  # atno 8009 bound_to 7997
  155.9209  140.3398  155.6175 H   0  0  0  0  0  0  0  0  0  0  0  0  # atno 8010 bound_to 7997
  139.9397  144.6098  150.8263 H   0  0  0  0  0  0  0  0  0  0  0  0  # atno 10167 bound_to 10162
  156.0187  130.5363  150.6931 H   0  0  0  0  0  0  0  0  0  0  0  0  # atno 10718 bound_to 10713
  153.2823  135.6941  153.7373 H   0  0  0  0  0  0  0  0  0  0  0  0  # atno 10763 bound_to 10752
  153.6356  135.3402  155.3056 H   0  0  0  0  0  0  0  0  0  0  0  0  # atno 10764 bound_to 10752
  154.8499  135.4419  154.1880 H   0  0  0  0  0  0  0  0  0  0  0  0  # atno 10765 bound_to 10752
  140.0886  134.5241  155.8875 H   0  0  0  0  0  0  0  0  0  0  0  0  # atno 11005 bound_to 11000
  144.6748  140.0532  143.7478 LP  0  0  0  0  0  0  0  0  0  0  0  0  # atno 17320 bound_to 7965
  145.9676  139.2846  143.1118 LP  0  0  0  0  0  0  0  0  0  0  0  0  # atno 17321 bound_to 7965
  140.7614  143.3174  151.2701 LP  0  0  0  0  0  0  0  0  0  0  0  0  # atno 17342 bound_to 10162
  139.6714  144.0013  152.2755 LP  0  0  0  0  0  0  0  0  0  0  0  0  # atno 17343 bound_to 10162
  157.4608  131.0883  151.0747 LP  0  0  0  0  0  0  0  0  0  0  0  0  # atno 17370 bound_to 10713
  157.1236  130.6072  149.5511 LP  0  0  0  0  0  0  0  0  0  0  0  0  # atno 17371 bound_to 10713
  141.2070  133.6660  156.6281 LP  0  0  0  0  0  0  0  0  0  0  0  0  # atno 17394 bound_to 11000
  140.3385  134.7869  157.4380 LP  0  0  0  0  0  0  0  0  0  0  0  0  # atno 17395 bound_to 11000

$$$$
