AV-unprocessed.smi:1433|AV-procd|sdf|5836|dock3
  -GOLD-   22720 5493D 1   1.00000     0.00000
 Structure written by MMmdl.
 44 45  0  0  0  0  0  0  0  0  1 V2000
  136.1420  141.6365  168.6943 C   0  0  0  0  0  0  0  0  0  0  0  0
  135.8409  140.3436  167.9290 C   0  0  1  0  0  0  0  0  0  0  0  0
  137.1083  139.7256  167.3085 C   0  0  0  0  0  0  0  0  0  0  0  0
  136.8514  138.4482  166.6345 N   0  0  0  0  0  0  0  0  0  0  0  0
  138.0793  137.8544  166.0557 C   0  0  2  0  0  0  0  0  0  0  0  0
  138.8104  138.8177  165.0843 C   0  0  0  0  0  0  0  0  0  0  0  0
  137.8250  136.5054  165.3280 C   0  0  0  0  0  0  0  0  0  0  0  0
  139.0294  135.6884  165.2474 N   0  0  0  0  0  0  0  0  0  0  0  0
  139.3973  134.9596  164.1836 C   0  0  0  0  0  0  0  0  0  0  0  0
  138.7202  134.8611  163.1609 O   0  0  0  0  0  0  0  0  0  0  0  0
  140.7375  134.2297  164.2899 C   0  0  0  0  0  0  0  0  0  0  0  0
  141.8091  135.0055  163.6887 N   0  0  0  0  0  0  0  0  0  0  0  0
  143.1708  134.8448  163.8395 C   0  0  0  0  0  0  0  0  0  0  0  0
  143.7797  135.7959  163.0720 C   0  0  0  0  0  0  0  0  0  0  0  0
  142.6937  136.4993  162.4802 C   0  0  0  0  0  0  0  0  0  0  0  0
  141.5155  136.0248  162.8511 N   0  0  0  0  0  0  0  0  0  0  0  0
  136.1875  137.5584  167.5933 C   0  0  0  0  0  0  0  0  0  0  0  0
  134.9226  138.1814  168.2145 C   0  0  1  0  0  0  0  0  0  0  0  0
  134.2871  137.2705  169.2702 C   0  0  0  0  0  0  0  0  0  0  0  0
  135.2654  139.4128  168.8369 O   0  0  0  0  0  0  0  0  0  0  0  0
  136.5755  142.3904  168.0366 H   0  0  0  0  0  0  0  0  0  0  0  0
  136.8445  141.4590  169.5091 H   0  0  0  0  0  0  0  0  0  0  0  0
  135.2317  142.0549  169.1244 H   0  0  0  0  0  0  0  0  0  0  0  0
  135.1187  140.5648  167.1411 H   0  0  0  0  0  0  0  0  0  0  0  0
  137.5059  140.4549  166.6052 H   0  0  0  0  0  0  0  0  0  0  0  0
  137.8641  139.5875  168.0835 H   0  0  0  0  0  0  0  0  0  0  0  0
  138.7695  137.6469  166.8753 H   0  0  0  0  0  0  0  0  0  0  0  0
  139.6844  138.3623  164.6194 H   0  0  0  0  0  0  0  0  0  0  0  0
  139.1920  139.7038  165.5897 H   0  0  0  0  0  0  0  0  0  0  0  0
  138.1482  139.1452  164.2822 H   0  0  0  0  0  0  0  0  0  0  0  0
  137.0927  135.8945  165.8533 H   0  0  0  0  0  0  0  0  0  0  0  0
  137.4305  136.6944  164.3282 H   0  0  0  0  0  0  0  0  0  0  0  0
  139.6496  135.7085  166.0444 H   0  0  0  0  0  0  0  0  0  0  0  0
  140.9705  134.0324  165.3375 H   0  0  0  0  0  0  0  0  0  0  0  0
  140.6797  133.2641  163.7858 H   0  0  0  0  0  0  0  0  0  0  0  0
  143.5868  134.0738  164.4714 H   0  0  0  0  0  0  0  0  0  0  0  0
  144.8399  135.9625  162.9515 H   0  0  0  0  0  0  0  0  0  0  0  0
  142.7262  137.3348  161.7968 H   0  0  0  0  0  0  0  0  0  0  0  0
  135.8772  136.6354  167.1084 H   0  0  0  0  0  0  0  0  0  0  0  0
  136.8861  137.2828  168.3847 H   0  0  0  0  0  0  0  0  0  0  0  0
  134.1876  138.3725  167.4306 H   0  0  0  0  0  0  0  0  0  0  0  0
  133.9955  136.3129  168.8385 H   0  0  0  0  0  0  0  0  0  0  0  0
  133.3932  137.7296  169.6936 H   0  0  0  0  0  0  0  0  0  0  0  0
  134.9794  137.0724  170.0890 H   0  0  0  0  0  0  0  0  0  0  0  0
  1  2  1  0  0  0  0
  1 21  1  0  0  0  0
  1 22  1  0  0  0  0
  1 23  1  0  0  0  0
  2 20  1  0  0  0  0
  2  3  1  0  0  0  0
  2 24  1  0  0  0  0
  3  4  1  0  0  0  0
  3 25  1  0  0  0  0
  3 26  1  0  0  0  0
  4  5  1  0  0  0  0
  4 17  1  0  0  0  0
  5  6  1  0  0  0  0
  5  7  1  0  0  0  0
  5 27  1  0  0  0  0
  6 28  1  0  0  0  0
  6 29  1  0  0  0  0
  6 30  1  0  0  0  0
  7  8  1  0  0  0  0
  7 31  1  0  0  0  0
  7 32  1  0  0  0  0
  8  9  1  0  0  0  0
  8 33  1  0  0  0  0
  9 10  2  0  0  0  0
  9 11  1  0  0  0  0
 11 12  1  0  0  0  0
 11 34  1  0  0  0  0
 11 35  1  0  0  0  0
 12 16  1  0  0  0  0
 12 13  1  0  0  0  0
 13 14  2  0  0  0  0
 13 36  1  0  0  0  0
 14 15  1  0  0  0  0
 14 37  1  0  0  0  0
 15 16  2  0  0  0  0
 15 38  1  0  0  0  0
 17 18  1  0  0  0  0
 17 39  1  0  0  0  0
 17 40  1  0  0  0  0
 18 19  1  0  0  0  0
 18 20  1  0  0  0  0
 18 41  1  0  0  0  0
 19 42  1  0  0  0  0
 19 43  1  0  0  0  0
 19 44  1  0  0  0  0
M  END
> <s_m_source_file>
AV-unprocessed.smi

> <i_m_source_file_index>
1433

> <i_lp_mmshare_version>
43012

> <i_f3d_flags>
0

> <s_epik_input>
W0NIM11bQ0BASF0xW0NIMl1OKFtDSDJdW0NASF0oTzEpW0NIM10pW0NASF0oW0NIM10pW0NIMl1bTkhdQyg9TylbQ0gyXW4yW2NIXVtjSF1bY0hdbjI=

> <s_epik_cmdline>
J2VwaWtfcHl0aG9uJywgJy1waCcsICc3LjAnLCAnLXRuJywgJzgnLCAnLW1hJywgJzIwMCcsICctbWV0YWxfYmluZGluZycsICctaW1hZScsICc8aW5maWxlLm1hZT4nLCAnLW9tYWUnLCAnPG91dGZpbGUubWFlPic=

> <r_lp_tautomer_probability>
1

> <r_epik_Ionization_Penalty>
0.196927

> <r_epik_Ionization_Penalty_Charging>
0

> <r_epik_Ionization_Penalty_Neutral>
0.196927

> <r_epik_State_Penalty>
0.186684

> <r_epik_Charging_Adjusted_Penalty>
0.186684

> <i_epik_Tot_Q>
0

> <i_epik_Tot_abs_Q>
0

> <r_epik_Metal_State_Penalty>
0.186682

> <b_epik_Metal_Only>
0

> <s_lp_Force_Field>
OPLS_2005

> <r_lp_Energy>
26.9477

> <b_lp_Chiralities_Consistent>
1

> <s_lp_Variant>
AV-unprocessed.smi:1433-2

> <Gold.Version>
5.8.1

> <Gold.Id.Protein>
6NUR|6NUR_protein|mol2

> <Gold.PLP.Fitness>
41.6998

> <Gold.PLP.PLP>
-43.4533

> <Gold.PLP.part.hbond>
-1.0972

> <Gold.PLP.part.metal>
0.0000

> <Gold.PLP.part.buried>
-5.0165

> <Gold.PLP.part.nonpolar>
-37.8845

> <Gold.PLP.part.repulsive>
0.1984

> <Gold.PLP.ligand.clash>
0.0000

> <Gold.PLP.ligand.torsion>
0.8976

> <Gold.PLP.Chemscore.Hbond>
0.0000

> <Gold.PLP.Chemscore.CHOScore>
0.0000

> <Gold.PLP.Chemscore.Metal>
0.0000

> <Gold.PLP.Chemscore.Internal.Correction>
0.0417

> <Gold.Rescore>
     Score         DG    S(hbond)    S(metal)    S(lipo)     H(rot)  DE(clash)    DE(int)     intcor
     12.52     -13.67       0.00        0.00     109.45       1.80       0.15       1.00       ----

> <Gold.Chemscore.Fitness>
12.5238

> <Gold.Chemscore.DG>
-13.6676

> <Gold.Chemscore.ZeroCoef>
-5.4800

> <Gold.Chemscore.Hbond>
0.0000

> <Gold.Chemscore.Metal>
0.0000

> <Gold.Chemscore.Lipo>
109.4477

> <Gold.Chemscore.Internal_Hbond>
0.0000

> <Gold.Chemscore.DEClash>
0.1469

> <Gold.Chemscore.DEInternal>
0.9969

> <Gold.Chemscore.Rot>
1.8038

> <Gold.Chemscore.Internal.Correction>
   9.000000E+99

> <Gold.Chemscore.Hbond.Weighted>
-0.0000

> <Gold.Chemscore.Metal.Weighted>
-0.0000

> <Gold.Chemscore.Lipo.Weighted>
-12.8054

> <Gold.Chemscore.Internal_Hbond.Weighted>
0.0000

> <Gold.Chemscore.DEClash.Weighted>
0.1469

> <Gold.Chemscore.DEInternal.Weighted>
0.9969

> <Gold.Chemscore.Rot.Weighted>
4.6178

> <Gold.Chemscore.Internal.Correction.Weighted>
   9.000000E+99

> <Gold.Protein.RotatedTorsions>
[ 6907 6896 6895 6894 ] final  167.39 input  -60.11 | X-H torsion
[ 7974 7965 7964 7962 ] final   67.17 input  175.53 | X-H torsion
[ 8008 7997 7996 7995 ] final   91.42 input   59.86 | X-H torsion
[ 10167 10162 10161 10158 ] final  -58.82 input  -65.29 | X-H torsion
[ 10718 10713 10712 10709 ] final  -99.74 input   66.30 | X-H torsion
[ 10763 10752 10751 10750 ] final    8.51 input  -60.55 | X-H torsion
[ 11005 11000 10999 10996 ] final  153.42 input  -57.11 | X-H torsion

> <Gold.Protein.ActiveResidues>
 VAL166  LYS551  ARG553  GLY616  TRP617  ASP618  TYR619  PRO620  LYS621  CYS622 
 ASP623  PHE694  ASN695  SER759  ASP760  ASP761  ALA762  ILE779  LEU786  VAL792 
 PHE793  MET794  SER795  GLU796  ALA797  LYS798  CYS799  TRP800  GLU811  SER814 

> <Gold.Protein.RotatedAtoms>
  151.8641  133.3463  159.3713 H   0  0  0  0  0  0  0  0  0  0  0  0  # atno 6907 bound_to 6896
  150.7171  134.5177  159.5647 H   0  0  0  0  0  0  0  0  0  0  0  0  # atno 6908 bound_to 6896
  152.2696  134.7947  160.0467 H   0  0  0  0  0  0  0  0  0  0  0  0  # atno 6909 bound_to 6896
  145.8179  139.3068  143.1061 H   0  0  0  0  0  0  0  0  0  0  0  0  # atno 7974 bound_to 7965
  156.0236  140.3338  155.7065 H   0  0  0  0  0  0  0  0  0  0  0  0  # atno 8008 bound_to 7997
  155.5987  140.0653  157.2757 H   0  0  0  0  0  0  0  0  0  0  0  0  # atno 8009 bound_to 7997
  154.4325  140.1814  156.1138 H   0  0  0  0  0  0  0  0  0  0  0  0  # atno 8010 bound_to 7997
  140.6173  143.2407  151.5565 H   0  0  0  0  0  0  0  0  0  0  0  0  # atno 10167 bound_to 10162
  156.0143  130.5296  150.6715 H   0  0  0  0  0  0  0  0  0  0  0  0  # atno 10718 bound_to 10713
  153.2242  135.6885  153.7965 H   0  0  0  0  0  0  0  0  0  0  0  0  # atno 10763 bound_to 10752
  153.7152  135.3276  155.3256 H   0  0  0  0  0  0  0  0  0  0  0  0  # atno 10764 bound_to 10752
  154.8284  135.4600  154.1101 H   0  0  0  0  0  0  0  0  0  0  0  0  # atno 10765 bound_to 10752
  140.1396  134.8747  157.2314 H   0  0  0  0  0  0  0  0  0  0  0  0  # atno 11005 bound_to 11000
  145.9707  140.8762  143.0164 LP  0  0  0  0  0  0  0  0  0  0  0  0  # atno 17320 bound_to 7965
  144.6750  140.1942  143.7393 LP  0  0  0  0  0  0  0  0  0  0  0  0  # atno 17321 bound_to 7965
  139.5409  144.2650  152.1349 LP  0  0  0  0  0  0  0  0  0  0  0  0  # atno 17342 bound_to 10162
  140.1862  144.4796  150.6502 LP  0  0  0  0  0  0  0  0  0  0  0  0  # atno 17343 bound_to 10162
  157.4436  131.0864  151.0918 LP  0  0  0  0  0  0  0  0  0  0  0  0  # atno 17370 bound_to 10713
  157.1454  130.6161  149.5567 LP  0  0  0  0  0  0  0  0  0  0  0  0  # atno 17371 bound_to 10713
  140.2738  134.3429  155.7365 LP  0  0  0  0  0  0  0  0  0  0  0  0  # atno 17394 bound_to 11000
  141.2184  133.7439  156.9263 LP  0  0  0  0  0  0  0  0  0  0  0  0  # atno 17395 bound_to 11000

$$$$
