AV-unprocessed.smi:520|AV-procd|sdf|2798|dock4
  -GOLD-   2262023273D 1   1.00000     0.00000
 Structure written by MMmdl.
 40 42  0  0  0  0  0  0  0  0  2 V2000
  153.6145  141.3734  160.1905 C   0  0  0  0  0  0  0  0  0  0  0  0
  152.9220  142.4367  159.3586 C   0  0  0  0  0  0  0  0  0  0  0  0
  153.2335  143.7968  159.5671 C   0  0  0  0  0  0  0  0  0  0  0  0
  152.5961  144.7948  158.8081 C   0  0  0  0  0  0  0  0  0  0  0  0
  151.6448  144.4349  157.8372 C   0  0  0  0  0  0  0  0  0  0  0  0
  151.3322  143.0790  157.6230 C   0  0  0  0  0  0  0  0  0  0  0  0
  151.9690  142.0639  158.3818 C   0  0  0  0  0  0  0  0  0  0  0  0
  151.7152  140.7176  158.2238 O   0  0  0  0  0  0  0  0  0  0  0  0
  150.6708  140.3190  157.3461 C   0  0  0  0  0  0  0  0  0  0  0  0
  151.0698  140.6357  155.8974 C   0  0  0  0  0  0  0  0  0  0  0  0
  150.2322  139.9255  154.9189 N   0  0  0  0  0  0  0  0  0  0  0  0
  150.4296  138.7246  154.3034 C   0  0  0  0  0  0  0  0  0  0  0  0
  151.5955  137.8082  154.4973 C   0  0  0  0  0  0  0  0  0  0  0  0
  151.3827  136.5145  153.9714 O   0  0  0  0  0  0  0  0  0  0  0  0
  149.3650  138.5173  153.4764 N   0  3  0  0  0  0  0  0  0  0  0  0
  148.4832  139.5951  153.5588 C   0  0  0  0  0  0  0  0  0  0  0  0
  147.2779  139.8383  152.9075 C   0  0  0  0  0  0  0  0  0  0  0  0
  146.6252  141.0499  153.2160 C   0  0  0  0  0  0  0  0  0  0  0  0
  147.1717  141.9633  154.1406 C   0  0  0  0  0  0  0  0  0  0  0  0
  148.3925  141.7036  154.7973 C   0  0  0  0  0  0  0  0  0  0  0  0
  149.0330  140.5045  154.4853 C   0  0  0  0  0  0  0  0  0  0  0  0
  154.2875  141.8160  160.9253 H   0  0  0  0  0  0  0  0  0  0  0  0
  154.1984  140.7122  159.5498 H   0  0  0  0  0  0  0  0  0  0  0  0
  152.8787  140.7729  160.7260 H   0  0  0  0  0  0  0  0  0  0  0  0
  153.9631  144.0810  160.3112 H   0  0  0  0  0  0  0  0  0  0  0  0
  152.8366  145.8351  158.9708 H   0  0  0  0  0  0  0  0  0  0  0  0
  151.1538  145.2000  157.2540 H   0  0  0  0  0  0  0  0  0  0  0  0
  150.5991  142.8442  156.8667 H   0  0  0  0  0  0  0  0  0  0  0  0
  150.4841  139.2487  157.4463 H   0  0  0  0  0  0  0  0  0  0  0  0
  149.7487  140.8476  157.5917 H   0  0  0  0  0  0  0  0  0  0  0  0
  150.9686  141.7047  155.7082 H   0  0  0  0  0  0  0  0  0  0  0  0
  152.1167  140.3914  155.7173 H   0  0  0  0  0  0  0  0  0  0  0  0
  152.4748  138.2419  154.0204 H   0  0  0  0  0  0  0  0  0  0  0  0
  151.8109  137.7253  155.5627 H   0  0  0  0  0  0  0  0  0  0  0  0
  151.2047  136.5915  153.0463 H   0  0  0  0  0  0  0  0  0  0  0  0
  146.8582  139.1405  152.1978 H   0  0  0  0  0  0  0  0  0  0  0  0
  145.6877  141.2839  152.7328 H   0  0  0  0  0  0  0  0  0  0  0  0
  146.6450  142.8832  154.3496 H   0  0  0  0  0  0  0  0  0  0  0  0
  148.8049  142.4144  155.4979 H   0  0  0  0  0  0  0  0  0  0  0  0
  149.2593  137.6954  152.8954 H   0  0  0  0  0  0  0  0  0  0  0  0
  1  2  1  0  0  0  0
  1 22  1  0  0  0  0
  1 23  1  0  0  0  0
  1 24  1  0  0  0  0
  2  7  1  0  0  0  0
  2  3  2  0  0  0  0
  3  4  1  0  0  0  0
  3 25  1  0  0  0  0
  4  5  2  0  0  0  0
  4 26  1  0  0  0  0
  5  6  1  0  0  0  0
  5 27  1  0  0  0  0
  6  7  2  0  0  0  0
  6 28  1  0  0  0  0
  7  8  1  0  0  0  0
  8  9  1  0  0  0  0
  9 10  1  0  0  0  0
  9 29  1  0  0  0  0
  9 30  1  0  0  0  0
 10 11  1  0  0  0  0
 10 31  1  0  0  0  0
 10 32  1  0  0  0  0
 11 21  1  0  0  0  0
 11 12  1  0  0  0  0
 12 13  1  0  0  0  0
 12 15  2  0  0  0  0
 13 14  1  0  0  0  0
 13 33  1  0  0  0  0
 13 34  1  0  0  0  0
 14 35  1  0  0  0  0
 15 16  1  0  0  0  0
 15 40  1  0  0  0  0
 16 21  2  0  0  0  0
 16 17  1  0  0  0  0
 17 18  2  0  0  0  0
 17 36  1  0  0  0  0
 18 19  1  0  0  0  0
 18 37  1  0  0  0  0
 19 20  2  0  0  0  0
 19 38  1  0  0  0  0
 20 21  1  0  0  0  0
 20 39  1  0  0  0  0
M  CHG  1  15   1
M  END
> <s_m_source_file>
AV-unprocessed.smi

> <i_m_source_file_index>
520

> <i_lp_mmshare_version>
43012

> <i_f3d_flags>
0

> <s_epik_input>
W0NIM11jMVtjSF1bY0hdW2NIXVtjSF1jMU9bQ0gyXVtDSDJdbihjKG4yKVtDSDJdW09IXSljKGMyMylbY0hdW2NIXVtjSF1bY0hdMw==

> <s_epik_cmdline>
J2VwaWtfcHl0aG9uJywgJy1waCcsICc3LjAnLCAnLXRuJywgJzgnLCAnLW1hJywgJzIwMCcsICctbWV0YWxfYmluZGluZycsICctaW1hZScsICc8aW5maWxlLm1hZT4nLCAnLW9tYWUnLCAnPG91dGZpbGUubWFlPic=

> <r_lp_tautomer_probability>
1

> <r_epik_Ionization_Penalty>
1.50718

> <r_epik_Ionization_Penalty_Charging>
1.50632

> <r_epik_Ionization_Penalty_Neutral>
0.000855784

> <r_epik_State_Penalty>
1.59697

> <r_epik_Charging_Adjusted_Penalty>
3.1033

> <i_epik_Tot_Q>
1

> <i_epik_Tot_abs_Q>
1

> <r_epik_Metal_State_Penalty>
5.64835

> <b_epik_Metal_Only>
0

> <s_lp_Force_Field>
OPLS_2005

> <r_lp_Energy>
16.7784

> <b_lp_Chiralities_Consistent>
1

> <s_lp_Variant>
AV-unprocessed.smi:520-2

> <Gold.Version>
5.8.1

> <Gold.Id.Protein>
6NUR|6NUR_protein|mol2

> <Gold.PLP.Fitness>
64.0078

> <Gold.PLP.PLP>
-53.2737

> <Gold.PLP.part.hbond>
-4.3835

> <Gold.PLP.part.metal>
0.0000

> <Gold.PLP.part.buried>
1.1705

> <Gold.PLP.part.nonpolar>
-49.4380

> <Gold.PLP.part.repulsive>
0.0733

> <Gold.PLP.ligand.clash>
0.0000

> <Gold.PLP.ligand.torsion>
0.6510

> <Gold.PLP.Chemscore.Hbond>
4.0000

> <Gold.PLP.Chemscore.CHOScore>
0.0000

> <Gold.PLP.Chemscore.Metal>
0.0000

> <Gold.Chemscore.Hbonds>
donor molecule, donor type, donor heavy atom, donor atom, acceptor molecule, acceptor atom, score
      L1  H    14    35       P1  7949  1.00
      L1  H    15    40       P1  7948  2.00
      P1  H 10752 10765       L1    14  1.00

> <Gold.PLP.Chemscore.Internal.Correction>
0.0360

> <Gold.Rescore>
     Score         DG    S(hbond)    S(metal)    S(lipo)     H(rot)  DE(clash)    DE(int)     intcor
     23.06     -24.44       2.62        0.00     135.85       2.23       0.86       0.52       ----

> <Gold.Chemscore.Fitness>
23.0592

> <Gold.Chemscore.DG>
-24.4387

> <Gold.Chemscore.ZeroCoef>
-5.4800

> <Gold.Chemscore.Hbond>
2.6234

> <Gold.Chemscore.Metal>
0.0000

> <Gold.Chemscore.Lipo>
135.8526

> <Gold.Chemscore.Internal_Hbond>
0.0000

> <Gold.Chemscore.DEClash>
0.8611

> <Gold.Chemscore.DEInternal>
0.5184

> <Gold.Chemscore.Rot>
2.2258

> <Gold.Chemscore.Internal.Correction>
   9.000000E+99

> <Gold.Chemscore.Hbonds>
donor molecule, donor type, donor heavy atom, donor atom, acceptor molecule, acceptor atom, score
      L1  H    14    35       P1  7949  0.53
      L1  H    15    40       P1  7948  0.97
      P1  H 10752 10765       L1    14  0.33

> <Gold.Chemscore.Hbond.Weighted>
-8.7621

> <Gold.Chemscore.Metal.Weighted>
-0.0000

> <Gold.Chemscore.Lipo.Weighted>
-15.8948

> <Gold.Chemscore.Internal_Hbond.Weighted>
0.0000

> <Gold.Chemscore.DEClash.Weighted>
0.8611

> <Gold.Chemscore.DEInternal.Weighted>
0.5184

> <Gold.Chemscore.Rot.Weighted>
5.6982

> <Gold.Chemscore.Internal.Correction.Weighted>
   9.000000E+99

> <Gold.Protein.RotatedTorsions>
[ 6907 6896 6895 6894 ] final   -4.03 input  -60.11 | X-H torsion
[ 7974 7965 7964 7962 ] final  -60.97 input  175.53 | X-H torsion
[ 8008 7997 7996 7995 ] final -158.19 input   59.86 | X-H torsion
[ 10167 10162 10161 10158 ] final    4.45 input  -65.29 | X-H torsion
[ 10718 10713 10712 10709 ] final  112.69 input   66.30 | X-H torsion
[ 10763 10752 10751 10750 ] final  154.78 input  -60.55 | X-H torsion
[ 11005 11000 10999 10996 ] final  137.73 input  -57.11 | X-H torsion

> <Gold.Protein.ActiveResidues>
 VAL166  LYS551  ARG553  GLY616  TRP617  ASP618  TYR619  PRO620  LYS621  CYS622 
 ASP623  PHE694  ASN695  SER759  ASP760  ASP761  ALA762  ILE779  LEU786  VAL792 
 PHE793  MET794  SER795  GLU796  ALA797  LYS798  CYS799  TRP800  GLU811  SER814 

> <Gold.Protein.RotatedAtoms>
  151.5042  135.1063  159.9836 H   0  0  0  0  0  0  0  0  0  0  0  0  # atno 6907 bound_to 6896
  152.4689  133.7980  159.6948 H   0  0  0  0  0  0  0  0  0  0  0  0  # atno 6908 bound_to 6896
  150.8687  133.7474  159.2994 H   0  0  0  0  0  0  0  0  0  0  0  0  # atno 6909 bound_to 6896
  145.8091  140.8609  143.0191 H   0  0  0  0  0  0  0  0  0  0  0  0  # atno 7974 bound_to 7965
  155.7438  140.0817  157.2233 H   0  0  0  0  0  0  0  0  0  0  0  0  # atno 8008 bound_to 7997
  154.4019  140.1573  156.2701 H   0  0  0  0  0  0  0  0  0  0  0  0  # atno 8009 bound_to 7997
  155.8995  140.3410  155.6019 H   0  0  0  0  0  0  0  0  0  0  0  0  # atno 8010 bound_to 7997
  140.6534  143.7489  150.7612 H   0  0  0  0  0  0  0  0  0  0  0  0  # atno 10167 bound_to 10162
  157.6379  131.0972  150.6932 H   0  0  0  0  0  0  0  0  0  0  0  0  # atno 10718 bound_to 10713
  154.1579  135.2811  155.3117 H   0  0  0  0  0  0  0  0  0  0  0  0  # atno 10763 bound_to 10752
  154.6169  135.5480  153.7536 H   0  0  0  0  0  0  0  0  0  0  0  0  # atno 10764 bound_to 10752
  153.0201  135.6429  154.1721 H   0  0  0  0  0  0  0  0  0  0  0  0  # atno 10765 bound_to 10752
  140.0134  134.9429  157.0326 H   0  0  0  0  0  0  0  0  0  0  0  0  # atno 11005 bound_to 11000
  144.6759  140.0370  143.7481 LP  0  0  0  0  0  0  0  0  0  0  0  0  # atno 17320 bound_to 7965
  145.9796  139.2931  143.1050 LP  0  0  0  0  0  0  0  0  0  0  0  0  # atno 17321 bound_to 7965
  140.1144  143.4670  152.2351 LP  0  0  0  0  0  0  0  0  0  0  0  0  # atno 17342 bound_to 10162
  139.5752  144.7484  151.3784 LP  0  0  0  0  0  0  0  0  0  0  0  0  # atno 17343 bound_to 10162
  156.7260  130.4695  149.5511 LP  0  0  0  0  0  0  0  0  0  0  0  0  # atno 17370 bound_to 10713
  156.1633  130.6389  151.0747 LP  0  0  0  0  0  0  0  0  0  0  0  0  # atno 17371 bound_to 10713
  140.4513  134.1579  155.7182 LP  0  0  0  0  0  0  0  0  0  0  0  0  # atno 17394 bound_to 11000
  141.1726  133.8577  157.1521 LP  0  0  0  0  0  0  0  0  0  0  0  0  # atno 17395 bound_to 11000

$$$$
