AV-unprocessed.smi:1942|AV-procd|sdf|7849|dock6
  -GOLD-   22720 9593D 1   1.00000     0.00000
 Structure written by MMmdl.
 35 37  0  0  0  0  0  0  0  0  1 V2000
  148.5833  138.0585  154.4624 O   0  0  0  0  0  0  0  0  0  0  0  0
  148.1927  139.2219  154.3657 C   0  0  0  0  0  0  0  0  0  0  0  0
  146.8057  139.5513  154.0166 C   0  0  0  0  0  0  0  0  0  0  0  0
  146.3854  140.8282  153.9187 C   0  0  0  0  0  0  0  0  0  0  0  0
  147.3019  141.9179  154.1579 C   0  0  0  0  0  0  0  0  0  0  0  0
  148.5722  141.6209  154.4747 C   0  0  0  0  0  0  0  0  0  0  0  0
  149.0220  140.2896  154.5794 N   0  0  0  0  0  0  0  0  0  0  0  0
  150.4371  140.0854  154.9314 C   0  0  0  0  0  0  0  0  0  0  0  0
  150.8282  140.9094  156.1353 C   0  0  0  0  0  0  0  0  0  0  0  0
  150.6472  142.2322  156.2035 N   0  0  0  0  0  0  0  0  0  0  0  0
  151.1421  142.5497  157.4518 C   0  0  0  0  0  0  0  0  0  0  0  0
  151.2245  143.7931  158.1179 C   0  0  0  0  0  0  0  0  0  0  0  0
  151.7825  143.8749  159.4107 C   0  0  0  0  0  0  0  0  0  0  0  0
  151.8747  145.4009  160.2101 Cl  0  0  0  0  0  0  0  0  0  0  0  0
  152.2663  142.7162  160.0528 C   0  0  0  0  0  0  0  0  0  0  0  0
  152.1941  141.4675  159.4055 C   0  0  0  0  0  0  0  0  0  0  0  0
  151.6342  141.3923  158.1159 C   0  0  0  0  0  0  0  0  0  0  0  0
  151.4189  140.3477  157.2224 N   0  0  0  0  0  0  0  0  0  0  0  0
  151.7780  138.9532  157.4466 C   0  0  0  0  0  0  0  0  0  0  0  0
  152.5804  138.3550  156.2790 C   0  0  0  0  0  0  0  0  0  0  0  0
  152.5878  136.9442  156.3330 O   0  0  0  0  0  0  0  0  0  0  0  0
  146.1058  138.7491  153.8346 H   0  0  0  0  0  0  0  0  0  0  0  0
  145.3577  141.0374  153.6608 H   0  0  0  0  0  0  0  0  0  0  0  0
  146.9737  142.9445  154.0866 H   0  0  0  0  0  0  0  0  0  0  0  0
  149.3180  142.3765  154.6745 H   0  0  0  0  0  0  0  0  0  0  0  0
  150.6116  139.0265  155.1224 H   0  0  0  0  0  0  0  0  0  0  0  0
  151.0941  140.3500  154.1019 H   0  0  0  0  0  0  0  0  0  0  0  0
  150.8570  144.6850  157.6323 H   0  0  0  0  0  0  0  0  0  0  0  0
  152.6933  142.7851  161.0426 H   0  0  0  0  0  0  0  0  0  0  0  0
  152.5633  140.5788  159.8948 H   0  0  0  0  0  0  0  0  0  0  0  0
  152.3263  138.8556  158.3834 H   0  0  0  0  0  0  0  0  0  0  0  0
  150.8567  138.3859  157.5824 H   0  0  0  0  0  0  0  0  0  0  0  0
  152.1490  138.6677  155.3279 H   0  0  0  0  0  0  0  0  0  0  0  0
  153.6096  138.7143  156.2977 H   0  0  0  0  0  0  0  0  0  0  0  0
  152.4936  136.6760  157.2344 H   0  0  0  0  0  0  0  0  0  0  0  0
  1  2  2  0  0  0  0
  2  7  1  0  0  0  0
  2  3  1  0  0  0  0
  3  4  2  0  0  0  0
  3 22  1  0  0  0  0
  4  5  1  0  0  0  0
  4 23  1  0  0  0  0
  5  6  2  0  0  0  0
  5 24  1  0  0  0  0
  6  7  1  0  0  0  0
  6 25  1  0  0  0  0
  7  8  1  0  0  0  0
  8  9  1  0  0  0  0
  8 26  1  0  0  0  0
  8 27  1  0  0  0  0
  9 18  1  0  0  0  0
  9 10  2  0  0  0  0
 10 11  1  0  0  0  0
 11 17  2  0  0  0  0
 11 12  1  0  0  0  0
 12 13  2  0  0  0  0
 12 28  1  0  0  0  0
 13 14  1  0  0  0  0
 13 15  1  0  0  0  0
 15 16  2  0  0  0  0
 15 29  1  0  0  0  0
 16 17  1  0  0  0  0
 16 30  1  0  0  0  0
 17 18  1  0  0  0  0
 18 19  1  0  0  0  0
 19 20  1  0  0  0  0
 19 31  1  0  0  0  0
 19 32  1  0  0  0  0
 20 21  1  0  0  0  0
 20 33  1  0  0  0  0
 20 34  1  0  0  0  0
 21 35  1  0  0  0  0
M  END
> <s_m_source_file>
AV-unprocessed.smi

> <i_m_source_file_index>
1942

> <i_lp_mmshare_version>
43012

> <i_f3d_flags>
0

> <s_epik_input>
Tz1jMVtjSF1bY0hdW2NIXVtjSF1uMVtDSDJdYyhuMiluKFtDSDJdW0NIMl1bT0hdKWMoYzIzKVtjSF1bY0hdYyhDbClbY0hdMw==

> <s_epik_cmdline>
J2VwaWtfcHl0aG9uJywgJy1waCcsICc3LjAnLCAnLXRuJywgJzgnLCAnLW1hJywgJzIwMCcsICctbWV0YWxfYmluZGluZycsICctaW1hZScsICc8aW5maWxlLm1hZT4nLCAnLW9tYWUnLCAnPG91dGZpbGUubWFlPic=

> <r_lp_tautomer_probability>
1

> <r_epik_Ionization_Penalty>
0.0394182

> <r_epik_Ionization_Penalty_Charging>
8.17328e-07

> <r_epik_Ionization_Penalty_Neutral>
0.0394174

> <r_epik_State_Penalty>
0.0331163

> <r_epik_Charging_Adjusted_Penalty>
0.0331171

> <i_epik_Tot_Q>
0

> <i_epik_Tot_abs_Q>
0

> <r_epik_Metal_State_Penalty>
3.40583e-05

> <b_epik_Metal_Only>
0

> <s_lp_Force_Field>
OPLS_2005

> <r_lp_Energy>
18.6161

> <b_lp_Chiralities_Consistent>
1

> <s_lp_Variant>
AV-unprocessed.smi:1942-1

> <Gold.Version>
5.8.1

> <Gold.Id.Protein>
6NUR|6NUR_protein|mol2

> <Gold.PLP.Fitness>
47.8434

> <Gold.PLP.PLP>
-42.9120

> <Gold.PLP.part.hbond>
-1.0000

> <Gold.PLP.part.metal>
0.0000

> <Gold.PLP.part.buried>
-2.2994

> <Gold.PLP.part.nonpolar>
-41.4366

> <Gold.PLP.part.repulsive>
0.6174

> <Gold.PLP.ligand.clash>
0.0000

> <Gold.PLP.ligand.torsion>
0.2961

> <Gold.PLP.Chemscore.Hbond>
0.9600

> <Gold.PLP.Chemscore.CHOScore>
0.8786

> <Gold.PLP.Chemscore.Metal>
0.0000

> <Gold.Chemscore.Hbonds>
donor molecule, donor type, donor heavy atom, donor atom, acceptor molecule, acceptor atom, score
      P1  H 10752 10765       L1    21  0.94
      L1  C     6    25       P1  8028  0.84

> <Gold.PLP.Chemscore.Internal.Correction>
0.0077

> <Gold.Rescore>
     Score         DG    S(hbond)    S(metal)    S(lipo)     H(rot)  DE(clash)    DE(int)     intcor
     13.34     -15.79       0.84        0.00     113.84       2.27       0.89       1.56       ----

> <Gold.Chemscore.Fitness>
13.3422

> <Gold.Chemscore.DG>
-15.7873

> <Gold.Chemscore.ZeroCoef>
-5.4800

> <Gold.Chemscore.Hbond>
0.8420

> <Gold.Chemscore.Metal>
0.0000

> <Gold.Chemscore.Lipo>
113.8387

> <Gold.Chemscore.Internal_Hbond>
0.0000

> <Gold.Chemscore.DEClash>
0.8872

> <Gold.Chemscore.DEInternal>
1.5578

> <Gold.Chemscore.Rot>
2.2750

> <Gold.Chemscore.Internal.Correction>
   9.000000E+99

> <Gold.Chemscore.Hbonds>
donor molecule, donor type, donor heavy atom, donor atom, acceptor molecule, acceptor atom, score
      P1  H 10752 10765       L1    21  0.77

> <Gold.Chemscore.Hbond.Weighted>
-2.8121

> <Gold.Chemscore.Metal.Weighted>
-0.0000

> <Gold.Chemscore.Lipo.Weighted>
-13.3191

> <Gold.Chemscore.Internal_Hbond.Weighted>
0.0000

> <Gold.Chemscore.DEClash.Weighted>
0.8872

> <Gold.Chemscore.DEInternal.Weighted>
1.5578

> <Gold.Chemscore.Rot.Weighted>
5.8240

> <Gold.Chemscore.Internal.Correction.Weighted>
   9.000000E+99

> <Gold.Protein.RotatedTorsions>
[ 6907 6896 6895 6894 ] final  -86.51 input  -60.11 | X-H torsion
[ 7974 7965 7964 7962 ] final    5.46 input  175.53 | X-H torsion
[ 8008 7997 7996 7995 ] final -176.80 input   59.86 | X-H torsion
[ 10167 10162 10161 10158 ] final  -62.87 input  -65.29 | X-H torsion
[ 10718 10713 10712 10709 ] final  -90.09 input   66.30 | X-H torsion
[ 10763 10752 10751 10750 ] final -144.76 input  -60.55 | X-H torsion
[ 11005 11000 10999 10996 ] final  120.05 input  -57.11 | X-H torsion

> <Gold.Protein.ActiveResidues>
 VAL166  LYS551  ARG553  GLY616  TRP617  ASP618  TYR619  PRO620  LYS621  CYS622 
 ASP623  PHE694  ASN695  SER759  ASP760  ASP761  ALA762  ILE779  LEU786  VAL792 
 PHE793  MET794  SER795  GLU796  ALA797  LYS798  CYS799  TRP800  GLU811  SER814 

> <Gold.Protein.RotatedAtoms>
  150.6867  134.3039  159.4717 H   0  0  0  0  0  0  0  0  0  0  0  0  # atno 6907 bound_to 6896
  152.0932  134.9390  160.0580 H   0  0  0  0  0  0  0  0  0  0  0  0  # atno 6908 bound_to 6896
  152.0698  133.4066  159.4491 H   0  0  0  0  0  0  0  0  0  0  0  0  # atno 6909 bound_to 6896
  146.2440  140.0380  142.8384 H   0  0  0  0  0  0  0  0  0  0  0  0  # atno 7974 bound_to 7965
  155.9992  140.1217  157.0564 H   0  0  0  0  0  0  0  0  0  0  0  0  # atno 8008 bound_to 7997
  154.4237  140.1110  156.5742 H   0  0  0  0  0  0  0  0  0  0  0  0  # atno 8009 bound_to 7997
  155.6236  140.3472  155.4662 H   0  0  0  0  0  0  0  0  0  0  0  0  # atno 8010 bound_to 7997
  140.5910  143.2341  151.6140 H   0  0  0  0  0  0  0  0  0  0  0  0  # atno 10167 bound_to 10162
  155.9986  130.4897  150.5270 H   0  0  0  0  0  0  0  0  0  0  0  0  # atno 10718 bound_to 10713
  154.8414  135.3431  154.6397 H   0  0  0  0  0  0  0  0  0  0  0  0  # atno 10763 bound_to 10752
  153.7007  135.6969  153.5068 H   0  0  0  0  0  0  0  0  0  0  0  0  # atno 10764 bound_to 10752
  153.2525  135.4349  155.0766 H   0  0  0  0  0  0  0  0  0  0  0  0  # atno 10765 bound_to 10752
  139.9170  134.9632  156.7748 H   0  0  0  0  0  0  0  0  0  0  0  0  # atno 11005 bound_to 11000
  145.1095  140.9396  143.4665 LP  0  0  0  0  0  0  0  0  0  0  0  0  # atno 17320 bound_to 7965
  145.0590  139.3120  143.5890 LP  0  0  0  0  0  0  0  0  0  0  0  0  # atno 17321 bound_to 7965
  139.5227  144.3154  152.0956 LP  0  0  0  0  0  0  0  0  0  0  0  0  # atno 17342 bound_to 10162
  140.2319  144.4360  150.6296 LP  0  0  0  0  0  0  0  0  0  0  0  0  # atno 17343 bound_to 10162
  157.3224  131.0684  151.1922 LP  0  0  0  0  0  0  0  0  0  0  0  0  # atno 17370 bound_to 10713
  157.2830  130.6759  149.6075 LP  0  0  0  0  0  0  0  0  0  0  0  0  # atno 17371 bound_to 10713
  140.6592  133.9661  155.7795 LP  0  0  0  0  0  0  0  0  0  0  0  0  # atno 17394 bound_to 11000
  141.0655  134.0283  157.3599 LP  0  0  0  0  0  0  0  0  0  0  0  0  # atno 17395 bound_to 11000

$$$$
