#       Name:                AV-unprocessed.smi:411
#       Creating user name   scv26
#       Creation time:       Thu Mar 26 22:46:01 2020


#       File generated by GOLD software.
#

@<TRIPOS>MOLECULE
AV-unprocessed.smi:411
    39    40     1
SMALL
NO_CHARGES


@<TRIPOS>ATOM
      1 ****        -0.6943   0.5475   0.8021 O.2            1 S1                 0.0000
      2 ****        -0.0355  -0.2560   0.1405 C.2            1 S1                 0.0000
      3 ****         1.4933  -0.1405   0.0490 C.3            1 S1                 0.0000
      4 ****         2.0139   1.1630   0.4971 N.am           1 S1                 0.0000
      5 ****         2.4927   1.2360   1.8173 C.2            1 S1                 0.0000
      6 ****         2.9888   2.3718   2.3262 C.2            1 S1                 0.0000
      7 ****         3.0253   3.5395   1.4802 C.2            1 S1                 0.0000
      8 ****         2.5664   3.5019   0.2078 C.2            1 S1                 0.0000
      9 ****         2.6018   4.7274  -0.7023 C.3            1 S1                 0.0000
     10 ****         3.3065   4.4738  -1.8058 F              1 S1                 0.0000
     11 ****         1.3669   5.0740  -1.0670 F              1 S1                 0.0000
     12 ****         3.1584   5.7776  -0.0968 F              1 S1                 0.0000
     13 ****         2.0175   2.2452  -0.3417 C.2            1 S1                 0.0000
     14 ****         1.5826   2.1622  -1.4918 O.2            1 S1                 0.0000
     15 ****        -0.5852  -1.2845  -0.5229 N.am           1 S1                 0.0000
     16 ****        -2.0129  -1.5885  -0.5746 C.3            1 S1                 0.0000
     17 ****        -2.3444  -2.5080  -1.7823 C.3            1 S1                 0.0000
     18 ****        -3.0319  -3.8023  -1.3214 C.3            1 S1                 0.0000
     19 ****        -3.8167  -3.3929   0.2701 S.o2           1 S1                 0.0000
     20 ****        -5.0492  -2.6347   0.0073 O.2            1 S1                 0.0000
     21 ****        -3.8129  -4.5630   1.1611 O.2            1 S1                 0.0000
     22 ****        -2.5001  -2.2258   0.7433 C.3            1 S1                 0.0000
     23 ****         1.9297  -0.9481   0.6384 H              1 S1                 0.0000
     24 ****         1.8079  -0.3374  -0.9776 H              1 S1                 0.0000
     25 ****         2.4236   0.3200   2.3858 H              1 S1                 0.0000
     26 ****         3.3489   2.4129   3.3436 H              1 S1                 0.0000
     27 ****         3.4300   4.4542   1.8871 H              1 S1                 0.0000
     28 ****         0.0297  -1.8976  -1.0382 H              1 S1                 0.0000
     29 ****        -2.5603  -0.6554  -0.7223 H              1 S1                 0.0000
     30 ****        -3.0217  -1.9719  -2.4483 H              1 S1                 0.0000
     31 ****        -1.4613  -2.7415  -2.3786 H              1 S1                 0.0000
     32 ****        -3.7741  -4.1753  -2.0274 H              1 S1                 0.0000
     33 ****        -2.2955  -4.5851  -1.1383 H              1 S1                 0.0000
     34 ****        -1.7085  -2.8038   1.2218 H              1 S1                 0.0000
     35 ****        -2.8802  -1.4964   1.4590 H              1 S1                 0.0000
     36 ****        -0.2343   1.2894   1.2901 LP             1 S1                 0.0000
     37 ****        -1.6891   0.4580   0.8512 LP             1 S1                 0.0000
     38 ****         1.2187   1.2933  -1.8272 LP             1 S1                 0.0000
     39 ****         1.5937   2.9638  -2.0896 LP             1 S1                 0.0000
@<TRIPOS>BOND
    1    1    2 2     
    2    2    3 1     
    3    2   15 am    
    4    3    4 1     
    5    3   23 1     
    6    3   24 1     
    7    4   13 am    
    8    4    5 1     
    9    5    6 2     
   10    5   25 1     
   11    6    7 1     
   12    6   26 1     
   13    7    8 2     
   14    7   27 1     
   15    8    9 1     
   16    8   13 1     
   17    9   10 1     
   18    9   11 1     
   19    9   12 1     
   20   13   14 2     
   21   15   16 1     
   22   15   28 1     
   23   16   22 1     
   24   16   17 1     
   25   16   29 1     
   26   17   18 1     
   27   17   30 1     
   28   17   31 1     
   29   18   19 1     
   30   18   32 1     
   31   18   33 1     
   32   19   20 2     
   33   19   21 2     
   34   19   22 1     
   35   22   34 1     
   36   22   35 1     
   37    1   36 1     
   38    1   37 1     
   39   14   38 1     
   40   14   39 1     
@<TRIPOS>SUBSTRUCTURE
      1 S1             1
@<TRIPOS>SET
LONE_PAIRS      STATIC     ATOMS    <user>   **** ""
6 36 37 38 39 20 21
DONOR_HYDROGENS      STATIC     ATOMS    <user>   **** ""
1 28
ATOM$BLUE        STATIC     ATOMS    COLORGROUP SYSTEM
6 36 37 38 39 20 21
ATOM$RED        STATIC     ATOMS    COLORGROUP SYSTEM
1 28
