#       Name:                AV-unprocessed.smi:62
#       Creating user name   scv26
#       Creation time:       Thu Mar 26 16:49:53 2020


#       File generated by GOLD software.
#

@<TRIPOS>MOLECULE
AV-unprocessed.smi:62
    38    39     1
SMALL
NO_CHARGES


@<TRIPOS>ATOM
      1 ****        -4.3475   0.3517  -1.6203 C.3            1 S1                 0.0000
      2 ****        -3.0613  -0.2059  -1.2612 N.pl3          1 S1                 0.0000
      3 ****        -1.8048   0.2481  -1.5867 C.2            1 S1                 0.0000
      4 ****        -0.8867  -0.5976  -1.0262 C.2            1 S1                 0.0000
      5 ****         0.6140  -0.4399  -1.1339 C.3            1 S1                 0.0000
      6 ****         1.1233   0.5169  -0.1232 N.4            1 S1                 1.0000
      7 ****         2.4979   1.0111  -0.3730 C.3            1 S1                 0.0000
      8 ****         3.1842   1.1267   0.9964 C.3            1 S1                 0.0000
      9 ****         2.0496   0.9765   2.0088 C.3            1 S1                 0.0000
     10 ****         2.4989   0.4272   3.2295 O.3            1 S1                 0.0000
     11 ****         1.0709   0.0607   1.2806 C.3            1 S1                 0.0000
     12 ****        -1.7118  -1.5753  -0.3681 C.2            1 S1                 0.0000
     13 ****        -1.1521  -2.7440   0.3990 C.2            1 S1                 0.0000
     14 ****         0.0792  -2.9562   0.4132 O.co2          1 S1                 0.0000
     15 ****        -1.9578  -3.4804   1.0090 O.co2          1 S1                -1.0000
     16 ****        -3.0058  -1.3213  -0.5125 N.2            1 S1                 0.0000
     17 ****        -4.2220   1.3658  -2.0009 H              1 S1                 0.0000
     18 ****        -4.9992   0.3802  -0.7463 H              1 S1                 0.0000
     19 ****        -4.8106  -0.2633  -2.3924 H              1 S1                 0.0000
     20 ****        -1.6648   1.1363  -2.1852 H              1 S1                 0.0000
     21 ****         1.1605  -1.3794  -1.0756 H              1 S1                 0.0000
     22 ****         0.8607  -0.0377  -2.1174 H              1 S1                 0.0000
     23 ****         3.0586   0.3332  -1.0186 H              1 S1                 0.0000
     24 ****         2.4423   1.9777  -0.8742 H              1 S1                 0.0000
     25 ****         3.8984   0.3088   1.1073 H              1 S1                 0.0000
     26 ****         3.7319   2.0617   1.1176 H              1 S1                 0.0000
     27 ****         1.5840   1.9459   2.1923 H              1 S1                 0.0000
     28 ****         1.7546   0.3035   3.7992 H              1 S1                 0.0000
     29 ****         0.0612   0.1049   1.6906 H              1 S1                 0.0000
     30 ****         1.4229  -0.9697   1.3419 H              1 S1                 0.0000
     31 ****         0.5300   1.3326  -0.1699 H              1 S1                 0.0000
     32 ****         3.1514   1.0514   3.6593 LP             1 S1                 0.0000
     33 ****         2.9422  -0.4529   3.0594 LP             1 S1                 0.0000
     34 ****         0.4467  -3.7340   0.9230 LP             1 S1                 0.0000
     35 ****         0.6972  -2.3481  -0.0852 LP             1 S1                 0.0000
     36 ****        -1.6222  -4.2664   1.5282 LP             1 S1                 0.0000
     37 ****        -2.9376  -3.2832   0.9777 LP             1 S1                 0.0000
     38 ****        -3.7735  -1.8457  -0.1443 LP             1 S1                 0.0000
@<TRIPOS>BOND
    1    1    2 1     
    2    1   17 1     
    3    1   18 1     
    4    1   19 1     
    5    2   16 1     
    6    2    3 1     
    7    3    4 2     
    8    3   20 1     
    9    4    5 1     
   10    4   12 1     
   11    5    6 1     
   12    5   21 1     
   13    5   22 1     
   14    6   11 1     
   15    6    7 1     
   16    6   31 1     
   17    7    8 1     
   18    7   23 1     
   19    7   24 1     
   20    8    9 1     
   21    8   25 1     
   22    8   26 1     
   23    9   10 1     
   24    9   11 1     
   25    9   27 1     
   26   10   28 1     
   27   11   29 1     
   28   11   30 1     
   29   12   13 1     
   30   12   16 2     
   31   13   14 ar    
   32   13   15 ar    
   33   10   32 1     
   34   10   33 1     
   35   14   34 1     
   36   14   35 1     
   37   15   36 1     
   38   15   37 1     
   39   16   38 1     
@<TRIPOS>SUBSTRUCTURE
      1 S1             1
@<TRIPOS>SET
LONE_PAIRS      STATIC     ATOMS    <user>   **** ""
7 32 33 34 35 36 37 38
DONOR_HYDROGENS      STATIC     ATOMS    <user>   **** ""
2 31 28
ATOM$BLUE        STATIC     ATOMS    COLORGROUP SYSTEM
7 32 33 34 35 36 37 38
ATOM$RED        STATIC     ATOMS    COLORGROUP SYSTEM
2 31 28
