#       Name:                AV-unprocessed.smi:1355
#       Creating user name   scv26
#       Creation time:       Fri Mar 27 05:13:03 2020


#       File generated by GOLD software.
#

@<TRIPOS>MOLECULE
AV-unprocessed.smi:1355
    37    38     1
SMALL
NO_CHARGES


@<TRIPOS>ATOM
      1 ****        -2.7388   2.4034   0.5349 C.3            1 S1                 0.0000
      2 ****        -2.0929   1.1451   0.6073 O.3            1 S1                 0.0000
      3 ****        -2.3144   0.3500  -0.5461 C.3            1 S1                 0.0000
      4 ****        -1.5632  -0.9808  -0.4015 C.3            1 S1                 0.0000
      5 ****        -0.1181  -0.7843  -0.2056 N.pl3          1 S1                 0.0000
      6 ****         0.6207  -0.6673   0.9381 C.2            1 S1                 0.0000
      7 ****         0.1292  -0.7121   2.3528 C.3            1 S1                 0.0000
      8 ****         0.3662   0.6280   3.0629 C.3            1 S1                 0.0000
      9 ****         0.7628  -1.7335   3.0934 O.3            1 S1                 0.0000
     10 ****         1.9204  -0.5004   0.5596 N.pl3          1 S1                 1.0000
     11 ****         2.0141  -0.4956  -0.8314 C.ar           1 S1                 0.0000
     12 ****         3.1153  -0.3510  -1.6694 C.ar           1 S1                 0.0000
     13 ****         2.8639  -0.3911  -3.0565 C.ar           1 S1                 0.0000
     14 ****         1.5590  -0.5670  -3.5610 C.ar           1 S1                 0.0000
     15 ****         0.4505  -0.7114  -2.7010 C.ar           1 S1                 0.0000
     16 ****         0.7080  -0.6742  -1.3305 C.ar           1 S1                 0.0000
     17 ****        -2.5473   2.9647   1.4495 H              1 S1                 0.0000
     18 ****        -3.8183   2.2880   0.4298 H              1 S1                 0.0000
     19 ****        -2.3649   2.9905  -0.3050 H              1 S1                 0.0000
     20 ****        -3.3816   0.1610  -0.6705 H              1 S1                 0.0000
     21 ****        -1.9707   0.8785  -1.4366 H              1 S1                 0.0000
     22 ****        -1.9485  -1.5416   0.4496 H              1 S1                 0.0000
     23 ****        -1.7226  -1.6151  -1.2736 H              1 S1                 0.0000
     24 ****        -0.9393  -0.9231   2.3577 H              1 S1                 0.0000
     25 ****        -0.1346   1.4426   2.5392 H              1 S1                 0.0000
     26 ****         1.4281   0.8713   3.1166 H              1 S1                 0.0000
     27 ****        -0.0214   0.6066   4.0819 H              1 S1                 0.0000
     28 ****         0.3889  -1.7517   3.9613 H              1 S1                 0.0000
     29 ****         4.1152  -0.2141  -1.2841 H              1 S1                 0.0000
     30 ****         3.6880  -0.2841  -3.7469 H              1 S1                 0.0000
     31 ****         1.4048  -0.5918  -4.6300 H              1 S1                 0.0000
     32 ****        -0.5442  -0.8435  -3.0997 H              1 S1                 0.0000
     33 ****         2.6854  -0.3970   1.2136 H              1 S1                 0.0000
     34 ****        -2.4387   0.6533   1.4064 LP             1 S1                 0.0000
     35 ****        -1.1094   1.2955   0.7084 LP             1 S1                 0.0000
     36 ****         1.7437  -1.5480   3.1527 LP             1 S1                 0.0000
     37 ****         0.6168  -2.6152   2.6449 LP             1 S1                 0.0000
@<TRIPOS>BOND
    1    1    2 1     
    2    1   17 1     
    3    1   18 1     
    4    1   19 1     
    5    2    3 1     
    6    3    4 1     
    7    3   20 1     
    8    3   21 1     
    9    4    5 1     
   10    4   22 1     
   11    4   23 1     
   12    5   16 1     
   13    5    6 1     
   14    6    7 1     
   15    6   10 2     
   16    7    8 1     
   17    7    9 1     
   18    7   24 1     
   19    8   25 1     
   20    8   26 1     
   21    8   27 1     
   22    9   28 1     
   23   10   11 1     
   24   10   33 1     
   25   11   16 ar    
   26   11   12 ar    
   27   12   13 ar    
   28   12   29 1     
   29   13   14 ar    
   30   13   30 1     
   31   14   15 ar    
   32   14   31 1     
   33   15   16 ar    
   34   15   32 1     
   35    2   34 1     
   36    2   35 1     
   37    9   36 1     
   38    9   37 1     
@<TRIPOS>SUBSTRUCTURE
      1 S1             1
@<TRIPOS>SET
LONE_PAIRS      STATIC     ATOMS    <user>   **** ""
4 34 35 36 37
DONOR_HYDROGENS      STATIC     ATOMS    <user>   **** ""
2 28 33
ATOM$BLUE        STATIC     ATOMS    COLORGROUP SYSTEM
4 34 35 36 37
ATOM$RED        STATIC     ATOMS    COLORGROUP SYSTEM
2 28 33
