AV-unprocessed.smi:2167|AV-procd|sdf|8816|dock6
  -GOLD-   2272012 03D 1   1.00000     0.00000
 Structure written by MMmdl.
 41 42  0  0  0  0  0  0  0  0  1 V2000
  153.4130  142.4220  162.8702 C   0  0  0  0  0  0  0  0  0  0  0  0
  153.0817  141.8521  161.4834 C   0  0  0  0  0  0  0  0  0  0  0  0
  154.2432  141.0637  160.8616 C   0  0  0  0  0  0  0  0  0  0  0  0
  152.5549  142.9012  160.5558 C   0  0  0  0  0  0  0  0  0  0  0  0
  152.2934  142.6845  159.2633 N   0  0  0  0  0  0  0  0  0  0  0  0
  151.8020  143.8206  158.6119 C   0  0  0  0  0  0  0  0  0  0  0  0
  151.4478  143.7564  157.1549 C   0  0  0  0  0  0  0  0  0  0  0  0
  150.6967  142.4597  156.8517 C   0  0  0  0  0  0  0  0  0  0  0  0
  149.6055  142.2418  157.3784 O   0  0  0  0  0  0  0  0  0  0  0  0
  151.2910  141.6086  155.9990 N   0  0  0  0  0  0  0  0  0  0  0  0
  150.7490  140.3189  155.5662 C   0  0  2  0  0  0  0  0  0  0  0  0
  151.9200  139.4921  154.9870 C   0  0  0  0  0  0  0  0  0  0  0  0
  151.6682  137.9742  154.9889 C   0  0  0  0  0  0  0  0  0  0  0  0
  150.5226  137.5044  154.0792 C   0  0  0  0  0  0  0  0  0  0  0  0
  149.1463  138.0657  154.4756 C   0  0  0  0  0  0  0  0  0  0  0  0
  148.9743  139.4490  154.0512 N   0  0  0  0  0  0  0  0  0  0  0  0
  149.6741  140.5139  154.4710 C   0  0  0  0  0  0  0  0  0  0  0  0
  149.4636  141.6257  153.9863 O   0  0  0  0  0  0  0  0  0  0  0  0
  151.7035  144.9144  159.4357 C   0  0  0  0  0  0  0  0  0  0  0  0
  152.2142  144.5526  161.0613 S   0  0  0  0  0  0  0  0  0  0  0  0
  152.5386  142.8949  163.3186 H   0  0  0  0  0  0  0  0  0  0  0  0
  154.2042  143.1703  162.8132 H   0  0  0  0  0  0  0  0  0  0  0  0
  153.7474  141.6364  163.5481 H   0  0  0  0  0  0  0  0  0  0  0  0
  152.2703  141.1379  161.6308 H   0  0  0  0  0  0  0  0  0  0  0  0
  153.9447  140.6037  159.9192 H   0  0  0  0  0  0  0  0  0  0  0  0
  154.5780  140.2671  161.5265 H   0  0  0  0  0  0  0  0  0  0  0  0
  155.0985  141.7099  160.6607 H   0  0  0  0  0  0  0  0  0  0  0  0
  150.8248  144.6066  156.8741 H   0  0  0  0  0  0  0  0  0  0  0  0
  152.3417  143.8121  156.5320 H   0  0  0  0  0  0  0  0  0  0  0  0
  152.1861  141.8757  155.6153 H   0  0  0  0  0  0  0  0  0  0  0  0
  150.3178  139.8076  156.4287 H   0  0  0  0  0  0  0  0  0  0  0  0
  152.1792  139.8305  153.9821 H   0  0  0  0  0  0  0  0  0  0  0  0
  152.8119  139.6676  155.5912 H   0  0  0  0  0  0  0  0  0  0  0  0
  152.5842  137.4710  154.6775 H   0  0  0  0  0  0  0  0  0  0  0  0
  151.4802  137.6403  156.0101 H   0  0  0  0  0  0  0  0  0  0  0  0
  150.7429  137.7468  153.0388 H   0  0  0  0  0  0  0  0  0  0  0  0
  150.4773  136.4160  154.1284 H   0  0  0  0  0  0  0  0  0  0  0  0
  148.3672  137.4820  153.9852 H   0  0  0  0  0  0  0  0  0  0  0  0
  148.9726  137.9691  155.5481 H   0  0  0  0  0  0  0  0  0  0  0  0
  148.2716  139.6134  153.3448 H   0  0  0  0  0  0  0  0  0  0  0  0
  151.3575  145.9065  159.1855 H   0  0  0  0  0  0  0  0  0  0  0  0
  1  2  1  0  0  0  0
  1 21  1  0  0  0  0
  1 22  1  0  0  0  0
  1 23  1  0  0  0  0
  2  3  1  0  0  0  0
  2  4  1  0  0  0  0
  2 24  1  0  0  0  0
  3 25  1  0  0  0  0
  3 26  1  0  0  0  0
  3 27  1  0  0  0  0
  4 20  1  0  0  0  0
  4  5  2  0  0  0  0
  5  6  1  0  0  0  0
  6  7  1  0  0  0  0
  6 19  2  0  0  0  0
  7  8  1  0  0  0  0
  7 28  1  0  0  0  0
  7 29  1  0  0  0  0
  8  9  2  0  0  0  0
  8 10  1  0  0  0  0
 10 11  1  0  0  0  0
 10 30  1  0  0  0  0
 11 17  1  0  0  0  0
 11 12  1  0  0  0  0
 11 31  1  0  0  0  0
 12 13  1  0  0  0  0
 12 32  1  0  0  0  0
 12 33  1  0  0  0  0
 13 14  1  0  0  0  0
 13 34  1  0  0  0  0
 13 35  1  0  0  0  0
 14 15  1  0  0  0  0
 14 36  1  0  0  0  0
 14 37  1  0  0  0  0
 15 16  1  0  0  0  0
 15 38  1  0  0  0  0
 15 39  1  0  0  0  0
 16 17  1  0  0  0  0
 16 40  1  0  0  0  0
 17 18  2  0  0  0  0
 19 20  1  0  0  0  0
 19 41  1  0  0  0  0
M  END
> <s_m_source_file>
AV-unprocessed.smi

> <i_m_source_file_index>
2167

> <i_lp_mmshare_version>
43012

> <i_f3d_flags>
0

> <s_epik_input>
W0NIM11bQ0hdKFtDSDNdKWMxbmMoW2NIXXMxKVtDSDJdQyg9TylbTkhdW0NAQEhdMltDSDJdW0NIMl1bQ0gyXVtDSDJdW05IXUMyPU8=

> <s_epik_cmdline>
J2VwaWtfcHl0aG9uJywgJy1waCcsICc3LjAnLCAnLXRuJywgJzgnLCAnLW1hJywgJzIwMCcsICctbWV0YWxfYmluZGluZycsICctaW1hZScsICc8aW5maWxlLm1hZT4nLCAnLW9tYWUnLCAnPG91dGZpbGUubWFlPic=

> <r_lp_tautomer_probability>
1

> <r_epik_Ionization_Penalty>
3.1619e-05

> <r_epik_Ionization_Penalty_Charging>
0

> <r_epik_Ionization_Penalty_Neutral>
3.1619e-05

> <r_epik_State_Penalty>
-0

> <r_epik_Charging_Adjusted_Penalty>
0

> <i_epik_Tot_Q>
0

> <i_epik_Tot_abs_Q>
0

> <r_epik_Metal_State_Penalty>
-0

> <b_epik_Metal_Only>
0

> <s_lp_Force_Field>
OPLS_2005

> <r_lp_Energy>
2.42102

> <b_lp_Chiralities_Consistent>
1

> <s_lp_Variant>
AV-unprocessed.smi:2167-1

> <Gold.Version>
5.8.1

> <Gold.Id.Protein>
6NUR|6NUR_protein|mol2

> <Gold.PLP.Fitness>
46.7284

> <Gold.PLP.PLP>
-46.0530

> <Gold.PLP.part.hbond>
-2.2751

> <Gold.PLP.part.metal>
0.0000

> <Gold.PLP.part.buried>
1.0166

> <Gold.PLP.part.nonpolar>
-43.7210

> <Gold.PLP.part.repulsive>
0.5534

> <Gold.PLP.ligand.clash>
0.0000

> <Gold.PLP.ligand.torsion>
0.6902

> <Gold.PLP.Chemscore.Hbond>
0.6596

> <Gold.PLP.Chemscore.CHOScore>
0.0000

> <Gold.PLP.Chemscore.Metal>
0.0000

> <Gold.Chemscore.Hbonds>
donor molecule, donor type, donor heavy atom, donor atom, acceptor molecule, acceptor atom, score
      P1  H  8011  8017       L1    18  0.62

> <Gold.PLP.Chemscore.Internal.Correction>
0.0769

> <Gold.Rescore>
     Score         DG    S(hbond)    S(metal)    S(lipo)     H(rot)  DE(clash)    DE(int)     intcor
     15.51     -17.26       0.40        0.00     123.75       1.57       0.55       1.20       ----

> <Gold.Chemscore.Fitness>
15.5075

> <Gold.Chemscore.DG>
-17.2553

> <Gold.Chemscore.ZeroCoef>
-5.4800

> <Gold.Chemscore.Hbond>
0.3965

> <Gold.Chemscore.Metal>
0.0000

> <Gold.Chemscore.Lipo>
123.7484

> <Gold.Chemscore.Internal_Hbond>
0.0000

> <Gold.Chemscore.DEClash>
0.5475

> <Gold.Chemscore.DEInternal>
1.2004

> <Gold.Chemscore.Rot>
1.5733

> <Gold.Chemscore.Internal.Correction>
   9.000000E+99

> <Gold.Chemscore.Hbonds>
donor molecule, donor type, donor heavy atom, donor atom, acceptor molecule, acceptor atom, score
      P1  H  8011  8017       L1    18  0.62

> <Gold.Chemscore.Hbond.Weighted>
-1.3243

> <Gold.Chemscore.Metal.Weighted>
-0.0000

> <Gold.Chemscore.Lipo.Weighted>
-14.4786

> <Gold.Chemscore.Internal_Hbond.Weighted>
0.0000

> <Gold.Chemscore.DEClash.Weighted>
0.5475

> <Gold.Chemscore.DEInternal.Weighted>
1.2004

> <Gold.Chemscore.Rot.Weighted>
4.0276

> <Gold.Chemscore.Internal.Correction.Weighted>
   9.000000E+99

> <Gold.Protein.RotatedTorsions>
[ 6907 6896 6895 6894 ] final   85.55 input  -60.11 | X-H torsion
[ 7974 7965 7964 7962 ] final -105.25 input  175.53 | X-H torsion
[ 8008 7997 7996 7995 ] final  138.07 input   59.86 | X-H torsion
[ 10167 10162 10161 10158 ] final   24.91 input  -65.29 | X-H torsion
[ 10718 10713 10712 10709 ] final  -47.67 input   66.30 | X-H torsion
[ 10763 10752 10751 10750 ] final  -41.90 input  -60.55 | X-H torsion
[ 11005 11000 10999 10996 ] final  -99.97 input  -57.11 | X-H torsion

> <Gold.Protein.ActiveResidues>
 VAL166  LYS551  ARG553  GLY616  TRP617  ASP618  TYR619  PRO620  LYS621  CYS622 
 ASP623  PHE694  ASN695  SER759  ASP760  ASP761  ALA762  ILE779  LEU786  VAL792 
 PHE793  MET794  SER795  GLU796  ALA797  LYS798  CYS799  TRP800  GLU811  SER814 

> <Gold.Protein.RotatedAtoms>
  152.5377  134.2569  159.8919 H   0  0  0  0  0  0  0  0  0  0  0  0  # atno 6907 bound_to 6896
  151.2530  133.4334  159.2620 H   0  0  0  0  0  0  0  0  0  0  0  0  # atno 6908 bound_to 6896
  151.0522  134.9695  159.8273 H   0  0  0  0  0  0  0  0  0  0  0  0  # atno 6909 bound_to 6896
  145.2329  140.9177  143.3194 H   0  0  0  0  0  0  0  0  0  0  0  0  # atno 7974 bound_to 7965
  156.2999  140.2403  156.4013 H   0  0  0  0  0  0  0  0  0  0  0  0  # atno 8008 bound_to 7997
  154.8525  140.0423  157.1633 H   0  0  0  0  0  0  0  0  0  0  0  0  # atno 8009 bound_to 7997
  154.8983  140.2973  155.5335 H   0  0  0  0  0  0  0  0  0  0  0  0  # atno 8010 bound_to 7997
  140.5150  144.0098  150.6390 H   0  0  0  0  0  0  0  0  0  0  0  0  # atno 10167 bound_to 10162
  156.2062  130.4158  149.9175 H   0  0  0  0  0  0  0  0  0  0  0  0  # atno 10718 bound_to 10713
  153.9701  135.6729  153.4747 H   0  0  0  0  0  0  0  0  0  0  0  0  # atno 10763 bound_to 10752
  153.0797  135.4930  154.8474 H   0  0  0  0  0  0  0  0  0  0  0  0  # atno 10764 bound_to 10752
  154.7224  135.3120  154.8987 H   0  0  0  0  0  0  0  0  0  0  0  0  # atno 10765 bound_to 10752
  141.1288  133.8362  157.1041 H   0  0  0  0  0  0  0  0  0  0  0  0  # atno 11005 bound_to 11000
  144.9660  139.3930  143.6332 LP  0  0  0  0  0  0  0  0  0  0  0  0  # atno 17320 bound_to 7965
  146.3348  139.8735  142.8836 LP  0  0  0  0  0  0  0  0  0  0  0  0  # atno 17321 bound_to 7965
  140.3431  143.3008  152.0567 LP  0  0  0  0  0  0  0  0  0  0  0  0  # atno 17342 bound_to 10162
  139.4906  144.6428  151.6841 LP  0  0  0  0  0  0  0  0  0  0  0  0  # atno 17343 bound_to 10162
  156.6868  130.8880  151.3583 LP  0  0  0  0  0  0  0  0  0  0  0  0  # atno 17370 bound_to 10713
  157.7013  130.9337  150.0795 LP  0  0  0  0  0  0  0  0  0  0  0  0  # atno 17371 bound_to 10713
  140.0315  134.9899  157.0789 LP  0  0  0  0  0  0  0  0  0  0  0  0  # atno 17394 bound_to 11000
  140.4278  134.1813  155.7167 LP  0  0  0  0  0  0  0  0  0  0  0  0  # atno 17395 bound_to 11000

$$$$
