AV-unprocessed.smi:1702|AV-procd|sdf|6849|dock3
  -GOLD-   22720 8 23D 1   1.00000     0.00000
 Structure written by MMmdl.
 45 47  0  0  0  0  0  0  0  0  3 V2000
  150.9749  138.4622  156.4547 C   0  0  0  0  0  0  0  0  0  0  0  0
  149.6203  138.6567  155.7592 C   0  0  2  0  0  0  0  0  0  0  0  0
  148.9476  137.3119  155.4375 C   0  0  0  0  0  0  0  0  0  0  0  0
  147.6056  137.5172  154.7151 C   0  0  0  0  0  0  0  0  0  0  0  0
  147.7827  138.3138  153.4717 N   0  3  1  0  0  0  0  0  0  0  0  0
  146.5386  138.4392  152.6690 C   0  0  0  0  0  0  0  0  0  0  0  0
  146.2988  137.2371  151.7273 C   0  0  2  0  0  0  0  0  0  0  0  0
  146.1382  137.7096  150.4051 O   0  0  0  0  0  0  0  0  0  0  0  0
  145.0348  136.4251  152.0744 C   0  0  0  0  0  0  0  0  0  0  0  0
  144.7613  135.3430  151.1172 N   0  0  0  0  0  0  0  0  0  0  0  0
  144.2214  135.4091  149.8693 C   0  0  0  0  0  0  0  0  0  0  0  0
  144.1536  134.1395  149.3817 N   0  3  0  0  0  0  0  0  0  0  0  0
  144.6515  133.2467  150.3328 C   0  0  0  0  0  0  0  0  0  0  0  0
  144.7850  131.8623  150.2996 C   0  0  0  0  0  0  0  0  0  0  0  0
  145.3336  131.2491  151.4450 C   0  0  0  0  0  0  0  0  0  0  0  0
  145.4853  129.9038  151.4659 F   0  0  0  0  0  0  0  0  0  0  0  0
  145.7272  132.0096  152.5662 C   0  0  0  0  0  0  0  0  0  0  0  0
  146.2525  131.3820  153.6449 F   0  0  0  0  0  0  0  0  0  0  0  0
  145.5871  133.4129  152.5882 C   0  0  0  0  0  0  0  0  0  0  0  0
  145.0423  134.0119  151.4524 C   0  0  0  0  0  0  0  0  0  0  0  0
  148.3995  139.6351  153.7577 C   0  0  0  0  0  0  0  0  0  0  0  0
  149.7560  139.4761  154.4648 C   0  0  0  0  0  0  0  0  0  0  0  0
  151.6746  137.9189  155.8189 H   0  0  0  0  0  0  0  0  0  0  0  0
  150.8626  137.8997  157.3819 H   0  0  0  0  0  0  0  0  0  0  0  0
  151.4291  139.4215  156.7051 H   0  0  0  0  0  0  0  0  0  0  0  0
  148.9723  139.2062  156.4440 H   0  0  0  0  0  0  0  0  0  0  0  0
  149.6076  136.7061  154.8147 H   0  0  0  0  0  0  0  0  0  0  0  0
  148.7863  136.7462  156.3562 H   0  0  0  0  0  0  0  0  0  0  0  0
  147.1792  136.5413  154.4872 H   0  0  0  0  0  0  0  0  0  0  0  0
  146.8993  138.0225  155.3756 H   0  0  0  0  0  0  0  0  0  0  0  0
  145.6990  138.5743  153.3516 H   0  0  0  0  0  0  0  0  0  0  0  0
  146.5837  139.3441  152.0609 H   0  0  0  0  0  0  0  0  0  0  0  0
  147.1517  136.5592  151.7418 H   0  0  0  0  0  0  0  0  0  0  0  0
  145.2337  137.9468  150.2683 H   0  0  0  0  0  0  0  0  0  0  0  0
  145.0933  136.0141  153.0823 H   0  0  0  0  0  0  0  0  0  0  0  0
  144.1619  137.0794  152.0671 H   0  0  0  0  0  0  0  0  0  0  0  0
  143.9003  136.3061  149.3588 H   0  0  0  0  0  0  0  0  0  0  0  0
  144.4848  131.2760  149.4433 H   0  0  0  0  0  0  0  0  0  0  0  0
  145.8931  133.9796  153.4547 H   0  0  0  0  0  0  0  0  0  0  0  0
  148.5479  140.1822  152.8258 H   0  0  0  0  0  0  0  0  0  0  0  0
  147.7217  140.2311  154.3708 H   0  0  0  0  0  0  0  0  0  0  0  0
  150.1702  140.4602  154.6876 H   0  0  0  0  0  0  0  0  0  0  0  0
  150.4627  138.9901  153.7904 H   0  0  0  0  0  0  0  0  0  0  0  0
  148.4463  137.8179  152.8941 H   0  0  0  0  0  0  0  0  0  0  0  0
  143.7865  133.9021  148.4685 H   0  0  0  0  0  0  0  0  0  0  0  0
  1  2  1  0  0  0  0
  1 23  1  0  0  0  0
  1 24  1  0  0  0  0
  1 25  1  0  0  0  0
  2 22  1  0  0  0  0
  2  3  1  0  0  0  0
  2 26  1  0  0  0  0
  3  4  1  0  0  0  0
  3 27  1  0  0  0  0
  3 28  1  0  0  0  0
  4  5  1  0  0  0  0
  4 29  1  0  0  0  0
  4 30  1  0  0  0  0
  5  6  1  0  0  0  0
  5 21  1  0  0  0  0
  5 44  1  0  0  0  0
  6  7  1  0  0  0  0
  6 31  1  0  0  0  0
  6 32  1  0  0  0  0
  7  8  1  0  0  0  0
  7  9  1  0  0  0  0
  7 33  1  0  0  0  0
  8 34  1  0  0  0  0
  9 10  1  0  0  0  0
  9 35  1  0  0  0  0
  9 36  1  0  0  0  0
 10 20  1  0  0  0  0
 10 11  1  0  0  0  0
 11 12  2  0  0  0  0
 11 37  1  0  0  0  0
 12 13  1  0  0  0  0
 12 45  1  0  0  0  0
 13 20  2  0  0  0  0
 13 14  1  0  0  0  0
 14 15  2  0  0  0  0
 14 38  1  0  0  0  0
 15 16  1  0  0  0  0
 15 17  1  0  0  0  0
 17 18  1  0  0  0  0
 17 19  2  0  0  0  0
 19 20  1  0  0  0  0
 19 39  1  0  0  0  0
 21 22  1  0  0  0  0
 21 40  1  0  0  0  0
 21 41  1  0  0  0  0
 22 42  1  0  0  0  0
 22 43  1  0  0  0  0
M  CHG  1   5   1
M  CHG  1  12   1
M  END
> <s_m_source_file>
AV-unprocessed.smi

> <i_m_source_file_index>
1702

> <i_lp_mmshare_version>
43012

> <i_f3d_flags>
0

> <s_epik_input>
W0NIM11bQ0hdMVtDSDJdW0NIMl1OKFtDSDJdW0NIMl0xKVtDSDJdW0NASF0oW09IXSlbQ0gyXW4oW2NIXW4yKWMoYzIzKVtjSF1jKEYpYyhGKVtjSF0z

> <s_epik_cmdline>
J2VwaWtfcHl0aG9uJywgJy1waCcsICc3LjAnLCAnLXRuJywgJzgnLCAnLW1hJywgJzIwMCcsICctbWV0YWxfYmluZGluZycsICctaW1hZScsICc8aW5maWxlLm1hZT4nLCAnLW9tYWUnLCAnPG91dGZpbGUubWFlPic=

> <r_epik_Ionization_Penalty>
2.33291

> <r_epik_Ionization_Penalty_Charging>
2.33291

> <r_epik_Ionization_Penalty_Neutral>
6.90208e-07

> <r_epik_State_Penalty>
2.4838

> <r_epik_Charging_Adjusted_Penalty>
4.81672

> <i_epik_Tot_Q>
2

> <i_epik_Tot_abs_Q>
2

> <r_epik_Metal_State_Penalty>
6.56754

> <b_epik_Metal_Only>
0

> <s_lp_Force_Field>
OPLS_2005

> <r_lp_Energy>
33.9441

> <b_lp_Chiralities_Consistent>
1

> <s_lp_Variant>
AV-unprocessed.smi:1702-5

> <Gold.Version>
5.8.1

> <Gold.Id.Protein>
6NUR|6NUR_protein|mol2

> <Gold.PLP.Fitness>
48.3693

> <Gold.PLP.PLP>
-36.4657

> <Gold.PLP.part.hbond>
-4.3161

> <Gold.PLP.part.metal>
0.0000

> <Gold.PLP.part.buried>
-0.3074

> <Gold.PLP.part.nonpolar>
-32.6937

> <Gold.PLP.part.repulsive>
0.1269

> <Gold.PLP.ligand.clash>
0.0000

> <Gold.PLP.ligand.torsion>
1.3060

> <Gold.PLP.Chemscore.Hbond>
3.8160

> <Gold.PLP.Chemscore.CHOScore>
1.0000

> <Gold.PLP.Chemscore.Metal>
0.0000

> <Gold.Chemscore.Hbonds>
donor molecule, donor type, donor heavy atom, donor atom, acceptor molecule, acceptor atom, score
      L1  H     5    44       P1  7948  2.00
      L1  H     8    34       P1 10171  1.00
      P1  H  7954  7966       L1     8  0.68
      L1  C    11    37       P1 10171  1.00

> <Gold.PLP.Chemscore.Internal.Correction>
0.0675

> <Gold.Rescore>
     Score         DG    S(hbond)    S(metal)    S(lipo)     H(rot)  DE(clash)    DE(int)     intcor
     12.73     -16.45       2.28        0.00      79.53       2.32       1.60       2.12       ----

> <Gold.Chemscore.Fitness>
12.7255

> <Gold.Chemscore.DG>
-16.4479

> <Gold.Chemscore.ZeroCoef>
-5.4800

> <Gold.Chemscore.Hbond>
2.2767

> <Gold.Chemscore.Metal>
0.0000

> <Gold.Chemscore.Lipo>
79.5324

> <Gold.Chemscore.Internal_Hbond>
0.0000

> <Gold.Chemscore.DEClash>
1.6040

> <Gold.Chemscore.DEInternal>
2.1184

> <Gold.Chemscore.Rot>
2.3210

> <Gold.Chemscore.Internal.Correction>
   9.000000E+99

> <Gold.Chemscore.Hbonds>
donor molecule, donor type, donor heavy atom, donor atom, acceptor molecule, acceptor atom, score
      L1  H     5    44       P1  7948  0.95
      L1  H     8    34       P1 10171  0.96
      P1  H  7954  7966       L1     8  0.15

> <Gold.Chemscore.Hbond.Weighted>
-7.6042

> <Gold.Chemscore.Metal.Weighted>
-0.0000

> <Gold.Chemscore.Lipo.Weighted>
-9.3053

> <Gold.Chemscore.Internal_Hbond.Weighted>
0.0000

> <Gold.Chemscore.DEClash.Weighted>
1.6040

> <Gold.Chemscore.DEInternal.Weighted>
2.1184

> <Gold.Chemscore.Rot.Weighted>
5.9416

> <Gold.Chemscore.Internal.Correction.Weighted>
   9.000000E+99

> <Gold.Protein.RotatedTorsions>
[ 6907 6896 6895 6894 ] final  -24.05 input  -60.11 | X-H torsion
[ 7974 7965 7964 7962 ] final  139.20 input  175.53 | X-H torsion
[ 8008 7997 7996 7995 ] final   14.02 input   59.86 | X-H torsion
[ 10167 10162 10161 10158 ] final    7.15 input  -65.29 | X-H torsion
[ 10718 10713 10712 10709 ] final  165.67 input   66.30 | X-H torsion
[ 10763 10752 10751 10750 ] final  -24.12 input  -60.55 | X-H torsion
[ 11005 11000 10999 10996 ] final  148.00 input  -57.11 | X-H torsion

> <Gold.Protein.ActiveResidues>
 VAL166  LYS551  ARG553  GLY616  TRP617  ASP618  TYR619  PRO620  LYS621  CYS622 
 ASP623  PHE694  ASN695  SER759  ASP760  ASP761  ALA762  ILE779  LEU786  VAL792 
 PHE793  MET794  SER795  GLU796  ALA797  LYS798  CYS799  TRP800  GLU811  SER814 

> <Gold.Protein.RotatedAtoms>
  151.1951  135.0419  159.8848 H   0  0  0  0  0  0  0  0  0  0  0  0  # atno 6907 bound_to 6896
  152.5437  134.0913  159.8288 H   0  0  0  0  0  0  0  0  0  0  0  0  # atno 6908 bound_to 6896
  151.1046  133.5170  159.2640 H   0  0  0  0  0  0  0  0  0  0  0  0  # atno 6909 bound_to 6896
  144.9301  139.5058  143.5622 H   0  0  0  0  0  0  0  0  0  0  0  0  # atno 7974 bound_to 7965
  154.8426  140.2917  155.5650 H   0  0  0  0  0  0  0  0  0  0  0  0  # atno 8008 bound_to 7997
  156.3012  140.2511  156.3302 H   0  0  0  0  0  0  0  0  0  0  0  0  # atno 8009 bound_to 7997
  154.9109  140.0388  157.1935 H   0  0  0  0  0  0  0  0  0  0  0  0  # atno 8010 bound_to 7997
  140.6388  143.7823  150.7398 H   0  0  0  0  0  0  0  0  0  0  0  0  # atno 10167 bound_to 10162
  157.0769  131.0381  151.2590 H   0  0  0  0  0  0  0  0  0  0  0  0  # atno 10718 bound_to 10713
  153.6786  135.6968  153.5125 H   0  0  0  0  0  0  0  0  0  0  0  0  # atno 10763 bound_to 10752
  153.2502  135.4277  155.0789 H   0  0  0  0  0  0  0  0  0  0  0  0  # atno 10764 bound_to 10752
  154.8406  135.3529  154.6330 H   0  0  0  0  0  0  0  0  0  0  0  0  # atno 10765 bound_to 10752
  140.0923  134.9033  157.1670 H   0  0  0  0  0  0  0  0  0  0  0  0  # atno 11005 bound_to 11000
  146.3243  139.8245  142.8920 LP  0  0  0  0  0  0  0  0  0  0  0  0  # atno 17320 bound_to 7965
  145.3155  141.0231  143.3530 LP  0  0  0  0  0  0  0  0  0  0  0  0  # atno 17321 bound_to 7965
  140.1450  143.4407  152.2168 LP  0  0  0  0  0  0  0  0  0  0  0  0  # atno 17342 bound_to 10162
  139.5597  144.7397  151.4190 LP  0  0  0  0  0  0  0  0  0  0  0  0  # atno 17343 bound_to 10162
  157.4832  130.7778  149.7435 LP  0  0  0  0  0  0  0  0  0  0  0  0  # atno 17370 bound_to 10713
  155.9934  130.3924  150.2900 LP  0  0  0  0  0  0  0  0  0  0  0  0  # atno 17371 bound_to 10713
  140.3335  134.2783  155.7224 LP  0  0  0  0  0  0  0  0  0  0  0  0  # atno 17394 bound_to 11000
  141.2081  133.7786  157.0076 LP  0  0  0  0  0  0  0  0  0  0  0  0  # atno 17395 bound_to 11000

$$$$
