AV-unprocessed.smi:109|AV-procd|sdf|1040|dock8
  -GOLD-   2262018 63D 1   1.00000     0.00000
 Structure written by MMmdl.
 58 61  0  0  0  0  0  0  0  0  1 V2000
  152.7654  139.6941  154.8652 O   0  0  0  0  0  0  0  0  0  0  0  0
  151.8313  139.2594  155.8292 C   0  0  0  0  0  0  0  0  0  0  0  0
  151.9840  140.0856  157.1163 C   0  0  0  0  0  0  0  0  0  0  0  0
  151.3223  141.4755  157.0206 C   0  0  1  0  0  0  0  0  0  0  0  0
  149.8747  141.3555  157.2042 N   0  0  0  0  0  0  0  0  0  0  0  0
  148.9966  141.5534  156.1959 C   0  0  0  0  0  0  0  0  0  0  0  0
  149.2321  141.0858  154.9419 N   0  0  0  0  0  0  0  0  0  0  0  0
  148.3402  141.2962  153.9689 C   0  0  0  0  0  0  0  0  0  0  0  0
  147.1692  141.9344  154.0330 N   0  0  0  0  0  0  0  0  0  0  0  0
  146.9300  142.4050  155.2912 C   0  0  0  0  0  0  0  0  0  0  0  0
  147.7857  142.2582  156.4174 C   0  0  0  0  0  0  0  0  0  0  0  0
  147.2089  142.8619  157.5277 N   0  0  0  0  0  0  0  0  0  0  0  0
  146.0748  143.3302  157.0792 C   0  0  0  0  0  0  0  0  0  0  0  0
  145.8289  143.0969  155.7423 N   0  0  0  0  0  0  0  0  0  0  0  0
  144.6401  143.4734  154.9204 C   0  0  2  0  0  0  0  0  0  0  0  0
  144.4948  144.8606  154.9958 O   0  0  0  0  0  0  0  0  0  0  0  0
  143.1915  145.2090  155.4527 C   0  0  2  0  0  0  0  0  0  0  0  0
  143.2097  146.5480  156.2110 C   0  0  0  0  0  0  0  0  0  0  0  0
  144.1943  146.5189  157.2217 O   0  0  0  0  0  0  0  0  0  0  0  0
  142.7356  143.9911  156.2671 C   0  0  2  0  0  0  0  0  0  0  0  0
  143.2092  144.0485  157.6011 O   0  0  0  0  0  0  0  0  0  0  0  0
  143.3806  142.8319  155.5232 C   0  0  1  0  0  0  0  0  0  0  0  0
  142.5239  142.3404  154.5122 O   0  0  0  0  0  0  0  0  0  0  0  0
  151.9426  142.4980  158.0092 C   0  0  0  0  0  0  0  0  0  0  0  0
  151.7015  142.1555  159.4986 C   0  0  0  0  0  0  0  0  0  0  0  0
  152.3840  143.1701  160.4311 C   0  0  0  0  0  0  0  0  0  0  0  0
  151.9356  144.6061  160.1214 C   0  0  0  0  0  0  0  0  0  0  0  0
  152.1820  144.9560  158.6462 C   0  0  0  0  0  0  0  0  0  0  0  0
  151.4945  143.9461  157.7137 C   0  0  0  0  0  0  0  0  0  0  0  0
  144.8838  143.1410  153.9100 H   0  0  0  0  0  0  0  0  0  0  0  0
  142.5408  145.2841  154.5793 H   0  0  0  0  0  0  0  0  0  0  0  0
  141.6483  143.9100  156.3029 H   0  0  0  0  0  0  0  0  0  0  0  0
  143.6324  141.9979  156.1808 H   0  0  0  0  0  0  0  0  0  0  0  0
  153.0118  138.9537  154.3318 H   0  0  0  0  0  0  0  0  0  0  0  0
  150.8253  139.3627  155.4214 H   0  0  0  0  0  0  0  0  0  0  0  0
  151.9968  138.1994  156.0240 H   0  0  0  0  0  0  0  0  0  0  0  0
  151.5704  139.5275  157.9570 H   0  0  0  0  0  0  0  0  0  0  0  0
  153.0480  140.2071  157.3239 H   0  0  0  0  0  0  0  0  0  0  0  0
  151.5468  141.8346  156.0164 H   0  0  0  0  0  0  0  0  0  0  0  0
  149.5785  141.1046  158.1366 H   0  0  0  0  0  0  0  0  0  0  0  0
  148.6019  140.8936  153.0014 H   0  0  0  0  0  0  0  0  0  0  0  0
  145.3809  143.8549  157.7196 H   0  0  0  0  0  0  0  0  0  0  0  0
  143.4661  147.3612  155.5315 H   0  0  0  0  0  0  0  0  0  0  0  0
  142.2335  146.7757  156.6403 H   0  0  0  0  0  0  0  0  0  0  0  0
  143.7814  146.7091  158.0502 H   0  0  0  0  0  0  0  0  0  0  0  0
  143.5563  144.9128  157.7600 H   0  0  0  0  0  0  0  0  0  0  0  0
  143.0192  141.7554  153.9592 H   0  0  0  0  0  0  0  0  0  0  0  0
  153.0213  142.4743  157.8460 H   0  0  0  0  0  0  0  0  0  0  0  0
  150.6319  142.1380  159.7116 H   0  0  0  0  0  0  0  0  0  0  0  0
  152.0779  141.1589  159.7276 H   0  0  0  0  0  0  0  0  0  0  0  0
  152.1602  142.9272  161.4705 H   0  0  0  0  0  0  0  0  0  0  0  0
  153.4667  143.0944  160.3226 H   0  0  0  0  0  0  0  0  0  0  0  0
  150.8750  144.7160  160.3514 H   0  0  0  0  0  0  0  0  0  0  0  0
  152.4668  145.3090  160.7638 H   0  0  0  0  0  0  0  0  0  0  0  0
  151.8164  145.9616  158.4371 H   0  0  0  0  0  0  0  0  0  0  0  0
  153.2542  144.9686  158.4467 H   0  0  0  0  0  0  0  0  0  0  0  0
  151.7156  144.2010  156.6767 H   0  0  0  0  0  0  0  0  0  0  0  0
  150.4139  144.0355  157.8300 H   0  0  0  0  0  0  0  0  0  0  0  0
  1  2  1  0  0  0  0
  1 34  1  0  0  0  0
  2  3  1  0  0  0  0
  2 35  1  0  0  0  0
  2 36  1  0  0  0  0
  3  4  1  0  0  0  0
  3 37  1  0  0  0  0
  3 38  1  0  0  0  0
  4  5  1  0  0  0  0
  4 24  1  0  0  0  0
  4 39  1  0  0  0  0
  5  6  1  0  0  0  0
  5 40  1  0  0  0  0
  6 11  1  0  0  0  0
  6  7  2  0  0  0  0
  7  8  1  0  0  0  0
  8  9  2  0  0  0  0
  8 41  1  0  0  0  0
  9 10  1  0  0  0  0
 10 14  1  0  0  0  0
 10 11  2  0  0  0  0
 11 12  1  0  0  0  0
 12 13  2  0  0  0  0
 13 14  1  0  0  0  0
 13 42  1  0  0  0  0
 14 15  1  0  0  0  0
 15 30  1  0  0  0  0
 15 22  1  0  0  0  0
 15 16  1  0  0  0  0
 16 17  1  0  0  0  0
 17 31  1  0  0  0  0
 17 18  1  0  0  0  0
 17 20  1  0  0  0  0
 18 19  1  0  0  0  0
 18 43  1  0  0  0  0
 18 44  1  0  0  0  0
 19 45  1  0  0  0  0
 20 32  1  0  0  0  0
 20 21  1  0  0  0  0
 20 22  1  0  0  0  0
 21 46  1  0  0  0  0
 22 33  1  0  0  0  0
 22 23  1  0  0  0  0
 23 47  1  0  0  0  0
 24 29  1  0  0  0  0
 24 25  1  0  0  0  0
 24 48  1  0  0  0  0
 25 26  1  0  0  0  0
 25 49  1  0  0  0  0
 25 50  1  0  0  0  0
 26 27  1  0  0  0  0
 26 51  1  0  0  0  0
 26 52  1  0  0  0  0
 27 28  1  0  0  0  0
 27 53  1  0  0  0  0
 27 54  1  0  0  0  0
 28 29  1  0  0  0  0
 28 55  1  0  0  0  0
 28 56  1  0  0  0  0
 29 57  1  0  0  0  0
 29 58  1  0  0  0  0
M  END
> <s_m_source_file>
AV-unprocessed.smi

> <i_m_source_file_index>
109

> <i_lp_mmshare_version>
43012

> <i_f3d_flags>
0

> <s_epik_input>
W0NIMl0xW0NIMl1bQ0gyXVtDSDJdW0NIMl1bQ0hdMVtDQEhdKFtDSDJdW0NIMl1bT0hdKVtOSF1jKG5bY0hdbjIpYyhjMjMpbltjSF1uM1tDQEBIXTRPW0NASF0oW0NIMl1bT0hdKVtDQEBIXShbT0hdKVtDQEhdNFtPSF0=

> <s_epik_cmdline>
J2VwaWtfcHl0aG9uJywgJy1waCcsICc3LjAnLCAnLXRuJywgJzgnLCAnLW1hJywgJzIwMCcsICctbWV0YWxfYmluZGluZycsICctaW1hZScsICc8aW5maWxlLm1hZT4nLCAnLW9tYWUnLCAnPG91dGZpbGUubWFlPic=

> <r_lp_tautomer_probability>
1

> <r_epik_Ionization_Penalty>
0.000793976

> <r_epik_Ionization_Penalty_Charging>
0

> <r_epik_Ionization_Penalty_Neutral>
0.000793976

> <r_epik_State_Penalty>
-0

> <r_epik_Charging_Adjusted_Penalty>
0

> <i_epik_Tot_Q>
0

> <i_epik_Tot_abs_Q>
0

> <r_epik_Metal_State_Penalty>
-0

> <b_epik_Metal_Only>
0

> <s_epik_Chemistry_Notes>
This compound contains an acetal/aminal-like group ( X-CH(R)-Y where X, Y are N, S, or O) that may be acid/base labile, releasing an aldehyde.

> <s_lp_Force_Field>
OPLS_2005

> <r_lp_Energy>
47.8615

> <b_lp_Chiralities_Consistent>
1

> <s_lp_Variant>
AV-unprocessed.smi:109-10

> <Gold.Version>
5.8.1

> <Gold.Id.Protein>
6NUR|6NUR_protein|mol2

> <Gold.PLP.Fitness>
52.0397

> <Gold.PLP.PLP>
-43.8458

> <Gold.PLP.part.hbond>
-4.0000

> <Gold.PLP.part.metal>
0.0000

> <Gold.PLP.part.buried>
-5.6456

> <Gold.PLP.part.nonpolar>
-35.2343

> <Gold.PLP.part.repulsive>
0.6004

> <Gold.PLP.ligand.clash>
0.0019

> <Gold.PLP.ligand.torsion>
0.7663

> <Gold.PLP.Chemscore.Hbond>
2.1798

> <Gold.PLP.Chemscore.CHOScore>
1.0000

> <Gold.PLP.Chemscore.Metal>
0.0000

> <Gold.Chemscore.Hbonds>
donor molecule, donor type, donor heavy atom, donor atom, acceptor molecule, acceptor atom, score
      L1  H    23    47       P1 10175  0.15
      P1  H  7989  7998       L1     1  0.42
      P1  H  7997  8010       L1     1  0.98
      L1  C     8    41       P1  7957  1.00

> <Gold.PLP.Chemscore.Internal.Correction>
0.1892

> <Gold.Rescore>
     Score         DG    S(hbond)    S(metal)    S(lipo)     H(rot)  DE(clash)    DE(int)     intcor
      5.79      -7.76       1.20        0.00     104.78       5.47       0.10       1.87       ----

> <Gold.Chemscore.Fitness>
5.7900

> <Gold.Chemscore.DG>
-7.7625

> <Gold.Chemscore.ZeroCoef>
-5.4800

> <Gold.Chemscore.Hbond>
1.2027

> <Gold.Chemscore.Metal>
0.0000

> <Gold.Chemscore.Lipo>
104.7789

> <Gold.Chemscore.Internal_Hbond>
0.0000

> <Gold.Chemscore.DEClash>
0.1002

> <Gold.Chemscore.DEInternal>
1.8723

> <Gold.Chemscore.Rot>
5.4662

> <Gold.Chemscore.Internal.Correction>
   9.000000E+99

> <Gold.Chemscore.Hbonds>
donor molecule, donor type, donor heavy atom, donor atom, acceptor molecule, acceptor atom, score
      P1  H  7989  7998       L1     1  0.08
      P1  H  7997  8010       L1     1  0.23

> <Gold.Chemscore.Hbond.Weighted>
-4.0169

> <Gold.Chemscore.Metal.Weighted>
-0.0000

> <Gold.Chemscore.Lipo.Weighted>
-12.2591

> <Gold.Chemscore.Internal_Hbond.Weighted>
0.0000

> <Gold.Chemscore.DEClash.Weighted>
0.1002

> <Gold.Chemscore.DEInternal.Weighted>
1.8723

> <Gold.Chemscore.Rot.Weighted>
13.9935

> <Gold.Chemscore.Internal.Correction.Weighted>
   9.000000E+99

> <Gold.Protein.RotatedTorsions>
[ 6907 6896 6895 6894 ] final -120.83 input  -60.11 | X-H torsion
[ 7974 7965 7964 7962 ] final  121.63 input  175.53 | X-H torsion
[ 8008 7997 7996 7995 ] final   99.81 input   59.86 | X-H torsion
[ 10167 10162 10161 10158 ] final -102.06 input  -65.29 | X-H torsion
[ 10718 10713 10712 10709 ] final -158.65 input   66.30 | X-H torsion
[ 10763 10752 10751 10750 ] final -138.58 input  -60.55 | X-H torsion
[ 11005 11000 10999 10996 ] final -125.26 input  -57.11 | X-H torsion

> <Gold.Protein.ActiveResidues>
 VAL166  LYS551  ARG553  GLY616  TRP617  ASP618  TYR619  PRO620  LYS621  CYS622 
 ASP623  PHE694  ASN695  SER759  ASP760  ASP761  ALA762  ILE779  LEU786  VAL792 
 PHE793  MET794  SER795  GLU796  ALA797  LYS798  CYS799  TRP800  GLU811  SER814 

> <Gold.Protein.RotatedAtoms>
  150.8428  133.7909  159.3054 H   0  0  0  0  0  0  0  0  0  0  0  0  # atno 6907 bound_to 6896
  151.5605  135.1064  159.9981 H   0  0  0  0  0  0  0  0  0  0  0  0  # atno 6908 bound_to 6896
  152.4488  133.7546  159.6769 H   0  0  0  0  0  0  0  0  0  0  0  0  # atno 6909 bound_to 6896
  145.1171  139.3414  143.4733 H   0  0  0  0  0  0  0  0  0  0  0  0  # atno 7974 bound_to 7965
  156.1141  140.3223  155.8114 H   0  0  0  0  0  0  0  0  0  0  0  0  # atno 8008 bound_to 7997
  155.4621  140.0540  157.3007 H   0  0  0  0  0  0  0  0  0  0  0  0  # atno 8009 bound_to 7997
  154.4780  140.2041  155.9844 H   0  0  0  0  0  0  0  0  0  0  0  0  # atno 8010 bound_to 7997
  140.2346  143.3582  152.0856 H   0  0  0  0  0  0  0  0  0  0  0  0  # atno 10167 bound_to 10162
  156.5571  130.8630  151.2798 H   0  0  0  0  0  0  0  0  0  0  0  0  # atno 10718 bound_to 10713
  154.8633  135.3608  154.5408 H   0  0  0  0  0  0  0  0  0  0  0  0  # atno 10763 bound_to 10752
  153.6029  135.7012  153.5382 H   0  0  0  0  0  0  0  0  0  0  0  0  # atno 10764 bound_to 10752
  153.3275  135.4134  155.1429 H   0  0  0  0  0  0  0  0  0  0  0  0  # atno 10765 bound_to 10752
  140.9776  134.0718  157.3801 H   0  0  0  0  0  0  0  0  0  0  0  0  # atno 11005 bound_to 11000
  146.3523  140.1114  142.8604 LP  0  0  0  0  0  0  0  0  0  0  0  0  # atno 17320 bound_to 7965
  145.0782  140.9203  143.4841 LP  0  0  0  0  0  0  0  0  0  0  0  0  # atno 17321 bound_to 7965
  139.5098  144.6873  151.5853 LP  0  0  0  0  0  0  0  0  0  0  0  0  # atno 17342 bound_to 10162
  140.6159  143.9349  150.6488 LP  0  0  0  0  0  0  0  0  0  0  0  0  # atno 17343 bound_to 10162
  157.7376  130.9799  150.2203 LP  0  0  0  0  0  0  0  0  0  0  0  0  # atno 17370 bound_to 10713
  156.2832  130.3736  149.7914 LP  0  0  0  0  0  0  0  0  0  0  0  0  # atno 17371 bound_to 10713
  139.8937  135.0132  156.6911 LP  0  0  0  0  0  0  0  0  0  0  0  0  # atno 17394 bound_to 11000
  140.7235  133.9120  155.8163 LP  0  0  0  0  0  0  0  0  0  0  0  0  # atno 17395 bound_to 11000

$$$$
