#       Name:                AV-unprocessed.smi:2079
#       Creating user name   scv26
#       Creation time:       Fri Mar 27 11:18:03 2020


#       File generated by GOLD software.
#

@<TRIPOS>MOLECULE
AV-unprocessed.smi:2079
    47    48     1
SMALL
NO_CHARGES


@<TRIPOS>ATOM
      1 ****        -7.8285   1.7360   0.7159 C.3            1 S1                 0.0000
      2 ****        -6.3667   1.4462   0.7344 C.2            1 S1                 0.0000
      3 ****        -5.6488   0.2898   0.8584 C.2            1 S1                 0.0000
      4 ****        -4.3035   0.7411   0.7973 C.2            1 S1                 0.0000
      5 ****        -3.2232  -0.1727   0.8943 N.am           1 S1                 0.0000
      6 ****        -1.9095   0.1080   0.8565 C.2            1 S1                 0.0000
      7 ****        -1.4261   1.2316   0.7135 O.2            1 S1                 0.0000
      8 ****        -1.1668  -1.0006   0.9910 N.am           1 S1                 0.0000
      9 ****         0.2913  -1.0247   1.0036 C.3            1 S1                 0.0000
     10 ****         0.8702  -0.8779  -0.4181 C.3            1 S1                 0.0000
     11 ****         2.3552  -0.9578  -0.4647 N.4            1 S1                 1.0000
     12 ****         2.8560  -1.1379  -1.8546 C.3            1 S1                 0.0000
     13 ****         4.3641  -1.4318  -1.8769 C.3            1 S1                 0.0000
     14 ****         5.1491  -0.3323  -1.1544 C.3            1 S1                 0.0000
     15 ****         4.6053  -0.1558   0.2696 C.3            1 S1                 0.0000
     16 ****         3.0853   0.1141   0.2851 C.3            1 S1                 0.0000
     17 ****         2.7423   1.5444  -0.1847 C.3            1 S1                 0.0000
     18 ****        -4.2084   2.0536   0.6482 N.2            1 S1                 0.0000
     19 ****        -5.5303   2.5123   0.6080 O.3            1 S1                 0.0000
     20 ****        -8.4004   0.8374   0.4841 H              1 S1                 0.0000
     21 ****        -8.0653   2.4893  -0.0357 H              1 S1                 0.0000
     22 ****        -8.1600   2.1084   1.6853 H              1 S1                 0.0000
     23 ****        -6.0283  -0.7145   0.9753 H              1 S1                 0.0000
     24 ****        -3.4792  -1.1416   1.0128 H              1 S1                 0.0000
     25 ****        -1.6412  -1.8845   1.1051 H              1 S1                 0.0000
     26 ****         0.6438  -0.2335   1.6656 H              1 S1                 0.0000
     27 ****         0.6141  -1.9691   1.4428 H              1 S1                 0.0000
     28 ****         0.4637  -1.6866  -1.0271 H              1 S1                 0.0000
     29 ****         0.5312   0.0452  -0.8885 H              1 S1                 0.0000
     30 ****         2.3312  -1.9687  -2.3276 H              1 S1                 0.0000
     31 ****         2.6324  -0.2528  -2.4509 H              1 S1                 0.0000
     32 ****         4.5572  -2.3940  -1.4005 H              1 S1                 0.0000
     33 ****         4.7110  -1.5216  -2.9067 H              1 S1                 0.0000
     34 ****         6.2091  -0.5864  -1.1231 H              1 S1                 0.0000
     35 ****         5.0715   0.6049  -1.7064 H              1 S1                 0.0000
     36 ****         4.8134  -1.0609   0.8422 H              1 S1                 0.0000
     37 ****         5.1389   0.6493   0.7760 H              1 S1                 0.0000
     38 ****         2.7907   0.0480   1.3316 H              1 S1                 0.0000
     39 ****         3.3218   2.2812   0.3723 H              1 S1                 0.0000
     40 ****         1.6925   1.7849  -0.0186 H              1 S1                 0.0000
     41 ****         2.9564   1.6974  -1.2419 H              1 S1                 0.0000
     42 ****         2.5884  -1.8185   0.0095 H              1 S1                 0.0000
     43 ****        -2.0264   2.0252   0.6142 LP             1 S1                 0.0000
     44 ****        -0.4333   1.3504   0.6968 LP             1 S1                 0.0000
     45 ****        -3.3730   2.5990   0.5793 LP             1 S1                 0.0000
     46 ****        -5.6868   3.1536   1.3592 LP             1 S1                 0.0000
     47 ****        -5.7005   2.9720  -0.2636 LP             1 S1                 0.0000
@<TRIPOS>BOND
    1    1    2 1     
    2    1   20 1     
    3    1   21 1     
    4    1   22 1     
    5    2   19 1     
    6    2    3 2     
    7    3    4 1     
    8    3   23 1     
    9    4    5 1     
   10    4   18 2     
   11    5    6 am    
   12    5   24 1     
   13    6    7 2     
   14    6    8 am    
   15    8    9 1     
   16    8   25 1     
   17    9   10 1     
   18    9   26 1     
   19    9   27 1     
   20   10   11 1     
   21   10   28 1     
   22   10   29 1     
   23   11   16 1     
   24   11   12 1     
   25   11   42 1     
   26   12   13 1     
   27   12   30 1     
   28   12   31 1     
   29   13   14 1     
   30   13   32 1     
   31   13   33 1     
   32   14   15 1     
   33   14   34 1     
   34   14   35 1     
   35   15   16 1     
   36   15   36 1     
   37   15   37 1     
   38   16   17 1     
   39   16   38 1     
   40   17   39 1     
   41   17   40 1     
   42   17   41 1     
   43   18   19 1     
   44    7   43 1     
   45    7   44 1     
   46   18   45 1     
   47   19   46 1     
   48   19   47 1     
@<TRIPOS>SUBSTRUCTURE
      1 S1             1
@<TRIPOS>SET
LONE_PAIRS      STATIC     ATOMS    <user>   **** ""
5 43 44 45 46 47
DONOR_HYDROGENS      STATIC     ATOMS    <user>   **** ""
3 24 25 42
ATOM$BLUE        STATIC     ATOMS    COLORGROUP SYSTEM
5 43 44 45 46 47
ATOM$RED        STATIC     ATOMS    COLORGROUP SYSTEM
3 24 25 42
