AV-unprocessed.smi:2130|AV-procd|sdf|8686|dock2
  -GOLD-   2272011433D 1   1.00000     0.00000
 Structure written by MMmdl.
 32 33  0  0  0  0  0  0  0  0  1 V2000
  152.1195  144.0011  161.2427 C   0  0  0  0  0  0  0  0  0  0  0  0
  152.9067  142.7128  161.0752 C   0  0  0  0  0  0  0  0  0  0  0  0
  153.6526  142.1285  162.0186 C   0  0  0  0  0  0  0  0  0  0  0  0
  154.4457  140.6795  161.4511 S   0  0  0  0  0  0  0  0  0  0  0  0
  153.7070  140.9014  159.8243 C   0  0  0  0  0  0  0  0  0  0  0  0
  153.9071  140.1269  158.8900 O   0  0  0  0  0  0  0  0  0  0  0  0
  152.9126  142.0476  159.8410 N   0  0  0  0  0  0  0  0  0  0  0  0
  152.1468  142.5022  158.6729 C   0  0  0  0  0  0  0  0  0  0  0  0
  151.1897  141.4389  158.1180 C   0  0  0  0  0  0  0  0  0  0  0  0
  150.2102  141.0645  158.7645 O   0  0  0  0  0  0  0  0  0  0  0  0
  151.5002  140.9549  156.9058 N   0  0  0  0  0  0  0  0  0  0  0  0
  150.7614  139.9182  156.1924 C   0  0  1  0  0  0  0  0  0  0  0  0
  150.0006  140.5697  155.0295 C   0  0  0  0  0  0  0  0  0  0  0  0
  151.6433  138.7854  155.6938 C   0  0  0  0  0  0  0  0  0  0  0  0
  152.6650  139.0174  154.6055 C   0  0  0  0  0  0  0  0  0  0  0  0
  151.4433  138.1717  154.3280 C   0  0  0  0  0  0  0  0  0  0  0  0
  152.4630  144.5428  162.1245 H   0  0  0  0  0  0  0  0  0  0  0  0
  151.0589  143.7838  161.3707 H   0  0  0  0  0  0  0  0  0  0  0  0
  152.2424  144.6631  160.3856 H   0  0  0  0  0  0  0  0  0  0  0  0
  153.7939  142.4779  163.0307 H   0  0  0  0  0  0  0  0  0  0  0  0
  151.5594  143.3818  158.9414 H   0  0  0  0  0  0  0  0  0  0  0  0
  152.8181  142.8354  157.8811 H   0  0  0  0  0  0  0  0  0  0  0  0
  152.3205  141.3230  156.4465 H   0  0  0  0  0  0  0  0  0  0  0  0
  150.0163  139.4947  156.8687 H   0  0  0  0  0  0  0  0  0  0  0  0
  149.3931  139.8365  154.4982 H   0  0  0  0  0  0  0  0  0  0  0  0
  150.6846  141.0183  154.3084 H   0  0  0  0  0  0  0  0  0  0  0  0
  149.3306  141.3528  155.3862 H   0  0  0  0  0  0  0  0  0  0  0  0
  151.9492  138.0976  156.4803 H   0  0  0  0  0  0  0  0  0  0  0  0
  152.7051  140.0039  154.1478 H   0  0  0  0  0  0  0  0  0  0  0  0
  153.6212  138.5064  154.6969 H   0  0  0  0  0  0  0  0  0  0  0  0
  151.5837  137.0966  154.2373 H   0  0  0  0  0  0  0  0  0  0  0  0
  150.6756  138.5973  153.6849 H   0  0  0  0  0  0  0  0  0  0  0  0
  1  2  1  0  0  0  0
  1 17  1  0  0  0  0
  1 18  1  0  0  0  0
  1 19  1  0  0  0  0
  2  7  1  0  0  0  0
  2  3  2  0  0  0  0
  3  4  1  0  0  0  0
  3 20  1  0  0  0  0
  4  5  1  0  0  0  0
  5  6  2  0  0  0  0
  5  7  1  0  0  0  0
  7  8  1  0  0  0  0
  8  9  1  0  0  0  0
  8 21  1  0  0  0  0
  8 22  1  0  0  0  0
  9 10  2  0  0  0  0
  9 11  1  0  0  0  0
 11 12  1  0  0  0  0
 11 23  1  0  0  0  0
 12 13  1  0  0  0  0
 12 14  1  0  0  0  0
 12 24  1  0  0  0  0
 13 25  1  0  0  0  0
 13 26  1  0  0  0  0
 13 27  1  0  0  0  0
 14 16  1  0  0  0  0
 14 15  1  0  0  0  0
 14 28  1  0  0  0  0
 15 16  1  0  0  0  0
 15 29  1  0  0  0  0
 15 30  1  0  0  0  0
 16 31  1  0  0  0  0
 16 32  1  0  0  0  0
M  END
> <s_m_source_file>
AV-unprocessed.smi

> <i_m_source_file_index>
2130

> <i_lp_mmshare_version>
43012

> <i_f3d_flags>
0

> <s_epik_input>
W0NIM11jMVtjSF1zYyg9TyluMVtDSDJdQyg9TylbTkhdW0NASF0oW0NIM10pW0NIXTJbQ0gyXVtDSDJdMg==

> <s_epik_cmdline>
J2VwaWtfcHl0aG9uJywgJy1waCcsICc3LjAnLCAnLXRuJywgJzgnLCAnLW1hJywgJzIwMCcsICctbWV0YWxfYmluZGluZycsICctaW1hZScsICc8aW5maWxlLm1hZT4nLCAnLW9tYWUnLCAnPG91dGZpbGUubWFlPic=

> <r_lp_tautomer_probability>
1

> <r_epik_Ionization_Penalty>
1.32882e-06

> <r_epik_Ionization_Penalty_Charging>
1.22222e-06

> <r_epik_Ionization_Penalty_Neutral>
1.066e-07

> <r_epik_State_Penalty>
-0

> <r_epik_Charging_Adjusted_Penalty>
1.22222e-06

> <i_epik_Tot_Q>
0

> <i_epik_Tot_abs_Q>
0

> <r_epik_Metal_State_Penalty>
-0

> <b_epik_Metal_Only>
0

> <s_lp_Force_Field>
OPLS_2005

> <r_lp_Energy>
16.4034

> <b_lp_Chiralities_Consistent>
1

> <s_lp_Variant>
AV-unprocessed.smi:2130-2

> <Gold.Version>
5.8.1

> <Gold.Id.Protein>
6NUR|6NUR_protein|mol2

> <Gold.PLP.Fitness>
41.7887

> <Gold.PLP.PLP>
-39.3907

> <Gold.PLP.part.hbond>
-1.3500

> <Gold.PLP.part.metal>
0.0000

> <Gold.PLP.part.buried>
-1.6974

> <Gold.PLP.part.nonpolar>
-35.8587

> <Gold.PLP.part.repulsive>
0.1142

> <Gold.PLP.ligand.clash>
0.0000

> <Gold.PLP.ligand.torsion>
0.7989

> <Gold.PLP.Chemscore.Hbond>
0.9760

> <Gold.PLP.Chemscore.CHOScore>
0.0000

> <Gold.PLP.Chemscore.Metal>
0.0000

> <Gold.Chemscore.Hbonds>
donor molecule, donor type, donor heavy atom, donor atom, acceptor molecule, acceptor atom, score
      P1  H  7997  8009       L1     6  0.96

> <Gold.PLP.Chemscore.Internal.Correction>
1.0679

> <Gold.Rescore>
     Score         DG    S(hbond)    S(metal)    S(lipo)     H(rot)  DE(clash)    DE(int)     intcor
     14.37     -15.24       0.98        0.00      90.16       1.59       0.02       0.84       ----

> <Gold.Chemscore.Fitness>
14.3727

> <Gold.Chemscore.DG>
-15.2402

> <Gold.Chemscore.ZeroCoef>
-5.4800

> <Gold.Chemscore.Hbond>
0.9846

> <Gold.Chemscore.Metal>
0.0000

> <Gold.Chemscore.Lipo>
90.1602

> <Gold.Chemscore.Internal_Hbond>
0.0000

> <Gold.Chemscore.DEClash>
0.0249

> <Gold.Chemscore.DEInternal>
0.8426

> <Gold.Chemscore.Rot>
1.5926

> <Gold.Chemscore.Internal.Correction>
   9.000000E+99

> <Gold.Chemscore.Hbonds>
donor molecule, donor type, donor heavy atom, donor atom, acceptor molecule, acceptor atom, score
      P1  H  7997  8009       L1     6  0.92

> <Gold.Chemscore.Hbond.Weighted>
-3.2885

> <Gold.Chemscore.Metal.Weighted>
-0.0000

> <Gold.Chemscore.Lipo.Weighted>
-10.5487

> <Gold.Chemscore.Internal_Hbond.Weighted>
0.0000

> <Gold.Chemscore.DEClash.Weighted>
0.0249

> <Gold.Chemscore.DEInternal.Weighted>
0.8426

> <Gold.Chemscore.Rot.Weighted>
4.0771

> <Gold.Chemscore.Internal.Correction.Weighted>
   9.000000E+99

> <Gold.Protein.RotatedTorsions>
[ 6907 6896 6895 6894 ] final  -92.87 input  -60.11 | X-H torsion
[ 7974 7965 7964 7962 ] final -131.18 input  175.53 | X-H torsion
[ 8008 7997 7996 7995 ] final  130.95 input   59.86 | X-H torsion
[ 10167 10162 10161 10158 ] final  136.93 input  -65.29 | X-H torsion
[ 10718 10713 10712 10709 ] final  174.23 input   66.30 | X-H torsion
[ 10763 10752 10751 10750 ] final -108.42 input  -60.55 | X-H torsion
[ 11005 11000 10999 10996 ] final  -38.93 input  -57.11 | X-H torsion

> <Gold.Protein.ActiveResidues>
 VAL166  LYS551  ARG553  GLY616  TRP617  ASP618  TYR619  PRO620  LYS621  CYS622 
 ASP623  PHE694  ASN695  SER759  ASP760  ASP761  ALA762  ILE779  LEU786  VAL792 
 PHE793  MET794  SER795  GLU796  ALA797  LYS798  CYS799  TRP800  GLU811  SER814 

> <Gold.Protein.RotatedAtoms>
  150.6913  134.2055  159.4338 H   0  0  0  0  0  0  0  0  0  0  0  0  # atno 6907 bound_to 6896
  152.0019  134.9921  160.0574 H   0  0  0  0  0  0  0  0  0  0  0  0  # atno 6908 bound_to 6896
  152.1570  133.4523  159.4879 H   0  0  0  0  0  0  0  0  0  0  0  0  # atno 6909 bound_to 6896
  144.9404  140.7232  143.4850 H   0  0  0  0  0  0  0  0  0  0  0  0  # atno 7974 bound_to 7965
  156.2963  140.2583  156.2846 H   0  0  0  0  0  0  0  0  0  0  0  0  # atno 8008 bound_to 7997
  154.9569  140.0393  157.2190 H   0  0  0  0  0  0  0  0  0  0  0  0  # atno 8009 bound_to 7997
  154.7983  140.2824  155.5944 H   0  0  0  0  0  0  0  0  0  0  0  0  # atno 8010 bound_to 7997
  139.5162  144.6438  151.5497 H   0  0  0  0  0  0  0  0  0  0  0  0  # atno 10167 bound_to 10162
  156.9527  131.0036  151.2945 H   0  0  0  0  0  0  0  0  0  0  0  0  # atno 10718 bound_to 10713
  154.8135  135.4638  154.0579 H   0  0  0  0  0  0  0  0  0  0  0  0  # atno 10763 bound_to 10752
  153.1991  135.6866  153.8261 H   0  0  0  0  0  0  0  0  0  0  0  0  # atno 10764 bound_to 10752
  153.7752  135.3264  155.3335 H   0  0  0  0  0  0  0  0  0  0  0  0  # atno 10765 bound_to 10752
  141.0065  133.6929  156.2119 H   0  0  0  0  0  0  0  0  0  0  0  0  # atno 11005 bound_to 11000
  145.3000  139.1853  143.4694 LP  0  0  0  0  0  0  0  0  0  0  0  0  # atno 17320 bound_to 7965
  146.3283  140.2990  142.8619 LP  0  0  0  0  0  0  0  0  0  0  0  0  # atno 17321 bound_to 7965
  140.6214  143.9250  150.6529 LP  0  0  0  0  0  0  0  0  0  0  0  0  # atno 17342 bound_to 10162
  140.2525  143.3582  152.1393 LP  0  0  0  0  0  0  0  0  0  0  0  0  # atno 17343 bound_to 10162
  157.5711  130.8311  149.8393 LP  0  0  0  0  0  0  0  0  0  0  0  0  # atno 17370 bound_to 10713
  156.0356  130.3752  150.1570 LP  0  0  0  0  0  0  0  0  0  0  0  0  # atno 17371 bound_to 10713
  140.6805  134.4772  157.5589 LP  0  0  0  0  0  0  0  0  0  0  0  0  # atno 17394 bound_to 11000
  139.9066  134.8436  156.1684 LP  0  0  0  0  0  0  0  0  0  0  0  0  # atno 17395 bound_to 11000

$$$$
