AV-unprocessed.smi:2568|AV-procd|sdf|10091|dock2
  -GOLD-   2272014113D 1   1.00000     0.00000
 Structure written by MMmdl.
 24 25  0  0  0  0  0  0  0  0  1 V2000
  153.3970  142.8956  163.2740 C   0  0  0  0  0  0  0  0  0  0  0  0
  153.1513  142.3719  161.8997 C   0  0  0  0  0  0  0  0  0  0  0  0
  154.0890  141.7198  161.2105 N   0  0  0  0  0  0  0  0  0  0  0  0
  153.5899  141.3574  160.0099 N   0  0  0  0  0  0  0  0  0  0  0  0
  152.3530  141.8516  160.0609 C   0  0  0  0  0  0  0  0  0  0  0  0
  151.3975  141.6451  158.9263 C   0  0  1  0  0  0  0  0  0  0  0  0
  150.8258  142.9761  158.3994 C   0  0  0  0  0  0  0  0  0  0  0  0
  149.9782  142.7367  157.2318 N   0  0  0  0  0  0  0  0  0  0  0  0
  150.7009  141.9983  156.1971 C   0  0  0  0  0  0  0  0  0  0  0  0
  151.2828  140.6953  156.7752 C   0  0  0  0  0  0  0  0  0  0  0  0
  152.1230  140.9968  157.8840 O   0  0  0  0  0  0  0  0  0  0  0  0
  152.0113  142.4829  161.2272 N   0  0  0  0  0  0  0  0  0  0  0  0
  155.0307  141.5038  161.5051 H   0  0  0  0  0  0  0  0  0  0  0  0
  152.5315  143.4559  163.6292 H   0  0  0  0  0  0  0  0  0  0  0  0
  154.2637  143.5569  163.2742 H   0  0  0  0  0  0  0  0  0  0  0  0
  153.5837  142.0700  163.9610 H   0  0  0  0  0  0  0  0  0  0  0  0
  150.5886  140.9933  159.2635 H   0  0  0  0  0  0  0  0  0  0  0  0
  150.2534  143.4759  159.1810 H   0  0  0  0  0  0  0  0  0  0  0  0
  151.6428  143.6469  158.1305 H   0  0  0  0  0  0  0  0  0  0  0  0
  149.6582  143.6237  156.8561 H   0  0  0  0  0  0  0  0  0  0  0  0
  150.0352  141.7742  155.3635 H   0  0  0  0  0  0  0  0  0  0  0  0
  151.5080  142.6135  155.7972 H   0  0  0  0  0  0  0  0  0  0  0  0
  150.4876  140.0126  157.0794 H   0  0  0  0  0  0  0  0  0  0  0  0
  151.8723  140.1795  156.0171 H   0  0  0  0  0  0  0  0  0  0  0  0
  1 14  1  0  0  0  0
  1 15  1  0  0  0  0
  1 16  1  0  0  0  0
  1  2  1  0  0  0  0
  2 12  2  0  0  0  0
  2  3  1  0  0  0  0
  3  4  1  0  0  0  0
  3 13  1  0  0  0  0
  4  5  2  0  0  0  0
  5 12  1  0  0  0  0
  5  6  1  0  0  0  0
  6 11  1  0  0  0  0
  6  7  1  0  0  0  0
  6 17  1  0  0  0  0
  7  8  1  0  0  0  0
  7 18  1  0  0  0  0
  7 19  1  0  0  0  0
  8  9  1  0  0  0  0
  8 20  1  0  0  0  0
  9 10  1  0  0  0  0
  9 21  1  0  0  0  0
  9 22  1  0  0  0  0
 10 11  1  0  0  0  0
 10 23  1  0  0  0  0
 10 24  1  0  0  0  0
M  END
> <s_m_source_file>
AV-unprocessed.smi

> <i_m_source_file_index>
2568

> <i_lp_mmshare_version>
43012

> <i_f3d_flags>
0

> <s_epik_input>
W0NIM11jMW5bbkhdYyhuMSlbQ0BASF0yW0NIMl1bTkhdW0NIMl1bQ0gyXU8y

> <s_epik_cmdline>
J2VwaWtfcHl0aG9uJywgJy1waCcsICc3LjAnLCAnLXRuJywgJzgnLCAnLW1hJywgJzIwMCcsICctbWV0YWxfYmluZGluZycsICctaW1hZScsICc8aW5maWxlLm1hZT4nLCAnLW9tYWUnLCAnPG91dGZpbGUubWFlPic=

> <r_epik_Ionization_Penalty>
1.10101

> <r_epik_Ionization_Penalty_Charging>
0

> <r_epik_Ionization_Penalty_Neutral>
1.10101

> <r_epik_State_Penalty>
1.26524

> <r_epik_Charging_Adjusted_Penalty>
1.26524

> <i_epik_Tot_Q>
0

> <i_epik_Tot_abs_Q>
0

> <r_epik_Metal_State_Penalty>
1.56429

> <b_epik_Metal_Only>
0

> <s_lp_Force_Field>
OPLS_2005

> <r_lp_Energy>
12.1745

> <b_lp_Chiralities_Consistent>
1

> <s_lp_Variant>
AV-unprocessed.smi:2568-4

> <Gold.Version>
5.8.1

> <Gold.Id.Protein>
6NUR|6NUR_protein|mol2

> <Gold.PLP.Fitness>
28.8494

> <Gold.PLP.PLP>
-25.4454

> <Gold.PLP.part.hbond>
-2.5941

> <Gold.PLP.part.metal>
0.0000

> <Gold.PLP.part.buried>
-5.0471

> <Gold.PLP.part.nonpolar>
-18.2778

> <Gold.PLP.part.repulsive>
0.0741

> <Gold.PLP.ligand.clash>
0.0000

> <Gold.PLP.ligand.torsion>
0.0297

> <Gold.PLP.Chemscore.Hbond>
1.1503

> <Gold.PLP.Chemscore.CHOScore>
0.0000

> <Gold.PLP.Chemscore.Metal>
0.0000

> <Gold.Chemscore.Hbonds>
donor molecule, donor type, donor heavy atom, donor atom, acceptor molecule, acceptor atom, score
      L1  H     8    20       P1  8028  1.00
      P1  H  6933  6945       L1    12  0.15

> <Gold.PLP.Chemscore.Internal.Correction>
0.0126

> <Gold.Rescore>
     Score         DG    S(hbond)    S(metal)    S(lipo)     H(rot)  DE(clash)    DE(int)     intcor
     12.47     -12.55       1.44        0.00      41.14       1.00       0.06       0.02       ----

> <Gold.Chemscore.Fitness>
12.4651

> <Gold.Chemscore.DG>
-12.5460

> <Gold.Chemscore.ZeroCoef>
-5.4800

> <Gold.Chemscore.Hbond>
1.4409

> <Gold.Chemscore.Metal>
0.0000

> <Gold.Chemscore.Lipo>
41.1408

> <Gold.Chemscore.Internal_Hbond>
0.0000

> <Gold.Chemscore.DEClash>
0.0568

> <Gold.Chemscore.DEInternal>
0.0241

> <Gold.Chemscore.Rot>
1.0000

> <Gold.Chemscore.Internal.Correction>
   9.000000E+99

> <Gold.Chemscore.Hbonds>
donor molecule, donor type, donor heavy atom, donor atom, acceptor molecule, acceptor atom, score
      L1  H     8    20       P1  8028  0.97
      P1  H  6933  6945       L1    12  0.14

> <Gold.Chemscore.Hbond.Weighted>
-4.8125

> <Gold.Chemscore.Metal.Weighted>
-0.0000

> <Gold.Chemscore.Lipo.Weighted>
-4.8135

> <Gold.Chemscore.Internal_Hbond.Weighted>
0.0000

> <Gold.Chemscore.DEClash.Weighted>
0.0568

> <Gold.Chemscore.DEInternal.Weighted>
0.0241

> <Gold.Chemscore.Rot.Weighted>
2.5600

> <Gold.Chemscore.Internal.Correction.Weighted>
   9.000000E+99

> <Gold.Protein.RotatedTorsions>
[ 6907 6896 6895 6894 ] final  -14.93 input  -60.11 | X-H torsion
[ 7974 7965 7964 7962 ] final  -62.65 input  175.53 | X-H torsion
[ 8008 7997 7996 7995 ] final  141.84 input   59.86 | X-H torsion
[ 10167 10162 10161 10158 ] final   15.66 input  -65.29 | X-H torsion
[ 10718 10713 10712 10709 ] final  159.41 input   66.30 | X-H torsion
[ 10763 10752 10751 10750 ] final -171.86 input  -60.55 | X-H torsion
[ 11005 11000 10999 10996 ] final   -4.73 input  -57.11 | X-H torsion

> <Gold.Protein.ActiveResidues>
 VAL166  LYS551  ARG553  GLY616  TRP617  ASP618  TYR619  PRO620  LYS621  CYS622 
 ASP623  PHE694  ASN695  SER759  ASP760  ASP761  ALA762  ILE779  LEU786  VAL792 
 PHE793  MET794  SER795  GLU796  ALA797  LYS798  CYS799  TRP800  GLU811  SER814 

> <Gold.Protein.RotatedAtoms>
  151.3318  135.0843  159.9341 H   0  0  0  0  0  0  0  0  0  0  0  0  # atno 6907 bound_to 6896
  152.5232  133.9535  159.7693 H   0  0  0  0  0  0  0  0  0  0  0  0  # atno 6908 bound_to 6896
  150.9875  133.6130  159.2743 H   0  0  0  0  0  0  0  0  0  0  0  0  # atno 6909 bound_to 6896
  145.7887  140.8722  143.0292 H   0  0  0  0  0  0  0  0  0  0  0  0  # atno 7974 bound_to 7965
  156.2959  140.2304  156.4631 H   0  0  0  0  0  0  0  0  0  0  0  0  # atno 8008 bound_to 7997
  154.8001  140.0449  157.1287 H   0  0  0  0  0  0  0  0  0  0  0  0  # atno 8009 bound_to 7997
  154.9544  140.3046  155.5063 H   0  0  0  0  0  0  0  0  0  0  0  0  # atno 8010 bound_to 7997
  140.5852  143.8904  150.6824 H   0  0  0  0  0  0  0  0  0  0  0  0  # atno 10167 bound_to 10162
  157.1646  131.0595  151.2214 H   0  0  0  0  0  0  0  0  0  0  0  0  # atno 10718 bound_to 10713
  154.6258  135.2880  155.0273 H   0  0  0  0  0  0  0  0  0  0  0  0  # atno 10763 bound_to 10752
  154.1452  135.6512  153.4955 H   0  0  0  0  0  0  0  0  0  0  0  0  # atno 10764 bound_to 10752
  153.0257  135.5342  154.7066 H   0  0  0  0  0  0  0  0  0  0  0  0  # atno 10765 bound_to 10752
  140.6835  133.9133  155.8570 H   0  0  0  0  0  0  0  0  0  0  0  0  # atno 11005 bound_to 11000
  144.6785  140.0092  143.7484 LP  0  0  0  0  0  0  0  0  0  0  0  0  # atno 17320 bound_to 7965
  145.9999  139.3083  143.0934 LP  0  0  0  0  0  0  0  0  0  0  0  0  # atno 17321 bound_to 7965
  140.2413  143.3662  152.1484 LP  0  0  0  0  0  0  0  0  0  0  0  0  # atno 17342 bound_to 10162
  139.5193  144.7018  151.5471 LP  0  0  0  0  0  0  0  0  0  0  0  0  # atno 17343 bound_to 10162
  157.4100  130.7380  149.6832 LP  0  0  0  0  0  0  0  0  0  0  0  0  # atno 17370 bound_to 10713
  155.9748  130.4098  150.3896 LP  0  0  0  0  0  0  0  0  0  0  0  0  # atno 17371 bound_to 10713
  141.0299  134.0771  157.4026 LP  0  0  0  0  0  0  0  0  0  0  0  0  # atno 17394 bound_to 11000
  139.8944  135.0136  156.6952 LP  0  0  0  0  0  0  0  0  0  0  0  0  # atno 17395 bound_to 11000

$$$$
