AV-unprocessed.smi:3155|AV-procd|sdf|12027|dock10
  -GOLD-   2272017443D 1   1.00000     0.00000
 Structure written by MMmdl.
 37 38  0  0  0  0  0  0  0  0  1 V2000
  152.3585  138.7679  154.9220 C   0  0  0  0  0  0  0  0  0  0  0  0
  151.0460  139.5265  155.1650 C   0  0  2  0  0  0  0  0  0  0  0  0
  150.0852  139.3496  153.9656 C   0  0  0  0  0  0  0  0  0  0  0  0
  148.9322  140.2326  153.9961 N   0  0  0  0  0  0  0  0  0  0  0  0
  147.5960  139.8938  154.0387 C   0  0  0  0  0  0  0  0  0  0  0  0
  146.8815  141.0567  154.0684 C   0  0  0  0  0  0  0  0  0  0  0  0
  147.8823  142.0680  154.0598 C   0  0  0  0  0  0  0  0  0  0  0  0
  149.1084  141.5718  154.0258 N   0  0  0  0  0  0  0  0  0  0  0  0
  151.3965  140.9315  155.3556 N   0  0  0  0  0  0  0  0  0  0  0  0
  150.5969  141.5889  156.3973 C   0  0  0  0  0  0  0  0  0  0  0  0
  151.2162  141.4009  157.7863 C   0  0  0  0  0  0  0  0  0  0  0  0
  151.3802  140.2567  158.2105 O   0  0  0  0  0  0  0  0  0  0  0  0
  151.5606  142.4918  158.5035 N   0  0  0  0  0  0  0  0  0  0  0  0
  151.3934  143.8600  158.0175 C   0  0  0  0  0  0  0  0  0  0  0  0
  152.1496  144.7462  159.0072 C   0  0  0  0  0  0  0  0  0  0  0  0
  152.1399  143.9475  160.3028 C   0  0  0  0  0  0  0  0  0  0  0  0
  152.1469  142.4897  159.8434 C   0  0  0  0  0  0  0  0  0  0  0  0
  152.1744  137.7011  154.7920 H   0  0  0  0  0  0  0  0  0  0  0  0
  153.0414  138.8801  155.7650 H   0  0  0  0  0  0  0  0  0  0  0  0
  152.8700  139.1267  154.0281 H   0  0  0  0  0  0  0  0  0  0  0  0
  150.5993  139.1144  156.0716 H   0  0  0  0  0  0  0  0  0  0  0  0
  150.6176  139.5003  153.0253 H   0  0  0  0  0  0  0  0  0  0  0  0
  149.7089  138.3259  153.9428 H   0  0  0  0  0  0  0  0  0  0  0  0
  147.2680  138.8647  154.0374 H   0  0  0  0  0  0  0  0  0  0  0  0
  145.8078  141.1684  154.0968 H   0  0  0  0  0  0  0  0  0  0  0  0
  147.7551  143.1403  154.0804 H   0  0  0  0  0  0  0  0  0  0  0  0
  151.3426  141.4173  154.4721 H   0  0  0  0  0  0  0  0  0  0  0  0
  150.4773  142.6498  156.1844 H   0  0  0  0  0  0  0  0  0  0  0  0
  149.5933  141.1607  156.4081 H   0  0  0  0  0  0  0  0  0  0  0  0
  151.7742  143.9858  157.0026 H   0  0  0  0  0  0  0  0  0  0  0  0
  150.3309  144.1075  158.0143 H   0  0  0  0  0  0  0  0  0  0  0  0
  153.1779  144.8775  158.6678 H   0  0  0  0  0  0  0  0  0  0  0  0
  151.7046  145.7358  159.1153 H   0  0  0  0  0  0  0  0  0  0  0  0
  152.9787  144.1889  160.9562 H   0  0  0  0  0  0  0  0  0  0  0  0
  151.2195  144.1536  160.8506 H   0  0  0  0  0  0  0  0  0  0  0  0
  151.5891  141.8614  160.5382 H   0  0  0  0  0  0  0  0  0  0  0  0
  153.1696  142.1143  159.7852 H   0  0  0  0  0  0  0  0  0  0  0  0
  1  2  1  0  0  0  0
  1 18  1  0  0  0  0
  1 19  1  0  0  0  0
  1 20  1  0  0  0  0
  2  3  1  0  0  0  0
  2  9  1  0  0  0  0
  2 21  1  0  0  0  0
  3  4  1  0  0  0  0
  3 22  1  0  0  0  0
  3 23  1  0  0  0  0
  4  8  1  0  0  0  0
  4  5  1  0  0  0  0
  5  6  2  0  0  0  0
  5 24  1  0  0  0  0
  6  7  1  0  0  0  0
  6 25  1  0  0  0  0
  7  8  2  0  0  0  0
  7 26  1  0  0  0  0
  9 10  1  0  0  0  0
  9 27  1  0  0  0  0
 10 11  1  0  0  0  0
 10 28  1  0  0  0  0
 10 29  1  0  0  0  0
 11 12  2  0  0  0  0
 11 13  1  0  0  0  0
 13 17  1  0  0  0  0
 13 14  1  0  0  0  0
 14 15  1  0  0  0  0
 14 30  1  0  0  0  0
 14 31  1  0  0  0  0
 15 16  1  0  0  0  0
 15 32  1  0  0  0  0
 15 33  1  0  0  0  0
 16 17  1  0  0  0  0
 16 34  1  0  0  0  0
 16 35  1  0  0  0  0
 17 36  1  0  0  0  0
 17 37  1  0  0  0  0
M  END
> <s_m_source_file>
AV-unprocessed.smi

> <i_m_source_file_index>
3155

> <i_lp_mmshare_version>
43012

> <i_f3d_flags>
0

> <s_epik_input>
bjFbY0hdW2NIXVtjSF1uMVtDSDJdW0NAQEhdKFtDSDNdKVtOSF1bQ0gyXUMoPU8pTjJbQ0gyXVtDSDJdW0NIMl1bQ0gyXTI=

> <s_epik_cmdline>
J2VwaWtfcHl0aG9uJywgJy1waCcsICc3LjAnLCAnLXRuJywgJzgnLCAnLW1hJywgJzIwMCcsICctbWV0YWxfYmluZGluZycsICctaW1hZScsICc8aW5maWxlLm1hZT4nLCAnLW9tYWUnLCAnPG91dGZpbGUubWFlPic=

> <r_lp_tautomer_probability>
1

> <r_epik_Ionization_Penalty>
1.00455

> <r_epik_Ionization_Penalty_Charging>
0

> <r_epik_Ionization_Penalty_Neutral>
1.00455

> <r_epik_State_Penalty>
1.05336

> <r_epik_Charging_Adjusted_Penalty>
1.05336

> <i_epik_Tot_Q>
0

> <i_epik_Tot_abs_Q>
0

> <r_epik_Metal_State_Penalty>
1.05331

> <b_epik_Metal_Only>
0

> <s_lp_Force_Field>
OPLS_2005

> <r_lp_Energy>
30.8586

> <b_lp_Chiralities_Consistent>
1

> <s_lp_Variant>
AV-unprocessed.smi:3155-3

> <Gold.Version>
5.8.1

> <Gold.Id.Protein>
6NUR|6NUR_protein|mol2

> <Gold.PLP.Fitness>
45.0004

> <Gold.PLP.PLP>
-42.0006

> <Gold.PLP.part.hbond>
-2.4662

> <Gold.PLP.part.metal>
0.0000

> <Gold.PLP.part.buried>
-0.7795

> <Gold.PLP.part.nonpolar>
-37.9422

> <Gold.PLP.part.repulsive>
0.1807

> <Gold.PLP.ligand.clash>
0.0000

> <Gold.PLP.ligand.torsion>
0.7496

> <Gold.PLP.Chemscore.Hbond>
0.5925

> <Gold.PLP.Chemscore.CHOScore>
0.8961

> <Gold.PLP.Chemscore.Metal>
0.0000

> <Gold.Chemscore.Hbonds>
donor molecule, donor type, donor heavy atom, donor atom, acceptor molecule, acceptor atom, score
      P1  H  8011  8017       L1     8  0.64
      L1  C     7    26       P1  8028  0.95

> <Gold.PLP.Chemscore.Internal.Correction>
0.0332

> <Gold.Rescore>
     Score         DG    S(hbond)    S(metal)    S(lipo)     H(rot)  DE(clash)    DE(int)     intcor
     12.29     -14.32       0.53        0.00      99.07       1.77       1.06       0.96       ----

> <Gold.Chemscore.Fitness>
12.2868

> <Gold.Chemscore.DG>
-14.3164

> <Gold.Chemscore.ZeroCoef>
-5.4800

> <Gold.Chemscore.Hbond>
0.5314

> <Gold.Chemscore.Metal>
0.0000

> <Gold.Chemscore.Lipo>
99.0675

> <Gold.Chemscore.Internal_Hbond>
0.0000

> <Gold.Chemscore.DEClash>
1.0649

> <Gold.Chemscore.DEInternal>
0.9647

> <Gold.Chemscore.Rot>
1.7693

> <Gold.Chemscore.Internal.Correction>
   9.000000E+99

> <Gold.Chemscore.Hbonds>
donor molecule, donor type, donor heavy atom, donor atom, acceptor molecule, acceptor atom, score
      P1  H  8011  8017       L1     8  0.15

> <Gold.Chemscore.Hbond.Weighted>
-1.7749

> <Gold.Chemscore.Metal.Weighted>
-0.0000

> <Gold.Chemscore.Lipo.Weighted>
-11.5909

> <Gold.Chemscore.Internal_Hbond.Weighted>
0.0000

> <Gold.Chemscore.DEClash.Weighted>
1.0649

> <Gold.Chemscore.DEInternal.Weighted>
0.9647

> <Gold.Chemscore.Rot.Weighted>
4.5294

> <Gold.Chemscore.Internal.Correction.Weighted>
   9.000000E+99

> <Gold.Protein.RotatedTorsions>
[ 6907 6896 6895 6894 ] final   22.14 input  -60.11 | X-H torsion
[ 7974 7965 7964 7962 ] final   -5.53 input  175.53 | X-H torsion
[ 8008 7997 7996 7995 ] final   15.41 input   59.86 | X-H torsion
[ 10167 10162 10161 10158 ] final   24.19 input  -65.29 | X-H torsion
[ 10718 10713 10712 10709 ] final  -48.41 input   66.30 | X-H torsion
[ 10763 10752 10751 10750 ] final  152.50 input  -60.55 | X-H torsion
[ 11005 11000 10999 10996 ] final   47.64 input  -57.11 | X-H torsion

> <Gold.Protein.ActiveResidues>
 VAL166  LYS551  ARG553  GLY616  TRP617  ASP618  TYR619  PRO620  LYS621  CYS622 
 ASP623  PHE694  ASN695  SER759  ASP760  ASP761  ALA762  ILE779  LEU786  VAL792 
 PHE793  MET794  SER795  GLU796  ALA797  LYS798  CYS799  TRP800  GLU811  SER814 

> <Gold.Protein.RotatedAtoms>
  151.9225  135.0292  160.0522 H   0  0  0  0  0  0  0  0  0  0  0  0  # atno 6907 bound_to 6896
  152.2187  133.4962  159.5158 H   0  0  0  0  0  0  0  0  0  0  0  0  # atno 6908 bound_to 6896
  150.6994  134.1288  159.4104 H   0  0  0  0  0  0  0  0  0  0  0  0  # atno 6909 bound_to 6896
  146.2351  140.2035  142.8334 H   0  0  0  0  0  0  0  0  0  0  0  0  # atno 7974 bound_to 7965
  154.8623  140.2946  155.5531 H   0  0  0  0  0  0  0  0  0  0  0  0  # atno 8008 bound_to 7997
  156.3020  140.2476  156.3532 H   0  0  0  0  0  0  0  0  0  0  0  0  # atno 8009 bound_to 7997
  154.8905  140.0394  157.1825 H   0  0  0  0  0  0  0  0  0  0  0  0  # atno 8010 bound_to 7997
  140.5208  144.0006  150.6416 H   0  0  0  0  0  0  0  0  0  0  0  0  # atno 10167 bound_to 10162
  156.1990  130.4155  149.9266 H   0  0  0  0  0  0  0  0  0  0  0  0  # atno 10718 bound_to 10713
  154.1211  135.2833  155.3208 H   0  0  0  0  0  0  0  0  0  0  0  0  # atno 10763 bound_to 10752
  154.6423  135.5398  153.7807 H   0  0  0  0  0  0  0  0  0  0  0  0  # atno 10764 bound_to 10752
  153.0313  135.6489  154.1365 H   0  0  0  0  0  0  0  0  0  0  0  0  # atno 10765 bound_to 10752
  140.1261  134.4766  155.8558 H   0  0  0  0  0  0  0  0  0  0  0  0  # atno 11005 bound_to 11000
  144.9763  140.8417  143.5424 LP  0  0  0  0  0  0  0  0  0  0  0  0  # atno 17320 bound_to 7965
  145.2022  139.2246  143.5187 LP  0  0  0  0  0  0  0  0  0  0  0  0  # atno 17321 bound_to 7965
  140.3354  143.3052  152.0644 LP  0  0  0  0  0  0  0  0  0  0  0  0  # atno 17342 bound_to 10162
  139.4923  144.6480  151.6737 LP  0  0  0  0  0  0  0  0  0  0  0  0  # atno 17343 bound_to 10162
  156.6982  130.8922  151.3596 LP  0  0  0  0  0  0  0  0  0  0  0  0  # atno 17370 bound_to 10713
  157.6975  130.9297  150.0686 LP  0  0  0  0  0  0  0  0  0  0  0  0  # atno 17371 bound_to 10713
  141.2161  133.6778  156.6982 LP  0  0  0  0  0  0  0  0  0  0  0  0  # atno 17394 bound_to 11000
  140.2902  134.8247  157.4010 LP  0  0  0  0  0  0  0  0  0  0  0  0  # atno 17395 bound_to 11000

$$$$
