#       Name:                AV-unprocessed.smi:2556
#       Creating user name   scv26
#       Creation time:       Fri Mar 27 14:07:12 2020


#       File generated by GOLD software.
#

@<TRIPOS>MOLECULE
AV-unprocessed.smi:2556
    42    44     1
SMALL
NO_CHARGES


@<TRIPOS>ATOM
      1 ****        -2.5355   4.9209  -0.5072 C.3            1 S1                 0.0000
      2 ****        -2.0136   3.6547  -1.0304 N.am           1 S1                 0.0000
      3 ****        -1.8204   3.4197  -2.3691 C.2            1 S1                 0.0000
      4 ****        -2.0910   4.3134  -3.1716 O.2            1 S1                 0.0000
      5 ****        -1.3304   2.1995  -2.7875 N.pl3          1 S1                -1.0000
      6 ****        -0.9935   1.1451  -1.9787 C.2            1 S1                 0.0000
      7 ****        -0.5591   0.0492  -2.3296 O.2            1 S1                 0.0000
      8 ****        -1.2066   1.4549  -0.5513 C.2            1 S1                 0.0000
      9 ****        -1.6904   2.6405  -0.0904 C.2            1 S1                 0.0000
     10 ****        -1.7842   2.6492   1.2971 N.2            1 S1                 0.0000
     11 ****        -1.3382   1.4322   1.6105 C.2            1 S1                 0.0000
     12 ****        -0.9722   0.6582   0.5684 N.pl3          1 S1                 0.0000
     13 ****        -0.4541  -0.6988   0.6425 C.3            1 S1                 0.0000
     14 ****         1.0782  -0.7586   0.4861 C.3            1 S1                 0.0000
     15 ****         1.6971   0.0148   1.4971 O.3            1 S1                 0.0000
     16 ****         1.5739  -2.1963   0.4704 C.ar           1 S1                 0.0000
     17 ****         1.7731  -2.9069   1.6752 C.ar           1 S1                 0.0000
     18 ****         2.2239  -4.2411   1.6463 C.ar           1 S1                 0.0000
     19 ****         2.4745  -4.8738   0.4135 C.ar           1 S1                 0.0000
     20 ****         2.2713  -4.1723  -0.7904 C.ar           1 S1                 0.0000
     21 ****         1.8210  -2.8380  -0.7620 C.ar           1 S1                 0.0000
     22 ****        -2.8240   5.6410  -1.2733 H              1 S1                 0.0000
     23 ****        -1.7848   5.3972   0.1239 H              1 S1                 0.0000
     24 ****        -3.4178   4.7329   0.1052 H              1 S1                 0.0000
     25 ****        -1.2714   1.0925   2.6337 H              1 S1                 0.0000
     26 ****        -0.7528  -1.1325   1.5979 H              1 S1                 0.0000
     27 ****        -0.9421  -1.2972  -0.1273 H              1 S1                 0.0000
     28 ****         1.3565  -0.2979  -0.4622 H              1 S1                 0.0000
     29 ****         2.6197   0.0754   1.3018 H              1 S1                 0.0000
     30 ****         1.5781  -2.4328   2.6261 H              1 S1                 0.0000
     31 ****         2.3754  -4.7796   2.5700 H              1 S1                 0.0000
     32 ****         2.8192  -5.8972   0.3914 H              1 S1                 0.0000
     33 ****         2.4590  -4.6578  -1.7366 H              1 S1                 0.0000
     34 ****         1.6625  -2.3090  -1.6908 H              1 S1                 0.0000
     35 ****        -2.4441   5.1896  -2.8438 LP             1 S1                 0.0000
     36 ****        -1.9577   4.1629  -4.1512 LP             1 S1                 0.0000
     37 ****        -1.2099   2.0725  -3.7720 LP             1 S1                 0.0000
     38 ****        -0.4179  -0.1452  -3.3003 LP             1 S1                 0.0000
     39 ****        -0.3472  -0.6475  -1.6441 LP             1 S1                 0.0000
     40 ****        -2.1032   3.3784   1.9024 LP             1 S1                 0.0000
     41 ****         1.5678  -0.4250   2.3859 LP             1 S1                 0.0000
     42 ****         1.2948   0.9301   1.5165 LP             1 S1                 0.0000
@<TRIPOS>BOND
    1    1    2 1     
    2    1   22 1     
    3    1   23 1     
    4    1   24 1     
    5    2    9 1     
    6    2    3 am    
    7    3    4 2     
    8    3    5 1     
    9    5    6 1     
   10    6    7 2     
   11    6    8 1     
   12    8   12 1     
   13    8    9 2     
   14    9   10 1     
   15   10   11 2     
   16   11   12 1     
   17   11   25 1     
   18   12   13 1     
   19   13   14 1     
   20   13   26 1     
   21   13   27 1     
   22   14   15 1     
   23   14   16 1     
   24   14   28 1     
   25   15   29 1     
   26   16   21 ar    
   27   16   17 ar    
   28   17   18 ar    
   29   17   30 1     
   30   18   19 ar    
   31   18   31 1     
   32   19   20 ar    
   33   19   32 1     
   34   20   21 ar    
   35   20   33 1     
   36   21   34 1     
   37    4   35 1     
   38    4   36 1     
   39    5   37 1     
   40    7   38 1     
   41    7   39 1     
   42   10   40 1     
   43   15   41 1     
   44   15   42 1     
@<TRIPOS>SUBSTRUCTURE
      1 S1             1
@<TRIPOS>SET
LONE_PAIRS      STATIC     ATOMS    <user>   **** ""
8 35 36 37 38 39 40 41 42
DONOR_HYDROGENS      STATIC     ATOMS    <user>   **** ""
1 29
ATOM$BLUE        STATIC     ATOMS    COLORGROUP SYSTEM
8 35 36 37 38 39 40 41 42
ATOM$RED        STATIC     ATOMS    COLORGROUP SYSTEM
1 29
