AV-unprocessed.smi:661|AV-procd|sdf|3241|dock7
  -GOLD-   22720 0193D 1   1.00000     0.00000
 Structure written by MMmdl.
 30 31  0  0  0  0  0  0  0  0  1 V2000
  151.0010  141.4506  156.2036 C   0  0  0  0  0  0  0  0  0  0  0  0
  150.3267  142.4366  157.0286 N   0  0  0  0  0  0  0  0  0  0  0  0
  151.2777  143.4504  157.4538 C   0  0  0  0  0  0  0  0  0  0  0  0
  151.9492  143.0957  158.7443 C   0  0  0  0  0  0  0  0  0  0  0  0
  152.7459  142.0316  158.8489 N   0  0  0  0  0  0  0  0  0  0  0  0
  153.1363  142.0732  160.1732 C   0  0  0  0  0  0  0  0  0  0  0  0
  153.9849  141.2147  160.9082 C   0  0  0  0  0  0  0  0  0  0  0  0
  154.2391  141.4599  162.2736 C   0  0  0  0  0  0  0  0  0  0  0  0
  153.6495  142.5641  162.9224 C   0  0  0  0  0  0  0  0  0  0  0  0
  152.8013  143.4323  162.2084 C   0  0  0  0  0  0  0  0  0  0  0  0
  152.5518  143.1836  160.8455 C   0  0  0  0  0  0  0  0  0  0  0  0
  151.7849  143.8245  159.8779 N   0  0  0  0  0  0  0  0  0  0  0  0
  150.9812  145.0206  160.0810 C   0  0  0  0  0  0  0  0  0  0  0  0
  149.4799  144.7016  160.0708 C   0  0  0  0  0  0  0  0  0  0  0  0
  148.7388  145.9019  160.0837 O   0  0  0  0  0  0  0  0  0  0  0  0
  150.2932  140.6829  155.8907 H   0  0  0  0  0  0  0  0  0  0  0  0
  151.8065  140.9651  156.7560 H   0  0  0  0  0  0  0  0  0  0  0  0
  151.4193  141.9123  155.3084 H   0  0  0  0  0  0  0  0  0  0  0  0
  149.9518  141.9765  157.8461 H   0  0  0  0  0  0  0  0  0  0  0  0
  152.0392  143.5729  156.6823 H   0  0  0  0  0  0  0  0  0  0  0  0
  150.7829  144.4161  157.5600 H   0  0  0  0  0  0  0  0  0  0  0  0
  154.4411  140.3661  160.4207 H   0  0  0  0  0  0  0  0  0  0  0  0
  154.8891  140.7970  162.8256 H   0  0  0  0  0  0  0  0  0  0  0  0
  153.8488  142.7440  163.9688 H   0  0  0  0  0  0  0  0  0  0  0  0
  152.3468  144.2786  162.7019 H   0  0  0  0  0  0  0  0  0  0  0  0
  151.2646  145.4638  161.0366 H   0  0  0  0  0  0  0  0  0  0  0  0
  151.2211  145.7613  159.3189 H   0  0  0  0  0  0  0  0  0  0  0  0
  149.2096  144.1277  159.1844 H   0  0  0  0  0  0  0  0  0  0  0  0
  149.2051  144.1062  160.9420 H   0  0  0  0  0  0  0  0  0  0  0  0
  148.5846  146.1688  159.1903 H   0  0  0  0  0  0  0  0  0  0  0  0
  1  2  1  0  0  0  0
  1 16  1  0  0  0  0
  1 17  1  0  0  0  0
  1 18  1  0  0  0  0
  2  3  1  0  0  0  0
  2 19  1  0  0  0  0
  3  4  1  0  0  0  0
  3 20  1  0  0  0  0
  3 21  1  0  0  0  0
  4 12  1  0  0  0  0
  4  5  2  0  0  0  0
  5  6  1  0  0  0  0
  6 11  2  0  0  0  0
  6  7  1  0  0  0  0
  7  8  2  0  0  0  0
  7 22  1  0  0  0  0
  8  9  1  0  0  0  0
  8 23  1  0  0  0  0
  9 10  2  0  0  0  0
  9 24  1  0  0  0  0
 10 11  1  0  0  0  0
 10 25  1  0  0  0  0
 11 12  1  0  0  0  0
 12 13  1  0  0  0  0
 13 14  1  0  0  0  0
 13 26  1  0  0  0  0
 13 27  1  0  0  0  0
 14 15  1  0  0  0  0
 14 28  1  0  0  0  0
 14 29  1  0  0  0  0
 15 30  1  0  0  0  0
M  END
> <s_m_source_file>
AV-unprocessed.smi

> <i_m_source_file_index>
661

> <i_lp_mmshare_version>
43012

> <i_f3d_flags>
0

> <s_epik_input>
W0NIM11bTkhdW0NIMl1jKG4xKW4oW0NIMl1bQ0gyXVtPSF0pYyhjMTIpW2NIXVtjSF1bY0hdW2NIXTI=

> <s_epik_cmdline>
J2VwaWtfcHl0aG9uJywgJy1waCcsICc3LjAnLCAnLXRuJywgJzgnLCAnLW1hJywgJzIwMCcsICctbWV0YWxfYmluZGluZycsICctaW1hZScsICc8aW5maWxlLm1hZT4nLCAnLW9tYWUnLCAnPG91dGZpbGUubWFlPic=

> <r_epik_Ionization_Penalty>
1.98932

> <r_epik_Ionization_Penalty_Charging>
0

> <r_epik_Ionization_Penalty_Neutral>
1.98932

> <r_epik_State_Penalty>
1.95598

> <r_epik_Charging_Adjusted_Penalty>
1.95598

> <i_epik_Tot_Q>
0

> <i_epik_Tot_abs_Q>
0

> <r_epik_Metal_State_Penalty>
1.80219

> <b_epik_Metal_Only>
0

> <s_lp_Force_Field>
OPLS_2005

> <r_lp_Energy>
9.98392

> <b_lp_Chiralities_Consistent>
1

> <s_lp_Variant>
AV-unprocessed.smi:661-2

> <Gold.Version>
5.8.1

> <Gold.Id.Protein>
6NUR|6NUR_protein|mol2

> <Gold.PLP.Fitness>
45.0045

> <Gold.PLP.PLP>
-42.6843

> <Gold.PLP.part.hbond>
-3.0000

> <Gold.PLP.part.metal>
0.0000

> <Gold.PLP.part.buried>
-2.1382

> <Gold.PLP.part.nonpolar>
-35.3216

> <Gold.PLP.part.repulsive>
0.0000

> <Gold.PLP.ligand.clash>
0.0000

> <Gold.PLP.ligand.torsion>
0.3443

> <Gold.PLP.Chemscore.Hbond>
1.0000

> <Gold.PLP.Chemscore.CHOScore>
0.0000

> <Gold.PLP.Chemscore.Metal>
0.0000

> <Gold.Chemscore.Hbonds>
donor molecule, donor type, donor heavy atom, donor atom, acceptor molecule, acceptor atom, score
      L1  H    15    30       P1  8029  1.00

> <Gold.PLP.Chemscore.Internal.Correction>
0.0088

> <Gold.Rescore>
     Score         DG    S(hbond)    S(metal)    S(lipo)     H(rot)  DE(clash)    DE(int)     intcor
     13.59     -14.01       1.00        0.00      94.84       2.30       0.07       0.35       ----

> <Gold.Chemscore.Fitness>
13.5871

> <Gold.Chemscore.DG>
-14.0083

> <Gold.Chemscore.ZeroCoef>
-5.4800

> <Gold.Chemscore.Hbond>
0.9966

> <Gold.Chemscore.Metal>
0.0000

> <Gold.Chemscore.Lipo>
94.8352

> <Gold.Chemscore.Internal_Hbond>
0.0000

> <Gold.Chemscore.DEClash>
0.0727

> <Gold.Chemscore.DEInternal>
0.3484

> <Gold.Chemscore.Rot>
2.3031

> <Gold.Chemscore.Internal.Correction>
   9.000000E+99

> <Gold.Chemscore.Hbonds>
donor molecule, donor type, donor heavy atom, donor atom, acceptor molecule, acceptor atom, score
      L1  H    15    30       P1  8029  0.92

> <Gold.Chemscore.Hbond.Weighted>
-3.3286

> <Gold.Chemscore.Metal.Weighted>
-0.0000

> <Gold.Chemscore.Lipo.Weighted>
-11.0957

> <Gold.Chemscore.Internal_Hbond.Weighted>
0.0000

> <Gold.Chemscore.DEClash.Weighted>
0.0727

> <Gold.Chemscore.DEInternal.Weighted>
0.3484

> <Gold.Chemscore.Rot.Weighted>
5.8960

> <Gold.Chemscore.Internal.Correction.Weighted>
   9.000000E+99

> <Gold.Protein.RotatedTorsions>
[ 6907 6896 6895 6894 ] final  -20.80 input  -60.11 | X-H torsion
[ 7974 7965 7964 7962 ] final -102.53 input  175.53 | X-H torsion
[ 8008 7997 7996 7995 ] final  -40.10 input   59.86 | X-H torsion
[ 10167 10162 10161 10158 ] final    5.53 input  -65.29 | X-H torsion
[ 10718 10713 10712 10709 ] final  -35.71 input   66.30 | X-H torsion
[ 10763 10752 10751 10750 ] final   67.19 input  -60.55 | X-H torsion
[ 11005 11000 10999 10996 ] final  135.33 input  -57.11 | X-H torsion

> <Gold.Protein.ActiveResidues>
 VAL166  LYS551  ARG553  GLY616  TRP617  ASP618  TYR619  PRO620  LYS621  CYS622 
 ASP623  PHE694  ASN695  SER759  ASP760  ASP761  ALA762  ILE779  LEU786  VAL792 
 PHE793  MET794  SER795  GLU796  ALA797  LYS798  CYS799  TRP800  GLU811  SER814 

> <Gold.Protein.RotatedAtoms>
  151.2428  135.0595  159.9031 H   0  0  0  0  0  0  0  0  0  0  0  0  # atno 6907 bound_to 6896
  152.5391  134.0415  159.8080 H   0  0  0  0  0  0  0  0  0  0  0  0  # atno 6908 bound_to 6896
  151.0612  133.5494  159.2665 H   0  0  0  0  0  0  0  0  0  0  0  0  # atno 6909 bound_to 6896
  145.2676  140.9289  143.3005 H   0  0  0  0  0  0  0  0  0  0  0  0  # atno 7974 bound_to 7965
  154.4015  140.1534  156.2972 H   0  0  0  0  0  0  0  0  0  0  0  0  # atno 8008 bound_to 7997
  155.8733  140.3447  155.5814 H   0  0  0  0  0  0  0  0  0  0  0  0  # atno 8009 bound_to 7997
  155.7750  140.0835  157.2079 H   0  0  0  0  0  0  0  0  0  0  0  0  # atno 8010 bound_to 7997
  140.6477  143.7621  150.7525 H   0  0  0  0  0  0  0  0  0  0  0  0  # atno 10167 bound_to 10162
  156.3354  130.4285  149.7834 H   0  0  0  0  0  0  0  0  0  0  0  0  # atno 10718 bound_to 10713
  153.0174  135.5293  154.6941 H   0  0  0  0  0  0  0  0  0  0  0  0  # atno 10763 bound_to 10752
  154.6068  135.2874  155.0478 H   0  0  0  0  0  0  0  0  0  0  0  0  # atno 10764 bound_to 10752
  154.1515  135.6562  153.5017 H   0  0  0  0  0  0  0  0  0  0  0  0  # atno 10765 bound_to 10752
  139.9973  134.9492  156.9992 H   0  0  0  0  0  0  0  0  0  0  0  0  # atno 11005 bound_to 11000
  144.9363  139.4240  143.6470 LP  0  0  0  0  0  0  0  0  0  0  0  0  # atno 17320 bound_to 7965
  146.3256  139.8300  142.8910 LP  0  0  0  0  0  0  0  0  0  0  0  0  # atno 17321 bound_to 7965
  140.1266  143.4564  152.2280 LP  0  0  0  0  0  0  0  0  0  0  0  0  # atno 17342 bound_to 10162
  139.5689  144.7451  151.3945 LP  0  0  0  0  0  0  0  0  0  0  0  0  # atno 17343 bound_to 10162
  156.5091  130.8164  151.3162 LP  0  0  0  0  0  0  0  0  0  0  0  0  # atno 17370 bound_to 10713
  157.7438  130.9920  150.2619 LP  0  0  0  0  0  0  0  0  0  0  0  0  # atno 17371 bound_to 10713
  140.4795  134.1304  155.7214 LP  0  0  0  0  0  0  0  0  0  0  0  0  # atno 17394 bound_to 11000
  141.1614  133.8785  157.1837 LP  0  0  0  0  0  0  0  0  0  0  0  0  # atno 17395 bound_to 11000

$$$$
