AV-unprocessed.smi:910|AV-procd|sdf|4117|dock1
  -GOLD-   22720 2 13D 1   1.00000     0.00000
 Structure written by MMmdl.
 46 47  0  0  0  0  0  0  0  0  1 V2000
  145.9866  129.2651  152.3020 C   0  0  0  0  0  0  0  0  0  0  0  0
  146.3286  130.7096  152.1125 C   0  0  0  0  0  0  0  0  0  0  0  0
  147.1048  131.4118  153.0236 N   0  0  0  0  0  0  0  0  0  0  0  0
  147.1853  132.6430  152.5162 C   0  0  0  0  0  0  0  0  0  0  0  0
  147.8707  133.7464  153.0823 N   0  0  0  0  0  0  0  0  0  0  0  0
  148.2237  133.9186  154.3668 C   0  0  0  0  0  0  0  0  0  0  0  0
  148.0439  133.1001  155.2690 O   0  0  0  0  0  0  0  0  0  0  0  0
  148.7957  135.1161  154.5557 N   0  0  0  0  0  0  0  0  0  0  0  0
  149.2123  135.6600  155.8445 C   0  0  0  0  0  0  0  0  0  0  0  0
  150.1707  136.8490  155.6766 C   0  0  0  0  0  0  0  0  0  0  0  0
  150.1140  137.6443  156.8513 O   0  0  0  0  0  0  0  0  0  0  0  0
  151.1914  138.5605  157.0019 C   0  0  1  0  0  0  0  0  0  0  0  0
  151.3050  139.4543  155.7504 C   0  0  0  0  0  0  0  0  0  0  0  0
  150.0736  140.3602  155.5840 C   0  0  0  0  0  0  0  0  0  0  0  0
  149.8250  141.2002  156.8460 C   0  0  0  0  0  0  0  0  0  0  0  0
  149.6987  140.3107  158.0933 C   0  0  0  0  0  0  0  0  0  0  0  0
  150.9340  139.4050  158.2694 C   0  0  1  0  0  0  0  0  0  0  0  0
  150.8276  138.5301  159.5293 C   0  0  0  0  0  0  0  0  0  0  0  0
  146.5194  132.7987  151.3412 O   0  0  0  0  0  0  0  0  0  0  0  0
  145.9788  131.5642  151.0979 C   0  0  0  0  0  0  0  0  0  0  0  0
  145.1676  131.3920  149.8589 C   0  0  0  0  0  0  0  0  0  0  0  0
  144.9212  129.1369  152.4931 H   0  0  0  0  0  0  0  0  0  0  0  0
  146.5283  128.8315  153.1433 H   0  0  0  0  0  0  0  0  0  0  0  0
  146.2361  128.6833  151.4146 H   0  0  0  0  0  0  0  0  0  0  0  0
  148.0883  134.4987  152.4461 H   0  0  0  0  0  0  0  0  0  0  0  0
  148.9063  135.7207  153.7550 H   0  0  0  0  0  0  0  0  0  0  0  0
  148.3379  135.9546  156.4265 H   0  0  0  0  0  0  0  0  0  0  0  0
  149.7073  134.8652  156.4031 H   0  0  0  0  0  0  0  0  0  0  0  0
  151.1862  136.4880  155.5085 H   0  0  0  0  0  0  0  0  0  0  0  0
  149.8876  137.4380  154.8040 H   0  0  0  0  0  0  0  0  0  0  0  0
  152.1279  138.0180  157.1432 H   0  0  0  0  0  0  0  0  0  0  0  0
  152.1967  140.0764  155.8347 H   0  0  0  0  0  0  0  0  0  0  0  0
  151.4446  138.8475  154.8560 H   0  0  0  0  0  0  0  0  0  0  0  0
  150.2090  141.0152  154.7230 H   0  0  0  0  0  0  0  0  0  0  0  0
  149.1952  139.7493  155.3722 H   0  0  0  0  0  0  0  0  0  0  0  0
  150.6453  141.9060  156.9824 H   0  0  0  0  0  0  0  0  0  0  0  0
  148.9213  141.7972  156.7226 H   0  0  0  0  0  0  0  0  0  0  0  0
  149.5682  140.9380  158.9757 H   0  0  0  0  0  0  0  0  0  0  0  0
  148.7986  139.6994  158.0156 H   0  0  0  0  0  0  0  0  0  0  0  0
  151.7984  140.0561  158.4077 H   0  0  0  0  0  0  0  0  0  0  0  0
  149.9660  137.8635  159.4827 H   0  0  0  0  0  0  0  0  0  0  0  0
  150.7232  139.1432  160.4245 H   0  0  0  0  0  0  0  0  0  0  0  0
  151.7171  137.9122  159.6552 H   0  0  0  0  0  0  0  0  0  0  0  0
  145.7433  130.8761  149.0905 H   0  0  0  0  0  0  0  0  0  0  0  0
  144.8555  132.3563  149.4576 H   0  0  0  0  0  0  0  0  0  0  0  0
  144.2714  130.8055  150.0617 H   0  0  0  0  0  0  0  0  0  0  0  0
  1  2  1  0  0  0  0
  1 22  1  0  0  0  0
  1 23  1  0  0  0  0
  1 24  1  0  0  0  0
  2 20  2  0  0  0  0
  2  3  1  0  0  0  0
  3  4  2  0  0  0  0
  4  5  1  0  0  0  0
  4 19  1  0  0  0  0
  5  6  1  0  0  0  0
  5 25  1  0  0  0  0
  6  7  2  0  0  0  0
  6  8  1  0  0  0  0
  8  9  1  0  0  0  0
  8 26  1  0  0  0  0
  9 10  1  0  0  0  0
  9 27  1  0  0  0  0
  9 28  1  0  0  0  0
 10 11  1  0  0  0  0
 10 29  1  0  0  0  0
 10 30  1  0  0  0  0
 11 12  1  0  0  0  0
 12 17  1  0  0  0  0
 12 13  1  0  0  0  0
 12 31  1  0  0  0  0
 13 14  1  0  0  0  0
 13 32  1  0  0  0  0
 13 33  1  0  0  0  0
 14 15  1  0  0  0  0
 14 34  1  0  0  0  0
 14 35  1  0  0  0  0
 15 16  1  0  0  0  0
 15 36  1  0  0  0  0
 15 37  1  0  0  0  0
 16 17  1  0  0  0  0
 16 38  1  0  0  0  0
 16 39  1  0  0  0  0
 17 18  1  0  0  0  0
 17 40  1  0  0  0  0
 18 41  1  0  0  0  0
 18 42  1  0  0  0  0
 18 43  1  0  0  0  0
 19 20  1  0  0  0  0
 20 21  1  0  0  0  0
 21 44  1  0  0  0  0
 21 45  1  0  0  0  0
 21 46  1  0  0  0  0
M  END
> <s_m_source_file>
AV-unprocessed.smi

> <i_m_source_file_index>
910

> <i_lp_mmshare_version>
43012

> <i_f3d_flags>
0

> <s_epik_input>
W0NIM11jMW5jKG9jMVtDSDNdKVtOSF1DKD1PKVtOSF1bQ0gyXVtDSDJdT1tDQEBIXTJbQ0gyXVtDSDJdW0NIMl1bQ0gyXVtDQEhdMltDSDNd

> <s_epik_cmdline>
J2VwaWtfcHl0aG9uJywgJy1waCcsICc3LjAnLCAnLXRuJywgJzgnLCAnLW1hJywgJzIwMCcsICctbWV0YWxfYmluZGluZycsICctaW1hZScsICc8aW5maWxlLm1hZT4nLCAnLW9tYWUnLCAnPG91dGZpbGUubWFlPic=

> <r_lp_tautomer_probability>
0.785861

> <r_epik_Ionization_Penalty>
4.15957e-05

> <r_epik_Ionization_Penalty_Charging>
0

> <r_epik_Ionization_Penalty_Neutral>
4.15957e-05

> <r_epik_State_Penalty>
0.0240523

> <r_epik_Charging_Adjusted_Penalty>
0.0240523

> <i_epik_Tot_Q>
0

> <i_epik_Tot_abs_Q>
0

> <r_epik_Metal_State_Penalty>
0.057053

> <b_epik_Metal_Only>
0

> <s_lp_Force_Field>
OPLS_2005

> <r_lp_Energy>
9.72379

> <b_lp_Chiralities_Consistent>
1

> <s_lp_Variant>
AV-unprocessed.smi:910-2

> <Gold.Version>
5.8.1

> <Gold.Id.Protein>
6NUR|6NUR_protein|mol2

> <Gold.PLP.Fitness>
40.2317

> <Gold.PLP.PLP>
-35.0013

> <Gold.PLP.part.hbond>
-2.0000

> <Gold.PLP.part.metal>
0.0000

> <Gold.PLP.part.buried>
-3.0899

> <Gold.PLP.part.nonpolar>
-28.9530

> <Gold.PLP.part.repulsive>
0.3045

> <Gold.PLP.ligand.clash>
0.0000

> <Gold.PLP.ligand.torsion>
0.4029

> <Gold.PLP.Chemscore.Hbond>
1.9920

> <Gold.PLP.Chemscore.CHOScore>
0.0000

> <Gold.PLP.Chemscore.Metal>
0.0000

> <Gold.Chemscore.Hbonds>
donor molecule, donor type, donor heavy atom, donor atom, acceptor molecule, acceptor atom, score
      L1  H     5    25       P1  7948  1.00
      L1  H     8    26       P1  7948  1.00

> <Gold.PLP.Chemscore.Internal.Correction>
0.0603

> <Gold.Rescore>
     Score         DG    S(hbond)    S(metal)    S(lipo)     H(rot)  DE(clash)    DE(int)     intcor
     13.91     -15.50       1.55        0.00      77.68       1.66       0.00       1.59       ----

> <Gold.Chemscore.Fitness>
13.9103

> <Gold.Chemscore.DG>
-15.5018

> <Gold.Chemscore.ZeroCoef>
-5.4800

> <Gold.Chemscore.Hbond>
1.5501

> <Gold.Chemscore.Metal>
0.0000

> <Gold.Chemscore.Lipo>
77.6760

> <Gold.Chemscore.Internal_Hbond>
0.0000

> <Gold.Chemscore.DEClash>
0.0021

> <Gold.Chemscore.DEInternal>
1.5893

> <Gold.Chemscore.Rot>
1.6576

> <Gold.Chemscore.Internal.Correction>
   9.000000E+99

> <Gold.Chemscore.Hbonds>
donor molecule, donor type, donor heavy atom, donor atom, acceptor molecule, acceptor atom, score
      L1  H     5    25       P1  7948  0.29
      L1  H     8    26       P1  7948  0.93

> <Gold.Chemscore.Hbond.Weighted>
-5.1772

> <Gold.Chemscore.Metal.Weighted>
-0.0000

> <Gold.Chemscore.Lipo.Weighted>
-9.0881

> <Gold.Chemscore.Internal_Hbond.Weighted>
0.0000

> <Gold.Chemscore.DEClash.Weighted>
0.0021

> <Gold.Chemscore.DEInternal.Weighted>
1.5893

> <Gold.Chemscore.Rot.Weighted>
4.2436

> <Gold.Chemscore.Internal.Correction.Weighted>
   9.000000E+99

> <Gold.Protein.RotatedTorsions>
[ 6907 6896 6895 6894 ] final  -43.41 input  -60.11 | X-H torsion
[ 7974 7965 7964 7962 ] final  -81.59 input  175.53 | X-H torsion
[ 8008 7997 7996 7995 ] final  151.72 input   59.86 | X-H torsion
[ 10167 10162 10161 10158 ] final  -53.68 input  -65.29 | X-H torsion
[ 10718 10713 10712 10709 ] final   97.24 input   66.30 | X-H torsion
[ 10763 10752 10751 10750 ] final  156.18 input  -60.55 | X-H torsion
[ 11005 11000 10999 10996 ] final    4.78 input  -57.11 | X-H torsion

> <Gold.Protein.ActiveResidues>
 VAL166  LYS551  ARG553  GLY616  TRP617  ASP618  TYR619  PRO620  LYS621  CYS622 
 ASP623  PHE694  ASN695  SER759  ASP760  ASP761  ALA762  ILE779  LEU786  VAL792 
 PHE793  MET794  SER795  GLU796  ALA797  LYS798  CYS799  TRP800  GLU811  SER814 

> <Gold.Protein.RotatedAtoms>
  150.9442  134.8849  159.7631 H   0  0  0  0  0  0  0  0  0  0  0  0  # atno 6907 bound_to 6896
  152.5093  134.3898  159.9390 H   0  0  0  0  0  0  0  0  0  0  0  0  # atno 6908 bound_to 6896
  151.3917  133.3746  159.2756 H   0  0  0  0  0  0  0  0  0  0  0  0  # atno 6909 bound_to 6896
  145.5446  140.9505  143.1532 H   0  0  0  0  0  0  0  0  0  0  0  0  # atno 7974 bound_to 7965
  156.2661  140.2040  156.6220 H   0  0  0  0  0  0  0  0  0  0  0  0  # atno 8008 bound_to 7997
  154.6749  140.0546  157.0229 H   0  0  0  0  0  0  0  0  0  0  0  0  # atno 8009 bound_to 7997
  155.1083  140.3213  155.4531 H   0  0  0  0  0  0  0  0  0  0  0  0  # atno 8010 bound_to 7997
  140.6472  143.2542  151.4827 H   0  0  0  0  0  0  0  0  0  0  0  0  # atno 10167 bound_to 10162
  157.6915  131.0603  150.4614 H   0  0  0  0  0  0  0  0  0  0  0  0  # atno 10718 bound_to 10713
  154.1802  135.2800  155.3054 H   0  0  0  0  0  0  0  0  0  0  0  0  # atno 10763 bound_to 10752
  154.6008  135.5530  153.7376 H   0  0  0  0  0  0  0  0  0  0  0  0  # atno 10764 bound_to 10752
  153.0140  135.6391  154.1942 H   0  0  0  0  0  0  0  0  0  0  0  0  # atno 10765 bound_to 10752
  140.5781  134.0039  155.8036 H   0  0  0  0  0  0  0  0  0  0  0  0  # atno 11005 bound_to 11000
  144.7560  139.7074  143.7254 LP  0  0  0  0  0  0  0  0  0  0  0  0  # atno 17320 bound_to 7965
  146.1958  139.5224  142.9775 LP  0  0  0  0  0  0  0  0  0  0  0  0  # atno 17321 bound_to 7965
  139.5683  144.1989  152.1798 LP  0  0  0  0  0  0  0  0  0  0  0  0  # atno 17342 bound_to 10162
  140.1277  144.5316  150.6822 LP  0  0  0  0  0  0  0  0  0  0  0  0  # atno 17343 bound_to 10162
  156.4958  130.4106  149.6381 LP  0  0  0  0  0  0  0  0  0  0  0  0  # atno 17370 bound_to 10713
  156.3374  130.7364  151.2303 LP  0  0  0  0  0  0  0  0  0  0  0  0  # atno 17371 bound_to 10713
  141.1014  133.9763  157.3073 LP  0  0  0  0  0  0  0  0  0  0  0  0  # atno 17394 bound_to 11000
  139.9330  135.0198  156.8463 LP  0  0  0  0  0  0  0  0  0  0  0  0  # atno 17395 bound_to 11000

$$$$
