AV-unprocessed.smi:3004|AV-procd|sdf|11439|dock3
  -GOLD-   2272016363D 1   1.00000     0.00000
 Structure written by MMmdl.
 47 48  0  0  0  0  0  0  0  0  2 V2000
  152.8637  138.2590  154.4079 C   0  0  0  0  0  0  0  0  0  0  0  0
  151.4288  138.6926  154.3515 C   0  0  0  0  0  0  0  0  0  0  0  0
  150.2828  137.9078  154.0430 C   0  0  0  0  0  0  0  0  0  0  0  0
  149.2378  138.7826  154.1396 C   0  0  0  0  0  0  0  0  0  0  0  0
  147.7752  138.5598  153.9351 C   0  0  0  0  0  0  0  0  0  0  0  0
  149.7735  140.0108  154.4857 N   0  0  0  0  0  0  0  0  0  0  0  0
  149.0954  141.2747  154.7252 C   0  0  0  0  0  0  0  0  0  0  0  0
  149.2409  141.7070  156.1853 C   0  0  0  0  0  0  0  0  0  0  0  0
  148.2406  141.8701  156.8838 O   0  0  0  0  0  0  0  0  0  0  0  0
  150.4927  141.8819  156.6364 N   0  0  0  0  0  0  0  0  0  0  0  0
  150.8513  142.2501  158.0012 C   0  0  0  0  0  0  0  0  0  0  0  0
  152.2783  142.8355  158.0813 C   0  0  0  0  0  0  0  0  0  0  0  0
  152.9589  142.5902  159.3870 N   0  3  2  0  0  0  0  0  0  0  0  0
  153.1624  141.1354  159.6522 C   0  0  0  0  0  0  0  0  0  0  0  0
  153.9743  140.8894  160.9319 C   0  0  0  0  0  0  0  0  0  0  0  0
  153.2971  141.5439  162.1349 C   0  0  0  0  0  0  0  0  0  0  0  0
  153.0955  143.0337  161.8512 C   0  0  0  0  0  0  0  0  0  0  0  0
  152.2976  143.2709  160.5500 C   0  0  1  0  0  0  0  0  0  0  0  0
  152.1193  144.7905  160.3514 C   0  0  0  0  0  0  0  0  0  0  0  0
  151.1176  139.9518  154.6131 N   0  0  0  0  0  0  0  0  0  0  0  0
  152.9560  137.1835  154.2561 H   0  0  0  0  0  0  0  0  0  0  0  0
  153.3081  138.4958  155.3748 H   0  0  0  0  0  0  0  0  0  0  0  0
  153.4541  138.7549  153.6373 H   0  0  0  0  0  0  0  0  0  0  0  0
  150.2349  136.8585  153.7916 H   0  0  0  0  0  0  0  0  0  0  0  0
  147.5695  137.5150  153.7022 H   0  0  0  0  0  0  0  0  0  0  0  0
  147.4017  139.1664  153.1102 H   0  0  0  0  0  0  0  0  0  0  0  0
  147.2124  138.8197  154.8316 H   0  0  0  0  0  0  0  0  0  0  0  0
  149.5030  142.0334  154.0545 H   0  0  0  0  0  0  0  0  0  0  0  0
  148.0389  141.1717  154.4774 H   0  0  0  0  0  0  0  0  0  0  0  0
  151.2531  141.7164  155.9923 H   0  0  0  0  0  0  0  0  0  0  0  0
  150.1002  142.9508  158.3653 H   0  0  0  0  0  0  0  0  0  0  0  0
  150.7780  141.3568  158.6221 H   0  0  0  0  0  0  0  0  0  0  0  0
  152.8389  142.3727  157.2724 H   0  0  0  0  0  0  0  0  0  0  0  0
  152.2695  143.9075  157.8796 H   0  0  0  0  0  0  0  0  0  0  0  0
  152.1933  140.6386  159.7217 H   0  0  0  0  0  0  0  0  0  0  0  0
  153.7010  140.6613  158.8345 H   0  0  0  0  0  0  0  0  0  0  0  0
  154.0836  139.8183  161.1042 H   0  0  0  0  0  0  0  0  0  0  0  0
  154.9827  141.2885  160.8116 H   0  0  0  0  0  0  0  0  0  0  0  0
  152.3355  141.0664  162.3283 H   0  0  0  0  0  0  0  0  0  0  0  0
  153.9029  141.4077  163.0312 H   0  0  0  0  0  0  0  0  0  0  0  0
  152.5799  143.4911  162.6965 H   0  0  0  0  0  0  0  0  0  0  0  0
  154.0675  143.5251  161.7832 H   0  0  0  0  0  0  0  0  0  0  0  0
  151.3065  142.8311  160.6752 H   0  0  0  0  0  0  0  0  0  0  0  0
  151.7924  145.2681  161.2756 H   0  0  0  0  0  0  0  0  0  0  0  0
  151.3578  145.0257  159.6086 H   0  0  0  0  0  0  0  0  0  0  0  0
  153.0533  145.2659  160.0500 H   0  0  0  0  0  0  0  0  0  0  0  0
  153.8787  143.0000  159.3081 H   0  0  0  0  0  0  0  0  0  0  0  0
  1  2  1  0  0  0  0
  1 21  1  0  0  0  0
  1 22  1  0  0  0  0
  1 23  1  0  0  0  0
  2 20  2  0  0  0  0
  2  3  1  0  0  0  0
  3  4  2  0  0  0  0
  3 24  1  0  0  0  0
  4  5  1  0  0  0  0
  4  6  1  0  0  0  0
  5 25  1  0  0  0  0
  5 26  1  0  0  0  0
  5 27  1  0  0  0  0
  6  7  1  0  0  0  0
  6 20  1  0  0  0  0
  7  8  1  0  0  0  0
  7 28  1  0  0  0  0
  7 29  1  0  0  0  0
  8  9  2  0  0  0  0
  8 10  1  0  0  0  0
 10 11  1  0  0  0  0
 10 30  1  0  0  0  0
 11 12  1  0  0  0  0
 11 31  1  0  0  0  0
 11 32  1  0  0  0  0
 12 13  1  0  0  0  0
 12 33  1  0  0  0  0
 12 34  1  0  0  0  0
 13 18  1  0  0  0  0
 13 14  1  0  0  0  0
 13 47  1  0  0  0  0
 14 15  1  0  0  0  0
 14 35  1  0  0  0  0
 14 36  1  0  0  0  0
 15 16  1  0  0  0  0
 15 37  1  0  0  0  0
 15 38  1  0  0  0  0
 16 17  1  0  0  0  0
 16 39  1  0  0  0  0
 16 40  1  0  0  0  0
 17 18  1  0  0  0  0
 17 41  1  0  0  0  0
 17 42  1  0  0  0  0
 18 19  1  0  0  0  0
 18 43  1  0  0  0  0
 19 44  1  0  0  0  0
 19 45  1  0  0  0  0
 19 46  1  0  0  0  0
M  CHG  1  13   1
M  END
> <s_m_source_file>
AV-unprocessed.smi

> <i_m_source_file_index>
3004

> <i_lp_mmshare_version>
43012

> <i_f3d_flags>
0

> <s_epik_input>
W0NIM11jMVtjSF1jKFtDSDNdKW4objEpW0NIMl1DKD1PKVtOSF1bQ0gyXVtDSDJdTjJbQ0gyXVtDSDJdW0NIMl1bQ0gyXVtDQEhdMltDSDNd

> <s_epik_cmdline>
J2VwaWtfcHl0aG9uJywgJy1waCcsICc3LjAnLCAnLXRuJywgJzgnLCAnLW1hJywgJzIwMCcsICctbWV0YWxfYmluZGluZycsICctaW1hZScsICc8aW5maWxlLm1hZT4nLCAnLW9tYWUnLCAnPG91dGZpbGUubWFlPic=

> <r_lp_tautomer_probability>
1

> <r_epik_Ionization_Penalty>
0.00303644

> <r_epik_Ionization_Penalty_Charging>
0.00284254

> <r_epik_Ionization_Penalty_Neutral>
0.000193908

> <r_epik_State_Penalty>
-0

> <r_epik_Charging_Adjusted_Penalty>
0.00284254

> <i_epik_Tot_Q>
1

> <i_epik_Tot_abs_Q>
1

> <r_epik_Metal_State_Penalty>
-0

> <b_epik_Metal_Only>
0

> <s_lp_Force_Field>
OPLS_2005

> <r_lp_Energy>
17.9788

> <b_lp_Chiralities_Consistent>
1

> <s_lp_Variant>
AV-unprocessed.smi:3004-1

> <Gold.Version>
5.8.1

> <Gold.Id.Protein>
6NUR|6NUR_protein|mol2

> <Gold.PLP.Fitness>
52.6591

> <Gold.PLP.PLP>
-50.3283

> <Gold.PLP.part.hbond>
-2.0000

> <Gold.PLP.part.metal>
0.0000

> <Gold.PLP.part.buried>
-3.4271

> <Gold.PLP.part.nonpolar>
-43.8157

> <Gold.PLP.part.repulsive>
0.7254

> <Gold.PLP.ligand.clash>
0.0000

> <Gold.PLP.ligand.torsion>
0.3551

> <Gold.PLP.Chemscore.Hbond>
1.0000

> <Gold.PLP.Chemscore.CHOScore>
0.0000

> <Gold.PLP.Chemscore.Metal>
0.0000

> <Gold.Chemscore.Hbonds>
donor molecule, donor type, donor heavy atom, donor atom, acceptor molecule, acceptor atom, score
      P1  H  7989  7998       L1    20  1.00

> <Gold.PLP.Chemscore.Internal.Correction>
0.0409

> <Gold.Rescore>
     Score         DG    S(hbond)    S(metal)    S(lipo)     H(rot)  DE(clash)    DE(int)     intcor
     16.11     -18.11       0.72        0.00     123.76       1.67       0.27       1.73       ----

> <Gold.Chemscore.Fitness>
16.1108

> <Gold.Chemscore.DG>
-18.1103

> <Gold.Chemscore.ZeroCoef>
-5.4800

> <Gold.Chemscore.Hbond>
0.7229

> <Gold.Chemscore.Metal>
0.0000

> <Gold.Chemscore.Lipo>
123.7585

> <Gold.Chemscore.Internal_Hbond>
0.0000

> <Gold.Chemscore.DEClash>
0.2668

> <Gold.Chemscore.DEInternal>
1.7327

> <Gold.Chemscore.Rot>
1.6657

> <Gold.Chemscore.Internal.Correction>
   9.000000E+99

> <Gold.Chemscore.Hbonds>
donor molecule, donor type, donor heavy atom, donor atom, acceptor molecule, acceptor atom, score
      P1  H  7989  7998       L1    20  0.31

> <Gold.Chemscore.Hbond.Weighted>
-2.4146

> <Gold.Chemscore.Metal.Weighted>
-0.0000

> <Gold.Chemscore.Lipo.Weighted>
-14.4797

> <Gold.Chemscore.Internal_Hbond.Weighted>
0.0000

> <Gold.Chemscore.DEClash.Weighted>
0.2668

> <Gold.Chemscore.DEInternal.Weighted>
1.7327

> <Gold.Chemscore.Rot.Weighted>
4.2641

> <Gold.Chemscore.Internal.Correction.Weighted>
   9.000000E+99

> <Gold.Protein.RotatedTorsions>
[ 6907 6896 6895 6894 ] final -135.77 input  -60.11 | X-H torsion
[ 7974 7965 7964 7962 ] final  -87.02 input  175.53 | X-H torsion
[ 8008 7997 7996 7995 ] final -104.17 input   59.86 | X-H torsion
[ 10167 10162 10161 10158 ] final  -42.34 input  -65.29 | X-H torsion
[ 10718 10713 10712 10709 ] final   77.92 input   66.30 | X-H torsion
[ 10763 10752 10751 10750 ] final  -56.86 input  -60.55 | X-H torsion
[ 11005 11000 10999 10996 ] final -138.47 input  -57.11 | X-H torsion

> <Gold.Protein.ActiveResidues>
 VAL166  LYS551  ARG553  GLY616  TRP617  ASP618  TYR619  PRO620  LYS621  CYS622 
 ASP623  PHE694  ASN695  SER759  ASP760  ASP761  ALA762  ILE779  LEU786  VAL792 
 PHE793  MET794  SER795  GLU796  ALA797  LYS798  CYS799  TRP800  GLU811  SER814 

> <Gold.Protein.RotatedAtoms>
  151.0019  133.6048  159.2693 H   0  0  0  0  0  0  0  0  0  0  0  0  # atno 6907 bound_to 6896
  151.3231  135.0822  159.9322 H   0  0  0  0  0  0  0  0  0  0  0  0  # atno 6908 bound_to 6896
  152.5276  133.9662  159.7795 H   0  0  0  0  0  0  0  0  0  0  0  0  # atno 6909 bound_to 6896
  145.4721  140.9559  143.1911 H   0  0  0  0  0  0  0  0  0  0  0  0  # atno 7974 bound_to 7965
  154.8814  140.0419  157.1785 H   0  0  0  0  0  0  0  0  0  0  0  0  # atno 8008 bound_to 7997
  154.8635  140.2947  155.5504 H   0  0  0  0  0  0  0  0  0  0  0  0  # atno 8009 bound_to 7997
  156.2998  140.2442  156.3613 H   0  0  0  0  0  0  0  0  0  0  0  0  # atno 8010 bound_to 7997
  140.6972  143.3043  151.3194 H   0  0  0  0  0  0  0  0  0  0  0  0  # atno 10167 bound_to 10162
  157.6727  130.9844  150.1712 H   0  0  0  0  0  0  0  0  0  0  0  0  # atno 10718 bound_to 10713
  154.2133  135.6390  153.5122 H   0  0  0  0  0  0  0  0  0  0  0  0  # atno 10763 bound_to 10752
  152.9985  135.5479  154.6192 H   0  0  0  0  0  0  0  0  0  0  0  0  # atno 10764 bound_to 10752
  154.5634  135.2911  155.0871 H   0  0  0  0  0  0  0  0  0  0  0  0  # atno 10765 bound_to 10752
  140.8612  134.2166  157.4706 H   0  0  0  0  0  0  0  0  0  0  0  0  # atno 11005 bound_to 11000
  144.7939  139.6274  143.7101 LP  0  0  0  0  0  0  0  0  0  0  0  0  # atno 17320 bound_to 7965
  146.2390  139.5963  142.9504 LP  0  0  0  0  0  0  0  0  0  0  0  0  # atno 17321 bound_to 7965
  139.6443  144.0480  152.2579 LP  0  0  0  0  0  0  0  0  0  0  0  0  # atno 17342 bound_to 10162
  139.9996  144.6303  150.7742 LP  0  0  0  0  0  0  0  0  0  0  0  0  # atno 17343 bound_to 10162
  156.2465  130.3696  149.8279 LP  0  0  0  0  0  0  0  0  0  0  0  0  # atno 17370 bound_to 10713
  156.6064  130.8568  151.3444 LP  0  0  0  0  0  0  0  0  0  0  0  0  # atno 17371 bound_to 10713
  139.8707  134.9730  156.4795 LP  0  0  0  0  0  0  0  0  0  0  0  0  # atno 17394 bound_to 11000
  140.8680  133.8009  155.9334 LP  0  0  0  0  0  0  0  0  0  0  0  0  # atno 17395 bound_to 11000

$$$$
