AV-unprocessed.smi:1898|AV-procd|sdf|7701|dock10
  -GOLD-   22720 9443D 1   1.00000     0.00000
 Structure written by MMmdl.
 47 48  0  0  0  0  0  0  0  0  2 V2000
  153.8178  141.9154  160.8191 C   0  0  0  0  0  0  0  0  0  0  0  0
  152.8365  142.0129  159.7490 N   0  0  0  0  0  0  0  0  0  0  0  0
  152.7118  141.1194  158.7578 C   0  0  0  0  0  0  0  0  0  0  0  0
  153.4291  140.1237  158.6533 O   0  0  0  0  0  0  0  0  0  0  0  0
  151.6216  141.4070  157.7200 C   0  0  0  0  0  0  0  0  0  0  0  0
  151.1820  140.1912  156.9884 N   0  3  2  0  0  0  0  0  0  0  0  0
  152.0521  139.8787  155.8264 C   0  0  0  0  0  0  0  0  0  0  0  0
  151.6661  138.5310  155.1947 C   0  0  0  0  0  0  0  0  0  0  0  0
  150.1866  138.5159  154.7781 C   0  0  1  0  0  0  0  0  0  0  0  0
  149.8271  137.1960  154.2687 N   0  0  0  0  0  0  0  0  0  0  0  0
  149.9542  136.0461  154.9461 C   0  0  0  0  0  0  0  0  0  0  0  0
  150.3890  135.9837  156.0953 O   0  0  0  0  0  0  0  0  0  0  0  0
  149.5396  135.0032  154.2067 N   0  0  0  0  0  0  0  0  0  0  0  0
  149.4802  133.6219  154.5457 C   0  0  0  0  0  0  0  0  0  0  0  0
  150.3092  133.0025  155.5134 C   0  0  0  0  0  0  0  0  0  0  0  0
  150.1645  131.6239  155.7556 C   0  0  0  0  0  0  0  0  0  0  0  0
  149.2025  130.9106  155.0181 C   0  0  0  0  0  0  0  0  0  0  0  0
  148.4142  131.4829  154.0855 N   0  0  0  0  0  0  0  0  0  0  0  0
  148.5514  132.8121  153.8505 C   0  0  0  0  0  0  0  0  0  0  0  0
  147.7460  133.3955  152.8906 O   0  0  0  0  0  0  0  0  0  0  0  0
  146.7798  132.5857  152.2295 C   0  0  0  0  0  0  0  0  0  0  0  0
  149.3055  138.8914  155.9832 C   0  0  0  0  0  0  0  0  0  0  0  0
  149.7467  140.2288  156.5996 C   0  0  0  0  0  0  0  0  0  0  0  0
  153.7187  142.7663  161.4930 H   0  0  0  0  0  0  0  0  0  0  0  0
  154.8323  141.9143  160.4183 H   0  0  0  0  0  0  0  0  0  0  0  0
  153.6710  141.0029  161.3985 H   0  0  0  0  0  0  0  0  0  0  0  0
  152.2161  142.8099  159.7641 H   0  0  0  0  0  0  0  0  0  0  0  0
  150.7648  141.8937  158.1891 H   0  0  0  0  0  0  0  0  0  0  0  0
  152.0444  142.1261  157.0171 H   0  0  0  0  0  0  0  0  0  0  0  0
  151.9773  140.6783  155.0876 H   0  0  0  0  0  0  0  0  0  0  0  0
  153.0944  139.8365  156.1449 H   0  0  0  0  0  0  0  0  0  0  0  0
  152.3006  138.3346  154.3296 H   0  0  0  0  0  0  0  0  0  0  0  0
  151.8601  137.7293  155.9091 H   0  0  0  0  0  0  0  0  0  0  0  0
  150.0480  139.2592  153.9904 H   0  0  0  0  0  0  0  0  0  0  0  0
  149.4559  137.1540  153.3306 H   0  0  0  0  0  0  0  0  0  0  0  0
  149.1657  135.2309  153.2967 H   0  0  0  0  0  0  0  0  0  0  0  0
  151.0586  133.5444  156.0674 H   0  0  0  0  0  0  0  0  0  0  0  0
  150.7807  131.1243  156.4884 H   0  0  0  0  0  0  0  0  0  0  0  0
  149.0654  129.8514  155.1776 H   0  0  0  0  0  0  0  0  0  0  0  0
  146.2369  133.1926  151.5053 H   0  0  0  0  0  0  0  0  0  0  0  0
  146.0516  132.1790  152.9326 H   0  0  0  0  0  0  0  0  0  0  0  0
  147.2506  131.7652  151.6861 H   0  0  0  0  0  0  0  0  0  0  0  0
  148.2598  138.9555  155.6795 H   0  0  0  0  0  0  0  0  0  0  0  0
  149.3596  138.1086  156.7416 H   0  0  0  0  0  0  0  0  0  0  0  0
  149.1261  140.4430  157.4701 H   0  0  0  0  0  0  0  0  0  0  0  0
  149.5818  141.0403  155.8890 H   0  0  0  0  0  0  0  0  0  0  0  0
  151.2905  139.4242  157.6372 H   0  0  0  0  0  0  0  0  0  0  0  0
  1  2  1  0  0  0  0
  1 24  1  0  0  0  0
  1 25  1  0  0  0  0
  1 26  1  0  0  0  0
  2  3  1  0  0  0  0
  2 27  1  0  0  0  0
  3  4  2  0  0  0  0
  3  5  1  0  0  0  0
  5  6  1  0  0  0  0
  5 28  1  0  0  0  0
  5 29  1  0  0  0  0
  6 23  1  0  0  0  0
  6  7  1  0  0  0  0
  6 47  1  0  0  0  0
  7  8  1  0  0  0  0
  7 30  1  0  0  0  0
  7 31  1  0  0  0  0
  8  9  1  0  0  0  0
  8 32  1  0  0  0  0
  8 33  1  0  0  0  0
  9 10  1  0  0  0  0
  9 22  1  0  0  0  0
  9 34  1  0  0  0  0
 10 11  1  0  0  0  0
 10 35  1  0  0  0  0
 11 12  2  0  0  0  0
 11 13  1  0  0  0  0
 13 14  1  0  0  0  0
 13 36  1  0  0  0  0
 14 19  1  0  0  0  0
 14 15  2  0  0  0  0
 15 16  1  0  0  0  0
 15 37  1  0  0  0  0
 16 17  2  0  0  0  0
 16 38  1  0  0  0  0
 17 18  1  0  0  0  0
 17 39  1  0  0  0  0
 18 19  2  0  0  0  0
 19 20  1  0  0  0  0
 20 21  1  0  0  0  0
 21 40  1  0  0  0  0
 21 41  1  0  0  0  0
 21 42  1  0  0  0  0
 22 23  1  0  0  0  0
 22 43  1  0  0  0  0
 22 44  1  0  0  0  0
 23 45  1  0  0  0  0
 23 46  1  0  0  0  0
M  CHG  1   6   1
M  END
> <s_m_source_file>
AV-unprocessed.smi

> <i_m_source_file_index>
1898

> <i_lp_mmshare_version>
43012

> <i_f3d_flags>
0

> <s_epik_input>
W0NIM11bTkhdQyg9TylbQ0gyXU4xW0NIMl1bQ0gyXVtDSF0oW0NIMl1bQ0gyXTEpW05IXUMoPU8pW05IXWMyW2NIXVtjSF1bY0hdbmMyT1tDSDNd

> <s_epik_cmdline>
J2VwaWtfcHl0aG9uJywgJy1waCcsICc3LjAnLCAnLXRuJywgJzgnLCAnLW1hJywgJzIwMCcsICctbWV0YWxfYmluZGluZycsICctaW1hZScsICc8aW5maWxlLm1hZT4nLCAnLW9tYWUnLCAnPG91dGZpbGUubWFlPic=

> <r_lp_tautomer_probability>
1

> <r_epik_Ionization_Penalty>
0.838943

> <r_epik_Ionization_Penalty_Charging>
0.838844

> <r_epik_Ionization_Penalty_Neutral>
9.87395e-05

> <r_epik_State_Penalty>
0.8734

> <r_epik_Charging_Adjusted_Penalty>
1.71224

> <i_epik_Tot_Q>
1

> <i_epik_Tot_abs_Q>
1

> <r_epik_Metal_State_Penalty>
0.877926

> <b_epik_Metal_Only>
0

> <s_lp_Force_Field>
OPLS_2005

> <r_lp_Energy>
17.1521

> <b_lp_Chiralities_Consistent>
1

> <s_lp_Variant>
AV-unprocessed.smi:1898-2

> <Gold.Version>
5.8.1

> <Gold.Id.Protein>
6NUR|6NUR_protein|mol2

> <Gold.PLP.Fitness>
42.3552

> <Gold.PLP.PLP>
-35.1242

> <Gold.PLP.part.hbond>
-3.2451

> <Gold.PLP.part.metal>
0.0000

> <Gold.PLP.part.buried>
-4.4522

> <Gold.PLP.part.nonpolar>
-28.2720

> <Gold.PLP.part.repulsive>
0.4965

> <Gold.PLP.ligand.clash>
0.0000

> <Gold.PLP.ligand.torsion>
0.8249

> <Gold.PLP.Chemscore.Hbond>
2.9520

> <Gold.PLP.Chemscore.CHOScore>
0.0000

> <Gold.PLP.Chemscore.Metal>
0.0000

> <Gold.Chemscore.Hbonds>
donor molecule, donor type, donor heavy atom, donor atom, acceptor molecule, acceptor atom, score
      L1  H    10    35       P1  7948  1.00
      L1  H    13    36       P1  7948  0.95
      P1  H  7997  8008       L1     4  0.99

> <Gold.PLP.Chemscore.Internal.Correction>
0.0248

> <Gold.Rescore>
     Score         DG    S(hbond)    S(metal)    S(lipo)     H(rot)  DE(clash)    DE(int)     intcor
     14.54     -16.63       2.62        0.00      64.11       2.00       0.01       2.07       ----

> <Gold.Chemscore.Fitness>
14.5441

> <Gold.Chemscore.DG>
-16.6296

> <Gold.Chemscore.ZeroCoef>
-5.4800

> <Gold.Chemscore.Hbond>
2.6226

> <Gold.Chemscore.Metal>
0.0000

> <Gold.Chemscore.Lipo>
64.1078

> <Gold.Chemscore.Internal_Hbond>
0.0000

> <Gold.Chemscore.DEClash>
0.0149

> <Gold.Chemscore.DEInternal>
2.0707

> <Gold.Chemscore.Rot>
1.9963

> <Gold.Chemscore.Internal.Correction>
   9.000000E+99

> <Gold.Chemscore.Hbonds>
donor molecule, donor type, donor heavy atom, donor atom, acceptor molecule, acceptor atom, score
      L1  H    10    35       P1  7948  0.86
      L1  H    13    36       P1  7948  0.21
      P1  H  7997  8008       L1     4  0.87

> <Gold.Chemscore.Hbond.Weighted>
-8.7595

> <Gold.Chemscore.Metal.Weighted>
-0.0000

> <Gold.Chemscore.Lipo.Weighted>
-7.5006

> <Gold.Chemscore.Internal_Hbond.Weighted>
0.0000

> <Gold.Chemscore.DEClash.Weighted>
0.0149

> <Gold.Chemscore.DEInternal.Weighted>
2.0707

> <Gold.Chemscore.Rot.Weighted>
5.1105

> <Gold.Chemscore.Internal.Correction.Weighted>
   9.000000E+99

> <Gold.Protein.RotatedTorsions>
[ 6907 6896 6895 6894 ] final -110.02 input  -60.11 | X-H torsion
[ 7974 7965 7964 7962 ] final  -43.26 input  175.53 | X-H torsion
[ 8008 7997 7996 7995 ] final  -96.65 input   59.86 | X-H torsion
[ 10167 10162 10161 10158 ] final  -26.20 input  -65.29 | X-H torsion
[ 10718 10713 10712 10709 ] final  -77.55 input   66.30 | X-H torsion
[ 10763 10752 10751 10750 ] final  159.15 input  -60.55 | X-H torsion
[ 11005 11000 10999 10996 ] final  -60.72 input  -57.11 | X-H torsion

> <Gold.Protein.ActiveResidues>
 VAL166  LYS551  ARG553  GLY616  TRP617  ASP618  TYR619  PRO620  LYS621  CYS622 
 ASP623  PHE694  ASN695  SER759  ASP760  ASP761  ALA762  ILE779  LEU786  VAL792 
 PHE793  MET794  SER795  GLU796  ALA797  LYS798  CYS799  TRP800  GLU811  SER814 

> <Gold.Protein.RotatedAtoms>
  150.7598  133.9443  159.3465 H   0  0  0  0  0  0  0  0  0  0  0  0  # atno 6907 bound_to 6896
  151.7354  135.0864  160.0316 H   0  0  0  0  0  0  0  0  0  0  0  0  # atno 6908 bound_to 6896
  152.3563  133.6203  159.6017 H   0  0  0  0  0  0  0  0  0  0  0  0  # atno 6909 bound_to 6896
  146.0036  140.7045  142.9258 H   0  0  0  0  0  0  0  0  0  0  0  0  # atno 7974 bound_to 7965
  154.7772  140.0469  157.1098 H   0  0  0  0  0  0  0  0  0  0  0  0  # atno 8008 bound_to 7997
  154.9748  140.3094  155.4952 H   0  0  0  0  0  0  0  0  0  0  0  0  # atno 8009 bound_to 7997
  156.2931  140.2246  156.4843 H   0  0  0  0  0  0  0  0  0  0  0  0  # atno 8010 bound_to 7997
  140.7284  143.4199  151.0968 H   0  0  0  0  0  0  0  0  0  0  0  0  # atno 10167 bound_to 10162
  156.0142  130.4494  150.3361 H   0  0  0  0  0  0  0  0  0  0  0  0  # atno 10718 bound_to 10713
  154.2272  135.2779  155.2903 H   0  0  0  0  0  0  0  0  0  0  0  0  # atno 10763 bound_to 10752
  154.5654  135.5634  153.7048 H   0  0  0  0  0  0  0  0  0  0  0  0  # atno 10764 bound_to 10752
  153.0028  135.6308  154.2413 H   0  0  0  0  0  0  0  0  0  0  0  0  # atno 10765 bound_to 10752
  141.1298  133.6624  156.5266 H   0  0  0  0  0  0  0  0  0  0  0  0  # atno 11005 bound_to 11000
  144.6928  140.3277  143.7221 LP  0  0  0  0  0  0  0  0  0  0  0  0  # atno 17320 bound_to 7965
  145.7449  139.1775  143.2354 LP  0  0  0  0  0  0  0  0  0  0  0  0  # atno 17321 bound_to 7965
  139.7843  143.8310  152.3142 LP  0  0  0  0  0  0  0  0  0  0  0  0  # atno 17342 bound_to 10162
  139.8272  144.7270  150.9497 LP  0  0  0  0  0  0  0  0  0  0  0  0  # atno 17343 bound_to 10162
  157.1458  131.0308  151.2907 LP  0  0  0  0  0  0  0  0  0  0  0  0  # atno 17370 bound_to 10713
  157.4433  130.7557  149.7088 LP  0  0  0  0  0  0  0  0  0  0  0  0  # atno 17371 bound_to 10713
  140.4249  134.7154  157.4910 LP  0  0  0  0  0  0  0  0  0  0  0  0  # atno 17394 bound_to 11000
  140.0334  134.6373  155.9076 LP  0  0  0  0  0  0  0  0  0  0  0  0  # atno 17395 bound_to 11000

$$$$
