AV-unprocessed.smi:1974|AV-procd|sdf|7980|dock9
  -GOLD-   2272010163D 1   1.00000     0.00000
 Structure written by MMmdl.
 34 35  0  0  0  0  0  0  0  0  1 V2000
  154.3236  140.2198  161.5419 C   0  0  0  0  0  0  0  0  0  0  0  0
  153.6734  141.1658  160.5202 C   0  0  2  0  0  0  0  0  0  0  0  0
  152.6978  142.1448  161.2019 C   0  0  0  0  0  0  0  0  0  0  0  0
  152.2997  143.2330  160.3267 N   0  0  0  0  0  0  0  0  0  0  0  0
  152.6880  143.4731  159.0253 C   0  0  0  0  0  0  0  0  0  0  0  0
  152.0547  144.6115  158.6160 C   0  0  0  0  0  0  0  0  0  0  0  0
  151.2890  144.9989  159.7511 C   0  0  0  0  0  0  0  0  0  0  0  0
  151.4370  144.1714  160.7730 N   0  0  0  0  0  0  0  0  0  0  0  0
  152.9722  140.3885  159.5000 N   0  0  0  0  0  0  0  0  0  0  0  0
  153.5577  139.6531  158.5429 C   0  0  0  0  0  0  0  0  0  0  0  0
  154.7788  139.5666  158.4076 O   0  0  0  0  0  0  0  0  0  0  0  0
  152.6119  138.9222  157.5826 C   0  0  0  0  0  0  0  0  0  0  0  0
  151.7471  139.8388  156.8390 N   0  0  0  0  0  0  0  0  0  0  0  0
  150.5443  140.3577  157.4767 C   0  0  0  0  0  0  0  0  0  0  0  0
  150.0641  141.5593  156.6606 C   0  0  0  0  0  0  0  0  0  0  0  0
  150.7132  141.3772  154.9874 S   0  0  0  0  0  0  0  0  0  0  0  0
  151.9701  140.2106  155.5198 C   0  0  0  0  0  0  0  0  0  0  0  0
  152.8749  139.8340  154.7768 O   0  0  0  0  0  0  0  0  0  0  0  0
  154.8643  140.7802  162.3049 H   0  0  0  0  0  0  0  0  0  0  0  0
  155.0376  139.5490  161.0628 H   0  0  0  0  0  0  0  0  0  0  0  0
  153.5765  139.6060  162.0462 H   0  0  0  0  0  0  0  0  0  0  0  0
  154.4664  141.7494  160.0480 H   0  0  0  0  0  0  0  0  0  0  0  0
  151.8024  141.6215  161.5408 H   0  0  0  0  0  0  0  0  0  0  0  0
  153.1587  142.5780  162.0908 H   0  0  0  0  0  0  0  0  0  0  0  0
  153.3761  142.8223  158.5060 H   0  0  0  0  0  0  0  0  0  0  0  0
  152.1266  145.0942  157.6525 H   0  0  0  0  0  0  0  0  0  0  0  0
  150.6342  145.8506  159.8620 H   0  0  0  0  0  0  0  0  0  0  0  0
  151.9631  140.4062  159.5299 H   0  0  0  0  0  0  0  0  0  0  0  0
  153.1890  138.3193  156.8788 H   0  0  0  0  0  0  0  0  0  0  0  0
  152.0040  138.2241  158.1594 H   0  0  0  0  0  0  0  0  0  0  0  0
  149.7876  139.5720  157.4759 H   0  0  0  0  0  0  0  0  0  0  0  0
  150.7327  140.6361  158.5144 H   0  0  0  0  0  0  0  0  0  0  0  0
  148.9775  141.6476  156.6552 H   0  0  0  0  0  0  0  0  0  0  0  0
  150.4712  142.4801  157.0798 H   0  0  0  0  0  0  0  0  0  0  0  0
  1  2  1  0  0  0  0
  1 19  1  0  0  0  0
  1 20  1  0  0  0  0
  1 21  1  0  0  0  0
  2  3  1  0  0  0  0
  2  9  1  0  0  0  0
  2 22  1  0  0  0  0
  3  4  1  0  0  0  0
  3 23  1  0  0  0  0
  3 24  1  0  0  0  0
  4  8  1  0  0  0  0
  4  5  1  0  0  0  0
  5  6  2  0  0  0  0
  5 25  1  0  0  0  0
  6  7  1  0  0  0  0
  6 26  1  0  0  0  0
  7  8  2  0  0  0  0
  7 27  1  0  0  0  0
  9 10  1  0  0  0  0
  9 28  1  0  0  0  0
 10 11  2  0  0  0  0
 10 12  1  0  0  0  0
 12 13  1  0  0  0  0
 12 29  1  0  0  0  0
 12 30  1  0  0  0  0
 13 17  1  0  0  0  0
 13 14  1  0  0  0  0
 14 15  1  0  0  0  0
 14 31  1  0  0  0  0
 14 32  1  0  0  0  0
 15 16  1  0  0  0  0
 15 33  1  0  0  0  0
 15 34  1  0  0  0  0
 16 17  1  0  0  0  0
 17 18  2  0  0  0  0
M  END
> <s_m_source_file>
AV-unprocessed.smi

> <i_m_source_file_index>
1974

> <i_lp_mmshare_version>
43012

> <i_f3d_flags>
0

> <s_epik_input>
bjFbY0hdW2NIXVtjSF1uMVtDSDJdW0NAQEhdKFtDSDNdKVtOSF1DKD1PKVtDSDJdTjJbQ0gyXVtDSDJdU0MyPU8=

> <s_epik_cmdline>
J2VwaWtfcHl0aG9uJywgJy1waCcsICc3LjAnLCAnLXRuJywgJzgnLCAnLW1hJywgJzIwMCcsICctbWV0YWxfYmluZGluZycsICctaW1hZScsICc8aW5maWxlLm1hZT4nLCAnLW9tYWUnLCAnPG91dGZpbGUubWFlPic=

> <r_lp_tautomer_probability>
1

> <r_epik_Ionization_Penalty>
0.000283364

> <r_epik_Ionization_Penalty_Charging>
0

> <r_epik_Ionization_Penalty_Neutral>
0.000283364

> <r_epik_State_Penalty>
-0

> <r_epik_Charging_Adjusted_Penalty>
0

> <i_epik_Tot_Q>
0

> <i_epik_Tot_abs_Q>
0

> <r_epik_Metal_State_Penalty>
-0

> <b_epik_Metal_Only>
0

> <s_lp_Force_Field>
OPLS_2005

> <r_lp_Energy>
2.8686

> <b_lp_Chiralities_Consistent>
1

> <s_lp_Variant>
AV-unprocessed.smi:1974-1

> <Gold.Version>
5.8.1

> <Gold.Id.Protein>
6NUR|6NUR_protein|mol2

> <Gold.PLP.Fitness>
48.5766

> <Gold.PLP.PLP>
-43.5231

> <Gold.PLP.part.hbond>
-1.8514

> <Gold.PLP.part.metal>
0.0000

> <Gold.PLP.part.buried>
-5.2383

> <Gold.PLP.part.nonpolar>
-36.9956

> <Gold.PLP.part.repulsive>
0.2899

> <Gold.PLP.ligand.clash>
0.0000

> <Gold.PLP.ligand.torsion>
0.4952

> <Gold.PLP.Chemscore.Hbond>
2.0000

> <Gold.PLP.Chemscore.CHOScore>
0.0000

> <Gold.PLP.Chemscore.Metal>
0.0000

> <Gold.Chemscore.Hbonds>
donor molecule, donor type, donor heavy atom, donor atom, acceptor molecule, acceptor atom, score
      P1  H  7997  8009       L1    11  0.19
      P1  H  7997  8010       L1    18  1.00

> <Gold.PLP.Chemscore.Internal.Correction>
0.0439

> <Gold.Rescore>
     Score         DG    S(hbond)    S(metal)    S(lipo)     H(rot)  DE(clash)    DE(int)     intcor
     16.32     -16.91       1.92        0.00      87.46       2.04       0.06       0.53       ----

> <Gold.Chemscore.Fitness>
16.3163

> <Gold.Chemscore.DG>
-16.9082

> <Gold.Chemscore.ZeroCoef>
-5.4800

> <Gold.Chemscore.Hbond>
1.9218

> <Gold.Chemscore.Metal>
0.0000

> <Gold.Chemscore.Lipo>
87.4632

> <Gold.Chemscore.Internal_Hbond>
0.0000

> <Gold.Chemscore.DEClash>
0.0628

> <Gold.Chemscore.DEInternal>
0.5291

> <Gold.Chemscore.Rot>
2.0405

> <Gold.Chemscore.Internal.Correction>
   9.000000E+99

> <Gold.Chemscore.Hbonds>
donor molecule, donor type, donor heavy atom, donor atom, acceptor molecule, acceptor atom, score
      P1  H  7997  8009       L1    11  0.15
      P1  H  7997  8010       L1    18  0.59

> <Gold.Chemscore.Hbond.Weighted>
-6.4187

> <Gold.Chemscore.Metal.Weighted>
-0.0000

> <Gold.Chemscore.Lipo.Weighted>
-10.2332

> <Gold.Chemscore.Internal_Hbond.Weighted>
0.0000

> <Gold.Chemscore.DEClash.Weighted>
0.0628

> <Gold.Chemscore.DEInternal.Weighted>
0.5291

> <Gold.Chemscore.Rot.Weighted>
5.2237

> <Gold.Chemscore.Internal.Correction.Weighted>
   9.000000E+99

> <Gold.Protein.RotatedTorsions>
[ 6907 6896 6895 6894 ] final -112.49 input  -60.11 | X-H torsion
[ 7974 7965 7964 7962 ] final  118.42 input  175.53 | X-H torsion
[ 8008 7997 7996 7995 ] final  118.59 input   59.86 | X-H torsion
[ 10167 10162 10161 10158 ] final  141.53 input  -65.29 | X-H torsion
[ 10718 10713 10712 10709 ] final   23.47 input   66.30 | X-H torsion
[ 10763 10752 10751 10750 ] final    1.44 input  -60.55 | X-H torsion
[ 11005 11000 10999 10996 ] final -102.44 input  -57.11 | X-H torsion

> <Gold.Protein.ActiveResidues>
 VAL166  LYS551  ARG553  GLY616  TRP617  ASP618  TYR619  PRO620  LYS621  CYS622 
 ASP623  PHE694  ASN695  SER759  ASP760  ASP761  ALA762  ILE779  LEU786  VAL792 
 PHE793  MET794  SER795  GLU796  ALA797  LYS798  CYS799  TRP800  GLU811  SER814 

> <Gold.Protein.RotatedAtoms>
  150.7762  133.9083  159.3361 H   0  0  0  0  0  0  0  0  0  0  0  0  # atno 6907 bound_to 6896
  151.6957  135.0937  160.0251 H   0  0  0  0  0  0  0  0  0  0  0  0  # atno 6908 bound_to 6896
  152.3798  133.6492  159.6188 H   0  0  0  0  0  0  0  0  0  0  0  0  # atno 6909 bound_to 6896
  145.1554  139.3186  143.4545 H   0  0  0  0  0  0  0  0  0  0  0  0  # atno 7974 bound_to 7965
  156.2554  140.2871  156.0859 H   0  0  0  0  0  0  0  0  0  0  0  0  # atno 8008 bound_to 7997
  155.1516  140.0397  157.2840 H   0  0  0  0  0  0  0  0  0  0  0  0  # atno 8009 bound_to 7997
  154.6457  140.2532  155.7278 H   0  0  0  0  0  0  0  0  0  0  0  0  # atno 8010 bound_to 7997
  139.5018  144.6166  151.6150 H   0  0  0  0  0  0  0  0  0  0  0  0  # atno 10167 bound_to 10162
  157.1665  130.6740  149.6062 H   0  0  0  0  0  0  0  0  0  0  0  0  # atno 10718 bound_to 10713
  153.3080  135.6961  153.7141 H   0  0  0  0  0  0  0  0  0  0  0  0  # atno 10763 bound_to 10752
  153.6029  135.3458  155.2952 H   0  0  0  0  0  0  0  0  0  0  0  0  # atno 10764 bound_to 10752
  154.8568  135.4345  154.2211 H   0  0  0  0  0  0  0  0  0  0  0  0  # atno 10765 bound_to 10752
  141.1189  133.8559  157.1360 H   0  0  0  0  0  0  0  0  0  0  0  0  # atno 11005 bound_to 11000
  146.3489  140.1644  142.8590 LP  0  0  0  0  0  0  0  0  0  0  0  0  # atno 17320 bound_to 7965
  145.0387  140.8928  143.5066 LP  0  0  0  0  0  0  0  0  0  0  0  0  # atno 17321 bound_to 7965
  140.5855  143.9871  150.6293 LP  0  0  0  0  0  0  0  0  0  0  0  0  # atno 17342 bound_to 10162
  140.3034  143.3245  152.0949 LP  0  0  0  0  0  0  0  0  0  0  0  0  # atno 17343 bound_to 10162
  155.9745  130.4693  150.6392 LP  0  0  0  0  0  0  0  0  0  0  0  0  # atno 17370 bound_to 10713
  157.4083  131.0820  151.1245 LP  0  0  0  0  0  0  0  0  0  0  0  0  # atno 17371 bound_to 10713
  140.0131  134.9979  157.0436 LP  0  0  0  0  0  0  0  0  0  0  0  0  # atno 17394 bound_to 11000
  140.4566  134.1527  155.7187 LP  0  0  0  0  0  0  0  0  0  0  0  0  # atno 17395 bound_to 11000

$$$$
