AV-unprocessed.smi:1626|AV-procd|sdf|6511|dock3
  -GOLD-   22720 7183D 1   1.00000     0.00000
 Structure written by MMmdl.
 49 51  0  0  0  0  0  0  0  0  3 V2000
  152.3884  144.2594  160.6175 C   0  0  0  0  0  0  0  0  0  0  0  0
  152.1064  143.2327  159.5335 C   0  0  0  0  0  0  0  0  0  0  0  0
  151.1828  143.5630  158.5159 C   0  0  0  0  0  0  0  0  0  0  0  0
  150.9471  142.6043  157.5377 C   0  0  0  0  0  0  0  0  0  0  0  0
  150.1108  142.6233  156.4193 N   0  3  0  0  0  0  0  0  0  0  0  0
  150.2224  141.4436  155.7481 C   0  0  0  0  0  0  0  0  0  0  0  0
  151.1117  140.6682  156.4270 N   0  0  0  0  0  0  0  0  0  0  0  0
  151.5964  139.3117  156.1375 C   0  0  0  0  0  0  0  0  0  0  0  0
  150.6455  138.5126  155.2243 C   0  0  1  0  0  0  0  0  0  0  0  0
  150.6798  139.0633  153.9217 O   0  0  0  0  0  0  0  0  0  0  0  0
  151.0510  137.0275  155.1434 C   0  0  0  0  0  0  0  0  0  0  0  0
  149.9312  136.1533  154.7087 N   0  3  2  0  0  0  0  0  0  0  0  0
  148.6546  136.4325  155.4202 C   0  0  0  0  0  0  0  0  0  0  0  0
  147.5011  135.6013  154.8340 C   0  0  0  0  0  0  0  0  0  0  0  0
  147.8302  134.1019  154.8789 C   0  0  1  0  0  0  0  0  0  0  0  0
  146.8045  133.3674  154.2460 O   0  0  0  0  0  0  0  0  0  0  0  0
  149.1658  133.8409  154.1673 C   0  0  0  0  0  0  0  0  0  0  0  0
  150.2844  134.7106  154.7651 C   0  0  0  0  0  0  0  0  0  0  0  0
  151.5931  141.3529  157.5477 C   0  0  0  0  0  0  0  0  0  0  0  0
  152.5054  141.0107  158.5426 C   0  0  0  0  0  0  0  0  0  0  0  0
  152.7587  141.9725  159.5469 C   0  0  0  0  0  0  0  0  0  0  0  0
  153.7506  141.6289  160.6453 C   0  0  0  0  0  0  0  0  0  0  0  0
  151.8294  145.1804  160.4499 H   0  0  0  0  0  0  0  0  0  0  0  0
  153.4484  144.5137  160.6389 H   0  0  0  0  0  0  0  0  0  0  0  0
  152.1052  143.8707  161.5960 H   0  0  0  0  0  0  0  0  0  0  0  0
  150.6833  144.5209  158.4986 H   0  0  0  0  0  0  0  0  0  0  0  0
  149.6981  141.1722  154.8428 H   0  0  0  0  0  0  0  0  0  0  0  0
  152.5771  139.4105  155.6693 H   0  0  0  0  0  0  0  0  0  0  0  0
  151.7568  138.7935  157.0837 H   0  0  0  0  0  0  0  0  0  0  0  0
  149.6294  138.6102  155.6049 H   0  0  0  0  0  0  0  0  0  0  0  0
  150.0741  138.5839  153.3764 H   0  0  0  0  0  0  0  0  0  0  0  0
  151.8837  136.9376  154.4436 H   0  0  0  0  0  0  0  0  0  0  0  0
  151.4273  136.6786  156.1064 H   0  0  0  0  0  0  0  0  0  0  0  0
  148.7721  136.2107  156.4822 H   0  0  0  0  0  0  0  0  0  0  0  0
  148.4010  137.4893  155.3466 H   0  0  0  0  0  0  0  0  0  0  0  0
  146.5820  135.8016  155.3859 H   0  0  0  0  0  0  0  0  0  0  0  0
  147.3190  135.9123  153.8041 H   0  0  0  0  0  0  0  0  0  0  0  0
  147.8968  133.7707  155.9161 H   0  0  0  0  0  0  0  0  0  0  0  0
  146.9997  132.4452  154.3201 H   0  0  0  0  0  0  0  0  0  0  0  0
  149.4339  132.7864  154.2454 H   0  0  0  0  0  0  0  0  0  0  0  0
  149.0693  134.0578  153.1021 H   0  0  0  0  0  0  0  0  0  0  0  0
  151.2056  134.5343  154.2083 H   0  0  0  0  0  0  0  0  0  0  0  0
  150.4769  134.4210  155.7993 H   0  0  0  0  0  0  0  0  0  0  0  0
  153.0039  140.0529  158.5512 H   0  0  0  0  0  0  0  0  0  0  0  0
  154.1405  140.6172  160.5293 H   0  0  0  0  0  0  0  0  0  0  0  0
  153.2763  141.6917  161.6250 H   0  0  0  0  0  0  0  0  0  0  0  0
  154.5968  142.3161  160.6248 H   0  0  0  0  0  0  0  0  0  0  0  0
  149.7781  136.3634  153.7322 H   0  0  0  0  0  0  0  0  0  0  0  0
  149.5104  143.3854  156.1305 H   0  0  0  0  0  0  0  0  0  0  0  0
  1  2  1  0  0  0  0
  1 23  1  0  0  0  0
  1 24  1  0  0  0  0
  1 25  1  0  0  0  0
  2 21  1  0  0  0  0
  2  3  2  0  0  0  0
  3  4  1  0  0  0  0
  3 26  1  0  0  0  0
  4 19  2  0  0  0  0
  4  5  1  0  0  0  0
  5  6  2  0  0  0  0
  5 49  1  0  0  0  0
  6  7  1  0  0  0  0
  6 27  1  0  0  0  0
  7  8  1  0  0  0  0
  7 19  1  0  0  0  0
  8  9  1  0  0  0  0
  8 28  1  0  0  0  0
  8 29  1  0  0  0  0
  9 10  1  0  0  0  0
  9 11  1  0  0  0  0
  9 30  1  0  0  0  0
 10 31  1  0  0  0  0
 11 12  1  0  0  0  0
 11 32  1  0  0  0  0
 11 33  1  0  0  0  0
 12 18  1  0  0  0  0
 12 13  1  0  0  0  0
 12 48  1  0  0  0  0
 13 14  1  0  0  0  0
 13 34  1  0  0  0  0
 13 35  1  0  0  0  0
 14 15  1  0  0  0  0
 14 36  1  0  0  0  0
 14 37  1  0  0  0  0
 15 16  1  0  0  0  0
 15 17  1  0  0  0  0
 15 38  1  0  0  0  0
 16 39  1  0  0  0  0
 17 18  1  0  0  0  0
 17 40  1  0  0  0  0
 17 41  1  0  0  0  0
 18 42  1  0  0  0  0
 18 43  1  0  0  0  0
 19 20  1  0  0  0  0
 20 21  2  0  0  0  0
 20 44  1  0  0  0  0
 21 22  1  0  0  0  0
 22 45  1  0  0  0  0
 22 46  1  0  0  0  0
 22 47  1  0  0  0  0
M  CHG  1   5   1
M  CHG  1  12   1
M  END
> <s_m_source_file>
AV-unprocessed.smi

> <i_m_source_file_index>
1626

> <i_lp_mmshare_version>
43012

> <i_f3d_flags>
0

> <s_epik_input>
W0NIM11jKFtjSF0xKWMoW0NIM10pW2NIXWMoYzEyKW4oW2NIXW4yKVtDSDJdW0NASF0oW09IXSlbQ0gyXU4zW0NIMl1bQ0gyXVtDSF0oW09IXSlbQ0gyXVtDSDJdMw==

> <s_epik_cmdline>
J2VwaWtfcHl0aG9uJywgJy1waCcsICc3LjAnLCAnLXRuJywgJzgnLCAnLW1hJywgJzIwMCcsICctbWV0YWxfYmluZGluZycsICctaW1hZScsICc8aW5maWxlLm1hZT4nLCAnLW9tYWUnLCAnPG91dGZpbGUubWFlPic=

> <r_epik_Ionization_Penalty>
1.19369

> <r_epik_Ionization_Penalty_Charging>
1.19369

> <r_epik_Ionization_Penalty_Neutral>
1.68219e-06

> <r_epik_State_Penalty>
1.27429

> <r_epik_Charging_Adjusted_Penalty>
2.46798

> <i_epik_Tot_Q>
2

> <i_epik_Tot_abs_Q>
2

> <r_epik_Metal_State_Penalty>
5.29157

> <b_epik_Metal_Only>
0

> <s_lp_Force_Field>
OPLS_2005

> <r_lp_Energy>
30.226

> <b_lp_Chiralities_Consistent>
1

> <s_lp_Variant>
AV-unprocessed.smi:1626-6

> <Gold.Version>
5.8.1

> <Gold.Id.Protein>
6NUR|6NUR_protein|mol2

> <Gold.PLP.Fitness>
56.0659

> <Gold.PLP.PLP>
-42.2429

> <Gold.PLP.part.hbond>
-3.7381

> <Gold.PLP.part.metal>
0.0000

> <Gold.PLP.part.buried>
-3.5639

> <Gold.PLP.part.nonpolar>
-35.5972

> <Gold.PLP.part.repulsive>
0.1382

> <Gold.PLP.ligand.clash>
0.0000

> <Gold.PLP.ligand.torsion>
0.6039

> <Gold.PLP.Chemscore.Hbond>
5.0000

> <Gold.PLP.Chemscore.CHOScore>
0.0000

> <Gold.PLP.Chemscore.Metal>
0.0000

> <Gold.Chemscore.Hbonds>
donor molecule, donor type, donor heavy atom, donor atom, acceptor molecule, acceptor atom, score
      L1  H     5    49       P1  8028  2.00
      L1  H    12    48       P1  7948  2.00
      P1  H  7989  7998       L1    10  0.89

> <Gold.PLP.Chemscore.Internal.Correction>
0.0307

> <Gold.Rescore>
     Score         DG    S(hbond)    S(metal)    S(lipo)     H(rot)  DE(clash)    DE(int)     intcor
     19.60     -20.55       2.74        0.00     110.37       2.74       0.29       0.66       ----

> <Gold.Chemscore.Fitness>
19.6023

> <Gold.Chemscore.DG>
-20.5459

> <Gold.Chemscore.ZeroCoef>
-5.4800

> <Gold.Chemscore.Hbond>
2.7434

> <Gold.Chemscore.Metal>
0.0000

> <Gold.Chemscore.Lipo>
110.3697

> <Gold.Chemscore.Internal_Hbond>
0.0000

> <Gold.Chemscore.DEClash>
0.2875

> <Gold.Chemscore.DEInternal>
0.6561

> <Gold.Chemscore.Rot>
2.7384

> <Gold.Chemscore.Internal.Correction>
   9.000000E+99

> <Gold.Chemscore.Hbonds>
donor molecule, donor type, donor heavy atom, donor atom, acceptor molecule, acceptor atom, score
      L1  H     5    49       P1  8028  0.95
      L1  H    12    48       P1  7948  0.33
      P1  H  7989  7998       L1    10  0.84

> <Gold.Chemscore.Hbond.Weighted>
-9.1630

> <Gold.Chemscore.Metal.Weighted>
-0.0000

> <Gold.Chemscore.Lipo.Weighted>
-12.9133

> <Gold.Chemscore.Internal_Hbond.Weighted>
0.0000

> <Gold.Chemscore.DEClash.Weighted>
0.2875

> <Gold.Chemscore.DEInternal.Weighted>
0.6561

> <Gold.Chemscore.Rot.Weighted>
7.0103

> <Gold.Chemscore.Internal.Correction.Weighted>
   9.000000E+99

> <Gold.Protein.RotatedTorsions>
[ 6907 6896 6895 6894 ] final  137.75 input  -60.11 | X-H torsion
[ 7974 7965 7964 7962 ] final  156.89 input  175.53 | X-H torsion
[ 8008 7997 7996 7995 ] final   33.60 input   59.86 | X-H torsion
[ 10167 10162 10161 10158 ] final   50.82 input  -65.29 | X-H torsion
[ 10718 10713 10712 10709 ] final   61.95 input   66.30 | X-H torsion
[ 10763 10752 10751 10750 ] final   92.02 input  -60.55 | X-H torsion
[ 11005 11000 10999 10996 ] final   50.67 input  -57.11 | X-H torsion

> <Gold.Protein.ActiveResidues>
 VAL166  LYS551  ARG553  GLY616  TRP617  ASP618  TYR619  PRO620  LYS621  CYS622 
 ASP623  PHE694  ASN695  SER759  ASP760  ASP761  ALA762  ILE779  LEU786  VAL792 
 PHE793  MET794  SER795  GLU796  ALA797  LYS798  CYS799  TRP800  GLU811  SER814 

> <Gold.Protein.RotatedAtoms>
  152.2745  133.5413  159.5459 H   0  0  0  0  0  0  0  0  0  0  0  0  # atno 6907 bound_to 6896
  150.7172  134.0651  159.3854 H   0  0  0  0  0  0  0  0  0  0  0  0  # atno 6908 bound_to 6896
  151.8565  135.0539  160.0515 H   0  0  0  0  0  0  0  0  0  0  0  0  # atno 6909 bound_to 6896
  144.7936  139.7266  143.6211 H   0  0  0  0  0  0  0  0  0  0  0  0  # atno 7974 bound_to 7965
  155.1412  140.3266  155.4451 H   0  0  0  0  0  0  0  0  0  0  0  0  # atno 8008 bound_to 7997
  156.2604  140.1993  156.6477 H   0  0  0  0  0  0  0  0  0  0  0  0  # atno 8009 bound_to 7997
  154.6541  140.0555  156.9975 H   0  0  0  0  0  0  0  0  0  0  0  0  # atno 8010 bound_to 7997
  140.2684  144.3293  150.6297 H   0  0  0  0  0  0  0  0  0  0  0  0  # atno 10167 bound_to 10162
  157.5865  130.9023  149.9525 H   0  0  0  0  0  0  0  0  0  0  0  0  # atno 10718 bound_to 10713
  153.2145  135.4376  155.0419 H   0  0  0  0  0  0  0  0  0  0  0  0  # atno 10763 bound_to 10752
  154.8218  135.3341  154.7018 H   0  0  0  0  0  0  0  0  0  0  0  0  # atno 10764 bound_to 10752
  153.7454  135.7002  153.5013 H   0  0  0  0  0  0  0  0  0  0  0  0  # atno 10765 bound_to 10752
  140.0997  134.5097  155.8774 H   0  0  0  0  0  0  0  0  0  0  0  0  # atno 11005 bound_to 11000
  146.2196  139.5612  142.9627 LP  0  0  0  0  0  0  0  0  0  0  0  0  # atno 17320 bound_to 7965
  145.5731  141.0392  143.2163 LP  0  0  0  0  0  0  0  0  0  0  0  0  # atno 17321 bound_to 7965
  140.5909  143.2168  151.7254 LP  0  0  0  0  0  0  0  0  0  0  0  0  # atno 17342 bound_to 10162
  139.4996  144.3940  152.0251 LP  0  0  0  0  0  0  0  0  0  0  0  0  # atno 17343 bound_to 10162
  156.0915  130.3663  150.0386 LP  0  0  0  0  0  0  0  0  0  0  0  0  # atno 17370 bound_to 10713
  156.8517  130.9461  151.3625 LP  0  0  0  0  0  0  0  0  0  0  0  0  # atno 17371 bound_to 10713
  141.2102  133.6692  156.6494 LP  0  0  0  0  0  0  0  0  0  0  0  0  # atno 17394 bound_to 11000
  140.3237  134.7987  157.4272 LP  0  0  0  0  0  0  0  0  0  0  0  0  # atno 17395 bound_to 11000

$$$$
