AV-unprocessed.smi:1586|AV-procd|sdf|6375|dock6
  -GOLD-   22720 7 03D 1   1.00000     0.00000
 Structure written by MMmdl.
 47 48  0  0  0  0  0  0  0  0  2 V2000
  144.0960  132.1595  150.8956 C   0  0  0  0  0  0  0  0  0  0  0  0
  144.1920  133.6740  151.1290 C   0  0  0  0  0  0  0  0  0  0  0  0
  145.5138  134.2005  150.7800 N   0  0  0  0  0  0  0  0  0  0  0  0
  145.5299  135.6610  150.7006 C   0  0  0  0  0  0  0  0  0  0  0  0
  145.4041  136.3260  152.0883 C   0  0  0  0  0  0  0  0  0  0  0  0
  146.4974  135.8826  152.9976 N   0  3  0  0  0  0  0  0  0  0  0  0
  146.5130  136.5162  154.3565 C   0  0  2  0  0  0  0  0  0  0  0  0
  146.5009  138.0638  154.3206 C   0  0  0  0  0  0  0  0  0  0  0  0
  147.7359  136.0123  155.1688 C   0  0  0  0  0  0  0  0  0  0  0  0
  147.8372  136.6253  156.4902 N   0  0  0  0  0  0  0  0  0  0  0  0
  147.5264  136.0108  157.6405 C   0  0  0  0  0  0  0  0  0  0  0  0
  147.1173  134.8506  157.6972 O   0  0  0  0  0  0  0  0  0  0  0  0
  147.7153  136.8199  158.6967 N   0  0  0  0  0  0  0  0  0  0  0  0
  147.4827  136.5220  160.0637 C   0  0  0  0  0  0  0  0  0  0  0  0
  147.0417  135.2331  160.4649 C   0  0  0  0  0  0  0  0  0  0  0  0
  146.9419  135.3509  161.8227 C   0  0  0  0  0  0  0  0  0  0  0  0
  146.5394  134.4002  162.8974 C   0  0  0  0  0  0  0  0  0  0  0  0
  147.2923  136.6052  162.2163 O   0  0  0  0  0  0  0  0  0  0  0  0
  147.6382  137.3516  161.0836 N   0  0  0  0  0  0  0  0  0  0  0  0
  146.5018  134.3951  153.0642 C   0  0  0  0  0  0  0  0  0  0  0  0
  146.6072  133.7732  151.6568 C   0  0  0  0  0  0  0  0  0  0  0  0
  143.0699  131.8181  151.0328 H   0  0  0  0  0  0  0  0  0  0  0  0
  144.7165  131.5971  151.5927 H   0  0  0  0  0  0  0  0  0  0  0  0
  144.3976  131.8948  149.8817 H   0  0  0  0  0  0  0  0  0  0  0  0
  143.4513  134.1589  150.4918 H   0  0  0  0  0  0  0  0  0  0  0  0
  143.9184  133.9144  152.1554 H   0  0  0  0  0  0  0  0  0  0  0  0
  146.4634  135.9733  150.2303 H   0  0  0  0  0  0  0  0  0  0  0  0
  144.7293  136.0019  150.0432 H   0  0  0  0  0  0  0  0  0  0  0  0
  145.4581  137.4019  151.9256 H   0  0  0  0  0  0  0  0  0  0  0  0
  144.4324  136.1197  152.5389 H   0  0  0  0  0  0  0  0  0  0  0  0
  145.5981  136.2102  154.8664 H   0  0  0  0  0  0  0  0  0  0  0  0
  146.5389  138.4905  155.3228 H   0  0  0  0  0  0  0  0  0  0  0  0
  145.5893  138.4562  153.8697 H   0  0  0  0  0  0  0  0  0  0  0  0
  147.3542  138.4572  153.7672 H   0  0  0  0  0  0  0  0  0  0  0  0
  147.7233  134.9310  155.3016 H   0  0  0  0  0  0  0  0  0  0  0  0
  148.6546  136.2363  154.6260 H   0  0  0  0  0  0  0  0  0  0  0  0
  148.1674  137.5787  156.5299 H   0  0  0  0  0  0  0  0  0  0  0  0
  148.0583  137.7491  158.5039 H   0  0  0  0  0  0  0  0  0  0  0  0
  146.8325  134.3633  159.8602 H   0  0  0  0  0  0  0  0  0  0  0  0
  146.2001  133.4545  162.4747 H   0  0  0  0  0  0  0  0  0  0  0  0
  145.7271  134.8137  163.4954 H   0  0  0  0  0  0  0  0  0  0  0  0
  147.3776  134.1919  163.5625 H   0  0  0  0  0  0  0  0  0  0  0  0
  147.3475  134.0391  153.6489 H   0  0  0  0  0  0  0  0  0  0  0  0
  145.6091  134.0407  153.5806 H   0  0  0  0  0  0  0  0  0  0  0  0
  146.6399  132.6864  151.7243 H   0  0  0  0  0  0  0  0  0  0  0  0
  147.5522  134.0707  151.2002 H   0  0  0  0  0  0  0  0  0  0  0  0
  147.3567  136.1598  152.5454 H   0  0  0  0  0  0  0  0  0  0  0  0
  1  2  1  0  0  0  0
  1 22  1  0  0  0  0
  1 23  1  0  0  0  0
  1 24  1  0  0  0  0
  2  3  1  0  0  0  0
  2 25  1  0  0  0  0
  2 26  1  0  0  0  0
  3 21  1  0  0  0  0
  3  4  1  0  0  0  0
  4  5  1  0  0  0  0
  4 27  1  0  0  0  0
  4 28  1  0  0  0  0
  5  6  1  0  0  0  0
  5 29  1  0  0  0  0
  5 30  1  0  0  0  0
  6  7  1  0  0  0  0
  6 20  1  0  0  0  0
  6 47  1  0  0  0  0
  7  8  1  0  0  0  0
  7  9  1  0  0  0  0
  7 31  1  0  0  0  0
  8 32  1  0  0  0  0
  8 33  1  0  0  0  0
  8 34  1  0  0  0  0
  9 10  1  0  0  0  0
  9 35  1  0  0  0  0
  9 36  1  0  0  0  0
 10 11  1  0  0  0  0
 10 37  1  0  0  0  0
 11 12  2  0  0  0  0
 11 13  1  0  0  0  0
 13 14  1  0  0  0  0
 13 38  1  0  0  0  0
 14 19  2  0  0  0  0
 14 15  1  0  0  0  0
 15 16  2  0  0  0  0
 15 39  1  0  0  0  0
 16 17  1  0  0  0  0
 16 18  1  0  0  0  0
 17 40  1  0  0  0  0
 17 41  1  0  0  0  0
 17 42  1  0  0  0  0
 18 19  1  0  0  0  0
 20 21  1  0  0  0  0
 20 43  1  0  0  0  0
 20 44  1  0  0  0  0
 21 45  1  0  0  0  0
 21 46  1  0  0  0  0
M  CHG  1   6   1
M  END
> <s_m_source_file>
AV-unprocessed.smi

> <i_m_source_file_index>
1586

> <i_lp_mmshare_version>
43012

> <i_f3d_flags>
0

> <s_epik_input>
W0NIM11bQ0gyXU4xW0NIMl1bQ0gyXU4oW0NIMl1bQ0gyXTEpW0NASF0oW0NIM10pW0NIMl1bTkhdQyg9TylbTkhdYzJbY0hdYyhbQ0gzXSlvbjI=

> <s_epik_cmdline>
J2VwaWtfcHl0aG9uJywgJy1waCcsICc3LjAnLCAnLXRuJywgJzgnLCAnLW1hJywgJzIwMCcsICctbWV0YWxfYmluZGluZycsICctaW1hZScsICc8aW5maWxlLm1hZT4nLCAnLW9tYWUnLCAnPG91dGZpbGUubWFlPic=

> <r_epik_Ionization_Penalty>
0.153363

> <r_epik_Ionization_Penalty_Charging>
0.151842

> <r_epik_Ionization_Penalty_Neutral>
0.00152029

> <r_epik_State_Penalty>
0.985235

> <r_epik_Charging_Adjusted_Penalty>
1.13708

> <i_epik_Tot_Q>
1

> <i_epik_Tot_abs_Q>
1

> <r_epik_Metal_State_Penalty>
0.996168

> <b_epik_Metal_Only>
0

> <s_lp_Force_Field>
OPLS_2005

> <r_lp_Energy>
18.9403

> <b_lp_Chiralities_Consistent>
1

> <s_lp_Variant>
AV-unprocessed.smi:1586-3

> <Gold.Version>
5.8.1

> <Gold.Id.Protein>
6NUR|6NUR_protein|mol2

> <Gold.PLP.Fitness>
38.9269

> <Gold.PLP.PLP>
-28.1625

> <Gold.PLP.part.hbond>
-3.0000

> <Gold.PLP.part.metal>
0.0000

> <Gold.PLP.part.buried>
-3.7742

> <Gold.PLP.part.nonpolar>
-22.2430

> <Gold.PLP.part.repulsive>
0.2662

> <Gold.PLP.ligand.clash>
0.0000

> <Gold.PLP.ligand.torsion>
0.1921

> <Gold.PLP.Chemscore.Hbond>
3.6928

> <Gold.PLP.Chemscore.CHOScore>
0.0000

> <Gold.PLP.Chemscore.Metal>
0.0000

> <Gold.Chemscore.Hbonds>
donor molecule, donor type, donor heavy atom, donor atom, acceptor molecule, acceptor atom, score
      L1  H     6    47       P1  7948  2.00
      P1  H  6931  6943       L1    19  0.62
      P1  H  6934  6947       L1    19  0.88

> <Gold.PLP.Chemscore.Internal.Correction>
0.0702

> <Gold.Rescore>
     Score         DG    S(hbond)    S(metal)    S(lipo)     H(rot)  DE(clash)    DE(int)     intcor
     14.35     -15.94       2.40        0.00      59.39       1.76       0.02       1.57       ----

> <Gold.Chemscore.Fitness>
14.3505

> <Gold.Chemscore.DG>
-15.9392

> <Gold.Chemscore.ZeroCoef>
-5.4800

> <Gold.Chemscore.Hbond>
2.4029

> <Gold.Chemscore.Metal>
0.0000

> <Gold.Chemscore.Lipo>
59.3890

> <Gold.Chemscore.Internal_Hbond>
0.0000

> <Gold.Chemscore.DEClash>
0.0162

> <Gold.Chemscore.DEInternal>
1.5725

> <Gold.Chemscore.Rot>
1.7637

> <Gold.Chemscore.Internal.Correction>
   9.000000E+99

> <Gold.Chemscore.Hbonds>
donor molecule, donor type, donor heavy atom, donor atom, acceptor molecule, acceptor atom, score
      L1  H     6    47       P1  7948  1.00
      P1  H  6931  6943       L1    19  0.08
      P1  H  6934  6947       L1    19  0.84

> <Gold.Chemscore.Hbond.Weighted>
-8.0257

> <Gold.Chemscore.Metal.Weighted>
-0.0000

> <Gold.Chemscore.Lipo.Weighted>
-6.9485

> <Gold.Chemscore.Internal_Hbond.Weighted>
0.0000

> <Gold.Chemscore.DEClash.Weighted>
0.0162

> <Gold.Chemscore.DEInternal.Weighted>
1.5725

> <Gold.Chemscore.Rot.Weighted>
4.5150

> <Gold.Chemscore.Internal.Correction.Weighted>
   9.000000E+99

> <Gold.Protein.RotatedTorsions>
[ 6907 6896 6895 6894 ] final    3.14 input  -60.11 | X-H torsion
[ 7974 7965 7964 7962 ] final    7.69 input  175.53 | X-H torsion
[ 8008 7997 7996 7995 ] final   63.89 input   59.86 | X-H torsion
[ 10167 10162 10161 10158 ] final  160.72 input  -65.29 | X-H torsion
[ 10718 10713 10712 10709 ] final  122.85 input   66.30 | X-H torsion
[ 10763 10752 10751 10750 ] final   85.20 input  -60.55 | X-H torsion
[ 11005 11000 10999 10996 ] final  141.26 input  -57.11 | X-H torsion

> <Gold.Protein.ActiveResidues>
 VAL166  LYS551  ARG553  GLY616  TRP617  ASP618  TYR619  PRO620  LYS621  CYS622 
 ASP623  PHE694  ASN695  SER759  ASP760  ASP761  ALA762  ILE779  LEU786  VAL792 
 PHE793  MET794  SER795  GLU796  ALA797  LYS798  CYS799  TRP800  GLU811  SER814 

> <Gold.Protein.RotatedAtoms>
  151.6202  135.1032  160.0099 H   0  0  0  0  0  0  0  0  0  0  0  0  # atno 6907 bound_to 6896
  152.4162  133.7037  159.6449 H   0  0  0  0  0  0  0  0  0  0  0  0  # atno 6908 bound_to 6896
  150.8050  133.8453  159.3231 H   0  0  0  0  0  0  0  0  0  0  0  0  # atno 6909 bound_to 6896
  146.2424  140.0045  142.8412 H   0  0  0  0  0  0  0  0  0  0  0  0  # atno 7974 bound_to 7965
  155.6373  140.3496  155.4703 H   0  0  0  0  0  0  0  0  0  0  0  0  # atno 8008 bound_to 7997
  155.9954  140.1202  157.0622 H   0  0  0  0  0  0  0  0  0  0  0  0  # atno 8009 bound_to 7997
  154.4232  140.1111  156.5610 H   0  0  0  0  0  0  0  0  0  0  0  0  # atno 8010 bound_to 7997
  139.4842  144.4606  151.8709 H   0  0  0  0  0  0  0  0  0  0  0  0  # atno 10167 bound_to 10162
  157.5711  131.1083  150.8365 H   0  0  0  0  0  0  0  0  0  0  0  0  # atno 10718 bound_to 10713
  153.1453  135.4626  154.9557 H   0  0  0  0  0  0  0  0  0  0  0  0  # atno 10763 bound_to 10752
  154.7781  135.3179  154.8051 H   0  0  0  0  0  0  0  0  0  0  0  0  # atno 10764 bound_to 10752
  153.8567  135.6916  153.4841 H   0  0  0  0  0  0  0  0  0  0  0  0  # atno 10765 bound_to 10752
  140.0388  134.9315  157.0804 H   0  0  0  0  0  0  0  0  0  0  0  0  # atno 11005 bound_to 11000
  145.1384  140.9557  143.4503 LP  0  0  0  0  0  0  0  0  0  0  0  0  # atno 17320 bound_to 7965
  145.0319  139.3333  143.6020 LP  0  0  0  0  0  0  0  0  0  0  0  0  # atno 17321 bound_to 7965
  140.4069  144.2420  150.5890 LP  0  0  0  0  0  0  0  0  0  0  0  0  # atno 17342 bound_to 10162
  140.5004  143.2319  151.8687 LP  0  0  0  0  0  0  0  0  0  0  0  0  # atno 17343 bound_to 10162
  156.8837  130.5188  149.5289 LP  0  0  0  0  0  0  0  0  0  0  0  0  # atno 17370 bound_to 10713
  156.0756  130.5779  150.9467 LP  0  0  0  0  0  0  0  0  0  0  0  0  # atno 17371 bound_to 10713
  140.4103  134.1988  155.7163 LP  0  0  0  0  0  0  0  0  0  0  0  0  # atno 17394 bound_to 11000
  141.1872  133.8287  157.1041 LP  0  0  0  0  0  0  0  0  0  0  0  0  # atno 17395 bound_to 11000

$$$$
