AV-unprocessed.smi:2845|AV-procd|sdf|10950|dock2
  -GOLD-   2272015403D 1   1.00000     0.00000
 Structure written by MMmdl.
 43 45  0  0  0  0  0  0  0  0  2 V2000
  152.0415  144.2141  160.9922 C   0  0  0  0  0  0  0  0  0  0  0  0
  151.9761  143.1838  159.8776 C   0  0  0  0  0  0  0  0  0  0  0  0
  151.1502  143.4486  158.7619 C   0  0  0  0  0  0  0  0  0  0  0  0
  151.1151  142.4894  157.7567 C   0  0  0  0  0  0  0  0  0  0  0  0
  150.4159  142.4571  156.5483 N   0  3  0  0  0  0  0  0  0  0  0  0
  150.7047  141.3023  155.8869 C   0  0  0  0  0  0  0  0  0  0  0  0
  151.5769  140.5955  156.6557 N   0  0  0  0  0  0  0  0  0  0  0  0
  152.2009  139.2879  156.4058 C   0  0  0  0  0  0  0  0  0  0  0  0
  152.0230  138.8061  154.9527 C   0  0  1  0  0  0  0  0  0  0  0  0
  153.1760  138.1011  154.5327 O   0  0  0  0  0  0  0  0  0  0  0  0
  150.7783  137.9119  154.7940 C   0  0  0  0  0  0  0  0  0  0  0  0
  150.7933  136.7735  155.6951 N   0  0  0  0  0  0  0  0  0  0  0  0
  150.5919  136.7101  157.0145 C   0  0  0  0  0  0  0  0  0  0  0  0
  150.6724  135.4839  157.5144 N   0  0  0  0  0  0  0  0  0  0  0  0
  150.9445  134.8031  156.3638 C   0  0  0  0  0  0  0  0  0  0  0  0
  151.1809  132.9983  156.3629 S   0  0  2  0  0  0  0  0  0  0  0  0
  150.0191  132.6617  154.9570 C   0  0  0  0  0  0  0  0  0  0  0  0
  150.5050  132.4842  157.6360 O   0  0  0  0  0  0  0  0  0  0  0  0
  151.0316  135.5191  155.2444 N   0  0  0  0  0  0  0  0  0  0  0  0
  151.8625  141.2979  157.8329 C   0  0  0  0  0  0  0  0  0  0  0  0
  152.6804  141.0216  158.9260 C   0  0  0  0  0  0  0  0  0  0  0  0
  152.7314  141.9852  159.9584 C   0  0  0  0  0  0  0  0  0  0  0  0
  153.6197  141.7120  161.1602 C   0  0  0  0  0  0  0  0  0  0  0  0
  151.4247  145.0849  160.7677 H   0  0  0  0  0  0  0  0  0  0  0  0
  153.0656  144.5598  161.1354 H   0  0  0  0  0  0  0  0  0  0  0  0
  151.6853  143.7866  161.9297 H   0  0  0  0  0  0  0  0  0  0  0  0
  150.5731  144.3592  158.6927 H   0  0  0  0  0  0  0  0  0  0  0  0
  150.3131  141.0020  154.9257 H   0  0  0  0  0  0  0  0  0  0  0  0
  153.2541  139.3317  156.6839 H   0  0  0  0  0  0  0  0  0  0  0  0
  151.7354  138.5773  157.0900 H   0  0  0  0  0  0  0  0  0  0  0  0
  151.9159  139.6770  154.3047 H   0  0  0  0  0  0  0  0  0  0  0  0
  153.2063  137.2740  154.9900 H   0  0  0  0  0  0  0  0  0  0  0  0
  149.8669  138.4875  154.9647 H   0  0  0  0  0  0  0  0  0  0  0  0
  150.7192  137.5309  153.7739 H   0  0  0  0  0  0  0  0  0  0  0  0
  150.3785  137.5787  157.6203 H   0  0  0  0  0  0  0  0  0  0  0  0
  149.9671  133.5138  154.2790 H   0  0  0  0  0  0  0  0  0  0  0  0
  149.0175  132.4579  155.3357 H   0  0  0  0  0  0  0  0  0  0  0  0
  150.3588  131.7942  154.3914 H   0  0  0  0  0  0  0  0  0  0  0  0
  153.2626  140.1138  158.9848 H   0  0  0  0  0  0  0  0  0  0  0  0
  154.0860  140.7283  161.0960 H   0  0  0  0  0  0  0  0  0  0  0  0
  153.0404  141.7444  162.0831 H   0  0  0  0  0  0  0  0  0  0  0  0
  154.4149  142.4552  161.2229 H   0  0  0  0  0  0  0  0  0  0  0  0
  149.7891  143.1701  156.1975 H   0  0  0  0  0  0  0  0  0  0  0  0
  1  2  1  0  0  0  0
  1 24  1  0  0  0  0
  1 25  1  0  0  0  0
  1 26  1  0  0  0  0
  2 22  1  0  0  0  0
  2  3  2  0  0  0  0
  3  4  1  0  0  0  0
  3 27  1  0  0  0  0
  4 20  2  0  0  0  0
  4  5  1  0  0  0  0
  5  6  2  0  0  0  0
  5 43  1  0  0  0  0
  6  7  1  0  0  0  0
  6 28  1  0  0  0  0
  7  8  1  0  0  0  0
  7 20  1  0  0  0  0
  8  9  1  0  0  0  0
  8 29  1  0  0  0  0
  8 30  1  0  0  0  0
  9 10  1  0  0  0  0
  9 11  1  0  0  0  0
  9 31  1  0  0  0  0
 10 32  1  0  0  0  0
 11 12  1  0  0  0  0
 11 33  1  0  0  0  0
 11 34  1  0  0  0  0
 12 19  1  0  0  0  0
 12 13  1  0  0  0  0
 13 14  2  0  0  0  0
 13 35  1  0  0  0  0
 14 15  1  0  0  0  0
 15 16  1  0  0  0  0
 15 19  2  0  0  0  0
 16 17  1  0  0  0  0
 16 18  2  0  0  0  0
 17 36  1  0  0  0  0
 17 37  1  0  0  0  0
 17 38  1  0  0  0  0
 20 21  1  0  0  0  0
 21 22  2  0  0  0  0
 21 39  1  0  0  0  0
 22 23  1  0  0  0  0
 23 40  1  0  0  0  0
 23 41  1  0  0  0  0
 23 42  1  0  0  0  0
M  CHG  1   5   1
M  END
> <s_m_source_file>
AV-unprocessed.smi

> <i_m_source_file_index>
2845

> <i_lp_mmshare_version>
43012

> <i_f3d_flags>
0

> <s_epik_input>
W0NIM11jKFtjSF0xKWMoW0NIM10pW2NIXWMoYzEyKW4oW2NIXW4yKVtDSDJdW0NASF0oW09IXSlbQ0gyXW4zW2NIXW5jKG4zKVtTQF0oPU8pW0NIM10=

> <s_epik_cmdline>
J2VwaWtfcHl0aG9uJywgJy1waCcsICc3LjAnLCAnLXRuJywgJzgnLCAnLW1hJywgJzIwMCcsICctbWV0YWxfYmluZGluZycsICctaW1hZScsICc8aW5maWxlLm1hZT4nLCAnLW9tYWUnLCAnPG91dGZpbGUubWFlPic=

> <r_lp_tautomer_probability>
1

> <r_epik_Ionization_Penalty>
1.12076

> <r_epik_Ionization_Penalty_Charging>
1.12075

> <r_epik_Ionization_Penalty_Neutral>
1.54566e-06

> <r_epik_State_Penalty>
1.17957

> <r_epik_Charging_Adjusted_Penalty>
2.30033

> <i_epik_Tot_Q>
1

> <i_epik_Tot_abs_Q>
1

> <r_epik_Metal_State_Penalty>
1.26402

> <b_epik_Metal_Only>
0

> <s_lp_Force_Field>
OPLS_2005

> <r_lp_Energy>
14.8832

> <b_lp_Chiralities_Consistent>
1

> <s_lp_Variant>
AV-unprocessed.smi:2845-8

> <Gold.Version>
5.8.1

> <Gold.Id.Protein>
6NUR|6NUR_protein|mol2

> <Gold.PLP.Fitness>
60.3031

> <Gold.PLP.PLP>
-49.1578

> <Gold.PLP.part.hbond>
-5.0000

> <Gold.PLP.part.metal>
0.0000

> <Gold.PLP.part.buried>
-7.5811

> <Gold.PLP.part.nonpolar>
-38.1941

> <Gold.PLP.part.repulsive>
0.1773

> <Gold.PLP.ligand.clash>
0.0000

> <Gold.PLP.ligand.torsion>
1.2934

> <Gold.PLP.Chemscore.Hbond>
4.2291

> <Gold.PLP.Chemscore.CHOScore>
0.0000

> <Gold.PLP.Chemscore.Metal>
0.0000

> <Gold.Chemscore.Hbonds>
donor molecule, donor type, donor heavy atom, donor atom, acceptor molecule, acceptor atom, score
      L1  H     5    43       P1  8028  2.00
      P1  H  6896  6907       L1    14  0.18
      P1  H  6896  6909       L1    18  0.95
      P1  H 10752 10765       L1    19  1.00

> <Gold.PLP.Chemscore.Internal.Correction>
1.0447

> <Gold.Rescore>
     Score         DG    S(hbond)    S(metal)    S(lipo)     H(rot)  DE(clash)    DE(int)     intcor
     19.65     -21.24       3.08        0.00     107.38       2.77       0.02       1.57       ----

> <Gold.Chemscore.Fitness>
19.6507

> <Gold.Chemscore.DG>
-21.2420

> <Gold.Chemscore.ZeroCoef>
-5.4800

> <Gold.Chemscore.Hbond>
3.0791

> <Gold.Chemscore.Metal>
0.0000

> <Gold.Chemscore.Lipo>
107.3847

> <Gold.Chemscore.Internal_Hbond>
0.0000

> <Gold.Chemscore.DEClash>
0.0182

> <Gold.Chemscore.DEInternal>
1.5731

> <Gold.Chemscore.Rot>
2.7681

> <Gold.Chemscore.Internal.Correction>
   9.000000E+99

> <Gold.Chemscore.Hbonds>
donor molecule, donor type, donor heavy atom, donor atom, acceptor molecule, acceptor atom, score
      L1  H     5    43       P1  8028  1.00
      P1  H  6896  6907       L1    14  0.18
      P1  H  6896  6909       L1    18  0.56
      P1  H 10752 10765       L1    19  0.33

> <Gold.Chemscore.Hbond.Weighted>
-10.2842

> <Gold.Chemscore.Metal.Weighted>
-0.0000

> <Gold.Chemscore.Lipo.Weighted>
-12.5640

> <Gold.Chemscore.Internal_Hbond.Weighted>
0.0000

> <Gold.Chemscore.DEClash.Weighted>
0.0182

> <Gold.Chemscore.DEInternal.Weighted>
1.5731

> <Gold.Chemscore.Rot.Weighted>
7.0863

> <Gold.Chemscore.Internal.Correction.Weighted>
   9.000000E+99

> <Gold.Protein.RotatedTorsions>
[ 6907 6896 6895 6894 ] final  -49.40 input  -60.11 | X-H torsion
[ 7974 7965 7964 7962 ] final  -25.45 input  175.53 | X-H torsion
[ 8008 7997 7996 7995 ] final  129.03 input   59.86 | X-H torsion
[ 10167 10162 10161 10158 ] final   18.35 input  -65.29 | X-H torsion
[ 10718 10713 10712 10709 ] final -147.03 input   66.30 | X-H torsion
[ 10763 10752 10751 10750 ] final -176.65 input  -60.55 | X-H torsion
[ 11005 11000 10999 10996 ] final  176.11 input  -57.11 | X-H torsion

> <Gold.Protein.ActiveResidues>
 VAL166  LYS551  ARG553  GLY616  TRP617  ASP618  TYR619  PRO620  LYS621  CYS622 
 ASP623  PHE694  ASN695  SER759  ASP760  ASP761  ALA762  ILE779  LEU786  VAL792 
 PHE793  MET794  SER795  GLU796  ALA797  LYS798  CYS799  TRP800  GLU811  SER814 

> <Gold.Protein.RotatedAtoms>
  150.8809  134.8199  159.7223 H   0  0  0  0  0  0  0  0  0  0  0  0  # atno 6907 bound_to 6896
  152.4777  134.4798  159.9672 H   0  0  0  0  0  0  0  0  0  0  0  0  # atno 6908 bound_to 6896
  151.4873  133.3494  159.2883 H   0  0  0  0  0  0  0  0  0  0  0  0  # atno 6909 bound_to 6896
  146.1490  140.4887  142.8619 H   0  0  0  0  0  0  0  0  0  0  0  0  # atno 7974 bound_to 7965
  156.2928  140.2630  156.2532 H   0  0  0  0  0  0  0  0  0  0  0  0  # atno 8008 bound_to 7997
  154.9862  140.0389  157.2318 H   0  0  0  0  0  0  0  0  0  0  0  0  # atno 8009 bound_to 7997
  154.7727  140.2781  155.6130 H   0  0  0  0  0  0  0  0  0  0  0  0  # atno 8010 bound_to 7997
  140.5660  143.9250  150.6677 H   0  0  0  0  0  0  0  0  0  0  0  0  # atno 10167 bound_to 10162
  156.4024  130.7940  151.2152 H   0  0  0  0  0  0  0  0  0  0  0  0  # atno 10718 bound_to 10713
  154.5698  135.2827  155.0838 H   0  0  0  0  0  0  0  0  0  0  0  0  # atno 10763 bound_to 10752
  154.2215  135.6390  153.5150 H   0  0  0  0  0  0  0  0  0  0  0  0  # atno 10764 bound_to 10752
  153.0054  135.5515  154.6318 H   0  0  0  0  0  0  0  0  0  0  0  0  # atno 10765 bound_to 10752
  140.3695  134.7042  157.4383 H   0  0  0  0  0  0  0  0  0  0  0  0  # atno 11005 bound_to 11000
  144.7881  140.5977  143.6560 LP  0  0  0  0  0  0  0  0  0  0  0  0  # atno 17320 bound_to 7965
  145.4868  139.1491  143.3731 LP  0  0  0  0  0  0  0  0  0  0  0  0  # atno 17321 bound_to 7965
  140.2713  143.3454  152.1235 LP  0  0  0  0  0  0  0  0  0  0  0  0  # atno 17342 bound_to 10162
  139.5093  144.6865  151.5874 LP  0  0  0  0  0  0  0  0  0  0  0  0  # atno 17343 bound_to 10162
  157.7504  131.0282  150.4041 LP  0  0  0  0  0  0  0  0  0  0  0  0  # atno 17370 bound_to 10713
  156.4323  130.3974  149.6752 LP  0  0  0  0  0  0  0  0  0  0  0  0  # atno 17371 bound_to 10713
  140.0563  134.6059  155.8801 LP  0  0  0  0  0  0  0  0  0  0  0  0  # atno 17394 bound_to 11000
  141.1959  133.6589  156.5665 LP  0  0  0  0  0  0  0  0  0  0  0  0  # atno 17395 bound_to 11000

$$$$
