#       Name:                AV-unprocessed.smi:1809
#       Creating user name   scv26
#       Creation time:       Fri Mar 27 08:58:37 2020


#       File generated by GOLD software.
#

@<TRIPOS>MOLECULE
AV-unprocessed.smi:1809
    46    48     1
SMALL
NO_CHARGES


@<TRIPOS>ATOM
      1 ****        -8.3519   2.0042  -0.2627 C.3            1 S1                 0.0000
      2 ****        -6.9874   1.7907   0.2972 C.2            1 S1                 0.0000
      3 ****        -6.7710   1.5103   1.5846 N.2            1 S1                 0.0000
      4 ****        -5.4213   1.3524   1.8655 N.2            1 S1                 0.0000
      5 ****        -4.6388   1.5031   0.7874 C.2            1 S1                 0.0000
      6 ****        -3.3014   1.3886   0.8453 N.pl3          1 S1                -1.0000
      7 ****        -2.7089   0.2239   0.4982 C.2            1 S1                 0.0000
      8 ****        -3.2769  -0.8033   0.1201 O.2            1 S1                 0.0000
      9 ****        -1.3737   0.2497   0.5923 N.am           1 S1                 0.0000
     10 ****        -0.4919  -0.8657   0.2764 C.3            1 S1                 0.0000
     11 ****         0.9792  -0.4418   0.3789 C.3            1 S1                 0.0000
     12 ****         1.9351  -1.6430   0.1878 C.3            1 S1                 0.0000
     13 ****         3.3194  -1.1366   0.1751 N.4            1 S1                 1.0000
     14 ****         4.4179  -2.1062   0.0231 C.3            1 S1                 0.0000
     15 ****         5.5864  -1.2905  -0.5667 C.3            1 S1                 0.0000
     16 ****         5.0151   0.1101  -0.8542 C.3            1 S1                 0.0000
     17 ****         3.5100  -0.1345  -0.8759 C.3            1 S1                 0.0000
     18 ****         2.5747   1.0517  -0.6101 C.3            1 S1                 0.0000
     19 ****         1.2368   0.5514  -0.6216 O.3            1 S1                 0.0000
     20 ****        -5.5342   1.8830  -0.6835 S.3            1 S1                 0.0000
     21 ****        -8.8725   1.0505  -0.3490 H              1 S1                 0.0000
     22 ****        -8.2889   2.4599  -1.2510 H              1 S1                 0.0000
     23 ****        -8.9276   2.6624   0.3883 H              1 S1                 0.0000
     24 ****        -0.9432   1.1087   0.9017 H              1 S1                 0.0000
     25 ****        -0.6956  -1.6801   0.9732 H              1 S1                 0.0000
     26 ****        -0.7073  -1.2373  -0.7268 H              1 S1                 0.0000
     27 ****         1.1534  -0.0012   1.3625 H              1 S1                 0.0000
     28 ****         1.8146  -2.3631   0.9980 H              1 S1                 0.0000
     29 ****         1.7203  -2.1632  -0.7472 H              1 S1                 0.0000
     30 ****         4.6681  -2.5644   0.9803 H              1 S1                 0.0000
     31 ****         4.1256  -2.8983  -0.6682 H              1 S1                 0.0000
     32 ****         6.4304  -1.2347   0.1217 H              1 S1                 0.0000
     33 ****         5.9425  -1.7586  -1.4853 H              1 S1                 0.0000
     34 ****         5.2748   0.7905  -0.0420 H              1 S1                 0.0000
     35 ****         5.3879   0.5379  -1.7854 H              1 S1                 0.0000
     36 ****         3.2497  -0.5821  -1.8380 H              1 S1                 0.0000
     37 ****         2.7941   1.5311   0.3452 H              1 S1                 0.0000
     38 ****         2.6824   1.8075  -1.3883 H              1 S1                 0.0000
     39 ****         3.4747  -0.6622   1.0533 H              1 S1                 0.0000
     40 ****        -7.4970   1.4241   2.2669 LP             1 S1                 0.0000
     41 ****        -5.0685   1.1472   2.7784 LP             1 S1                 0.0000
     42 ****        -2.7450   2.1637   1.1447 LP             1 S1                 0.0000
     43 ****        -4.2740  -0.8253   0.0470 LP             1 S1                 0.0000
     44 ****        -2.7404  -1.6143  -0.1134 LP             1 S1                 0.0000
     45 ****         0.6127   1.3182  -0.4719 LP             1 S1                 0.0000
     46 ****         1.0594   0.1475  -1.5191 LP             1 S1                 0.0000
@<TRIPOS>BOND
    1    1    2 1     
    2    1   21 1     
    3    1   22 1     
    4    1   23 1     
    5    2   20 1     
    6    2    3 2     
    7    3    4 1     
    8    4    5 2     
    9    5    6 1     
   10    5   20 1     
   11    6    7 1     
   12    7    8 2     
   13    7    9 am    
   14    9   10 1     
   15    9   24 1     
   16   10   11 1     
   17   10   25 1     
   18   10   26 1     
   19   11   19 1     
   20   11   12 1     
   21   11   27 1     
   22   12   13 1     
   23   12   28 1     
   24   12   29 1     
   25   13   17 1     
   26   13   14 1     
   27   13   39 1     
   28   14   15 1     
   29   14   30 1     
   30   14   31 1     
   31   15   16 1     
   32   15   32 1     
   33   15   33 1     
   34   16   17 1     
   35   16   34 1     
   36   16   35 1     
   37   17   18 1     
   38   17   36 1     
   39   18   19 1     
   40   18   37 1     
   41   18   38 1     
   42    3   40 1     
   43    4   41 1     
   44    6   42 1     
   45    8   43 1     
   46    8   44 1     
   47   19   45 1     
   48   19   46 1     
@<TRIPOS>SUBSTRUCTURE
      1 S1             1
@<TRIPOS>SET
LONE_PAIRS      STATIC     ATOMS    <user>   **** ""
7 40 41 42 43 44 45 46
DONOR_HYDROGENS      STATIC     ATOMS    <user>   **** ""
2 24 39
ATOM$BLUE        STATIC     ATOMS    COLORGROUP SYSTEM
7 40 41 42 43 44 45 46
ATOM$RED        STATIC     ATOMS    COLORGROUP SYSTEM
2 24 39
