AV-unprocessed.smi:2371|AV-procd|sdf|9436|dock10
  -GOLD-   2272013 63D 1   1.00000     0.00000
 Structure written by MMmdl.
 35 36  0  0  0  0  0  0  0  0  1 V2000
  152.1751  145.1789  160.6690 C   0  0  0  0  0  0  0  0  0  0  0  0
  152.1324  143.9716  159.8401 N   0  0  0  0  0  0  0  0  0  0  0  0
  152.9417  142.8894  160.2255 C   0  0  0  0  0  0  0  0  0  0  0  0
  152.9674  141.7464  159.5262 C   0  0  0  0  0  0  0  0  0  0  0  0
  152.1353  141.6419  158.3516 C   0  0  0  0  0  0  0  0  0  0  0  0
  151.3404  142.6717  157.9660 C   0  0  0  0  0  0  0  0  0  0  0  0
  150.5075  142.6559  156.8338 N   0  0  0  0  0  0  0  0  0  0  0  0
  150.0334  141.6049  156.1397 C   0  0  0  0  0  0  0  0  0  0  0  0
  150.2334  140.4192  156.4020 O   0  0  0  0  0  0  0  0  0  0  0  0
  149.2740  142.0142  155.1139 N   0  0  0  0  0  0  0  0  0  0  0  0
  148.5781  141.1419  154.1730 C   0  0  0  0  0  0  0  0  0  0  0  0
  147.0536  141.3402  154.2304 C   0  0  2  0  0  0  0  0  0  0  0  0
  146.5664  142.7458  153.8759 C   0  0  0  0  0  0  0  0  0  0  0  0
  145.2366  142.7952  154.5917 C   0  0  0  0  0  0  0  0  0  0  0  0
  145.5516  142.0441  155.8820 C   0  0  0  0  0  0  0  0  0  0  0  0
  146.5768  141.1093  155.5537 O   0  0  0  0  0  0  0  0  0  0  0  0
  151.3290  143.9312  158.7355 C   0  0  0  0  0  0  0  0  0  0  0  0
  150.6378  144.9009  158.4138 O   0  0  0  0  0  0  0  0  0  0  0  0
  152.8141  145.0655  161.5455 H   0  0  0  0  0  0  0  0  0  0  0  0
  151.1773  145.4351  161.0283 H   0  0  0  0  0  0  0  0  0  0  0  0
  152.5568  146.0233  160.0934 H   0  0  0  0  0  0  0  0  0  0  0  0
  153.5348  143.0454  161.1147 H   0  0  0  0  0  0  0  0  0  0  0  0
  153.5948  140.9229  159.8341 H   0  0  0  0  0  0  0  0  0  0  0  0
  152.1878  140.7223  157.7916 H   0  0  0  0  0  0  0  0  0  0  0  0
  150.1941  143.5677  156.5333 H   0  0  0  0  0  0  0  0  0  0  0  0
  149.1596  143.0079  154.9767 H   0  0  0  0  0  0  0  0  0  0  0  0
  148.9367  141.3845  153.1725 H   0  0  0  0  0  0  0  0  0  0  0  0
  148.8349  140.0946  154.3412 H   0  0  0  0  0  0  0  0  0  0  0  0
  146.5605  140.6168  153.5789 H   0  0  0  0  0  0  0  0  0  0  0  0
  147.2371  143.5020  154.2866 H   0  0  0  0  0  0  0  0  0  0  0  0
  146.4811  142.9099  152.8014 H   0  0  0  0  0  0  0  0  0  0  0  0
  144.8772  143.8101  154.7642 H   0  0  0  0  0  0  0  0  0  0  0  0
  144.4818  142.2570  154.0166 H   0  0  0  0  0  0  0  0  0  0  0  0
  145.9393  142.7294  156.6367 H   0  0  0  0  0  0  0  0  0  0  0  0
  144.6751  141.5456  156.2964 H   0  0  0  0  0  0  0  0  0  0  0  0
  1  2  1  0  0  0  0
  1 19  1  0  0  0  0
  1 20  1  0  0  0  0
  1 21  1  0  0  0  0
  2 17  1  0  0  0  0
  2  3  1  0  0  0  0
  3  4  2  0  0  0  0
  3 22  1  0  0  0  0
  4  5  1  0  0  0  0
  4 23  1  0  0  0  0
  5  6  2  0  0  0  0
  5 24  1  0  0  0  0
  6  7  1  0  0  0  0
  6 17  1  0  0  0  0
  7  8  1  0  0  0  0
  7 25  1  0  0  0  0
  8  9  2  0  0  0  0
  8 10  1  0  0  0  0
 10 11  1  0  0  0  0
 10 26  1  0  0  0  0
 11 12  1  0  0  0  0
 11 27  1  0  0  0  0
 11 28  1  0  0  0  0
 12 16  1  0  0  0  0
 12 13  1  0  0  0  0
 12 29  1  0  0  0  0
 13 14  1  0  0  0  0
 13 30  1  0  0  0  0
 13 31  1  0  0  0  0
 14 15  1  0  0  0  0
 14 32  1  0  0  0  0
 14 33  1  0  0  0  0
 15 16  1  0  0  0  0
 15 34  1  0  0  0  0
 15 35  1  0  0  0  0
 17 18  2  0  0  0  0
M  END
> <s_m_source_file>
AV-unprocessed.smi

> <i_m_source_file_index>
2371

> <i_lp_mmshare_version>
43012

> <i_f3d_flags>
0

> <s_epik_input>
W0NIM11uMVtjSF1bY0hdW2NIXWMoYzE9TylbTkhdQyg9TylbTkhdW0NIMl1bQ0BASF0yW0NIMl1bQ0gyXVtDSDJdTzI=

> <s_epik_cmdline>
J2VwaWtfcHl0aG9uJywgJy1waCcsICc3LjAnLCAnLXRuJywgJzgnLCAnLW1hJywgJzIwMCcsICctbWV0YWxfYmluZGluZycsICctaW1hZScsICc8aW5maWxlLm1hZT4nLCAnLW9tYWUnLCAnPG91dGZpbGUubWFlPic=

> <r_lp_tautomer_probability>
1

> <r_epik_Ionization_Penalty>
2.36512e-05

> <r_epik_Ionization_Penalty_Charging>
4.84074e-06

> <r_epik_Ionization_Penalty_Neutral>
1.88105e-05

> <r_epik_State_Penalty>
-0

> <r_epik_Charging_Adjusted_Penalty>
4.84074e-06

> <i_epik_Tot_Q>
0

> <i_epik_Tot_abs_Q>
0

> <r_epik_Metal_State_Penalty>
-0

> <b_epik_Metal_Only>
0

> <s_lp_Force_Field>
OPLS_2005

> <r_lp_Energy>
29.8245

> <b_lp_Chiralities_Consistent>
1

> <s_lp_Variant>
AV-unprocessed.smi:2371-1

> <Gold.Version>
5.8.1

> <Gold.Id.Protein>
6NUR|6NUR_protein|mol2

> <Gold.PLP.Fitness>
45.7869

> <Gold.PLP.PLP>
-40.1032

> <Gold.PLP.part.hbond>
-2.0000

> <Gold.PLP.part.metal>
0.0000

> <Gold.PLP.part.buried>
-6.6640

> <Gold.PLP.part.nonpolar>
-32.0034

> <Gold.PLP.part.repulsive>
0.5590

> <Gold.PLP.ligand.clash>
0.0000

> <Gold.PLP.ligand.torsion>
0.0868

> <Gold.PLP.Chemscore.Hbond>
1.9520

> <Gold.PLP.Chemscore.CHOScore>
0.0000

> <Gold.PLP.Chemscore.Metal>
0.0000

> <Gold.Chemscore.Hbonds>
donor molecule, donor type, donor heavy atom, donor atom, acceptor molecule, acceptor atom, score
      L1  H     7    25       P1  8028  1.00
      L1  H    10    26       P1  8028  1.00

> <Gold.PLP.Chemscore.Internal.Correction>
0.0014

> <Gold.Rescore>
     Score         DG    S(hbond)    S(metal)    S(lipo)     H(rot)  DE(clash)    DE(int)     intcor
     16.61     -17.93       1.96        0.00      77.85       1.25       0.12       1.19       ----

> <Gold.Chemscore.Fitness>
16.6134

> <Gold.Chemscore.DG>
-17.9272

> <Gold.Chemscore.ZeroCoef>
-5.4800

> <Gold.Chemscore.Hbond>
1.9562

> <Gold.Chemscore.Metal>
0.0000

> <Gold.Chemscore.Lipo>
77.8468

> <Gold.Chemscore.Internal_Hbond>
0.0000

> <Gold.Chemscore.DEClash>
0.1241

> <Gold.Chemscore.DEInternal>
1.1897

> <Gold.Chemscore.Rot>
1.2478

> <Gold.Chemscore.Internal.Correction>
   9.000000E+99

> <Gold.Chemscore.Hbonds>
donor molecule, donor type, donor heavy atom, donor atom, acceptor molecule, acceptor atom, score
      L1  H     7    25       P1  8028  0.95
      L1  H    10    26       P1  8028  0.96

> <Gold.Chemscore.Hbond.Weighted>
-6.5335

> <Gold.Chemscore.Metal.Weighted>
-0.0000

> <Gold.Chemscore.Lipo.Weighted>
-9.1081

> <Gold.Chemscore.Internal_Hbond.Weighted>
0.0000

> <Gold.Chemscore.DEClash.Weighted>
0.1241

> <Gold.Chemscore.DEInternal.Weighted>
1.1897

> <Gold.Chemscore.Rot.Weighted>
3.1944

> <Gold.Chemscore.Internal.Correction.Weighted>
   9.000000E+99

> <Gold.Protein.RotatedTorsions>
[ 6907 6896 6895 6894 ] final  133.14 input  -60.11 | X-H torsion
[ 7974 7965 7964 7962 ] final -147.98 input  175.53 | X-H torsion
[ 8008 7997 7996 7995 ] final   63.02 input   59.86 | X-H torsion
[ 10167 10162 10161 10158 ] final -111.44 input  -65.29 | X-H torsion
[ 10718 10713 10712 10709 ] final   15.11 input   66.30 | X-H torsion
[ 10763 10752 10751 10750 ] final -139.64 input  -60.55 | X-H torsion
[ 11005 11000 10999 10996 ] final  -14.63 input  -57.11 | X-H torsion

> <Gold.Protein.ActiveResidues>
 VAL166  LYS551  ARG553  GLY616  TRP617  ASP618  TYR619  PRO620  LYS621  CYS622 
 ASP623  PHE694  ASN695  SER759  ASP760  ASP761  ALA762  ILE779  LEU786  VAL792 
 PHE793  MET794  SER795  GLU796  ALA797  LYS798  CYS799  TRP800  GLU811  SER814 

> <Gold.Protein.RotatedAtoms>
  152.3251  133.5896  159.5770 H   0  0  0  0  0  0  0  0  0  0  0  0  # atno 6907 bound_to 6896
  150.7392  133.9952  159.3629 H   0  0  0  0  0  0  0  0  0  0  0  0  # atno 6908 bound_to 6896
  151.7833  135.0756  160.0428 H   0  0  0  0  0  0  0  0  0  0  0  0  # atno 6909 bound_to 6896
  144.8059  140.5257  143.5675 H   0  0  0  0  0  0  0  0  0  0  0  0  # atno 7974 bound_to 7965
  155.6235  140.3496  155.4660 H   0  0  0  0  0  0  0  0  0  0  0  0  # atno 8008 bound_to 7997
  156.0060  140.1223  157.0525 H   0  0  0  0  0  0  0  0  0  0  0  0  # atno 8009 bound_to 7997
  154.4264  140.1091  156.5749 H   0  0  0  0  0  0  0  0  0  0  0  0  # atno 8010 bound_to 7997
  140.1336  143.4339  152.1610 H   0  0  0  0  0  0  0  0  0  0  0  0  # atno 10167 bound_to 10162
  157.0488  130.6261  149.5764 H   0  0  0  0  0  0  0  0  0  0  0  0  # atno 10718 bound_to 10713
  154.8603  135.3576  154.5579 H   0  0  0  0  0  0  0  0  0  0  0  0  # atno 10763 bound_to 10752
  153.6195  135.7006  153.5321 H   0  0  0  0  0  0  0  0  0  0  0  0  # atno 10764 bound_to 10752
  153.3141  135.4170  155.1321 H   0  0  0  0  0  0  0  0  0  0  0  0  # atno 10765 bound_to 10752
  140.7883  133.8308  155.9356 H   0  0  0  0  0  0  0  0  0  0  0  0  # atno 11005 bound_to 11000
  145.5440  139.1475  143.3431 LP  0  0  0  0  0  0  0  0  0  0  0  0  # atno 17320 bound_to 7965
  146.2350  140.5580  142.8959 LP  0  0  0  0  0  0  0  0  0  0  0  0  # atno 17321 bound_to 7965
  139.5507  144.7335  151.4444 LP  0  0  0  0  0  0  0  0  0  0  0  0  # atno 17342 bound_to 10162
  140.6802  143.8098  150.7111 LP  0  0  0  0  0  0  0  0  0  0  0  0  # atno 17343 bound_to 10162
  156.0014  130.5094  150.7677 LP  0  0  0  0  0  0  0  0  0  0  0  0  # atno 17370 bound_to 10713
  157.5046  131.0921  151.0272 LP  0  0  0  0  0  0  0  0  0  0  0  0  # atno 17371 bound_to 10713
  140.9414  134.1895  157.4794 LP  0  0  0  0  0  0  0  0  0  0  0  0  # atno 17394 bound_to 11000
  139.8734  134.9873  156.5363 LP  0  0  0  0  0  0  0  0  0  0  0  0  # atno 17395 bound_to 11000

$$$$
