#       Name:                AV-unprocessed.smi:1824
#       Creating user name   scv26
#       Creation time:       Fri Mar 27 09:07:58 2020


#       File generated by GOLD software.
#

@<TRIPOS>MOLECULE
AV-unprocessed.smi:1824
    50    52     1
SMALL
NO_CHARGES


@<TRIPOS>ATOM
      1 ****        -1.9084   3.5091  -3.0277 C.3            1 S1                 0.0000
      2 ****        -2.0103   2.8066  -1.6695 C.3            1 S1                 0.0000
      3 ****        -1.4497   1.3724  -1.7130 C.3            1 S1                 0.0000
      4 ****        -1.6369   0.7041  -0.4018 N.4            1 S1                 1.0000
      5 ****        -1.0661  -0.6660  -0.3428 C.3            1 S1                 0.0000
      6 ****         0.4639  -0.6586  -0.1572 C.3            1 S1                 0.0000
      7 ****         0.7654  -0.0843   1.1007 O.3            1 S1                 0.0000
      8 ****         1.0586  -2.0784  -0.2296 C.3            1 S1                 0.0000
      9 ****         2.5034  -2.0834  -0.0808 N.pl3          1 S1                 0.0000
     10 ****         3.4179  -1.8971  -1.0520 C.2            1 S1                 0.0000
     11 ****         4.6992  -1.9339  -0.6982 N.2            1 S1                 0.0000
     12 ****         4.6074  -2.1731   0.6622 C.ar           1 S1                 0.0000
     13 ****         5.6188  -2.3204   1.6380 C.ar           1 S1                 0.0000
     14 ****         5.2820  -2.5603   2.9864 C.ar           1 S1                 0.0000
     15 ****         6.2638  -2.6973   3.9090 F              1 S1                 0.0000
     16 ****         3.9304  -2.6575   3.3785 C.ar           1 S1                 0.0000
     17 ****         3.6155  -2.8879   4.6751 F              1 S1                 0.0000
     18 ****         2.9052  -2.5148   2.4238 C.ar           1 S1                 0.0000
     19 ****         3.2460  -2.2743   1.0800 C.ar           1 S1                 0.0000
     20 ****        -3.0630   0.7458  -0.0021 C.3            1 S1                 0.0000
     21 ****        -3.5810   2.1965  -0.0038 C.3            1 S1                 0.0000
     22 ****        -5.0743   2.2786   0.3315 C.3            1 S1                 0.0000
     23 ****        -3.3835   2.7576  -1.2970 O.3            1 S1                 0.0000
     24 ****        -0.8713   3.5801  -3.3564 H              1 S1                 0.0000
     25 ****        -2.3093   4.5216  -2.9738 H              1 S1                 0.0000
     26 ****        -2.4670   2.9710  -3.7940 H              1 S1                 0.0000
     27 ****        -1.4588   3.3948  -0.9337 H              1 S1                 0.0000
     28 ****        -1.9527   0.7957  -2.4910 H              1 S1                 0.0000
     29 ****        -0.3926   1.4059  -1.9750 H              1 S1                 0.0000
     30 ****        -1.5130  -1.2168   0.4867 H              1 S1                 0.0000
     31 ****        -1.3411  -1.2088  -1.2487 H              1 S1                 0.0000
     32 ****         0.9349  -0.0493  -0.9280 H              1 S1                 0.0000
     33 ****         0.4378  -0.6532   1.7808 H              1 S1                 0.0000
     34 ****         0.6251  -2.7182   0.5402 H              1 S1                 0.0000
     35 ****         0.8146  -2.5386  -1.1881 H              1 S1                 0.0000
     36 ****         3.1263  -1.7216  -2.0774 H              1 S1                 0.0000
     37 ****         6.6569  -2.2477   1.3499 H              1 S1                 0.0000
     38 ****         1.8705  -2.5876   2.7230 H              1 S1                 0.0000
     39 ****        -3.6510   0.1316  -0.6865 H              1 S1                 0.0000
     40 ****        -3.1781   0.3173   0.9944 H              1 S1                 0.0000
     41 ****        -3.0287   2.7851   0.7311 H              1 S1                 0.0000
     42 ****        -5.2773   1.8706   1.3219 H              1 S1                 0.0000
     43 ****        -5.6733   1.7212  -0.3896 H              1 S1                 0.0000
     44 ****        -5.4196   3.3127   0.3217 H              1 S1                 0.0000
     45 ****        -1.1352   1.2501   0.2847 H              1 S1                 0.0000
     46 ****         0.3297   0.8129   1.1739 LP             1 S1                 0.0000
     47 ****         1.7557   0.0173   1.1953 LP             1 S1                 0.0000
     48 ****         5.5146  -1.8190  -1.2656 LP             1 S1                 0.0000
     49 ****        -3.8771   2.2018  -1.9660 LP             1 S1                 0.0000
     50 ****        -3.7499   3.6881  -1.3017 LP             1 S1                 0.0000
@<TRIPOS>BOND
    1    1    2 1     
    2    1   24 1     
    3    1   25 1     
    4    1   26 1     
    5    2   23 1     
    6    2    3 1     
    7    2   27 1     
    8    3    4 1     
    9    3   28 1     
   10    3   29 1     
   11    4    5 1     
   12    4   20 1     
   13    4   45 1     
   14    5    6 1     
   15    5   30 1     
   16    5   31 1     
   17    6    7 1     
   18    6    8 1     
   19    6   32 1     
   20    7   33 1     
   21    8    9 1     
   22    8   34 1     
   23    8   35 1     
   24    9   19 1     
   25    9   10 1     
   26   10   11 2     
   27   10   36 1     
   28   11   12 1     
   29   12   19 ar    
   30   12   13 ar    
   31   13   14 ar    
   32   13   37 1     
   33   14   15 1     
   34   14   16 ar    
   35   16   17 1     
   36   16   18 ar    
   37   18   19 ar    
   38   18   38 1     
   39   20   21 1     
   40   20   39 1     
   41   20   40 1     
   42   21   22 1     
   43   21   23 1     
   44   21   41 1     
   45   22   42 1     
   46   22   43 1     
   47   22   44 1     
   48    7   46 1     
   49    7   47 1     
   50   11   48 1     
   51   23   49 1     
   52   23   50 1     
@<TRIPOS>SUBSTRUCTURE
      1 S1             1
@<TRIPOS>SET
LONE_PAIRS      STATIC     ATOMS    <user>   **** ""
5 46 47 48 49 50
DONOR_HYDROGENS      STATIC     ATOMS    <user>   **** ""
2 45 33
ATOM$BLUE        STATIC     ATOMS    COLORGROUP SYSTEM
5 46 47 48 49 50
ATOM$RED        STATIC     ATOMS    COLORGROUP SYSTEM
2 45 33
