AV-unprocessed.smi:1762|AV-procd|sdf|7107|dock8
  -GOLD-   22720 8333D 1   1.00000     0.00000
 Structure written by MMmdl.
 53 54  0  0  0  0  0  0  0  0  2 V2000
  150.3114  141.2756  157.1350 C   0  0  0  0  0  0  0  0  0  0  0  0
  150.4822  141.3840  155.6096 C   0  0  2  0  0  0  0  0  0  0  0  0
  149.1488  141.3170  154.8392 C   0  0  0  0  0  0  0  0  0  0  0  0
  148.5680  139.9688  154.7841 N   0  0  0  0  0  0  0  0  0  0  0  0
  147.2585  139.9380  154.0725 C   0  0  1  0  0  0  0  0  0  0  0  0
  146.7190  138.5076  153.8234 C   0  0  0  0  0  0  0  0  0  0  0  0
  147.2294  137.5379  154.3837 O   0  0  0  0  0  0  0  0  0  0  0  0
  145.7062  138.3904  152.9490 N   0  0  0  0  0  0  0  0  0  0  0  0
  145.1094  137.1282  152.5223 C   0  0  0  0  0  0  0  0  0  0  0  0
  145.6617  136.6144  151.1784 C   0  0  0  0  0  0  0  0  0  0  0  0
  145.6513  135.1009  151.0533 C   0  0  0  0  0  0  0  0  0  0  0  0
  144.5137  134.3955  150.6044 C   0  0  0  0  0  0  0  0  0  0  0  0
  144.5632  132.9881  150.5218 C   0  0  0  0  0  0  0  0  0  0  0  0
  145.7474  132.3162  150.8896 C   0  0  0  0  0  0  0  0  0  0  0  0
  146.8538  133.0701  151.3309 C   0  0  0  0  0  0  0  0  0  0  0  0
  146.7662  134.4167  151.3969 N   0  3  0  0  0  0  0  0  0  0  0  0
  146.1619  140.8663  154.6977 C   0  0  0  0  0  0  0  0  0  0  0  0
  146.3549  142.3644  154.3861 C   0  0  0  0  0  0  0  0  0  0  0  0
  145.9562  140.6538  156.2099 C   0  0  0  0  0  0  0  0  0  0  0  0
  149.5858  139.0438  154.2597 C   0  0  0  0  0  0  0  0  0  0  0  0
  150.8972  139.0835  155.0657 C   0  0  1  0  0  0  0  0  0  0  0  0
  151.9798  138.1895  154.4504 C   0  0  0  0  0  0  0  0  0  0  0  0
  151.3974  140.4155  155.1032 O   0  0  0  0  0  0  0  0  0  0  0  0
  149.7100  142.1011  157.5167 H   0  0  0  0  0  0  0  0  0  0  0  0
  151.2779  141.3120  157.6376 H   0  0  0  0  0  0  0  0  0  0  0  0
  149.8148  140.3511  157.4288 H   0  0  0  0  0  0  0  0  0  0  0  0
  150.9323  142.3574  155.4123 H   0  0  0  0  0  0  0  0  0  0  0  0
  148.4684  142.0217  155.3126 H   0  0  0  0  0  0  0  0  0  0  0  0
  149.3119  141.6830  153.8241 H   0  0  0  0  0  0  0  0  0  0  0  0
  147.4394  140.3432  153.0746 H   0  0  0  0  0  0  0  0  0  0  0  0
  145.3530  139.2330  152.5181 H   0  0  0  0  0  0  0  0  0  0  0  0
  145.3032  136.3899  153.3010 H   0  0  0  0  0  0  0  0  0  0  0  0
  144.0246  137.2324  152.4657 H   0  0  0  0  0  0  0  0  0  0  0  0
  145.0765  137.0369  150.3609 H   0  0  0  0  0  0  0  0  0  0  0  0
  146.6811  136.9755  151.0331 H   0  0  0  0  0  0  0  0  0  0  0  0
  143.6128  134.9243  150.3287 H   0  0  0  0  0  0  0  0  0  0  0  0
  143.7025  132.4306  150.1815 H   0  0  0  0  0  0  0  0  0  0  0  0
  145.8057  131.2389  150.8338 H   0  0  0  0  0  0  0  0  0  0  0  0
  147.7983  132.6409  151.6319 H   0  0  0  0  0  0  0  0  0  0  0  0
  145.2052  140.5794  154.2646 H   0  0  0  0  0  0  0  0  0  0  0  0
  147.2498  142.7704  154.8563 H   0  0  0  0  0  0  0  0  0  0  0  0
  145.5079  142.9472  154.7485 H   0  0  0  0  0  0  0  0  0  0  0  0
  146.4319  142.5454  153.3139 H   0  0  0  0  0  0  0  0  0  0  0  0
  146.8023  141.0174  156.7931 H   0  0  0  0  0  0  0  0  0  0  0  0
  145.8104  139.5985  156.4409 H   0  0  0  0  0  0  0  0  0  0  0  0
  145.0720  141.1876  156.5595 H   0  0  0  0  0  0  0  0  0  0  0  0
  149.2378  138.0117  154.2917 H   0  0  0  0  0  0  0  0  0  0  0  0
  149.7893  139.2754  153.2128 H   0  0  0  0  0  0  0  0  0  0  0  0
  150.7094  138.7382  156.0827 H   0  0  0  0  0  0  0  0  0  0  0  0
  151.6568  137.1487  154.4162 H   0  0  0  0  0  0  0  0  0  0  0  0
  152.8991  138.2326  155.0347 H   0  0  0  0  0  0  0  0  0  0  0  0
  152.2172  138.5001  153.4324 H   0  0  0  0  0  0  0  0  0  0  0  0
  147.5781  134.9425  151.7220 H   0  0  0  0  0  0  0  0  0  0  0  0
  1  2  1  0  0  0  0
  1 24  1  0  0  0  0
  1 25  1  0  0  0  0
  1 26  1  0  0  0  0
  2 23  1  0  0  0  0
  2  3  1  0  0  0  0
  2 27  1  0  0  0  0
  3  4  1  0  0  0  0
  3 28  1  0  0  0  0
  3 29  1  0  0  0  0
  4  5  1  0  0  0  0
  4 20  1  0  0  0  0
  5  6  1  0  0  0  0
  5 17  1  0  0  0  0
  5 30  1  0  0  0  0
  6  7  2  0  0  0  0
  6  8  1  0  0  0  0
  8  9  1  0  0  0  0
  8 31  1  0  0  0  0
  9 10  1  0  0  0  0
  9 32  1  0  0  0  0
  9 33  1  0  0  0  0
 10 11  1  0  0  0  0
 10 34  1  0  0  0  0
 10 35  1  0  0  0  0
 11 16  1  0  0  0  0
 11 12  2  0  0  0  0
 12 13  1  0  0  0  0
 12 36  1  0  0  0  0
 13 14  2  0  0  0  0
 13 37  1  0  0  0  0
 14 15  1  0  0  0  0
 14 38  1  0  0  0  0
 15 16  2  0  0  0  0
 15 39  1  0  0  0  0
 16 53  1  0  0  0  0
 17 18  1  0  0  0  0
 17 19  1  0  0  0  0
 17 40  1  0  0  0  0
 18 41  1  0  0  0  0
 18 42  1  0  0  0  0
 18 43  1  0  0  0  0
 19 44  1  0  0  0  0
 19 45  1  0  0  0  0
 19 46  1  0  0  0  0
 20 21  1  0  0  0  0
 20 47  1  0  0  0  0
 20 48  1  0  0  0  0
 21 22  1  0  0  0  0
 21 23  1  0  0  0  0
 21 49  1  0  0  0  0
 22 50  1  0  0  0  0
 22 51  1  0  0  0  0
 22 52  1  0  0  0  0
M  CHG  1  16   1
M  END
> <s_m_source_file>
AV-unprocessed.smi

> <i_m_source_file_index>
1762

> <i_lp_mmshare_version>
43012

> <i_f3d_flags>
0

> <s_epik_input>
W0NIM11bQ0BASF0xW0NIMl1OKFtDSDJdW0NASF0oTzEpW0NIM10pW0NAQEhdKFtDSF0oW0NIM10pW0NIM10pQyg9TylbTkhdW0NIMl1bQ0gyXWMyW2NIXVtjSF1bY0hdW2NIXW4y

> <s_epik_cmdline>
J2VwaWtfcHl0aG9uJywgJy1waCcsICc3LjAnLCAnLXRuJywgJzgnLCAnLW1hJywgJzIwMCcsICctbWV0YWxfYmluZGluZycsICctaW1hZScsICc8aW5maWxlLm1hZT4nLCAnLW9tYWUnLCAnPG91dGZpbGUubWFlPic=

> <r_epik_Ionization_Penalty>
1.86475

> <r_epik_Ionization_Penalty_Charging>
1.85347

> <r_epik_Ionization_Penalty_Neutral>
0.0112771

> <r_epik_State_Penalty>
1.99714

> <r_epik_Charging_Adjusted_Penalty>
3.85061

> <i_epik_Tot_Q>
1

> <i_epik_Tot_abs_Q>
1

> <r_epik_Metal_State_Penalty>
2.02271

> <b_epik_Metal_Only>
0

> <s_lp_Force_Field>
OPLS_2005

> <r_lp_Energy>
36.6316

> <b_lp_Chiralities_Consistent>
1

> <s_lp_Variant>
AV-unprocessed.smi:1762-9

> <Gold.Version>
5.8.1

> <Gold.Id.Protein>
6NUR|6NUR_protein|mol2

> <Gold.PLP.Fitness>
50.6125

> <Gold.PLP.PLP>
-41.0824

> <Gold.PLP.part.hbond>
-3.0000

> <Gold.PLP.part.metal>
0.0000

> <Gold.PLP.part.buried>
-4.3800

> <Gold.PLP.part.nonpolar>
-34.7147

> <Gold.PLP.part.repulsive>
0.2853

> <Gold.PLP.ligand.clash>
0.0000

> <Gold.PLP.ligand.torsion>
1.2356

> <Gold.PLP.Chemscore.Hbond>
3.8720

> <Gold.PLP.Chemscore.CHOScore>
0.0000

> <Gold.PLP.Chemscore.Metal>
0.0000

> <Gold.Chemscore.Hbonds>
donor molecule, donor type, donor heavy atom, donor atom, acceptor molecule, acceptor atom, score
      L1  H     8    31       P1 10175  0.76
      L1  H    16    53       P1  7948  2.00
      P1  H  7989  7998       L1    23  0.96

> <Gold.PLP.Chemscore.Internal.Correction>
0.3854

> <Gold.Rescore>
     Score         DG    S(hbond)    S(metal)    S(lipo)     H(rot)  DE(clash)    DE(int)     intcor
     17.23     -20.48       2.27        0.00     101.08       1.72       0.30       2.95       ----

> <Gold.Chemscore.Fitness>
17.2288

> <Gold.Chemscore.DG>
-20.4794

> <Gold.Chemscore.ZeroCoef>
-5.4800

> <Gold.Chemscore.Hbond>
2.2662

> <Gold.Chemscore.Metal>
0.0000

> <Gold.Chemscore.Lipo>
101.0832

> <Gold.Chemscore.Internal_Hbond>
0.0000

> <Gold.Chemscore.DEClash>
0.3013

> <Gold.Chemscore.DEInternal>
2.9493

> <Gold.Chemscore.Rot>
1.7174

> <Gold.Chemscore.Internal.Correction>
   9.000000E+99

> <Gold.Chemscore.Hbonds>
donor molecule, donor type, donor heavy atom, donor atom, acceptor molecule, acceptor atom, score
      L1  H     8    31       P1 10175  0.71
      L1  H    16    53       P1  7948  0.65
      P1  H  7989  7998       L1    23  0.25

> <Gold.Chemscore.Hbond.Weighted>
-7.5692

> <Gold.Chemscore.Metal.Weighted>
-0.0000

> <Gold.Chemscore.Lipo.Weighted>
-11.8267

> <Gold.Chemscore.Internal_Hbond.Weighted>
0.0000

> <Gold.Chemscore.DEClash.Weighted>
0.3013

> <Gold.Chemscore.DEInternal.Weighted>
2.9493

> <Gold.Chemscore.Rot.Weighted>
4.3966

> <Gold.Chemscore.Internal.Correction.Weighted>
   9.000000E+99

> <Gold.Protein.RotatedTorsions>
[ 6907 6896 6895 6894 ] final   91.90 input  -60.11 | X-H torsion
[ 7974 7965 7964 7962 ] final -159.73 input  175.53 | X-H torsion
[ 8008 7997 7996 7995 ] final  -44.80 input   59.86 | X-H torsion
[ 10167 10162 10161 10158 ] final   25.08 input  -65.29 | X-H torsion
[ 10718 10713 10712 10709 ] final -166.51 input   66.30 | X-H torsion
[ 10763 10752 10751 10750 ] final   49.13 input  -60.55 | X-H torsion
[ 11005 11000 10999 10996 ] final -111.75 input  -57.11 | X-H torsion

> <Gold.Protein.ActiveResidues>
 VAL166  LYS551  ARG553  GLY616  TRP617  ASP618  TYR619  PRO620  LYS621  CYS622 
 ASP623  PHE694  ASN695  SER759  ASP760  ASP761  ALA762  ILE779  LEU786  VAL792 
 PHE793  MET794  SER795  GLU796  ALA797  LYS798  CYS799  TRP800  GLU811  SER814 

> <Gold.Protein.RotatedAtoms>
  152.5451  134.1585  159.8547 H   0  0  0  0  0  0  0  0  0  0  0  0  # atno 6907 bound_to 6896
  151.1605  133.4841  159.2602 H   0  0  0  0  0  0  0  0  0  0  0  0  # atno 6908 bound_to 6896
  151.1378  135.0175  159.8667 H   0  0  0  0  0  0  0  0  0  0  0  0  # atno 6909 bound_to 6896
  144.7454  140.3644  143.6089 H   0  0  0  0  0  0  0  0  0  0  0  0  # atno 7974 bound_to 7965
  154.3998  140.1413  156.3743 H   0  0  0  0  0  0  0  0  0  0  0  0  # atno 8008 bound_to 7997
  155.8063  140.3474  155.5411 H   0  0  0  0  0  0  0  0  0  0  0  0  # atno 8009 bound_to 7997
  155.8432  140.0930  157.1712 H   0  0  0  0  0  0  0  0  0  0  0  0  # atno 8010 bound_to 7997
  140.5135  144.0120  150.6383 H   0  0  0  0  0  0  0  0  0  0  0  0  # atno 10167 bound_to 10162
  156.6689  130.9076  151.3041 H   0  0  0  0  0  0  0  0  0  0  0  0  # atno 10718 bound_to 10713
  152.9788  135.5921  154.4039 H   0  0  0  0  0  0  0  0  0  0  0  0  # atno 10763 bound_to 10752
  154.3682  135.2767  155.2283 H   0  0  0  0  0  0  0  0  0  0  0  0  # atno 10764 bound_to 10752
  154.4250  135.6050  153.6088 H   0  0  0  0  0  0  0  0  0  0  0  0  # atno 10765 bound_to 10752
  141.0716  133.9370  157.2473 H   0  0  0  0  0  0  0  0  0  0  0  0  # atno 11005 bound_to 11000
  145.7144  139.1693  143.2520 LP  0  0  0  0  0  0  0  0  0  0  0  0  # atno 17320 bound_to 7965
  146.1323  140.7169  142.9406 LP  0  0  0  0  0  0  0  0  0  0  0  0  # atno 17321 bound_to 7965
  140.3450  143.2997  152.0548 LP  0  0  0  0  0  0  0  0  0  0  0  0  # atno 17342 bound_to 10162
  139.4903  144.6415  151.6866 LP  0  0  0  0  0  0  0  0  0  0  0  0  # atno 17343 bound_to 10162
  157.7084  130.9411  150.1006 LP  0  0  0  0  0  0  0  0  0  0  0  0  # atno 17370 bound_to 10713
  156.1954  130.3657  149.8856 LP  0  0  0  0  0  0  0  0  0  0  0  0  # atno 17371 bound_to 10713
  139.9529  135.0171  156.9046 LP  0  0  0  0  0  0  0  0  0  0  0  0  # atno 17394 bound_to 11000
  140.5661  134.0488  155.7415 LP  0  0  0  0  0  0  0  0  0  0  0  0  # atno 17395 bound_to 11000

$$$$
