AV-unprocessed.smi:1884|AV-procd|sdf|7647|dock3
  -GOLD-   22720 9373D 1   1.00000     0.00000
 Structure written by MMmdl.
 40 42  0  0  0  0  0  0  0  0  1 V2000
  151.8772  138.7325  155.6244 C   0  0  0  0  0  0  0  0  0  0  0  0
  151.9087  139.9131  156.5420 C   0  0  0  0  0  0  0  0  0  0  0  0
  152.7064  139.9642  157.6090 N   0  0  0  0  0  0  0  0  0  0  0  0
  152.4150  141.2034  158.1462 C   0  0  0  0  0  0  0  0  0  0  0  0
  152.9305  141.8530  159.2904 C   0  0  0  0  0  0  0  0  0  0  0  0
  152.4719  143.1376  159.6494 C   0  0  0  0  0  0  0  0  0  0  0  0
  151.4932  143.7894  158.8715 C   0  0  0  0  0  0  0  0  0  0  0  0
  150.9665  143.1602  157.7273 C   0  0  0  0  0  0  0  0  0  0  0  0
  151.4283  141.8786  157.3726 C   0  0  0  0  0  0  0  0  0  0  0  0
  151.1261  141.0007  156.3359 N   0  0  0  0  0  0  0  0  0  0  0  0
  150.1684  141.2256  155.2621 C   0  0  0  0  0  0  0  0  0  0  0  0
  148.7054  141.1091  155.7369 C   0  0  1  0  0  0  0  0  0  0  0  0
  148.3425  142.1878  156.5758 O   0  0  0  0  0  0  0  0  0  0  0  0
  147.6910  141.0017  154.5864 C   0  0  0  0  0  0  0  0  0  0  0  0
  146.3656  141.0520  155.1009 O   0  0  0  0  0  0  0  0  0  0  0  0
  145.6299  142.2008  154.9056 C   0  0  0  0  0  0  0  0  0  0  0  0
  145.9510  142.9805  153.7756 C   0  0  0  0  0  0  0  0  0  0  0  0
  145.2516  144.1706  153.4970 C   0  0  0  0  0  0  0  0  0  0  0  0
  144.2161  144.5961  154.3520 C   0  0  0  0  0  0  0  0  0  0  0  0
  143.4921  145.8238  154.0676 C   0  0  0  0  0  0  0  0  0  0  0  0
  142.9158  146.8012  153.8411 N   0  0  0  0  0  0  0  0  0  0  0  0
  143.8854  143.8257  155.4844 C   0  0  0  0  0  0  0  0  0  0  0  0
  144.5861  142.6353  155.7612 C   0  0  0  0  0  0  0  0  0  0  0  0
  152.5355  137.9447  155.9926 H   0  0  0  0  0  0  0  0  0  0  0  0
  152.2117  139.0204  154.6277 H   0  0  0  0  0  0  0  0  0  0  0  0
  150.8668  138.3297  155.5573 H   0  0  0  0  0  0  0  0  0  0  0  0
  153.6799  141.3618  159.8932 H   0  0  0  0  0  0  0  0  0  0  0  0
  152.8729  143.6251  160.5258 H   0  0  0  0  0  0  0  0  0  0  0  0
  151.1464  144.7726  159.1540 H   0  0  0  0  0  0  0  0  0  0  0  0
  150.2145  143.6555  157.1308 H   0  0  0  0  0  0  0  0  0  0  0  0
  150.3558  142.2130  154.8388 H   0  0  0  0  0  0  0  0  0  0  0  0
  150.3626  140.5133  154.4601 H   0  0  0  0  0  0  0  0  0  0  0  0
  148.6066  140.2108  156.3468 H   0  0  0  0  0  0  0  0  0  0  0  0
  148.5546  142.9959  156.1337 H   0  0  0  0  0  0  0  0  0  0  0  0
  147.8399  141.8438  153.9087 H   0  0  0  0  0  0  0  0  0  0  0  0
  147.8584  140.0848  154.0184 H   0  0  0  0  0  0  0  0  0  0  0  0
  146.7440  142.6627  153.1145 H   0  0  0  0  0  0  0  0  0  0  0  0
  145.5153  144.7520  152.6249 H   0  0  0  0  0  0  0  0  0  0  0  0
  143.0930  144.1422  156.1473 H   0  0  0  0  0  0  0  0  0  0  0  0
  144.3026  142.0731  156.6376 H   0  0  0  0  0  0  0  0  0  0  0  0
  1  2  1  0  0  0  0
  1 24  1  0  0  0  0
  1 25  1  0  0  0  0
  1 26  1  0  0  0  0
  2 10  1  0  0  0  0
  2  3  2  0  0  0  0
  3  4  1  0  0  0  0
  4  9  2  0  0  0  0
  4  5  1  0  0  0  0
  5  6  2  0  0  0  0
  5 27  1  0  0  0  0
  6  7  1  0  0  0  0
  6 28  1  0  0  0  0
  7  8  2  0  0  0  0
  7 29  1  0  0  0  0
  8  9  1  0  0  0  0
  8 30  1  0  0  0  0
  9 10  1  0  0  0  0
 10 11  1  0  0  0  0
 11 12  1  0  0  0  0
 11 31  1  0  0  0  0
 11 32  1  0  0  0  0
 12 13  1  0  0  0  0
 12 14  1  0  0  0  0
 12 33  1  0  0  0  0
 13 34  1  0  0  0  0
 14 15  1  0  0  0  0
 14 35  1  0  0  0  0
 14 36  1  0  0  0  0
 15 16  1  0  0  0  0
 16 23  1  0  0  0  0
 16 17  2  0  0  0  0
 17 18  1  0  0  0  0
 17 37  1  0  0  0  0
 18 19  2  0  0  0  0
 18 38  1  0  0  0  0
 19 20  1  0  0  0  0
 19 22  1  0  0  0  0
 20 21  3  0  0  0  0
 22 23  2  0  0  0  0
 22 39  1  0  0  0  0
 23 40  1  0  0  0  0
M  END
> <s_m_source_file>
AV-unprocessed.smi

> <i_m_source_file_index>
1884

> <i_lp_mmshare_version>
43012

> <i_f3d_flags>
0

> <s_epik_input>
W2NIXTFbY0hdW2NIXVtjSF1jKGMxMiluKGMobjIpW0NIM10pW0NIMl1bQ0BIXShbT0hdKVtDSDJdT2MzW2NIXVtjSF1jKEMjTilbY0hdW2NIXTM=

> <s_epik_cmdline>
J2VwaWtfcHl0aG9uJywgJy1waCcsICc3LjAnLCAnLXRuJywgJzgnLCAnLW1hJywgJzIwMCcsICctbWV0YWxfYmluZGluZycsICctaW1hZScsICc8aW5maWxlLm1hZT4nLCAnLW9tYWUnLCAnPG91dGZpbGUubWFlPic=

> <r_epik_Ionization_Penalty>
0.110799

> <r_epik_Ionization_Penalty_Charging>
0

> <r_epik_Ionization_Penalty_Neutral>
0.110799

> <r_epik_State_Penalty>
0.100537

> <r_epik_Charging_Adjusted_Penalty>
0.100537

> <i_epik_Tot_Q>
0

> <i_epik_Tot_abs_Q>
0

> <r_epik_Metal_State_Penalty>
0.000109561

> <b_epik_Metal_Only>
0

> <s_lp_Force_Field>
OPLS_2005

> <r_lp_Energy>
15.8786

> <b_lp_Chiralities_Consistent>
1

> <s_lp_Variant>
AV-unprocessed.smi:1884-2

> <Gold.Version>
5.8.1

> <Gold.Id.Protein>
6NUR|6NUR_protein|mol2

> <Gold.PLP.Fitness>
51.7487

> <Gold.PLP.PLP>
-47.6519

> <Gold.PLP.part.hbond>
-3.5883

> <Gold.PLP.part.metal>
0.0000

> <Gold.PLP.part.buried>
-5.7370

> <Gold.PLP.part.nonpolar>
-38.6667

> <Gold.PLP.part.repulsive>
0.1276

> <Gold.PLP.ligand.clash>
0.0000

> <Gold.PLP.ligand.torsion>
0.9820

> <Gold.PLP.Chemscore.Hbond>
2.0000

> <Gold.PLP.Chemscore.CHOScore>
0.0000

> <Gold.PLP.Chemscore.Metal>
0.0000

> <Gold.Chemscore.Hbonds>
donor molecule, donor type, donor heavy atom, donor atom, acceptor molecule, acceptor atom, score
      L1  H    13    34       P1  8028  1.00
      P1  H  7997  8009       L1     3  0.95

> <Gold.PLP.Chemscore.Internal.Correction>
0.0608

> <Gold.Rescore>
     Score         DG    S(hbond)    S(metal)    S(lipo)     H(rot)  DE(clash)    DE(int)     intcor
     16.03     -17.91       1.30        0.00     119.75       2.31       0.83       1.06       ----

> <Gold.Chemscore.Fitness>
16.0271

> <Gold.Chemscore.DG>
-17.9104

> <Gold.Chemscore.ZeroCoef>
-5.4800

> <Gold.Chemscore.Hbond>
1.2976

> <Gold.Chemscore.Metal>
0.0000

> <Gold.Chemscore.Lipo>
119.7487

> <Gold.Chemscore.Internal_Hbond>
0.0000

> <Gold.Chemscore.DEClash>
0.8267

> <Gold.Chemscore.DEInternal>
1.0566

> <Gold.Chemscore.Rot>
2.3102

> <Gold.Chemscore.Internal.Correction>
   9.000000E+99

> <Gold.Chemscore.Hbonds>
donor molecule, donor type, donor heavy atom, donor atom, acceptor molecule, acceptor atom, score
      L1  H    13    34       P1  8028  0.97
      P1  H  7997  8009       L1     3  0.14

> <Gold.Chemscore.Hbond.Weighted>
-4.3339

> <Gold.Chemscore.Metal.Weighted>
-0.0000

> <Gold.Chemscore.Lipo.Weighted>
-14.0106

> <Gold.Chemscore.Internal_Hbond.Weighted>
0.0000

> <Gold.Chemscore.DEClash.Weighted>
0.8267

> <Gold.Chemscore.DEInternal.Weighted>
1.0566

> <Gold.Chemscore.Rot.Weighted>
5.9141

> <Gold.Chemscore.Internal.Correction.Weighted>
   9.000000E+99

> <Gold.Protein.RotatedTorsions>
[ 6907 6896 6895 6894 ] final  -98.91 input  -60.11 | X-H torsion
[ 7974 7965 7964 7962 ] final    8.21 input  175.53 | X-H torsion
[ 8008 7997 7996 7995 ] final  175.58 input   59.86 | X-H torsion
[ 10167 10162 10161 10158 ] final   48.75 input  -65.29 | X-H torsion
[ 10718 10713 10712 10709 ] final  -21.58 input   66.30 | X-H torsion
[ 10763 10752 10751 10750 ] final  -93.77 input  -60.55 | X-H torsion
[ 11005 11000 10999 10996 ] final  158.47 input  -57.11 | X-H torsion

> <Gold.Protein.ActiveResidues>
 VAL166  LYS551  ARG553  GLY616  TRP617  ASP618  TYR619  PRO620  LYS621  CYS622 
 ASP623  PHE694  ASN695  SER759  ASP760  ASP761  ALA762  ILE779  LEU786  VAL792 
 PHE793  MET794  SER795  GLU796  ALA797  LYS798  CYS799  TRP800  GLU811  SER814 

> <Gold.Protein.RotatedAtoms>
  150.7062  134.1122  159.4003 H   0  0  0  0  0  0  0  0  0  0  0  0  # atno 6907 bound_to 6896
  151.9108  135.0337  160.0523 H   0  0  0  0  0  0  0  0  0  0  0  0  # atno 6908 bound_to 6896
  152.2337  133.5043  159.5267 H   0  0  0  0  0  0  0  0  0  0  0  0  # atno 6909 bound_to 6896
  146.2419  139.9967  142.8420 H   0  0  0  0  0  0  0  0  0  0  0  0  # atno 7974 bound_to 7965
  156.0856  140.1405  156.9658 H   0  0  0  0  0  0  0  0  0  0  0  0  # atno 8008 bound_to 7997
  154.4611  140.0943  156.6942 H   0  0  0  0  0  0  0  0  0  0  0  0  # atno 8009 bound_to 7997
  155.5004  140.3451  155.4372 H   0  0  0  0  0  0  0  0  0  0  0  0  # atno 8010 bound_to 7997
  140.2900  144.3057  150.6243 H   0  0  0  0  0  0  0  0  0  0  0  0  # atno 10167 bound_to 10162
  156.5161  130.4621  149.6621 H   0  0  0  0  0  0  0  0  0  0  0  0  # atno 10718 bound_to 10713
  154.6991  135.5182  153.8501 H   0  0  0  0  0  0  0  0  0  0  0  0  # atno 10763 bound_to 10752
  153.0690  135.6595  154.0299 H   0  0  0  0  0  0  0  0  0  0  0  0  # atno 10764 bound_to 10752
  154.0161  135.2998  155.3366 H   0  0  0  0  0  0  0  0  0  0  0  0  # atno 10765 bound_to 10752
  140.1868  134.8436  157.2867 H   0  0  0  0  0  0  0  0  0  0  0  0  # atno 11005 bound_to 11000
  145.1452  140.9593  143.4465 LP  0  0  0  0  0  0  0  0  0  0  0  0  # atno 17320 bound_to 7965
  145.0257  139.3385  143.6050 LP  0  0  0  0  0  0  0  0  0  0  0  0  # atno 17321 bound_to 7965
  140.5740  143.2178  151.7548 LP  0  0  0  0  0  0  0  0  0  0  0  0  # atno 17342 bound_to 10162
  139.4940  144.4176  152.0013 LP  0  0  0  0  0  0  0  0  0  0  0  0  # atno 17343 bound_to 10162
  156.3193  130.7272  151.2180 LP  0  0  0  0  0  0  0  0  0  0  0  0  # atno 17370 bound_to 10713
  157.7443  131.0460  150.4871 LP  0  0  0  0  0  0  0  0  0  0  0  0  # atno 17371 bound_to 10713
  140.2204  134.4030  155.7568 LP  0  0  0  0  0  0  0  0  0  0  0  0  # atno 17394 bound_to 11000
  141.2225  133.7163  156.8481 LP  0  0  0  0  0  0  0  0  0  0  0  0  # atno 17395 bound_to 11000

$$$$
