AV-unprocessed.smi:710|AV-procd|sdf|3462|dock5
  -GOLD-   22720 0453D 1   1.00000     0.00000
 Structure written by MMmdl.
 40 41  0  0  0  0  0  0  0  0  1 V2000
  151.1873  141.0404  156.8505 C   0  0  0  0  0  0  0  0  0  0  0  0
  151.7122  141.7469  158.0676 C   0  0  0  0  0  0  0  0  0  0  0  0
  151.6291  143.0649  158.1405 N   0  0  0  0  0  0  0  0  0  0  0  0
  152.1692  143.3783  159.3354 N   0  0  0  0  0  0  0  0  0  0  0  0
  152.2315  144.7675  159.7455 C   0  0  0  0  0  0  0  0  0  0  0  0
  152.6010  142.2564  160.0157 C   0  0  0  0  0  0  0  0  0  0  0  0
  153.2307  142.3402  161.3694 C   0  0  0  0  0  0  0  0  0  0  0  0
  152.3199  141.1746  159.2233 C   0  0  0  0  0  0  0  0  0  0  0  0
  152.5748  139.7116  159.4912 C   0  0  0  0  0  0  0  0  0  0  0  0
  154.0417  139.4960  159.8665 C   0  0  0  0  0  0  0  0  0  0  0  0
  154.9369  139.8822  159.1157 O   0  0  0  0  0  0  0  0  0  0  0  0
  154.2719  138.8795  161.0341 N   0  0  0  0  0  0  0  0  0  0  0  0
  155.5892  138.5486  161.5607 C   0  0  0  0  0  0  0  0  0  0  0  0
  155.5366  137.3041  162.4726 C   0  0  1  0  0  0  0  0  0  0  0  0
  156.7379  137.2677  163.2238 O   0  0  0  0  0  0  0  0  0  0  0  0
  154.3706  137.3700  163.4726 C   0  0  0  0  0  0  0  0  0  0  0  0
  154.2209  135.9860  164.1136 C   0  0  0  0  0  0  0  0  0  0  0  0
  154.6827  134.7518  162.8714 S   0  0  0  0  0  0  0  0  0  0  0  0
  155.3649  135.9730  161.7183 C   0  0  0  0  0  0  0  0  0  0  0  0
  150.5860  140.1754  157.1310 H   0  0  0  0  0  0  0  0  0  0  0  0
  152.0059  140.6863  156.2237 H   0  0  0  0  0  0  0  0  0  0  0  0
  150.5604  141.6933  156.2419 H   0  0  0  0  0  0  0  0  0  0  0  0
  151.7881  144.8785  160.7355 H   0  0  0  0  0  0  0  0  0  0  0  0
  151.6868  145.4014  159.0440 H   0  0  0  0  0  0  0  0  0  0  0  0
  153.2718  145.0918  159.7814 H   0  0  0  0  0  0  0  0  0  0  0  0
  153.6707  141.3872  161.6617 H   0  0  0  0  0  0  0  0  0  0  0  0
  152.4896  142.6101  162.1219 H   0  0  0  0  0  0  0  0  0  0  0  0
  154.0218  143.0899  161.3874 H   0  0  0  0  0  0  0  0  0  0  0  0
  151.9424  139.3424  160.2994 H   0  0  0  0  0  0  0  0  0  0  0  0
  152.3385  139.0965  158.6225 H   0  0  0  0  0  0  0  0  0  0  0  0
  153.4757  138.5883  161.5823 H   0  0  0  0  0  0  0  0  0  0  0  0
  156.2948  138.3981  160.7414 H   0  0  0  0  0  0  0  0  0  0  0  0
  155.9473  139.4077  162.1305 H   0  0  0  0  0  0  0  0  0  0  0  0
  156.8181  136.4126  163.6183 H   0  0  0  0  0  0  0  0  0  0  0  0
  154.5082  138.1508  164.2221 H   0  0  0  0  0  0  0  0  0  0  0  0
  153.4496  137.6062  162.9376 H   0  0  0  0  0  0  0  0  0  0  0  0
  154.9020  135.8878  164.9595 H   0  0  0  0  0  0  0  0  0  0  0  0
  153.2095  135.8120  164.4813 H   0  0  0  0  0  0  0  0  0  0  0  0
  154.6430  136.0942  160.9098 H   0  0  0  0  0  0  0  0  0  0  0  0
  156.2943  135.6143  161.2741 H   0  0  0  0  0  0  0  0  0  0  0  0
  1  2  1  0  0  0  0
  1 20  1  0  0  0  0
  1 21  1  0  0  0  0
  1 22  1  0  0  0  0
  2  8  1  0  0  0  0
  2  3  2  0  0  0  0
  3  4  1  0  0  0  0
  4  5  1  0  0  0  0
  4  6  1  0  0  0  0
  5 23  1  0  0  0  0
  5 24  1  0  0  0  0
  5 25  1  0  0  0  0
  6  7  1  0  0  0  0
  6  8  2  0  0  0  0
  7 26  1  0  0  0  0
  7 27  1  0  0  0  0
  7 28  1  0  0  0  0
  8  9  1  0  0  0  0
  9 10  1  0  0  0  0
  9 29  1  0  0  0  0
  9 30  1  0  0  0  0
 10 11  2  0  0  0  0
 10 12  1  0  0  0  0
 12 13  1  0  0  0  0
 12 31  1  0  0  0  0
 13 14  1  0  0  0  0
 13 32  1  0  0  0  0
 13 33  1  0  0  0  0
 14 19  1  0  0  0  0
 14 15  1  0  0  0  0
 14 16  1  0  0  0  0
 15 34  1  0  0  0  0
 16 17  1  0  0  0  0
 16 35  1  0  0  0  0
 16 36  1  0  0  0  0
 17 18  1  0  0  0  0
 17 37  1  0  0  0  0
 17 38  1  0  0  0  0
 18 19  1  0  0  0  0
 19 39  1  0  0  0  0
 19 40  1  0  0  0  0
M  END
> <s_m_source_file>
AV-unprocessed.smi

> <i_m_source_file_index>
710

> <i_lp_mmshare_version>
43012

> <i_f3d_flags>
0

> <s_epik_input>
W0NIM11jMW5uKFtDSDNdKWMoW0NIM10pYzFbQ0gyXUMoPU8pW05IXVtDSDJdW0NAQF0yKFtPSF0pW0NIMl1bQ0gyXVNbQ0gyXTI=

> <s_epik_cmdline>
J2VwaWtfcHl0aG9uJywgJy1waCcsICc3LjAnLCAnLXRuJywgJzgnLCAnLW1hJywgJzIwMCcsICctbWV0YWxfYmluZGluZycsICctaW1hZScsICc8aW5maWxlLm1hZT4nLCAnLW9tYWUnLCAnPG91dGZpbGUubWFlPic=

> <r_lp_tautomer_probability>
1

> <r_epik_Ionization_Penalty>
0.00343686

> <r_epik_Ionization_Penalty_Charging>
0

> <r_epik_Ionization_Penalty_Neutral>
0.00343686

> <r_epik_State_Penalty>
0.00243544

> <r_epik_Charging_Adjusted_Penalty>
0.00243544

> <i_epik_Tot_Q>
0

> <i_epik_Tot_abs_Q>
0

> <r_epik_Metal_State_Penalty>
-0

> <b_epik_Metal_Only>
0

> <s_lp_Force_Field>
OPLS_2005

> <r_lp_Energy>
10.7161

> <b_lp_Chiralities_Consistent>
1

> <s_lp_Variant>
AV-unprocessed.smi:710-1

> <Gold.Version>
5.8.1

> <Gold.Id.Protein>
6NUR|6NUR_protein|mol2

> <Gold.PLP.Fitness>
40.4541

> <Gold.PLP.PLP>
-38.2807

> <Gold.PLP.part.hbond>
-1.0000

> <Gold.PLP.part.metal>
0.0000

> <Gold.PLP.part.buried>
-4.4872

> <Gold.PLP.part.nonpolar>
-32.6178

> <Gold.PLP.part.repulsive>
0.0642

> <Gold.PLP.ligand.clash>
0.0000

> <Gold.PLP.ligand.torsion>
0.4196

> <Gold.PLP.Chemscore.Hbond>
1.0000

> <Gold.PLP.Chemscore.CHOScore>
0.0000

> <Gold.PLP.Chemscore.Metal>
0.0000

> <Gold.Chemscore.Hbonds>
donor molecule, donor type, donor heavy atom, donor atom, acceptor molecule, acceptor atom, score
      P1  H  7997  8008       L1    11  1.00

> <Gold.PLP.Chemscore.Internal.Correction>
0.0125

> <Gold.Rescore>
     Score         DG    S(hbond)    S(metal)    S(lipo)     H(rot)  DE(clash)    DE(int)     intcor
     15.41     -15.78       0.99        0.00     105.24       2.07       0.02       0.34       ----

> <Gold.Chemscore.Fitness>
15.4139

> <Gold.Chemscore.DG>
-15.7810

> <Gold.Chemscore.ZeroCoef>
-5.4800

> <Gold.Chemscore.Hbond>
0.9881

> <Gold.Chemscore.Metal>
0.0000

> <Gold.Chemscore.Lipo>
105.2383

> <Gold.Chemscore.Internal_Hbond>
0.0000

> <Gold.Chemscore.DEClash>
0.0236

> <Gold.Chemscore.DEInternal>
0.3435

> <Gold.Chemscore.Rot>
2.0750

> <Gold.Chemscore.Internal.Correction>
   9.000000E+99

> <Gold.Chemscore.Hbonds>
donor molecule, donor type, donor heavy atom, donor atom, acceptor molecule, acceptor atom, score
      P1  H  7997  8008       L1    11  0.95

> <Gold.Chemscore.Hbond.Weighted>
-3.3001

> <Gold.Chemscore.Metal.Weighted>
-0.0000

> <Gold.Chemscore.Lipo.Weighted>
-12.3129

> <Gold.Chemscore.Internal_Hbond.Weighted>
0.0000

> <Gold.Chemscore.DEClash.Weighted>
0.0236

> <Gold.Chemscore.DEInternal.Weighted>
0.3435

> <Gold.Chemscore.Rot.Weighted>
5.3120

> <Gold.Chemscore.Internal.Correction.Weighted>
   9.000000E+99

> <Gold.Protein.RotatedTorsions>
[ 6907 6896 6895 6894 ] final  -42.78 input  -60.11 | X-H torsion
[ 7974 7965 7964 7962 ] final -144.27 input  175.53 | X-H torsion
[ 8008 7997 7996 7995 ] final -114.63 input   59.86 | X-H torsion
[ 10167 10162 10161 10158 ] final  166.36 input  -65.29 | X-H torsion
[ 10718 10713 10712 10709 ] final  116.89 input   66.30 | X-H torsion
[ 10763 10752 10751 10750 ] final -129.90 input  -60.55 | X-H torsion
[ 11005 11000 10999 10996 ] final  144.01 input  -57.11 | X-H torsion

> <Gold.Protein.ActiveResidues>
 VAL166  LYS551  ARG553  GLY616  TRP617  ASP618  TYR619  PRO620  LYS621  CYS622 
 ASP623  PHE694  ASN695  SER759  ASP760  ASP761  ALA762  ILE779  LEU786  VAL792 
 PHE793  MET794  SER795  GLU796  ALA797  LYS798  CYS799  TRP800  GLU811  SER814 

> <Gold.Protein.RotatedAtoms>
  150.9513  134.8913  159.7673 H   0  0  0  0  0  0  0  0  0  0  0  0  # atno 6907 bound_to 6896
  152.5121  134.3802  159.9358 H   0  0  0  0  0  0  0  0  0  0  0  0  # atno 6908 bound_to 6896
  151.3818  133.3778  159.2745 H   0  0  0  0  0  0  0  0  0  0  0  0  # atno 6909 bound_to 6896
  144.8310  140.5731  143.5515 H   0  0  0  0  0  0  0  0  0  0  0  0  # atno 7974 bound_to 7965
  155.0393  140.0392  157.2503 H   0  0  0  0  0  0  0  0  0  0  0  0  # atno 8008 bound_to 7997
  154.7230  140.2715  155.6500 H   0  0  0  0  0  0  0  0  0  0  0  0  # atno 8009 bound_to 7997
  156.2821  140.2699  156.1907 H   0  0  0  0  0  0  0  0  0  0  0  0  # atno 8010 bound_to 7997
  139.4923  144.4035  151.9382 H   0  0  0  0  0  0  0  0  0  0  0  0  # atno 10167 bound_to 10162
  157.6131  131.1031  150.7538 H   0  0  0  0  0  0  0  0  0  0  0  0  # atno 10718 bound_to 10713
  154.8757  135.3880  154.3995 H   0  0  0  0  0  0  0  0  0  0  0  0  # atno 10763 bound_to 10752
  153.4722  135.7030  153.5992 H   0  0  0  0  0  0  0  0  0  0  0  0  # atno 10764 bound_to 10752
  153.4444  135.3848  155.2215 H   0  0  0  0  0  0  0  0  0  0  0  0  # atno 10765 bound_to 10752
  140.0599  134.9210  157.1165 H   0  0  0  0  0  0  0  0  0  0  0  0  # atno 11005 bound_to 11000
  145.4896  139.1489  143.3717 LP  0  0  0  0  0  0  0  0  0  0  0  0  # atno 17320 bound_to 7965
  146.2612  140.5034  142.8852 LP  0  0  0  0  0  0  0  0  0  0  0  0  # atno 17321 bound_to 7965
  140.3475  144.3129  150.5955 LP  0  0  0  0  0  0  0  0  0  0  0  0  # atno 17342 bound_to 10162
  140.5513  143.2206  151.7921 LP  0  0  0  0  0  0  0  0  0  0  0  0  # atno 17343 bound_to 10162
  156.7911  130.4890  149.5385 LP  0  0  0  0  0  0  0  0  0  0  0  0  # atno 17370 bound_to 10713
  156.1242  130.6132  151.0239 LP  0  0  0  0  0  0  0  0  0  0  0  0  # atno 17371 bound_to 10713
  140.3787  134.2311  155.7172 LP  0  0  0  0  0  0  0  0  0  0  0  0  # atno 17394 bound_to 11000
  141.1968  133.8073  157.0654 LP  0  0  0  0  0  0  0  0  0  0  0  0  # atno 17395 bound_to 11000

$$$$
