#       Name:                AV-unprocessed.smi:2724
#       Creating user name   scv26
#       Creation time:       Fri Mar 27 14:55:23 2020


#       File generated by GOLD software.
#

@<TRIPOS>MOLECULE
AV-unprocessed.smi:2724
    28    29     1
SMALL
NO_CHARGES


@<TRIPOS>ATOM
      1 ****        -2.1091  -0.0642   1.6506 O.3            1 S1                 0.0000
      2 ****        -0.6984  -0.0086   1.6036 C.3            1 S1                 0.0000
      3 ****        -0.0787  -0.7631   2.7799 C.3            1 S1                 0.0000
      4 ****         1.3404  -1.1036   2.3183 C.3            1 S1                 0.0000
      5 ****         1.2950  -1.1453   0.7825 C.3            1 S1                 0.0000
      6 ****        -0.1308  -0.7292   0.3729 C.3            1 S1                 0.0000
      7 ****        -0.1846   0.0927  -0.9091 C.ar           1 S1                 0.0000
      8 ****        -0.9327  -0.3670  -2.0165 C.ar           1 S1                 0.0000
      9 ****        -0.9781   0.4066  -3.1948 C.ar           1 S1                 0.0000
     10 ****        -0.2729   1.6259  -3.2432 C.ar           1 S1                 0.0000
     11 ****         0.4320   2.0367  -2.1666 N.pl3          1 S1                 1.0000
     12 ****         0.4989   1.3255  -1.0199 C.ar           1 S1                 0.0000
     13 ****        -2.4562   0.4145   0.9136 H              1 S1                 0.0000
     14 ****        -0.3686   1.0306   1.6359 H              1 S1                 0.0000
     15 ****        -0.0936  -0.1868   3.7056 H              1 S1                 0.0000
     16 ****        -0.6271  -1.6895   2.9595 H              1 S1                 0.0000
     17 ****         2.0318  -0.3255   2.6441 H              1 S1                 0.0000
     18 ****         1.6866  -2.0453   2.7451 H              1 S1                 0.0000
     19 ****         2.0438  -0.4538   0.3947 H              1 S1                 0.0000
     20 ****         1.5437  -2.1319   0.3902 H              1 S1                 0.0000
     21 ****        -0.7026  -1.6476   0.2263 H              1 S1                 0.0000
     22 ****        -1.4701  -1.3031  -1.9673 H              1 S1                 0.0000
     23 ****        -1.5469   0.0688  -4.0490 H              1 S1                 0.0000
     24 ****        -0.2515   2.2798  -4.1029 H              1 S1                 0.0000
     25 ****         1.0948   1.7620  -0.2315 H              1 S1                 0.0000
     26 ****         0.9356   2.9226  -2.2218 H              1 S1                 0.0000
     27 ****        -2.4338   0.3473   2.5022 LP             1 S1                 0.0000
     28 ****        -2.4100  -1.0168   1.6049 LP             1 S1                 0.0000
@<TRIPOS>BOND
    1    1    2 1     
    2    1   13 1     
    3    2    6 1     
    4    2    3 1     
    5    2   14 1     
    6    3    4 1     
    7    3   15 1     
    8    3   16 1     
    9    4    5 1     
   10    4   17 1     
   11    4   18 1     
   12    5    6 1     
   13    5   19 1     
   14    5   20 1     
   15    6    7 1     
   16    6   21 1     
   17    7   12 ar    
   18    7    8 ar    
   19    8    9 ar    
   20    8   22 1     
   21    9   10 ar    
   22    9   23 1     
   23   10   11 ar    
   24   10   24 1     
   25   11   12 ar    
   26   11   26 1     
   27   12   25 1     
   28    1   27 1     
   29    1   28 1     
@<TRIPOS>SUBSTRUCTURE
      1 S1             1
@<TRIPOS>SET
LONE_PAIRS      STATIC     ATOMS    <user>   **** ""
2 27 28
DONOR_HYDROGENS      STATIC     ATOMS    <user>   **** ""
2 13 26
ATOM$BLUE        STATIC     ATOMS    COLORGROUP SYSTEM
2 27 28
ATOM$RED        STATIC     ATOMS    COLORGROUP SYSTEM
2 13 26
