AV-unprocessed.smi:2083|AV-procd|sdf|8506|dock2
  -GOLD-   2272011213D 1   1.00000     0.00000
 Structure written by MMmdl.
 44 45  0  0  0  0  0  0  0  0  3 V2000
  151.3304  145.0210  160.0976 C   0  0  0  0  0  0  0  0  0  0  0  0
  151.3655  143.7663  159.2942 C   0  0  0  0  0  0  0  0  0  0  0  0
  150.9937  143.4721  158.0129 C   0  0  0  0  0  0  0  0  0  0  0  0
  151.2947  142.0885  157.9004 C   0  0  0  0  0  0  0  0  0  0  0  0
  151.0398  141.3898  156.6910 N   0  0  0  0  0  0  0  0  0  0  0  0
  151.6517  140.2949  156.2040 C   0  0  0  0  0  0  0  0  0  0  0  0
  152.5824  139.7697  156.8270 O   0  0  0  0  0  0  0  0  0  0  0  0
  151.1205  139.8966  155.0160 N   0  5  0  0  0  0  0  0  0  0  0  0
  151.3361  138.5834  154.4107 C   0  0  0  0  0  0  0  0  0  0  0  0
  150.2271  137.5836  154.8710 C   0  0  2  0  0  0  0  0  0  0  0  0
  150.6573  136.1006  154.7700 C   0  0  0  0  0  0  0  0  0  0  0  0
  148.8785  137.7696  154.2331 N   0  3  1  0  0  0  0  0  0  0  0  0
  147.8348  136.7984  154.6669 C   0  0  0  0  0  0  0  0  0  0  0  0
  146.6377  136.8249  153.7042 C   0  0  0  0  0  0  0  0  0  0  0  0
  146.0597  138.2415  153.5836 C   0  0  0  0  0  0  0  0  0  0  0  0
  147.1569  139.2358  153.1644 C   0  0  1  0  0  0  0  0  0  0  0  0
  146.6065  140.6648  153.0545 C   0  0  0  0  0  0  0  0  0  0  0  0
  148.3456  139.1627  154.1434 C   0  0  0  0  0  0  0  0  0  0  0  0
  151.8090  141.5852  159.0129 N   0  0  0  0  0  0  0  0  0  0  0  0
  151.8572  142.6578  159.9114 O   0  0  0  0  0  0  0  0  0  0  0  0
  150.7287  145.7836  159.6027 H   0  0  0  0  0  0  0  0  0  0  0  0
  152.3356  145.4189  160.2350 H   0  0  0  0  0  0  0  0  0  0  0  0
  150.8996  144.8386  161.0822 H   0  0  0  0  0  0  0  0  0  0  0  0
  150.5715  144.1395  157.2766 H   0  0  0  0  0  0  0  0  0  0  0  0
  150.2904  141.7590  156.1252 H   0  0  0  0  0  0  0  0  0  0  0  0
  151.3176  138.6541  153.3230 H   0  0  0  0  0  0  0  0  0  0  0  0
  152.3127  138.1673  154.6611 H   0  0  0  0  0  0  0  0  0  0  0  0
  150.0640  137.7625  155.9352 H   0  0  0  0  0  0  0  0  0  0  0  0
  151.5208  135.8802  155.4004 H   0  0  0  0  0  0  0  0  0  0  0  0
  150.9146  135.8018  153.7529 H   0  0  0  0  0  0  0  0  0  0  0  0
  149.8541  135.4444  155.1069 H   0  0  0  0  0  0  0  0  0  0  0  0
  148.2481  135.7896  154.6927 H   0  0  0  0  0  0  0  0  0  0  0  0
  147.4992  137.0310  155.6784 H   0  0  0  0  0  0  0  0  0  0  0  0
  146.9511  136.4715  152.7209 H   0  0  0  0  0  0  0  0  0  0  0  0
  145.8666  136.1356  154.0493 H   0  0  0  0  0  0  0  0  0  0  0  0
  145.2454  138.2481  152.8583 H   0  0  0  0  0  0  0  0  0  0  0  0
  145.6292  138.5438  154.5394 H   0  0  0  0  0  0  0  0  0  0  0  0
  147.5164  138.9458  152.1759 H   0  0  0  0  0  0  0  0  0  0  0  0
  146.2335  141.0212  154.0152 H   0  0  0  0  0  0  0  0  0  0  0  0
  145.7855  140.7152  152.3390 H   0  0  0  0  0  0  0  0  0  0  0  0
  147.3782  141.3582  152.7188 H   0  0  0  0  0  0  0  0  0  0  0  0
  148.0284  139.5100  155.1281 H   0  0  0  0  0  0  0  0  0  0  0  0
  149.1259  139.8435  153.8051 H   0  0  0  0  0  0  0  0  0  0  0  0
  149.0527  137.5134  153.2722 H   0  0  0  0  0  0  0  0  0  0  0  0
  1  2  1  0  0  0  0
  1 21  1  0  0  0  0
  1 22  1  0  0  0  0
  1 23  1  0  0  0  0
  2 20  1  0  0  0  0
  2  3  2  0  0  0  0
  3  4  1  0  0  0  0
  3 24  1  0  0  0  0
  4  5  1  0  0  0  0
  4 19  2  0  0  0  0
  5  6  1  0  0  0  0
  5 25  1  0  0  0  0
  6  7  2  0  0  0  0
  6  8  1  0  0  0  0
  8  9  1  0  0  0  0
  9 10  1  0  0  0  0
  9 26  1  0  0  0  0
  9 27  1  0  0  0  0
 10 11  1  0  0  0  0
 10 12  1  0  0  0  0
 10 28  1  0  0  0  0
 11 29  1  0  0  0  0
 11 30  1  0  0  0  0
 11 31  1  0  0  0  0
 12 18  1  0  0  0  0
 12 13  1  0  0  0  0
 12 44  1  0  0  0  0
 13 14  1  0  0  0  0
 13 32  1  0  0  0  0
 13 33  1  0  0  0  0
 14 15  1  0  0  0  0
 14 34  1  0  0  0  0
 14 35  1  0  0  0  0
 15 16  1  0  0  0  0
 15 36  1  0  0  0  0
 15 37  1  0  0  0  0
 16 17  1  0  0  0  0
 16 18  1  0  0  0  0
 16 38  1  0  0  0  0
 17 39  1  0  0  0  0
 17 40  1  0  0  0  0
 17 41  1  0  0  0  0
 18 42  1  0  0  0  0
 18 43  1  0  0  0  0
 19 20  1  0  0  0  0
M  CHG  1   8  -1
M  CHG  1  12   1
M  END
> <s_m_source_file>
AV-unprocessed.smi

> <i_m_source_file_index>
2083

> <i_lp_mmshare_version>
43012

> <i_f3d_flags>
0

> <s_epik_input>
W0NIM11jMVtjSF1jKG5vMSlbTkhdQyg9TylbTkhdW0NIMl1bQ0BIXShbQ0gzXSlOMltDSDJdW0NIMl1bQ0gyXVtDQEBIXShbQ0gzXSlbQ0gyXTI=

> <s_epik_cmdline>
J2VwaWtfcHl0aG9uJywgJy1waCcsICc3LjAnLCAnLXRuJywgJzgnLCAnLW1hJywgJzIwMCcsICctbWV0YWxfYmluZGluZycsICctaW1hZScsICc8aW5maWxlLm1hZT4nLCAnLW9tYWUnLCAnPG91dGZpbGUubWFlPic=

> <r_epik_Ionization_Penalty>
6.76934

> <r_epik_Ionization_Penalty_Charging>
6.76934

> <r_epik_Ionization_Penalty_Neutral>
5.77849e-06

> <r_epik_State_Penalty>
6.79457

> <r_epik_Charging_Adjusted_Penalty>
13.5639

> <i_epik_Tot_Q>
0

> <i_epik_Tot_abs_Q>
2

> <r_epik_Metal_State_Penalty>
2.72837

> <b_epik_Metal_Only>
1

> <s_lp_Force_Field>
OPLS_2005

> <r_lp_Energy>
20.364

> <b_lp_Chiralities_Consistent>
1

> <s_lp_Variant>
AV-unprocessed.smi:2083-17

> <Gold.Version>
5.8.1

> <Gold.Id.Protein>
6NUR|6NUR_protein|mol2

> <Gold.PLP.Fitness>
45.0797

> <Gold.PLP.PLP>
-34.1156

> <Gold.PLP.part.hbond>
-3.0000

> <Gold.PLP.part.metal>
0.0000

> <Gold.PLP.part.buried>
-4.5921

> <Gold.PLP.part.nonpolar>
-26.9346

> <Gold.PLP.part.repulsive>
0.1585

> <Gold.PLP.ligand.clash>
0.0000

> <Gold.PLP.ligand.torsion>
0.6591

> <Gold.PLP.Chemscore.Hbond>
4.0000

> <Gold.PLP.Chemscore.CHOScore>
0.0000

> <Gold.PLP.Chemscore.Metal>
0.0000

> <Gold.Chemscore.Hbonds>
donor molecule, donor type, donor heavy atom, donor atom, acceptor molecule, acceptor atom, score
      L1  H    12    44       P1  7948  2.00
      P1  H  7989  7998       L1     8  0.75
      P1  H  7997  8008       L1     7  1.00

> <Gold.PLP.Chemscore.Internal.Correction>
0.2823

> <Gold.Rescore>
     Score         DG    S(hbond)    S(metal)    S(lipo)     H(rot)  DE(clash)    DE(int)     intcor
     16.74     -19.37       2.51        0.00      80.41       1.52       0.04       2.59       ----

> <Gold.Chemscore.Fitness>
16.7400

> <Gold.Chemscore.DG>
-19.3721

> <Gold.Chemscore.ZeroCoef>
-5.4800

> <Gold.Chemscore.Hbond>
2.5070

> <Gold.Chemscore.Metal>
0.0000

> <Gold.Chemscore.Lipo>
80.4058

> <Gold.Chemscore.Internal_Hbond>
0.0000

> <Gold.Chemscore.DEClash>
0.0427

> <Gold.Chemscore.DEInternal>
2.5894

> <Gold.Chemscore.Rot>
1.5190

> <Gold.Chemscore.Internal.Correction>
   9.000000E+99

> <Gold.Chemscore.Hbonds>
donor molecule, donor type, donor heavy atom, donor atom, acceptor molecule, acceptor atom, score
      L1  H    12    44       P1  7948  0.95
      P1  H  7989  7998       L1     8  0.09
      P1  H  7997  8008       L1     7  1.00

> <Gold.Chemscore.Hbond.Weighted>
-8.3733

> <Gold.Chemscore.Metal.Weighted>
-0.0000

> <Gold.Chemscore.Lipo.Weighted>
-9.4075

> <Gold.Chemscore.Internal_Hbond.Weighted>
0.0000

> <Gold.Chemscore.DEClash.Weighted>
0.0427

> <Gold.Chemscore.DEInternal.Weighted>
2.5894

> <Gold.Chemscore.Rot.Weighted>
3.8886

> <Gold.Chemscore.Internal.Correction.Weighted>
   9.000000E+99

> <Gold.Protein.RotatedTorsions>
[ 6907 6896 6895 6894 ] final  -93.39 input  -60.11 | X-H torsion
[ 7974 7965 7964 7962 ] final  -97.83 input  175.53 | X-H torsion
[ 8008 7997 7996 7995 ] final  -56.09 input   59.86 | X-H torsion
[ 10167 10162 10161 10158 ] final  -47.71 input  -65.29 | X-H torsion
[ 10718 10713 10712 10709 ] final -161.10 input   66.30 | X-H torsion
[ 10763 10752 10751 10750 ] final  152.56 input  -60.55 | X-H torsion
[ 11005 11000 10999 10996 ] final  147.37 input  -57.11 | X-H torsion

> <Gold.Protein.ActiveResidues>
 VAL166  LYS551  ARG553  GLY616  TRP617  ASP618  TYR619  PRO620  LYS621  CYS622 
 ASP623  PHE694  ASN695  SER759  ASP760  ASP761  ALA762  ILE779  LEU786  VAL792 
 PHE793  MET794  SER795  GLU796  ALA797  LYS798  CYS799  TRP800  GLU811  SER814 

> <Gold.Protein.RotatedAtoms>
  150.6922  134.1975  159.4308 H   0  0  0  0  0  0  0  0  0  0  0  0  # atno 6907 bound_to 6896
  151.9943  134.9960  160.0572 H   0  0  0  0  0  0  0  0  0  0  0  0  # atno 6908 bound_to 6896
  152.1638  133.4564  159.4911 H   0  0  0  0  0  0  0  0  0  0  0  0  # atno 6909 bound_to 6896
  145.3286  140.9437  143.2675 H   0  0  0  0  0  0  0  0  0  0  0  0  # atno 7974 bound_to 7965
  154.4217  140.1138  156.5581 H   0  0  0  0  0  0  0  0  0  0  0  0  # atno 8008 bound_to 7997
  155.6340  140.3496  155.4673 H   0  0  0  0  0  0  0  0  0  0  0  0  # atno 8009 bound_to 7997
  155.9925  140.1182  157.0614 H   0  0  0  0  0  0  0  0  0  0  0  0  # atno 8010 bound_to 7997
  140.6763  143.2772  151.3966 H   0  0  0  0  0  0  0  0  0  0  0  0  # atno 10167 bound_to 10162
  156.5915  130.8772  151.2891 H   0  0  0  0  0  0  0  0  0  0  0  0  # atno 10718 bound_to 10713
  154.1220  135.2832  155.3206 H   0  0  0  0  0  0  0  0  0  0  0  0  # atno 10763 bound_to 10752
  154.6417  135.5400  153.7800 H   0  0  0  0  0  0  0  0  0  0  0  0  # atno 10764 bound_to 10752
  153.0310  135.6488  154.1373 H   0  0  0  0  0  0  0  0  0  0  0  0  # atno 10765 bound_to 10752
  140.0870  134.9063  157.1591 H   0  0  0  0  0  0  0  0  0  0  0  0  # atno 11005 bound_to 11000
  144.8882  139.4810  143.6690 LP  0  0  0  0  0  0  0  0  0  0  0  0  # atno 17320 bound_to 7965
  146.3054  139.7564  142.9060 LP  0  0  0  0  0  0  0  0  0  0  0  0  # atno 17321 bound_to 7965
  139.6057  144.1202  152.2246 LP  0  0  0  0  0  0  0  0  0  0  0  0  # atno 17342 bound_to 10162
  140.0600  144.5864  150.7270 LP  0  0  0  0  0  0  0  0  0  0  0  0  # atno 17343 bound_to 10162
  157.7302  130.9682  150.1823 LP  0  0  0  0  0  0  0  0  0  0  0  0  # atno 17370 bound_to 10713
  156.2545  130.3704  149.8196 LP  0  0  0  0  0  0  0  0  0  0  0  0  # atno 17371 bound_to 10713
  140.3406  134.2708  155.7213 LP  0  0  0  0  0  0  0  0  0  0  0  0  # atno 17394 bound_to 11000
  141.2066  133.7829  157.0169 LP  0  0  0  0  0  0  0  0  0  0  0  0  # atno 17395 bound_to 11000

$$$$
