AV-unprocessed.smi:1355|AV-procd|sdf|5537|dock5
  -GOLD-   22720 5133D 1   1.00000     0.00000
 Structure written by MMmdl.
 32 33  0  0  0  0  0  0  0  0  1 V2000
  149.9233  139.5330  154.4514 C   0  0  0  0  0  0  0  0  0  0  0  0
  151.2241  139.9826  154.7862 O   0  0  0  0  0  0  0  0  0  0  0  0
  151.2212  140.9110  155.8571 C   0  0  0  0  0  0  0  0  0  0  0  0
  151.0478  140.1744  157.1928 C   0  0  0  0  0  0  0  0  0  0  0  0
  151.7611  140.8290  158.2827 N   0  0  0  0  0  0  0  0  0  0  0  0
  152.6325  140.3022  159.1857 C   0  0  0  0  0  0  0  0  0  0  0  0
  153.0393  138.8530  159.2027 C   0  0  1  0  0  0  0  0  0  0  0  0
  151.8382  137.9151  159.3947 C   0  0  0  0  0  0  0  0  0  0  0  0
  153.7093  138.4842  158.0155 O   0  0  0  0  0  0  0  0  0  0  0  0
  153.1045  141.1588  160.0951 N   0  0  0  0  0  0  0  0  0  0  0  0
  152.5105  142.3509  159.7352 C   0  0  0  0  0  0  0  0  0  0  0  0
  152.6204  143.6399  160.3044 C   0  0  0  0  0  0  0  0  0  0  0  0
  151.9090  144.7260  159.7542 C   0  0  0  0  0  0  0  0  0  0  0  0
  151.0788  144.5386  158.6301 C   0  0  0  0  0  0  0  0  0  0  0  0
  150.9535  143.2616  158.0499 C   0  0  0  0  0  0  0  0  0  0  0  0
  151.6665  142.1804  158.6028 C   0  0  0  0  0  0  0  0  0  0  0  0
  149.9831  138.8162  153.6330 H   0  0  0  0  0  0  0  0  0  0  0  0
  149.2925  140.3614  154.1270 H   0  0  0  0  0  0  0  0  0  0  0  0
  149.4454  139.0389  155.2981 H   0  0  0  0  0  0  0  0  0  0  0  0
  152.1550  141.4757  155.8654 H   0  0  0  0  0  0  0  0  0  0  0  0
  150.4094  141.6275  155.7236 H   0  0  0  0  0  0  0  0  0  0  0  0
  149.9890  140.1396  157.4504 H   0  0  0  0  0  0  0  0  0  0  0  0
  151.3585  139.1339  157.1125 H   0  0  0  0  0  0  0  0  0  0  0  0
  153.7333  138.6651  160.0181 H   0  0  0  0  0  0  0  0  0  0  0  0
  151.3083  138.1369  160.3208 H   0  0  0  0  0  0  0  0  0  0  0  0
  152.1570  136.8733  159.4402 H   0  0  0  0  0  0  0  0  0  0  0  0
  151.1236  138.0074  158.5759 H   0  0  0  0  0  0  0  0  0  0  0  0
  154.2580  137.7388  158.2065 H   0  0  0  0  0  0  0  0  0  0  0  0
  153.2543  143.7930  161.1652 H   0  0  0  0  0  0  0  0  0  0  0  0
  152.0009  145.7072  160.1963 H   0  0  0  0  0  0  0  0  0  0  0  0
  150.5379  145.3756  158.2138 H   0  0  0  0  0  0  0  0  0  0  0  0
  150.3177  143.1165  157.1893 H   0  0  0  0  0  0  0  0  0  0  0  0
  1  2  1  0  0  0  0
  1 17  1  0  0  0  0
  1 18  1  0  0  0  0
  1 19  1  0  0  0  0
  2  3  1  0  0  0  0
  3  4  1  0  0  0  0
  3 20  1  0  0  0  0
  3 21  1  0  0  0  0
  4  5  1  0  0  0  0
  4 22  1  0  0  0  0
  4 23  1  0  0  0  0
  5 16  1  0  0  0  0
  5  6  1  0  0  0  0
  6  7  1  0  0  0  0
  6 10  2  0  0  0  0
  7  8  1  0  0  0  0
  7  9  1  0  0  0  0
  7 24  1  0  0  0  0
  8 25  1  0  0  0  0
  8 26  1  0  0  0  0
  8 27  1  0  0  0  0
  9 28  1  0  0  0  0
 10 11  1  0  0  0  0
 11 16  2  0  0  0  0
 11 12  1  0  0  0  0
 12 13  2  0  0  0  0
 12 29  1  0  0  0  0
 13 14  1  0  0  0  0
 13 30  1  0  0  0  0
 14 15  2  0  0  0  0
 14 31  1  0  0  0  0
 15 16  1  0  0  0  0
 15 32  1  0  0  0  0
M  END
> <s_m_source_file>
AV-unprocessed.smi

> <i_m_source_file_index>
1355

> <i_lp_mmshare_version>
43012

> <i_f3d_flags>
0

> <s_epik_input>
W0NIM11PW0NIMl1bQ0gyXW4oYyhuMSlbQ0BIXShbQ0gzXSlbT0hdKWMoYzEyKVtjSF1bY0hdW2NIXVtjSF0y

> <s_epik_cmdline>
J2VwaWtfcHl0aG9uJywgJy1waCcsICc3LjAnLCAnLXRuJywgJzgnLCAnLW1hJywgJzIwMCcsICctbWV0YWxfYmluZGluZycsICctaW1hZScsICc8aW5maWxlLm1hZT4nLCAnLW9tYWUnLCAnPG91dGZpbGUubWFlPic=

> <r_epik_Ionization_Penalty>
0.055138

> <r_epik_Ionization_Penalty_Charging>
0

> <r_epik_Ionization_Penalty_Neutral>
0.055138

> <r_epik_State_Penalty>
0.0474756

> <r_epik_Charging_Adjusted_Penalty>
0.0474756

> <i_epik_Tot_Q>
0

> <i_epik_Tot_abs_Q>
0

> <r_epik_Metal_State_Penalty>
4.94275e-05

> <b_epik_Metal_Only>
0

> <s_lp_Force_Field>
OPLS_2005

> <r_lp_Energy>
6.46782

> <b_lp_Chiralities_Consistent>
1

> <s_lp_Variant>
AV-unprocessed.smi:1355-2

> <Gold.Version>
5.8.1

> <Gold.Id.Protein>
6NUR|6NUR_protein|mol2

> <Gold.PLP.Fitness>
41.9969

> <Gold.PLP.PLP>
-36.7373

> <Gold.PLP.part.hbond>
-2.0000

> <Gold.PLP.part.metal>
0.0000

> <Gold.PLP.part.buried>
-5.5660

> <Gold.PLP.part.nonpolar>
-29.4051

> <Gold.PLP.part.repulsive>
0.0598

> <Gold.PLP.ligand.clash>
0.0000

> <Gold.PLP.ligand.torsion>
0.3743

> <Gold.PLP.Chemscore.Hbond>
2.0000

> <Gold.PLP.Chemscore.CHOScore>
0.0000

> <Gold.PLP.Chemscore.Metal>
0.0000

> <Gold.Chemscore.Hbonds>
donor molecule, donor type, donor heavy atom, donor atom, acceptor molecule, acceptor atom, score
      P1  H  7989  7998       L1     2  1.00
      P1  H  7997  8009       L1     9  1.00

> <Gold.PLP.Chemscore.Internal.Correction>
0.0082

> <Gold.Rescore>
     Score         DG    S(hbond)    S(metal)    S(lipo)     H(rot)  DE(clash)    DE(int)     intcor
     17.09     -17.50       1.80        0.00      95.94       2.04       0.02       0.39       ----

> <Gold.Chemscore.Fitness>
17.0922

> <Gold.Chemscore.DG>
-17.4967

> <Gold.Chemscore.ZeroCoef>
-5.4800

> <Gold.Chemscore.Hbond>
1.7999

> <Gold.Chemscore.Metal>
0.0000

> <Gold.Chemscore.Lipo>
95.9390

> <Gold.Chemscore.Internal_Hbond>
0.0000

> <Gold.Chemscore.DEClash>
0.0159

> <Gold.Chemscore.DEInternal>
0.3887

> <Gold.Chemscore.Rot>
2.0390

> <Gold.Chemscore.Internal.Correction>
   9.000000E+99

> <Gold.Chemscore.Hbonds>
donor molecule, donor type, donor heavy atom, donor atom, acceptor molecule, acceptor atom, score
      P1  H  7989  7998       L1     2  0.18
      P1  H  7997  8009       L1     9  0.75

> <Gold.Chemscore.Hbond.Weighted>
-6.0117

> <Gold.Chemscore.Metal.Weighted>
-0.0000

> <Gold.Chemscore.Lipo.Weighted>
-11.2249

> <Gold.Chemscore.Internal_Hbond.Weighted>
0.0000

> <Gold.Chemscore.DEClash.Weighted>
0.0159

> <Gold.Chemscore.DEInternal.Weighted>
0.3887

> <Gold.Chemscore.Rot.Weighted>
5.2199

> <Gold.Chemscore.Internal.Correction.Weighted>
   9.000000E+99

> <Gold.Protein.RotatedTorsions>
[ 6907 6896 6895 6894 ] final -156.22 input  -60.11 | X-H torsion
[ 7974 7965 7964 7962 ] final    0.12 input  175.53 | X-H torsion
[ 8008 7997 7996 7995 ] final  149.52 input   59.86 | X-H torsion
[ 10167 10162 10161 10158 ] final -143.05 input  -65.29 | X-H torsion
[ 10718 10713 10712 10709 ] final   -5.01 input   66.30 | X-H torsion
[ 10763 10752 10751 10750 ] final   35.24 input  -60.55 | X-H torsion
[ 11005 11000 10999 10996 ] final  -90.10 input  -57.11 | X-H torsion

> <Gold.Protein.ActiveResidues>
 VAL166  LYS551  ARG553  GLY616  TRP617  ASP618  TYR619  PRO620  LYS621  CYS622 
 ASP623  PHE694  ASN695  SER759  ASP760  ASP761  ALA762  ILE779  LEU786  VAL792 
 PHE793  MET794  SER795  GLU796  ALA797  LYS798  CYS799  TRP800  GLU811  SER814 

> <Gold.Protein.RotatedAtoms>
  151.2844  133.4195  159.2628 H   0  0  0  0  0  0  0  0  0  0  0  0  # atno 6907 bound_to 6896
  151.0333  134.9555  159.8133 H   0  0  0  0  0  0  0  0  0  0  0  0  # atno 6908 bound_to 6896
  152.5350  134.2804  159.9058 H   0  0  0  0  0  0  0  0  0  0  0  0  # atno 6909 bound_to 6896
  146.2432  140.1186  142.8341 H   0  0  0  0  0  0  0  0  0  0  0  0  # atno 7974 bound_to 7965
  156.2751  140.2099  156.5872 H   0  0  0  0  0  0  0  0  0  0  0  0  # atno 8008 bound_to 7997
  154.7012  140.0521  157.0483 H   0  0  0  0  0  0  0  0  0  0  0  0  # atno 8009 bound_to 7997
  155.0733  140.3179  155.4627 H   0  0  0  0  0  0  0  0  0  0  0  0  # atno 8010 bound_to 7997
  139.8030  143.7806  152.2659 H   0  0  0  0  0  0  0  0  0  0  0  0  # atno 10167 bound_to 10162
  156.7528  130.5245  149.5800 H   0  0  0  0  0  0  0  0  0  0  0  0  # atno 10718 bound_to 10713
  153.0128  135.6338  154.1796 H   0  0  0  0  0  0  0  0  0  0  0  0  # atno 10763 bound_to 10752
  154.1537  135.2827  155.3130 H   0  0  0  0  0  0  0  0  0  0  0  0  # atno 10764 bound_to 10752
  154.6034  135.5580  153.7459 H   0  0  0  0  0  0  0  0  0  0  0  0  # atno 10765 bound_to 10752
  141.1572  133.7671  156.9689 H   0  0  0  0  0  0  0  0  0  0  0  0  # atno 11005 bound_to 11000
  145.0425  140.8956  143.5044 LP  0  0  0  0  0  0  0  0  0  0  0  0  # atno 17320 bound_to 7965
  145.1269  139.2657  143.5559 LP  0  0  0  0  0  0  0  0  0  0  0  0  # atno 17321 bound_to 7965
  139.7932  144.7402  150.9926 LP  0  0  0  0  0  0  0  0  0  0  0  0  # atno 17342 bound_to 10162
  140.7820  143.4420  151.0537 LP  0  0  0  0  0  0  0  0  0  0  0  0  # atno 17343 bound_to 10162
  156.1390  130.6231  151.0441 LP  0  0  0  0  0  0  0  0  0  0  0  0  # atno 17370 bound_to 10713
  157.6769  131.0848  150.7470 LP  0  0  0  0  0  0  0  0  0  0  0  0  # atno 17371 bound_to 10713
  140.1142  134.9457  157.2110 LP  0  0  0  0  0  0  0  0  0  0  0  0  # atno 17394 bound_to 11000
  140.3154  134.2976  155.7257 LP  0  0  0  0  0  0  0  0  0  0  0  0  # atno 17395 bound_to 11000

$$$$
