AV-unprocessed.smi:2457|AV-procd|sdf|9704|dock7
  -GOLD-   2272013343D 1   1.00000     0.00000
 Structure written by MMmdl.
 40 41  0  0  0  0  0  0  0  0  1 V2000
  144.6271  145.0461  153.5587 C   0  0  0  0  0  0  0  0  0  0  0  0
  145.1421  143.8057  154.2172 C   0  0  0  0  0  0  0  0  0  0  0  0
  144.6660  143.2197  155.3631 C   0  0  0  0  0  0  0  0  0  0  0  0
  145.5504  141.7751  155.7686 S   0  0  0  0  0  0  0  0  0  0  0  0
  146.5511  142.0216  154.3406 C   0  0  0  0  0  0  0  0  0  0  0  0
  147.6242  141.0644  153.9155 C   0  0  2  0  0  0  0  0  0  0  0  0
  147.0441  139.7957  153.2741 C   0  0  0  0  0  0  0  0  0  0  0  0
  148.6490  140.7598  155.0313 C   0  0  0  0  0  0  0  0  0  0  0  0
  149.1793  141.9792  155.6395 N   0  0  0  0  0  0  0  0  0  0  0  0
  150.2346  142.0374  156.4648 C   0  0  0  0  0  0  0  0  0  0  0  0
  150.9558  141.0773  156.7365 O   0  0  0  0  0  0  0  0  0  0  0  0
  150.3821  143.2585  156.9963 N   0  0  0  0  0  0  0  0  0  0  0  0
  151.3591  143.6100  158.0223 C   0  0  2  0  0  0  0  0  0  0  0  0
  151.4721  142.4709  159.0582 C   0  0  0  0  0  0  0  0  0  0  0  0
  152.5328  142.7559  160.1334 C   0  0  0  0  0  0  0  0  0  0  0  0
  152.2207  144.0229  160.9425 C   0  0  0  0  0  0  0  0  0  0  0  0
  152.1953  145.4927  159.8805 S   0  0  0  0  0  0  0  0  0  0  0  0
  150.9525  144.9397  158.6801 C   0  0  0  0  0  0  0  0  0  0  0  0
  146.2185  143.1174  153.6513 N   0  0  0  0  0  0  0  0  0  0  0  0
  143.9079  145.5648  154.1929 H   0  0  0  0  0  0  0  0  0  0  0  0
  144.1290  144.8116  152.6176 H   0  0  0  0  0  0  0  0  0  0  0  0
  145.4369  145.7428  153.3407 H   0  0  0  0  0  0  0  0  0  0  0  0
  143.8487  143.5460  155.9891 H   0  0  0  0  0  0  0  0  0  0  0  0
  148.1787  141.5716  153.1246 H   0  0  0  0  0  0  0  0  0  0  0  0
  146.4024  140.0421  152.4276 H   0  0  0  0  0  0  0  0  0  0  0  0
  146.4488  139.2271  153.9894 H   0  0  0  0  0  0  0  0  0  0  0  0
  147.8368  139.1423  152.9095 H   0  0  0  0  0  0  0  0  0  0  0  0
  148.1947  140.1203  155.7902 H   0  0  0  0  0  0  0  0  0  0  0  0
  149.4855  140.1935  154.6211 H   0  0  0  0  0  0  0  0  0  0  0  0
  148.6567  142.8279  155.4804 H   0  0  0  0  0  0  0  0  0  0  0  0
  149.7393  143.9830  156.7121 H   0  0  0  0  0  0  0  0  0  0  0  0
  152.3305  143.7529  157.5449 H   0  0  0  0  0  0  0  0  0  0  0  0
  150.5049  142.3027  159.5339 H   0  0  0  0  0  0  0  0  0  0  0  0
  151.7275  141.5374  158.5549 H   0  0  0  0  0  0  0  0  0  0  0  0
  152.5947  141.9036  160.8109 H   0  0  0  0  0  0  0  0  0  0  0  0
  153.5148  142.8482  159.6674 H   0  0  0  0  0  0  0  0  0  0  0  0
  151.2557  143.9277  161.4415 H   0  0  0  0  0  0  0  0  0  0  0  0
  152.9701  144.1683  161.7208 H   0  0  0  0  0  0  0  0  0  0  0  0
  150.8375  145.7188  157.9257 H   0  0  0  0  0  0  0  0  0  0  0  0
  149.9921  144.8402  159.1870 H   0  0  0  0  0  0  0  0  0  0  0  0
  1  2  1  0  0  0  0
  1 20  1  0  0  0  0
  1 21  1  0  0  0  0
  1 22  1  0  0  0  0
  2 19  1  0  0  0  0
  2  3  2  0  0  0  0
  3  4  1  0  0  0  0
  3 23  1  0  0  0  0
  4  5  1  0  0  0  0
  5  6  1  0  0  0  0
  5 19  2  0  0  0  0
  6  7  1  0  0  0  0
  6  8  1  0  0  0  0
  6 24  1  0  0  0  0
  7 25  1  0  0  0  0
  7 26  1  0  0  0  0
  7 27  1  0  0  0  0
  8  9  1  0  0  0  0
  8 28  1  0  0  0  0
  8 29  1  0  0  0  0
  9 10  1  0  0  0  0
  9 30  1  0  0  0  0
 10 11  2  0  0  0  0
 10 12  1  0  0  0  0
 12 13  1  0  0  0  0
 12 31  1  0  0  0  0
 13 18  1  0  0  0  0
 13 14  1  0  0  0  0
 13 32  1  0  0  0  0
 14 15  1  0  0  0  0
 14 33  1  0  0  0  0
 14 34  1  0  0  0  0
 15 16  1  0  0  0  0
 15 35  1  0  0  0  0
 15 36  1  0  0  0  0
 16 17  1  0  0  0  0
 16 37  1  0  0  0  0
 16 38  1  0  0  0  0
 17 18  1  0  0  0  0
 18 39  1  0  0  0  0
 18 40  1  0  0  0  0
M  END
> <s_m_source_file>
AV-unprocessed.smi

> <i_m_source_file_index>
2457

> <i_lp_mmshare_version>
43012

> <i_f3d_flags>
0

> <s_epik_input>
W0NIM11jMVtjSF1zYyhuMSlbQ0BIXShbQ0gzXSlbQ0gyXVtOSF1DKD1PKVtOSF1bQ0BASF0yW0NIMl1bQ0gyXVtDSDJdU1tDSDJdMg==

> <s_epik_cmdline>
J2VwaWtfcHl0aG9uJywgJy1waCcsICc3LjAnLCAnLXRuJywgJzgnLCAnLW1hJywgJzIwMCcsICctbWV0YWxfYmluZGluZycsICctaW1hZScsICc8aW5maWxlLm1hZT4nLCAnLW9tYWUnLCAnPG91dGZpbGUubWFlPic=

> <r_epik_Ionization_Penalty>
0.00154805

> <r_epik_Ionization_Penalty_Charging>
0

> <r_epik_Ionization_Penalty_Neutral>
0.00154805

> <r_epik_State_Penalty>
0.00100357

> <r_epik_Charging_Adjusted_Penalty>
0.00100357

> <i_epik_Tot_Q>
0

> <i_epik_Tot_abs_Q>
0

> <r_epik_Metal_State_Penalty>
-0

> <b_epik_Metal_Only>
0

> <s_lp_Force_Field>
OPLS_2005

> <r_lp_Energy>
-7.34104

> <b_lp_Chiralities_Consistent>
1

> <s_lp_Variant>
AV-unprocessed.smi:2457-1

> <Gold.Version>
5.8.1

> <Gold.Id.Protein>
6NUR|6NUR_protein|mol2

> <Gold.PLP.Fitness>
48.0717

> <Gold.PLP.PLP>
-43.7756

> <Gold.PLP.part.hbond>
-2.1707

> <Gold.PLP.part.metal>
0.0000

> <Gold.PLP.part.buried>
-4.9679

> <Gold.PLP.part.nonpolar>
-37.5168

> <Gold.PLP.part.repulsive>
0.4032

> <Gold.PLP.ligand.clash>
0.0000

> <Gold.PLP.ligand.torsion>
0.6229

> <Gold.PLP.Chemscore.Hbond>
1.8073

> <Gold.PLP.Chemscore.CHOScore>
0.0000

> <Gold.PLP.Chemscore.Metal>
0.0000

> <Gold.Chemscore.Hbonds>
donor molecule, donor type, donor heavy atom, donor atom, acceptor molecule, acceptor atom, score
      L1  H     9    30       P1  8028  0.80
      L1  H    12    31       P1  8028  0.99

> <Gold.PLP.Chemscore.Internal.Correction>
0.1201

> <Gold.Rescore>
     Score         DG    S(hbond)    S(metal)    S(lipo)     H(rot)  DE(clash)    DE(int)     intcor
     18.90     -20.57       1.74        0.00     111.18       1.46       0.03       1.65       ----

> <Gold.Chemscore.Fitness>
18.8983

> <Gold.Chemscore.DG>
-20.5695

> <Gold.Chemscore.ZeroCoef>
-5.4800

> <Gold.Chemscore.Hbond>
1.7433

> <Gold.Chemscore.Metal>
0.0000

> <Gold.Chemscore.Lipo>
111.1830

> <Gold.Chemscore.Internal_Hbond>
0.0000

> <Gold.Chemscore.DEClash>
0.0251

> <Gold.Chemscore.DEInternal>
1.6462

> <Gold.Chemscore.Rot>
1.4616

> <Gold.Chemscore.Internal.Correction>
   9.000000E+99

> <Gold.Chemscore.Hbonds>
donor molecule, donor type, donor heavy atom, donor atom, acceptor molecule, acceptor atom, score
      L1  H     9    30       P1  8028  0.79
      L1  H    12    31       P1  8028  0.88

> <Gold.Chemscore.Hbond.Weighted>
-5.8227

> <Gold.Chemscore.Metal.Weighted>
-0.0000

> <Gold.Chemscore.Lipo.Weighted>
-13.0084

> <Gold.Chemscore.Internal_Hbond.Weighted>
0.0000

> <Gold.Chemscore.DEClash.Weighted>
0.0251

> <Gold.Chemscore.DEInternal.Weighted>
1.6462

> <Gold.Chemscore.Rot.Weighted>
3.7416

> <Gold.Chemscore.Internal.Correction.Weighted>
   9.000000E+99

> <Gold.Protein.RotatedTorsions>
[ 6907 6896 6895 6894 ] final  -25.40 input  -60.11 | X-H torsion
[ 7974 7965 7964 7962 ] final  106.36 input  175.53 | X-H torsion
[ 8008 7997 7996 7995 ] final -164.35 input   59.86 | X-H torsion
[ 10167 10162 10161 10158 ] final -173.73 input  -65.29 | X-H torsion
[ 10718 10713 10712 10709 ] final -179.72 input   66.30 | X-H torsion
[ 10763 10752 10751 10750 ] final  119.66 input  -60.55 | X-H torsion
[ 11005 11000 10999 10996 ] final   56.24 input  -57.11 | X-H torsion

> <Gold.Protein.ActiveResidues>
 VAL166  LYS551  ARG553  GLY616  TRP617  ASP618  TYR619  PRO620  LYS621  CYS622 
 ASP623  PHE694  ASN695  SER759  ASP760  ASP761  ALA762  ILE779  LEU786  VAL792 
 PHE793  MET794  SER795  GLU796  ALA797  LYS798  CYS799  TRP800  GLU811  SER814 

> <Gold.Protein.RotatedAtoms>
  151.1758  135.0338  159.8770 H   0  0  0  0  0  0  0  0  0  0  0  0  # atno 6907 bound_to 6896
  152.5447  134.1119  159.8372 H   0  0  0  0  0  0  0  0  0  0  0  0  # atno 6908 bound_to 6896
  151.1230  133.5044  159.2634 H   0  0  0  0  0  0  0  0  0  0  0  0  # atno 6909 bound_to 6896
  145.3076  139.2550  143.3780 H   0  0  0  0  0  0  0  0  0  0  0  0  # atno 7974 bound_to 7965
  155.8343  140.0938  157.1773 H   0  0  0  0  0  0  0  0  0  0  0  0  # atno 8008 bound_to 7997
  154.3980  140.1413  156.3713 H   0  0  0  0  0  0  0  0  0  0  0  0  # atno 8009 bound_to 7997
  155.8132  140.3449  155.5472 H   0  0  0  0  0  0  0  0  0  0  0  0  # atno 8010 bound_to 7997
  139.5672  144.1727  152.1330 H   0  0  0  0  0  0  0  0  0  0  0  0  # atno 10167 bound_to 10162
  156.8633  130.9759  151.3081 H   0  0  0  0  0  0  0  0  0  0  0  0  # atno 10718 bound_to 10713
  153.5864  135.3474  155.2894 H   0  0  0  0  0  0  0  0  0  0  0  0  # atno 10763 bound_to 10752
  154.8659  135.4194  154.2564 H   0  0  0  0  0  0  0  0  0  0  0  0  # atno 10764 bound_to 10752
  153.3361  135.7047  153.6977 H   0  0  0  0  0  0  0  0  0  0  0  0  # atno 10765 bound_to 10752
  140.0544  134.5691  155.9225 H   0  0  0  0  0  0  0  0  0  0  0  0  # atno 11005 bound_to 11000
  146.3129  140.3605  142.8664 LP  0  0  0  0  0  0  0  0  0  0  0  0  # atno 17320 bound_to 7965
  144.9042  140.7679  143.5848 LP  0  0  0  0  0  0  0  0  0  0  0  0  # atno 17321 bound_to 7965
  140.1252  144.5338  150.6837 LP  0  0  0  0  0  0  0  0  0  0  0  0  # atno 17342 bound_to 10162
  140.6956  143.2402  151.5010 LP  0  0  0  0  0  0  0  0  0  0  0  0  # atno 17343 bound_to 10162
  157.6238  130.8675  149.9153 LP  0  0  0  0  0  0  0  0  0  0  0  0  # atno 17370 bound_to 10713
  156.0765  130.3678  150.0667 LP  0  0  0  0  0  0  0  0  0  0  0  0  # atno 17371 bound_to 10713
  141.1945  133.6583  156.5599 LP  0  0  0  0  0  0  0  0  0  0  0  0  # atno 17394 bound_to 11000
  140.3867  134.7476  157.4695 LP  0  0  0  0  0  0  0  0  0  0  0  0  # atno 17395 bound_to 11000

$$$$
