AV-unprocessed.smi:11|AV-procd|sdf|58|dock4
  -GOLD-   2262015173D 1   1.00000     0.00000
 Structure written by MMmdl.
 34 36  0  0  0  0  0  0  0  0  2 V2000
  147.7860  142.0008  157.1545 C   0  0  0  0  0  0  0  0  0  0  0  0
  148.6028  140.8495  156.5431 C   0  0  0  0  0  0  0  0  0  0  0  0
  149.8608  141.2791  155.7479 C   0  0  2  0  0  0  0  0  0  0  0  0
  149.4513  142.0536  154.6378 O   0  0  0  0  0  0  0  0  0  0  0  0
  150.6618  140.0627  155.2624 C   0  0  0  0  0  0  0  0  0  0  0  0
  151.5870  139.7580  156.4387 C   0  0  0  0  0  0  0  0  0  0  0  0
  151.8776  141.0578  157.0264 N   0  0  0  0  0  0  0  0  0  0  0  0
  152.5192  141.1699  158.2764 C   0  0  0  0  0  0  0  0  0  0  0  0
  153.3541  140.1634  158.6560 N   0  0  0  0  0  0  0  0  0  0  0  0
  154.0080  140.1706  159.8262 C   0  0  0  0  0  0  0  0  0  0  0  0
  153.8974  141.1675  160.7094 N   0  3  0  0  0  0  0  0  0  0  0  0
  153.0863  142.2000  160.3666 C   0  0  0  0  0  0  0  0  0  0  0  0
  152.8051  143.3459  161.0804 N   0  0  0  0  0  0  0  0  0  0  0  0
  151.9363  144.1490  160.3623 C   0  0  0  0  0  0  0  0  0  0  0  0
  151.6401  143.5340  159.1717 C   0  0  0  0  0  0  0  0  0  0  0  0
  152.3553  142.2819  159.1531 C   0  0  0  0  0  0  0  0  0  0  0  0
  150.8925  142.0431  156.6007 C   0  0  0  0  0  0  0  0  0  0  0  0
  153.1662  143.5954  161.9903 H   0  0  0  0  0  0  0  0  0  0  0  0
  146.9059  141.6122  157.6671 H   0  0  0  0  0  0  0  0  0  0  0  0
  147.4362  142.6947  156.3900 H   0  0  0  0  0  0  0  0  0  0  0  0
  148.3609  142.5682  157.8855 H   0  0  0  0  0  0  0  0  0  0  0  0
  148.8907  140.1661  157.3427 H   0  0  0  0  0  0  0  0  0  0  0  0
  147.9455  140.2770  155.8872 H   0  0  0  0  0  0  0  0  0  0  0  0
  149.1392  142.8883  154.9518 H   0  0  0  0  0  0  0  0  0  0  0  0
  150.0399  139.2131  154.9786 H   0  0  0  0  0  0  0  0  0  0  0  0
  151.2688  140.3307  154.3956 H   0  0  0  0  0  0  0  0  0  0  0  0
  151.0788  139.1245  157.1672 H   0  0  0  0  0  0  0  0  0  0  0  0
  152.4968  139.2508  156.1160 H   0  0  0  0  0  0  0  0  0  0  0  0
  154.6581  139.3507  160.0941 H   0  0  0  0  0  0  0  0  0  0  0  0
  151.6004  145.0976  160.7563 H   0  0  0  0  0  0  0  0  0  0  0  0
  150.9941  143.9155  158.3952 H   0  0  0  0  0  0  0  0  0  0  0  0
  151.4083  142.7958  156.0031 H   0  0  0  0  0  0  0  0  0  0  0  0
  150.4297  142.5486  157.4469 H   0  0  0  0  0  0  0  0  0  0  0  0
  154.3999  141.1630  161.5969 H   0  0  0  0  0  0  0  0  0  0  0  0
  1  2  1  0  0  0  0
  1 19  1  0  0  0  0
  1 20  1  0  0  0  0
  1 21  1  0  0  0  0
  2  3  1  0  0  0  0
  2 22  1  0  0  0  0
  2 23  1  0  0  0  0
  3 17  1  0  0  0  0
  3  4  1  0  0  0  0
  3  5  1  0  0  0  0
  4 24  1  0  0  0  0
  5  6  1  0  0  0  0
  5 25  1  0  0  0  0
  5 26  1  0  0  0  0
  6  7  1  0  0  0  0
  6 27  1  0  0  0  0
  6 28  1  0  0  0  0
  7  8  1  0  0  0  0
  7 17  1  0  0  0  0
  8 16  1  0  0  0  0
  8  9  2  0  0  0  0
  9 10  1  0  0  0  0
 10 11  2  0  0  0  0
 10 29  1  0  0  0  0
 11 12  1  0  0  0  0
 11 34  1  0  0  0  0
 12 16  2  0  0  0  0
 12 13  1  0  0  0  0
 13 18  1  0  0  0  0
 13 14  1  0  0  0  0
 14 15  2  0  0  0  0
 14 30  1  0  0  0  0
 15 16  1  0  0  0  0
 15 31  1  0  0  0  0
 17 32  1  0  0  0  0
 17 33  1  0  0  0  0
M  CHG  1  11   1
M  END
> <s_m_source_file>
AV-unprocessed.smi

> <i_m_source_file_index>
11

> <i_lp_mmshare_version>
43012

> <i_f3d_flags>
0

> <s_epik_input>
W0NIM11bQ0gyXVtDQEBdMShbT0hdKVtDSDJdW0NIMl1OKFtDSDJdMSljKG5bY0hdbjIpYyhjMjMpW2NIXVtjSF1bbkhdMw==

> <s_epik_cmdline>
J2VwaWtfcHl0aG9uJywgJy1waCcsICc3LjAnLCAnLXRuJywgJzgnLCAnLW1hJywgJzIwMCcsICctbWV0YWxfYmluZGluZycsICctaW1hZScsICc8aW5maWxlLm1hZT4nLCAnLW9tYWUnLCAnPG91dGZpbGUubWFlPic=

> <r_lp_tautomer_probability>
1.75997e-05

> <r_epik_Ionization_Penalty>
1.53257

> <r_epik_Ionization_Penalty_Charging>
1.53255

> <r_epik_Ionization_Penalty_Neutral>
1.78556e-05

> <r_epik_State_Penalty>
1.6253

> <r_epik_Charging_Adjusted_Penalty>
3.15785

> <i_epik_Tot_Q>
1

> <i_epik_Tot_abs_Q>
1

> <r_epik_Metal_State_Penalty>
1.66891

> <b_epik_Metal_Only>
0

> <s_lp_Force_Field>
OPLS_2005

> <r_lp_Energy>
33.3454

> <b_lp_Chiralities_Consistent>
1

> <s_lp_Variant>
AV-unprocessed.smi:11-4

> <Gold.Version>
5.8.1

> <Gold.Id.Protein>
6NUR|6NUR_protein|mol2

> <Gold.PLP.Fitness>
38.9838

> <Gold.PLP.PLP>
-32.9852

> <Gold.PLP.part.hbond>
-3.5060

> <Gold.PLP.part.metal>
0.0000

> <Gold.PLP.part.buried>
-2.2216

> <Gold.PLP.part.nonpolar>
-24.8378

> <Gold.PLP.part.repulsive>
0.0741

> <Gold.PLP.ligand.clash>
0.0000

> <Gold.PLP.ligand.torsion>
0.1706

> <Gold.PLP.Chemscore.Hbond>
2.0322

> <Gold.PLP.Chemscore.CHOScore>
0.0000

> <Gold.PLP.Chemscore.Metal>
0.0000

> <Gold.Chemscore.Hbonds>
donor molecule, donor type, donor heavy atom, donor atom, acceptor molecule, acceptor atom, score
      L1  H     4    24       P1  8028  1.00
      P1  H  7997  8010       L1     9  0.97
      P1  H  8011  8017       L1     4  0.06

> <Gold.PLP.Chemscore.Internal.Correction>
0.2432

> <Gold.Rescore>
     Score         DG    S(hbond)    S(metal)    S(lipo)     H(rot)  DE(clash)    DE(int)     intcor
     13.04     -14.07       1.46        0.00      63.17       1.44       0.06       0.98       ----

> <Gold.Chemscore.Fitness>
13.0396

> <Gold.Chemscore.DG>
-14.0733

> <Gold.Chemscore.ZeroCoef>
-5.4800

> <Gold.Chemscore.Hbond>
1.4632

> <Gold.Chemscore.Metal>
0.0000

> <Gold.Chemscore.Lipo>
63.1692

> <Gold.Chemscore.Internal_Hbond>
0.0000

> <Gold.Chemscore.DEClash>
0.0572

> <Gold.Chemscore.DEInternal>
0.9765

> <Gold.Chemscore.Rot>
1.4392

> <Gold.Chemscore.Internal.Correction>
   9.000000E+99

> <Gold.Chemscore.Hbonds>
donor molecule, donor type, donor heavy atom, donor atom, acceptor molecule, acceptor atom, score
      L1  H     4    24       P1  8028  0.98
      P1  H  7997  8010       L1     9  0.25
      P1  H  8011  8017       L1     4  0.03

> <Gold.Chemscore.Hbond.Weighted>
-4.8869

> <Gold.Chemscore.Metal.Weighted>
-0.0000

> <Gold.Chemscore.Lipo.Weighted>
-7.3908

> <Gold.Chemscore.Internal_Hbond.Weighted>
0.0000

> <Gold.Chemscore.DEClash.Weighted>
0.0572

> <Gold.Chemscore.DEInternal.Weighted>
0.9765

> <Gold.Chemscore.Rot.Weighted>
3.6844

> <Gold.Chemscore.Internal.Correction.Weighted>
   9.000000E+99

> <Gold.Protein.RotatedTorsions>
[ 6907 6896 6895 6894 ] final  136.20 input  -60.11 | X-H torsion
[ 7974 7965 7964 7962 ] final -124.10 input  175.53 | X-H torsion
[ 8008 7997 7996 7995 ] final   28.27 input   59.86 | X-H torsion
[ 10167 10162 10161 10158 ] final  -24.59 input  -65.29 | X-H torsion
[ 10718 10713 10712 10709 ] final  -13.07 input   66.30 | X-H torsion
[ 10763 10752 10751 10750 ] final  -76.54 input  -60.55 | X-H torsion
[ 11005 11000 10999 10996 ] final   16.49 input  -57.11 | X-H torsion

> <Gold.Protein.ActiveResidues>
 VAL166  LYS551  ARG553  GLY616  TRP617  ASP618  TYR619  PRO620  LYS621  CYS622 
 ASP623  PHE694  ASN695  SER759  ASP760  ASP761  ALA762  ILE779  LEU786  VAL792 
 PHE793  MET794  SER795  GLU796  ALA797  LYS798  CYS799  TRP800  GLU811  SER814 

> <Gold.Protein.RotatedAtoms>
  152.2920  133.5570  159.5563 H   0  0  0  0  0  0  0  0  0  0  0  0  # atno 6907 bound_to 6896
  150.7239  134.0415  159.3776 H   0  0  0  0  0  0  0  0  0  0  0  0  # atno 6908 bound_to 6896
  151.8320  135.0618  160.0489 H   0  0  0  0  0  0  0  0  0  0  0  0  # atno 6909 bound_to 6896
  145.0117  140.7911  143.4435 H   0  0  0  0  0  0  0  0  0  0  0  0  # atno 7974 bound_to 7965
  155.0561  140.3185  155.4676 H   0  0  0  0  0  0  0  0  0  0  0  0  # atno 8008 bound_to 7997
  156.2823  140.2137  156.5631 H   0  0  0  0  0  0  0  0  0  0  0  0  # atno 8009 bound_to 7997
  154.7170  140.0493  157.0592 H   0  0  0  0  0  0  0  0  0  0  0  0  # atno 8010 bound_to 7997
  140.7288  143.4340  151.0758 H   0  0  0  0  0  0  0  0  0  0  0  0  # atno 10167 bound_to 10162
  156.6355  130.4913  149.6113 H   0  0  0  0  0  0  0  0  0  0  0  0  # atno 10718 bound_to 10713
  154.5011  135.5794  153.6532 H   0  0  0  0  0  0  0  0  0  0  0  0  # atno 10763 bound_to 10752
  152.9879  135.6136  154.3001 H   0  0  0  0  0  0  0  0  0  0  0  0  # atno 10764 bound_to 10752
  154.2908  135.2848  155.2635 H   0  0  0  0  0  0  0  0  0  0  0  0  # atno 10765 bound_to 10752
  140.4465  134.1268  155.7697 H   0  0  0  0  0  0  0  0  0  0  0  0  # atno 11005 bound_to 11000
  145.2015  139.2250  143.5190 LP  0  0  0  0  0  0  0  0  0  0  0  0  # atno 17320 bound_to 7965
  146.3471  140.1833  142.8589 LP  0  0  0  0  0  0  0  0  0  0  0  0  # atno 17321 bound_to 7965
  139.8000  143.8098  152.3162 LP  0  0  0  0  0  0  0  0  0  0  0  0  # atno 17342 bound_to 10162
  139.8111  144.7335  150.9696 LP  0  0  0  0  0  0  0  0  0  0  0  0  # atno 17343 bound_to 10162
  156.2200  130.6731  151.1358 LP  0  0  0  0  0  0  0  0  0  0  0  0  # atno 17370 bound_to 10713
  157.7187  131.0695  150.6225 LP  0  0  0  0  0  0  0  0  0  0  0  0  # atno 17371 bound_to 10713
  141.1683  133.8659  157.1649 LP  0  0  0  0  0  0  0  0  0  0  0  0  # atno 17394 bound_to 11000
  140.0035  135.0018  157.0242 LP  0  0  0  0  0  0  0  0  0  0  0  0  # atno 17395 bound_to 11000

$$$$
