#       Name:                AV-unprocessed.smi:1654
#       Creating user name   scv26
#       Creation time:       Fri Mar 27 07:34:29 2020


#       File generated by GOLD software.
#

@<TRIPOS>MOLECULE
AV-unprocessed.smi:1654
    42    43     1
SMALL
NO_CHARGES


@<TRIPOS>ATOM
      1 ****         0.2857   2.4231   1.2279 O.2            1 S1                 0.0000
      2 ****         0.0294   1.7625  -0.0612 S.o2           1 S1                 0.0000
      3 ****         0.5414   2.3289  -1.3185 O.2            1 S1                 0.0000
      4 ****         0.5708   0.1318   0.0681 N.3            1 S1                 0.0000
      5 ****         2.0036  -0.1119   0.2060 C.3            1 S1                 0.0000
      6 ****         2.2807  -1.6179   0.2918 C.3            1 S1                 0.0000
      7 ****         3.7603  -1.9167   0.4313 C.ar           1 S1                 0.0000
      8 ****         4.3681  -1.9857   1.7018 C.ar           1 S1                 0.0000
      9 ****         5.7473  -2.2595   1.7796 C.ar           1 S1                 0.0000
     10 ****         6.4615  -2.4527   0.5802 C.ar           1 S1                 0.0000
     11 ****         5.8899  -2.3888  -0.6417 N.ar           1 S1                 0.0000
     12 ****         4.5669  -2.1255  -0.7076 C.ar           1 S1                 0.0000
     13 ****        -1.6733   1.4789  -0.2328 N.pl3          1 S1                 0.0000
     14 ****        -2.1280   0.6967  -1.3987 C.3            1 S1                 0.0000
     15 ****        -3.1425  -0.3776  -0.9789 C.3            1 S1                 0.0000
     16 ****        -4.6094   0.0868  -0.9767 C.3            1 S1                 0.0000
     17 ****        -4.8569   1.5266  -0.4946 C.3            1 S1                 0.0000
     18 ****        -3.9697   1.9731   0.6773 C.3            1 S1                 0.0000
     19 ****        -2.5988   2.5246   0.2394 C.3            1 S1                 0.0000
     20 ****         0.0161  -0.3983   0.7397 H              1 S1                 0.0000
     21 ****         2.5227   0.3252  -0.6478 H              1 S1                 0.0000
     22 ****         2.3659   0.3942   1.1016 H              1 S1                 0.0000
     23 ****         1.7505  -2.0493   1.1421 H              1 S1                 0.0000
     24 ****         1.8986  -2.1211  -0.5976 H              1 S1                 0.0000
     25 ****         3.7900  -1.8294   2.6008 H              1 S1                 0.0000
     26 ****         6.2466  -2.3190   2.7355 H              1 S1                 0.0000
     27 ****         7.5206  -2.6632   0.6028 H              1 S1                 0.0000
     28 ****         4.1407  -2.0783  -1.6990 H              1 S1                 0.0000
     29 ****        -2.5248   1.3568  -2.1711 H              1 S1                 0.0000
     30 ****        -1.2693   0.1991  -1.8495 H              1 S1                 0.0000
     31 ****        -3.0608  -1.2292  -1.6552 H              1 S1                 0.0000
     32 ****        -2.8734  -0.7661   0.0046 H              1 S1                 0.0000
     33 ****        -5.0187  -0.0100  -1.9830 H              1 S1                 0.0000
     34 ****        -5.1839  -0.6040  -0.3588 H              1 S1                 0.0000
     35 ****        -4.7321   2.2215  -1.3259 H              1 S1                 0.0000
     36 ****        -5.9046   1.6106  -0.2035 H              1 S1                 0.0000
     37 ****        -4.4905   2.7762   1.1998 H              1 S1                 0.0000
     38 ****        -3.8552   1.1724   1.4092 H              1 S1                 0.0000
     39 ****        -2.1547   3.0288   1.0973 H              1 S1                 0.0000
     40 ****        -2.7103   3.2859  -0.5336 H              1 S1                 0.0000
     41 ****         0.4034  -0.2207  -0.8527 LP             1 S1                 0.0000
     42 ****         6.4292  -2.5319  -1.4716 LP             1 S1                 0.0000
@<TRIPOS>BOND
    1    1    2 2     
    2    2    3 2     
    3    2    4 1     
    4    2   13 1     
    5    4    5 1     
    6    4   20 1     
    7    5    6 1     
    8    5   21 1     
    9    5   22 1     
   10    6    7 1     
   11    6   23 1     
   12    6   24 1     
   13    7   12 ar    
   14    7    8 ar    
   15    8    9 ar    
   16    8   25 1     
   17    9   10 ar    
   18    9   26 1     
   19   10   11 ar    
   20   10   27 1     
   21   11   12 ar    
   22   12   28 1     
   23   13   19 1     
   24   13   14 1     
   25   14   15 1     
   26   14   29 1     
   27   14   30 1     
   28   15   16 1     
   29   15   31 1     
   30   15   32 1     
   31   16   17 1     
   32   16   33 1     
   33   16   34 1     
   34   17   18 1     
   35   17   35 1     
   36   17   36 1     
   37   18   19 1     
   38   18   37 1     
   39   18   38 1     
   40   19   39 1     
   41   19   40 1     
   42    4   41 1     
   43   11   42 1     
@<TRIPOS>SUBSTRUCTURE
      1 S1             1
@<TRIPOS>SET
LONE_PAIRS      STATIC     ATOMS    <user>   **** ""
4 1 3 41 42
DONOR_HYDROGENS      STATIC     ATOMS    <user>   **** ""
1 20
ATOM$BLUE        STATIC     ATOMS    COLORGROUP SYSTEM
4 1 3 41 42
ATOM$RED        STATIC     ATOMS    COLORGROUP SYSTEM
1 20
