AV-unprocessed.smi:19|AV-procd|sdf|111|dock3
  -GOLD-   2262015273D 1   1.00000     0.00000
 Structure written by MMmdl.
 57 60  0  0  0  0  0  0  0  0  1 V2000
  152.2792  144.9609  158.4145 C   0  0  0  0  0  0  0  0  0  0  0  0
  151.6446  144.3743  159.5372 O   0  0  0  0  0  0  0  0  0  0  0  0
  152.5709  143.8243  160.4593 C   0  0  0  0  0  0  0  0  0  0  0  0
  153.1126  142.5022  159.9006 C   0  0  2  0  0  0  0  0  0  0  0  0
  151.9798  141.5843  159.4033 C   0  0  0  0  0  0  0  0  0  0  0  0
  152.5232  140.2967  158.9780 N   0  0  0  0  0  0  0  0  0  0  0  0
  151.7128  139.4585  158.2827 C   0  0  0  0  0  0  0  0  0  0  0  0
  151.4579  138.2093  158.7571 N   0  0  0  0  0  0  0  0  0  0  0  0
  150.6679  137.3753  158.0747 C   0  0  0  0  0  0  0  0  0  0  0  0
  150.0387  137.5827  156.9166 N   0  0  0  0  0  0  0  0  0  0  0  0
  150.2852  138.8347  156.4364 C   0  0  0  0  0  0  0  0  0  0  0  0
  151.0984  139.8279  157.0525 C   0  0  0  0  0  0  0  0  0  0  0  0
  151.0917  140.9855  156.2836 N   0  0  0  0  0  0  0  0  0  0  0  0
  150.3272  140.6905  155.2686 C   0  0  0  0  0  0  0  0  0  0  0  0
  149.8142  139.4127  155.2694 N   0  0  0  0  0  0  0  0  0  0  0  0
  148.9358  138.8250  154.2674 C   0  0  0  0  0  0  0  0  0  0  0  0
  147.5602  139.5372  154.1011 C   0  0  0  0  0  0  0  0  0  0  0  0
  146.6910  138.8174  153.0300 C   0  0  0  0  0  0  0  0  0  0  0  0
  147.4204  138.5207  151.8566 O   0  0  0  0  0  0  0  0  0  0  0  0
  146.8542  139.5583  155.4806 C   0  0  0  0  0  0  0  0  0  0  0  0
  145.6235  140.4814  155.5118 C   0  0  0  0  0  0  0  0  0  0  0  0
  146.0025  141.8005  155.1419 O   0  0  0  0  0  0  0  0  0  0  0  0
  146.5077  141.8753  153.8158 C   0  0  0  0  0  0  0  0  0  0  0  0
  147.7775  141.0137  153.6812 C   0  0  0  0  0  0  0  0  0  0  0  0
  153.3360  139.6538  160.0048 C   0  0  0  0  0  0  0  0  0  0  0  0
  154.4270  140.6202  160.5005 C   0  0  2  0  0  0  0  0  0  0  0  0
  155.2310  140.0322  161.6648 C   0  0  0  0  0  0  0  0  0  0  0  0
  153.8126  141.8274  160.9437 O   0  0  0  0  0  0  0  0  0  0  0  0
  151.5266  145.3603  157.7349 H   0  0  0  0  0  0  0  0  0  0  0  0
  152.8713  144.2264  157.8671 H   0  0  0  0  0  0  0  0  0  0  0  0
  152.9308  145.7824  158.7149 H   0  0  0  0  0  0  0  0  0  0  0  0
  153.3874  144.5215  160.6552 H   0  0  0  0  0  0  0  0  0  0  0  0
  152.0612  143.6415  161.4068 H   0  0  0  0  0  0  0  0  0  0  0  0
  153.7937  142.7174  159.0749 H   0  0  0  0  0  0  0  0  0  0  0  0
  151.2507  141.4255  160.1994 H   0  0  0  0  0  0  0  0  0  0  0  0
  151.4580  142.0616  158.5725 H   0  0  0  0  0  0  0  0  0  0  0  0
  150.5205  136.4020  158.5192 H   0  0  0  0  0  0  0  0  0  0  0  0
  150.1191  141.4020  154.4828 H   0  0  0  0  0  0  0  0  0  0  0  0
  149.4700  138.8049  153.3166 H   0  0  0  0  0  0  0  0  0  0  0  0
  148.7852  137.7788  154.5377 H   0  0  0  0  0  0  0  0  0  0  0  0
  146.2862  137.8794  153.4060 H   0  0  0  0  0  0  0  0  0  0  0  0
  145.8289  139.4249  152.7545 H   0  0  0  0  0  0  0  0  0  0  0  0
  148.0160  137.8110  152.0456 H   0  0  0  0  0  0  0  0  0  0  0  0
  146.5691  138.5514  155.7865 H   0  0  0  0  0  0  0  0  0  0  0  0
  147.5539  139.9101  156.2401 H   0  0  0  0  0  0  0  0  0  0  0  0
  144.8289  140.1166  154.8603 H   0  0  0  0  0  0  0  0  0  0  0  0
  145.2100  140.5107  156.5198 H   0  0  0  0  0  0  0  0  0  0  0  0
  145.7395  141.5751  153.1026 H   0  0  0  0  0  0  0  0  0  0  0  0
  146.7435  142.9162  153.5940 H   0  0  0  0  0  0  0  0  0  0  0  0
  148.5540  141.4577  154.3058 H   0  0  0  0  0  0  0  0  0  0  0  0
  148.1417  141.0727  152.6552 H   0  0  0  0  0  0  0  0  0  0  0  0
  152.6883  139.3614  160.8325 H   0  0  0  0  0  0  0  0  0  0  0  0
  153.8021  138.7422  159.6326 H   0  0  0  0  0  0  0  0  0  0  0  0
  155.1145  140.8471  159.6836 H   0  0  0  0  0  0  0  0  0  0  0  0
  155.7220  139.1035  161.3734 H   0  0  0  0  0  0  0  0  0  0  0  0
  154.5887  139.8180  162.5195 H   0  0  0  0  0  0  0  0  0  0  0  0
  156.0037  140.7270  161.9947 H   0  0  0  0  0  0  0  0  0  0  0  0
  1  2  1  0  0  0  0
  1 29  1  0  0  0  0
  1 30  1  0  0  0  0
  1 31  1  0  0  0  0
  2  3  1  0  0  0  0
  3  4  1  0  0  0  0
  3 32  1  0  0  0  0
  3 33  1  0  0  0  0
  4 28  1  0  0  0  0
  4  5  1  0  0  0  0
  4 34  1  0  0  0  0
  5  6  1  0  0  0  0
  5 35  1  0  0  0  0
  5 36  1  0  0  0  0
  6  7  1  0  0  0  0
  6 25  1  0  0  0  0
  7 12  1  0  0  0  0
  7  8  2  0  0  0  0
  8  9  1  0  0  0  0
  9 10  2  0  0  0  0
  9 37  1  0  0  0  0
 10 11  1  0  0  0  0
 11 15  1  0  0  0  0
 11 12  2  0  0  0  0
 12 13  1  0  0  0  0
 13 14  2  0  0  0  0
 14 15  1  0  0  0  0
 14 38  1  0  0  0  0
 15 16  1  0  0  0  0
 16 17  1  0  0  0  0
 16 39  1  0  0  0  0
 16 40  1  0  0  0  0
 17 24  1  0  0  0  0
 17 18  1  0  0  0  0
 17 20  1  0  0  0  0
 18 19  1  0  0  0  0
 18 41  1  0  0  0  0
 18 42  1  0  0  0  0
 19 43  1  0  0  0  0
 20 21  1  0  0  0  0
 20 44  1  0  0  0  0
 20 45  1  0  0  0  0
 21 22  1  0  0  0  0
 21 46  1  0  0  0  0
 21 47  1  0  0  0  0
 22 23  1  0  0  0  0
 23 24  1  0  0  0  0
 23 48  1  0  0  0  0
 23 49  1  0  0  0  0
 24 50  1  0  0  0  0
 24 51  1  0  0  0  0
 25 26  1  0  0  0  0
 25 52  1  0  0  0  0
 25 53  1  0  0  0  0
 26 27  1  0  0  0  0
 26 28  1  0  0  0  0
 26 54  1  0  0  0  0
 27 55  1  0  0  0  0
 27 56  1  0  0  0  0
 27 57  1  0  0  0  0
M  END
> <s_m_source_file>
AV-unprocessed.smi

> <i_m_source_file_index>
19

> <i_lp_mmshare_version>
43012

> <i_f3d_flags>
0

> <s_epik_input>
W0NIM11PW0NIMl1bQ0BASF0xW0NIMl1OKFtDSDJdW0NASF0oTzEpW0NIM10pYyhuW2NIXW4yKWMoYzIzKW5bY0hdbjNbQ0gyXUM0KFtDSDJdW09IXSlbQ0gyXVtDSDJdT1tDSDJdW0NIMl00

> <s_epik_cmdline>
J2VwaWtfcHl0aG9uJywgJy1waCcsICc3LjAnLCAnLXRuJywgJzgnLCAnLW1hJywgJzIwMCcsICctbWV0YWxfYmluZGluZycsICctaW1hZScsICc8aW5maWxlLm1hZT4nLCAnLW9tYWUnLCAnPG91dGZpbGUubWFlPic=

> <r_lp_tautomer_probability>
1

> <r_epik_Ionization_Penalty>
6.20357e-05

> <r_epik_Ionization_Penalty_Charging>
0

> <r_epik_Ionization_Penalty_Neutral>
6.20357e-05

> <r_epik_State_Penalty>
-0

> <r_epik_Charging_Adjusted_Penalty>
0

> <i_epik_Tot_Q>
0

> <i_epik_Tot_abs_Q>
0

> <r_epik_Metal_State_Penalty>
-0

> <b_epik_Metal_Only>
0

> <s_lp_Force_Field>
OPLS_2005

> <r_lp_Energy>
33.9592

> <b_lp_Chiralities_Consistent>
1

> <s_lp_Variant>
AV-unprocessed.smi:19-3

> <Gold.Version>
5.8.1

> <Gold.Id.Protein>
6NUR|6NUR_protein|mol2

> <Gold.PLP.Fitness>
49.9888

> <Gold.PLP.PLP>
-47.5902

> <Gold.PLP.part.hbond>
-2.6938

> <Gold.PLP.part.metal>
0.0000

> <Gold.PLP.part.buried>
-6.5607

> <Gold.PLP.part.nonpolar>
-38.0155

> <Gold.PLP.part.repulsive>
0.2281

> <Gold.PLP.ligand.clash>
0.0000

> <Gold.PLP.ligand.torsion>
0.4876

> <Gold.PLP.Chemscore.Hbond>
1.0000

> <Gold.PLP.Chemscore.CHOScore>
0.0000

> <Gold.PLP.Chemscore.Metal>
0.0000

> <Gold.Chemscore.Hbonds>
donor molecule, donor type, donor heavy atom, donor atom, acceptor molecule, acceptor atom, score
      L1  H    19    43       P1  7948  1.00

> <Gold.PLP.Chemscore.Internal.Correction>
0.3739

> <Gold.Rescore>
     Score         DG    S(hbond)    S(metal)    S(lipo)     H(rot)  DE(clash)    DE(int)     intcor
     12.96     -14.37       0.99        0.00     110.62       2.87       0.31       1.10       ----

> <Gold.Chemscore.Fitness>
12.9588

> <Gold.Chemscore.DG>
-14.3709

> <Gold.Chemscore.ZeroCoef>
-5.4800

> <Gold.Chemscore.Hbond>
0.9890

> <Gold.Chemscore.Metal>
0.0000

> <Gold.Chemscore.Lipo>
110.6165

> <Gold.Chemscore.Internal_Hbond>
0.0000

> <Gold.Chemscore.DEClash>
0.3132

> <Gold.Chemscore.DEInternal>
1.0989

> <Gold.Chemscore.Rot>
2.8729

> <Gold.Chemscore.Internal.Correction>
   9.000000E+99

> <Gold.Chemscore.Hbonds>
donor molecule, donor type, donor heavy atom, donor atom, acceptor molecule, acceptor atom, score
      L1  H    19    43       P1  7948  0.99

> <Gold.Chemscore.Hbond.Weighted>
-3.3033

> <Gold.Chemscore.Metal.Weighted>
-0.0000

> <Gold.Chemscore.Lipo.Weighted>
-12.9421

> <Gold.Chemscore.Internal_Hbond.Weighted>
0.0000

> <Gold.Chemscore.DEClash.Weighted>
0.3132

> <Gold.Chemscore.DEInternal.Weighted>
1.0989

> <Gold.Chemscore.Rot.Weighted>
7.3546

> <Gold.Chemscore.Internal.Correction.Weighted>
   9.000000E+99

> <Gold.Protein.RotatedTorsions>
[ 6907 6896 6895 6894 ] final  -29.89 input  -60.11 | X-H torsion
[ 7974 7965 7964 7962 ] final   63.29 input  175.53 | X-H torsion
[ 8008 7997 7996 7995 ] final -167.76 input   59.86 | X-H torsion
[ 10167 10162 10161 10158 ] final  -37.62 input  -65.29 | X-H torsion
[ 10718 10713 10712 10709 ] final -138.40 input   66.30 | X-H torsion
[ 10763 10752 10751 10750 ] final  127.55 input  -60.55 | X-H torsion
[ 11005 11000 10999 10996 ] final -121.22 input  -57.11 | X-H torsion

> <Gold.Protein.ActiveResidues>
 VAL166  LYS551  ARG553  GLY616  TRP617  ASP618  TYR619  PRO620  LYS621  CYS622 
 ASP623  PHE694  ASN695  SER759  ASP760  ASP761  ALA762  ILE779  LEU786  VAL792 
 PHE793  MET794  SER795  GLU796  ALA797  LYS798  CYS799  TRP800  GLU811  SER814 

> <Gold.Protein.RotatedAtoms>
  151.1130  135.0037  159.8502 H   0  0  0  0  0  0  0  0  0  0  0  0  # atno 6907 bound_to 6896
  152.5444  134.1813  159.8646 H   0  0  0  0  0  0  0  0  0  0  0  0  # atno 6908 bound_to 6896
  151.1864  133.4649  159.2627 H   0  0  0  0  0  0  0  0  0  0  0  0  # atno 6909 bound_to 6896
  145.8636  139.3331  143.0804 H   0  0  0  0  0  0  0  0  0  0  0  0  # atno 7974 bound_to 7965
  155.8822  140.1011  157.1478 H   0  0  0  0  0  0  0  0  0  0  0  0  # atno 8008 bound_to 7997
  154.4006  140.1327  156.4273 H   0  0  0  0  0  0  0  0  0  0  0  0  # atno 8009 bound_to 7997
  155.7630  140.3462  155.5210 H   0  0  0  0  0  0  0  0  0  0  0  0  # atno 8010 bound_to 7997
  140.7113  143.3330  151.2526 H   0  0  0  0  0  0  0  0  0  0  0  0  # atno 10167 bound_to 10162
  156.2989  130.7417  151.1464 H   0  0  0  0  0  0  0  0  0  0  0  0  # atno 10718 bound_to 10713
  153.7112  135.3268  155.3246 H   0  0  0  0  0  0  0  0  0  0  0  0  # atno 10763 bound_to 10752
  154.8384  135.4477  154.1312 H   0  0  0  0  0  0  0  0  0  0  0  0  # atno 10764 bound_to 10752
  153.2406  135.6970  153.7867 H   0  0  0  0  0  0  0  0  0  0  0  0  # atno 10765 bound_to 10752
  141.0086  134.0298  157.3444 H   0  0  0  0  0  0  0  0  0  0  0  0  # atno 11005 bound_to 11000
  145.9220  140.9109  143.0400 LP  0  0  0  0  0  0  0  0  0  0  0  0  # atno 17320 bound_to 7965
  144.6726  140.1301  143.7444 LP  0  0  0  0  0  0  0  0  0  0  0  0  # atno 17321 bound_to 7965
  139.6817  143.9843  152.2812 LP  0  0  0  0  0  0  0  0  0  0  0  0  # atno 17342 bound_to 10162
  139.9475  144.6642  150.8205 LP  0  0  0  0  0  0  0  0  0  0  0  0  # atno 17343 bound_to 10162
  157.7363  131.0564  150.5423 LP  0  0  0  0  0  0  0  0  0  0  0  0  # atno 17370 bound_to 10713
  156.5548  130.4241  149.6090 LP  0  0  0  0  0  0  0  0  0  0  0  0  # atno 17371 bound_to 10713
  139.9077  135.0183  156.7558 LP  0  0  0  0  0  0  0  0  0  0  0  0  # atno 17394 bound_to 11000
  140.6771  133.9507  155.7889 LP  0  0  0  0  0  0  0  0  0  0  0  0  # atno 17395 bound_to 11000

$$$$
