AV-unprocessed.smi:1178|AV-procd|sdf|4957|dock3
  -GOLD-   22720 3543D 1   1.00000     0.00000
 Structure written by MMmdl.
 32 33  0  0  0  0  0  0  0  0  2 V2000
  150.2066  140.2791  154.5112 O   0  0  0  0  0  0  0  0  0  0  0  0
  149.5127  141.2699  154.7384 C   0  0  0  0  0  0  0  0  0  0  0  0
  148.2229  141.4820  153.9263 C   0  0  0  0  0  0  0  0  0  0  0  0
  147.1891  140.4479  154.1173 N   0  0  0  0  0  0  0  0  0  0  0  0
  147.1877  139.3582  153.2286 C   0  0  0  0  0  0  0  0  0  0  0  0
  146.2869  138.3622  153.3265 C   0  0  0  0  0  0  0  0  0  0  0  0
  145.2929  138.4328  154.3902 C   0  0  0  0  0  0  0  0  0  0  0  0
  144.4628  137.5321  154.4950 O   0  0  0  0  0  0  0  0  0  0  0  0
  145.3358  139.5096  155.2284 N   0  5  0  0  0  0  0  0  0  0  0  0
  146.2586  140.5148  155.1175 C   0  0  0  0  0  0  0  0  0  0  0  0
  146.2851  141.4729  155.8901 O   0  0  0  0  0  0  0  0  0  0  0  0
  149.8321  142.1777  155.6745 N   0  0  0  0  0  0  0  0  0  0  0  0
  151.0188  142.1213  156.5133 C   0  0  0  0  0  0  0  0  0  0  0  0
  150.6413  141.7358  157.9524 C   0  0  0  0  0  0  0  0  0  0  0  0
  151.8303  141.6493  158.8097 N   0  0  0  0  0  0  0  0  0  0  0  0
  152.0681  142.5162  159.8210 C   0  0  0  0  0  0  0  0  0  0  0  0
  151.3293  143.4482  160.1374 O   0  0  0  0  0  0  0  0  0  0  0  0
  153.3766  142.2629  160.5792 C   0  0  0  0  0  0  0  0  0  0  0  0
  154.1153  140.8450  159.7639 S   0  0  0  0  0  0  0  0  0  0  0  0
  152.7923  140.7274  158.6351 C   0  0  0  0  0  0  0  0  0  0  0  0
  152.7822  139.8609  157.7612 O   0  0  0  0  0  0  0  0  0  0  0  0
  147.8201  142.4668  154.1688 H   0  0  0  0  0  0  0  0  0  0  0  0
  148.4962  141.5437  152.8720 H   0  0  0  0  0  0  0  0  0  0  0  0
  147.9597  139.3802  152.4733 H   0  0  0  0  0  0  0  0  0  0  0  0
  146.3006  137.5314  152.6367 H   0  0  0  0  0  0  0  0  0  0  0  0
  149.2158  142.9686  155.7976 H   0  0  0  0  0  0  0  0  0  0  0  0
  151.7188  141.3951  156.0971 H   0  0  0  0  0  0  0  0  0  0  0  0
  151.5144  143.0934  156.5024 H   0  0  0  0  0  0  0  0  0  0  0  0
  149.9379  142.4647  158.3594 H   0  0  0  0  0  0  0  0  0  0  0  0
  150.1024  140.7865  157.9537 H   0  0  0  0  0  0  0  0  0  0  0  0
  154.0348  143.1294  160.5127 H   0  0  0  0  0  0  0  0  0  0  0  0
  153.1793  142.0433  161.6287 H   0  0  0  0  0  0  0  0  0  0  0  0
  1  2  2  0  0  0  0
  2  3  1  0  0  0  0
  2 12  1  0  0  0  0
  3  4  1  0  0  0  0
  3 22  1  0  0  0  0
  3 23  1  0  0  0  0
  4 10  1  0  0  0  0
  4  5  1  0  0  0  0
  5  6  2  0  0  0  0
  5 24  1  0  0  0  0
  6  7  1  0  0  0  0
  6 25  1  0  0  0  0
  7  8  2  0  0  0  0
  7  9  1  0  0  0  0
  9 10  1  0  0  0  0
 10 11  2  0  0  0  0
 12 13  1  0  0  0  0
 12 26  1  0  0  0  0
 13 14  1  0  0  0  0
 13 27  1  0  0  0  0
 13 28  1  0  0  0  0
 14 15  1  0  0  0  0
 14 29  1  0  0  0  0
 14 30  1  0  0  0  0
 15 20  1  0  0  0  0
 15 16  1  0  0  0  0
 16 17  2  0  0  0  0
 16 18  1  0  0  0  0
 18 19  1  0  0  0  0
 18 31  1  0  0  0  0
 18 32  1  0  0  0  0
 19 20  1  0  0  0  0
 20 21  2  0  0  0  0
M  CHG  1   9  -1
M  END
> <s_m_source_file>
AV-unprocessed.smi

> <i_m_source_file_index>
1178

> <i_lp_mmshare_version>
43012

> <i_f3d_flags>
0

> <s_epik_input>
Tz1jMVtuSF1jKD1PKVtjSF1bY0hdbjFbQ0gyXUMoPU8pW05IXVtDSDJdW0NIMl1OMkMoPU8pW0NIMl1TQzI9Tw==

> <s_epik_cmdline>
J2VwaWtfcHl0aG9uJywgJy1waCcsICc3LjAnLCAnLXRuJywgJzgnLCAnLW1hJywgJzIwMCcsICctbWV0YWxfYmluZGluZycsICctaW1hZScsICc8aW5maWxlLm1hZT4nLCAnLW9tYWUnLCAnPG91dGZpbGUubWFlPic=

> <r_lp_tautomer_probability>
0.999537

> <r_epik_Ionization_Penalty>
3.05962

> <r_epik_Ionization_Penalty_Charging>
2.46074e-08

> <r_epik_Ionization_Penalty_Neutral>
3.05962

> <r_epik_State_Penalty>
3.05863

> <r_epik_Charging_Adjusted_Penalty>
3.05863

> <i_epik_Tot_Q>
-1

> <i_epik_Tot_abs_Q>
1

> <r_epik_Metal_State_Penalty>
0.458209

> <b_epik_Metal_Only>
1

> <s_lp_Force_Field>
OPLS_2005

> <r_lp_Energy>
17.4268

> <b_lp_Chiralities_Consistent>
1

> <s_lp_Variant>
AV-unprocessed.smi:1178-2

> <Gold.Version>
5.8.1

> <Gold.Id.Protein>
6NUR|6NUR_protein|mol2

> <Gold.PLP.Fitness>
46.5148

> <Gold.PLP.PLP>
-35.5363

> <Gold.PLP.part.hbond>
-3.1949

> <Gold.PLP.part.metal>
0.0000

> <Gold.PLP.part.buried>
-3.5437

> <Gold.PLP.part.nonpolar>
-26.6265

> <Gold.PLP.part.repulsive>
0.5566

> <Gold.PLP.ligand.clash>
0.0000

> <Gold.PLP.ligand.torsion>
0.4995

> <Gold.PLP.Chemscore.Hbond>
2.9760

> <Gold.PLP.Chemscore.CHOScore>
1.0000

> <Gold.PLP.Chemscore.Metal>
0.0000

> <Gold.Chemscore.Hbonds>
donor molecule, donor type, donor heavy atom, donor atom, acceptor molecule, acceptor atom, score
      L1  H    12    26       P1  8028  1.00
      P1  H  7989  7998       L1     1  1.00
      P1  H  7997  8009       L1    21  1.00
      L1  C     5    24       P1  7957  1.00

> <Gold.PLP.Chemscore.Internal.Correction>
0.0495

> <Gold.Rescore>
     Score         DG    S(hbond)    S(metal)    S(lipo)     H(rot)  DE(clash)    DE(int)     intcor
     12.55     -13.14       2.64        0.00      53.83       2.91       0.06       0.53       ----

> <Gold.Chemscore.Fitness>
12.5515

> <Gold.Chemscore.DG>
-13.1410

> <Gold.Chemscore.ZeroCoef>
-5.4800

> <Gold.Chemscore.Hbond>
2.6380

> <Gold.Chemscore.Metal>
0.0000

> <Gold.Chemscore.Lipo>
53.8261

> <Gold.Chemscore.Internal_Hbond>
0.0000

> <Gold.Chemscore.DEClash>
0.0622

> <Gold.Chemscore.DEInternal>
0.5274

> <Gold.Chemscore.Rot>
2.9092

> <Gold.Chemscore.Internal.Correction>
   9.000000E+99

> <Gold.Chemscore.Hbonds>
donor molecule, donor type, donor heavy atom, donor atom, acceptor molecule, acceptor atom, score
      L1  H    12    26       P1  8028  0.95
      P1  H  7989  7998       L1     1  0.53
      P1  H  7997  8009       L1    21  0.63

> <Gold.Chemscore.Hbond.Weighted>
-8.8108

> <Gold.Chemscore.Metal.Weighted>
-0.0000

> <Gold.Chemscore.Lipo.Weighted>
-6.2976

> <Gold.Chemscore.Internal_Hbond.Weighted>
0.0000

> <Gold.Chemscore.DEClash.Weighted>
0.0622

> <Gold.Chemscore.DEInternal.Weighted>
0.5274

> <Gold.Chemscore.Rot.Weighted>
7.4474

> <Gold.Chemscore.Internal.Correction.Weighted>
   9.000000E+99

> <Gold.Protein.RotatedTorsions>
[ 6907 6896 6895 6894 ] final  131.33 input  -60.11 | X-H torsion
[ 7974 7965 7964 7962 ] final  -66.80 input  175.53 | X-H torsion
[ 8008 7997 7996 7995 ] final  178.58 input   59.86 | X-H torsion
[ 10167 10162 10161 10158 ] final  114.68 input  -65.29 | X-H torsion
[ 10718 10713 10712 10709 ] final -149.38 input   66.30 | X-H torsion
[ 10763 10752 10751 10750 ] final  -26.15 input  -60.55 | X-H torsion
[ 11005 11000 10999 10996 ] final  178.49 input  -57.11 | X-H torsion

> <Gold.Protein.ActiveResidues>
 VAL166  LYS551  ARG553  GLY616  TRP617  ASP618  TYR619  PRO620  LYS621  CYS622 
 ASP623  PHE694  ASN695  SER759  ASP760  ASP761  ALA762  ILE779  LEU786  VAL792 
 PHE793  MET794  SER795  GLU796  ALA797  LYS798  CYS799  TRP800  GLU811  SER814 

> <Gold.Protein.RotatedAtoms>
  152.3437  133.6097  159.5894 H   0  0  0  0  0  0  0  0  0  0  0  0  # atno 6907 bound_to 6896
  150.7494  133.9683  159.3546 H   0  0  0  0  0  0  0  0  0  0  0  0  # atno 6908 bound_to 6896
  151.7543  135.0826  160.0387 H   0  0  0  0  0  0  0  0  0  0  0  0  # atno 6909 bound_to 6896
  145.7373  140.8970  143.0548 H   0  0  0  0  0  0  0  0  0  0  0  0  # atno 7974 bound_to 7965
  156.0531  140.1330  157.0028 H   0  0  0  0  0  0  0  0  0  0  0  0  # atno 8008 bound_to 7997
  154.4444  140.1007  156.6476 H   0  0  0  0  0  0  0  0  0  0  0  0  # atno 8009 bound_to 7997
  155.5493  140.3462  155.4467 H   0  0  0  0  0  0  0  0  0  0  0  0  # atno 8010 bound_to 7997
  139.6371  144.7121  151.2313 H   0  0  0  0  0  0  0  0  0  0  0  0  # atno 10167 bound_to 10162
  156.4323  130.8082  151.2309 H   0  0  0  0  0  0  0  0  0  0  0  0  # atno 10718 bound_to 10713
  153.7114  135.6950  153.5036 H   0  0  0  0  0  0  0  0  0  0  0  0  # atno 10763 bound_to 10752
  153.2270  135.4350  155.0552 H   0  0  0  0  0  0  0  0  0  0  0  0  # atno 10764 bound_to 10752
  154.8313  135.3474  154.6650 H   0  0  0  0  0  0  0  0  0  0  0  0  # atno 10765 bound_to 10752
  140.3957  134.6822  157.4533 H   0  0  0  0  0  0  0  0  0  0  0  0  # atno 11005 bound_to 11000
  144.6879  139.9412  143.7475 LP  0  0  0  0  0  0  0  0  0  0  0  0  # atno 17320 bound_to 7965
  146.0481  139.3485  143.0656 LP  0  0  0  0  0  0  0  0  0  0  0  0  # atno 17321 bound_to 7965
  140.7471  143.6377  150.8364 LP  0  0  0  0  0  0  0  0  0  0  0  0  # atno 17342 bound_to 10162
  140.0010  143.5744  152.2875 LP  0  0  0  0  0  0  0  0  0  0  0  0  # atno 17343 bound_to 10162
  157.7508  131.0194  150.3666 LP  0  0  0  0  0  0  0  0  0  0  0  0  # atno 17370 bound_to 10713
  156.4006  130.3915  149.6962 LP  0  0  0  0  0  0  0  0  0  0  0  0  # atno 17371 bound_to 10713
  140.0373  134.6318  155.9026 LP  0  0  0  0  0  0  0  0  0  0  0  0  # atno 17394 bound_to 11000
  141.1875  133.6560  156.5283 LP  0  0  0  0  0  0  0  0  0  0  0  0  # atno 17395 bound_to 11000

$$$$
