AV-unprocessed.smi:3158|AV-procd|sdf|12042|dock4
  -GOLD-   2272017463D 1   1.00000     0.00000
 Structure written by MMmdl.
 40 40  0  0  0  0  0  0  0  0  2 V2000
  143.8450  132.8489  151.5117 C   0  0  0  0  0  0  0  0  0  0  0  0
  144.7695  133.9234  152.1029 C   0  0  0  0  0  0  0  0  0  0  0  0
  145.4279  134.8223  151.0401 C   0  0  1  0  0  0  0  0  0  0  0  0
  144.4134  135.3079  149.9942 C   0  0  0  0  0  0  0  0  0  0  0  0
  146.0647  135.9720  151.6789 N   0  0  0  0  0  0  0  0  0  0  0  0
  145.4812  136.7999  152.5591 C   0  0  0  0  0  0  0  0  0  0  0  0
  144.3219  136.6670  152.9528 O   0  0  0  0  0  0  0  0  0  0  0  0
  146.3438  137.9555  153.0832 C   0  0  2  0  0  0  0  0  0  0  0  0
  146.8333  138.8190  151.9110 C   0  0  0  0  0  0  0  0  0  0  0  0
  147.5023  137.4514  153.8530 N   0  3  0  0  0  0  0  0  0  0  0  0
  148.1211  138.4362  154.7676 C   0  0  0  0  0  0  0  0  0  0  0  0
  149.1890  139.2763  154.0463 C   0  0  0  0  0  0  0  0  0  0  0  0
  150.5394  138.9856  154.5004 N   0  0  0  0  0  0  0  0  0  0  0  0
  151.2456  137.8068  154.3811 C   0  0  0  0  0  0  0  0  0  0  0  0
  152.4777  138.0124  154.9326 C   0  0  0  0  0  0  0  0  0  0  0  0
  152.4369  139.3699  155.3564 C   0  0  0  0  0  0  0  0  0  0  0  0
  151.2791  139.9516  155.0884 N   0  0  0  0  0  0  0  0  0  0  0  0
  143.3677  132.2718  152.3039 H   0  0  0  0  0  0  0  0  0  0  0  0
  144.3926  132.1489  150.8800 H   0  0  0  0  0  0  0  0  0  0  0  0
  143.0563  133.2987  150.9079 H   0  0  0  0  0  0  0  0  0  0  0  0
  144.1875  134.5440  152.7853 H   0  0  0  0  0  0  0  0  0  0  0  0
  145.5375  133.4441  152.7114 H   0  0  0  0  0  0  0  0  0  0  0  0
  146.1805  134.2232  150.5240 H   0  0  0  0  0  0  0  0  0  0  0  0
  143.9390  134.4669  149.4882 H   0  0  0  0  0  0  0  0  0  0  0  0
  144.8968  135.9185  149.2308 H   0  0  0  0  0  0  0  0  0  0  0  0
  143.6262  135.9078  150.4522 H   0  0  0  0  0  0  0  0  0  0  0  0
  147.0236  136.1555  151.4201 H   0  0  0  0  0  0  0  0  0  0  0  0
  145.7435  138.5864  153.7416 H   0  0  0  0  0  0  0  0  0  0  0  0
  145.9967  139.2206  151.3378 H   0  0  0  0  0  0  0  0  0  0  0  0
  147.4613  138.2475  151.2258 H   0  0  0  0  0  0  0  0  0  0  0  0
  147.4197  139.6663  152.2677 H   0  0  0  0  0  0  0  0  0  0  0  0
  147.1931  136.6555  154.3935 H   0  0  0  0  0  0  0  0  0  0  0  0
  147.3414  139.0892  155.1609 H   0  0  0  0  0  0  0  0  0  0  0  0
  148.5642  137.9300  155.6263 H   0  0  0  0  0  0  0  0  0  0  0  0
  149.1374  139.1074  152.9698 H   0  0  0  0  0  0  0  0  0  0  0  0
  148.9997  140.3381  154.2071 H   0  0  0  0  0  0  0  0  0  0  0  0
  150.8181  136.9280  153.9206 H   0  0  0  0  0  0  0  0  0  0  0  0
  153.2877  137.3029  155.0161 H   0  0  0  0  0  0  0  0  0  0  0  0
  153.2096  139.9464  155.8437 H   0  0  0  0  0  0  0  0  0  0  0  0
  148.2113  137.1456  153.2023 H   0  0  0  0  0  0  0  0  0  0  0  0
  1  2  1  0  0  0  0
  1 18  1  0  0  0  0
  1 19  1  0  0  0  0
  1 20  1  0  0  0  0
  2  3  1  0  0  0  0
  2 21  1  0  0  0  0
  2 22  1  0  0  0  0
  3  4  1  0  0  0  0
  3  5  1  0  0  0  0
  3 23  1  0  0  0  0
  4 24  1  0  0  0  0
  4 25  1  0  0  0  0
  4 26  1  0  0  0  0
  5  6  1  0  0  0  0
  5 27  1  0  0  0  0
  6  7  2  0  0  0  0
  6  8  1  0  0  0  0
  8  9  1  0  0  0  0
  8 10  1  0  0  0  0
  8 28  1  0  0  0  0
  9 29  1  0  0  0  0
  9 30  1  0  0  0  0
  9 31  1  0  0  0  0
 10 11  1  0  0  0  0
 10 32  1  0  0  0  0
 10 40  1  0  0  0  0
 11 12  1  0  0  0  0
 11 33  1  0  0  0  0
 11 34  1  0  0  0  0
 12 13  1  0  0  0  0
 12 35  1  0  0  0  0
 12 36  1  0  0  0  0
 13 17  1  0  0  0  0
 13 14  1  0  0  0  0
 14 15  2  0  0  0  0
 14 37  1  0  0  0  0
 15 16  1  0  0  0  0
 15 38  1  0  0  0  0
 16 17  2  0  0  0  0
 16 39  1  0  0  0  0
M  CHG  1  10   1
M  END
> <s_m_source_file>
AV-unprocessed.smi

> <i_m_source_file_index>
3158

> <i_lp_mmshare_version>
43012

> <i_f3d_flags>
0

> <s_epik_input>
W0NIM11bQ0gyXVtDQEhdKFtDSDNdKVtOSF1DKD1PKVtDQEhdKFtDSDNdKVtOSF1bQ0gyXVtDSDJdbjFbY0hdW2NIXVtjSF1uMQ==

> <s_epik_cmdline>
J2VwaWtfcHl0aG9uJywgJy1waCcsICc3LjAnLCAnLXRuJywgJzgnLCAnLW1hJywgJzIwMCcsICctbWV0YWxfYmluZGluZycsICctaW1hZScsICc8aW5maWxlLm1hZT4nLCAnLW9tYWUnLCAnPG91dGZpbGUubWFlPic=

> <r_lp_tautomer_probability>
1

> <r_epik_Ionization_Penalty>
0.20724

> <r_epik_Ionization_Penalty_Charging>
0.207237

> <r_epik_Ionization_Penalty_Neutral>
3.33806e-06

> <r_epik_State_Penalty>
0.197234

> <r_epik_Charging_Adjusted_Penalty>
0.404471

> <i_epik_Tot_Q>
1

> <i_epik_Tot_abs_Q>
1

> <r_epik_Metal_State_Penalty>
0.197524

> <b_epik_Metal_Only>
0

> <s_lp_Force_Field>
OPLS_2005

> <r_lp_Energy>
6.13047

> <b_lp_Chiralities_Consistent>
1

> <s_lp_Variant>
AV-unprocessed.smi:3158-2

> <Gold.Version>
5.8.1

> <Gold.Id.Protein>
6NUR|6NUR_protein|mol2

> <Gold.PLP.Fitness>
44.9219

> <Gold.PLP.PLP>
-32.0250

> <Gold.PLP.part.hbond>
-3.0000

> <Gold.PLP.part.metal>
0.0000

> <Gold.PLP.part.buried>
0.6923

> <Gold.PLP.part.nonpolar>
-30.0750

> <Gold.PLP.part.repulsive>
0.2252

> <Gold.PLP.ligand.clash>
0.0000

> <Gold.PLP.ligand.torsion>
0.8997

> <Gold.PLP.Chemscore.Hbond>
3.8000

> <Gold.PLP.Chemscore.CHOScore>
1.0676

> <Gold.PLP.Chemscore.Metal>
0.0000

> <Gold.Chemscore.Hbonds>
donor molecule, donor type, donor heavy atom, donor atom, acceptor molecule, acceptor atom, score
      L1  H     5    27       P1  7948  1.00
      L1  H    10    40       P1  7948  2.00
      P1  H  7989  7998       L1    17  0.75
      L1  C    14    37       P1  7948  0.13
      L1  C    14    37       P1  7949  0.65

> <Gold.PLP.Chemscore.Internal.Correction>
0.0934

> <Gold.Rescore>
     Score         DG    S(hbond)    S(metal)    S(lipo)     H(rot)  DE(clash)    DE(int)     intcor
     12.82     -14.50       2.02        0.00      67.93       2.21       0.03       1.65       ----

> <Gold.Chemscore.Fitness>
12.8183

> <Gold.Chemscore.DG>
-14.4958

> <Gold.Chemscore.ZeroCoef>
-5.4800

> <Gold.Chemscore.Hbond>
2.0160

> <Gold.Chemscore.Metal>
0.0000

> <Gold.Chemscore.Lipo>
67.9336

> <Gold.Chemscore.Internal_Hbond>
0.0000

> <Gold.Chemscore.DEClash>
0.0323

> <Gold.Chemscore.DEInternal>
1.6452

> <Gold.Chemscore.Rot>
2.2132

> <Gold.Chemscore.Internal.Correction>
   9.000000E+99

> <Gold.Chemscore.Hbonds>
donor molecule, donor type, donor heavy atom, donor atom, acceptor molecule, acceptor atom, score
      L1  H     5    27       P1  7948  0.95
      L1  H    10    40       P1  7948  0.99
      P1  H  7989  7998       L1    17  0.03

> <Gold.Chemscore.Hbond.Weighted>
-6.7334

> <Gold.Chemscore.Metal.Weighted>
-0.0000

> <Gold.Chemscore.Lipo.Weighted>
-7.9482

> <Gold.Chemscore.Internal_Hbond.Weighted>
0.0000

> <Gold.Chemscore.DEClash.Weighted>
0.0323

> <Gold.Chemscore.DEInternal.Weighted>
1.6452

> <Gold.Chemscore.Rot.Weighted>
5.6658

> <Gold.Chemscore.Internal.Correction.Weighted>
   9.000000E+99

> <Gold.Protein.RotatedTorsions>
[ 6907 6896 6895 6894 ] final   18.83 input  -60.11 | X-H torsion
[ 7974 7965 7964 7962 ] final   38.92 input  175.53 | X-H torsion
[ 8008 7997 7996 7995 ] final   -4.31 input   59.86 | X-H torsion
[ 10167 10162 10161 10158 ] final -169.15 input  -65.29 | X-H torsion
[ 10718 10713 10712 10709 ] final  112.33 input   66.30 | X-H torsion
[ 10763 10752 10751 10750 ] final -115.46 input  -60.55 | X-H torsion
[ 11005 11000 10999 10996 ] final  -94.77 input  -57.11 | X-H torsion

> <Gold.Protein.ActiveResidues>
 VAL166  LYS551  ARG553  GLY616  TRP617  ASP618  TYR619  PRO620  LYS621  CYS622 
 ASP623  PHE694  ASN695  SER759  ASP760  ASP761  ALA762  ILE779  LEU786  VAL792 
 PHE793  MET794  SER795  GLU796  ALA797  LYS798  CYS799  TRP800  GLU811  SER814 

> <Gold.Protein.RotatedAtoms>
  151.8714  135.0488  160.0479 H   0  0  0  0  0  0  0  0  0  0  0  0  # atno 6907 bound_to 6896
  152.2585  133.5272  159.5376 H   0  0  0  0  0  0  0  0  0  0  0  0  # atno 6908 bound_to 6896
  150.7108  134.0778  159.3930 H   0  0  0  0  0  0  0  0  0  0  0  0  # atno 6909 bound_to 6896
  146.1025  139.5714  142.9405 H   0  0  0  0  0  0  0  0  0  0  0  0  # atno 7974 bound_to 7965
  154.6156  140.2487  155.7613 H   0  0  0  0  0  0  0  0  0  0  0  0  # atno 8008 bound_to 7997
  156.2397  140.2937  156.0358 H   0  0  0  0  0  0  0  0  0  0  0  0  # atno 8009 bound_to 7997
  155.1980  140.0393  157.2903 H   0  0  0  0  0  0  0  0  0  0  0  0  # atno 8010 bound_to 7997
  139.5940  144.1151  152.1668 H   0  0  0  0  0  0  0  0  0  0  0  0  # atno 10167 bound_to 10162
  157.6398  131.0966  150.6879 H   0  0  0  0  0  0  0  0  0  0  0  0  # atno 10718 bound_to 10713
  154.8482  135.4381  154.1667 H   0  0  0  0  0  0  0  0  0  0  0  0  # atno 10763 bound_to 10752
  153.2790  135.6952  153.7410 H   0  0  0  0  0  0  0  0  0  0  0  0  # atno 10764 bound_to 10752
  153.6621  135.3433  155.3105 H   0  0  0  0  0  0  0  0  0  0  0  0  # atno 10765 bound_to 10752
  141.1461  133.7979  157.0344 H   0  0  0  0  0  0  0  0  0  0  0  0  # atno 11005 bound_to 11000
  145.5827  141.0380  143.2113 LP  0  0  0  0  0  0  0  0  0  0  0  0  # atno 17320 bound_to 7965
  144.7444  139.7361  143.7298 LP  0  0  0  0  0  0  0  0  0  0  0  0  # atno 17321 bound_to 7965
  140.0732  144.5762  150.7176 LP  0  0  0  0  0  0  0  0  0  0  0  0  # atno 17342 bound_to 10162
  140.7197  143.2577  151.4319 LP  0  0  0  0  0  0  0  0  0  0  0  0  # atno 17343 bound_to 10162
  156.7205  130.4679  149.5524 LP  0  0  0  0  0  0  0  0  0  0  0  0  # atno 17370 bound_to 10713
  156.1669  130.6411  151.0789 LP  0  0  0  0  0  0  0  0  0  0  0  0  # atno 17371 bound_to 10713
  140.0733  134.9690  157.1503 LP  0  0  0  0  0  0  0  0  0  0  0  0  # atno 17394 bound_to 11000
  140.3680  134.2422  155.7180 LP  0  0  0  0  0  0  0  0  0  0  0  0  # atno 17395 bound_to 11000

$$$$
