AV-unprocessed.smi:287|AV-procd|sdf|2204|dock5
  -GOLD-   2262022 23D 1   1.00000     0.00000
 Structure written by MMmdl.
 55 58  0  0  0  0  0  0  0  0  1 V2000
  151.8935  144.9897  159.0993 C   0  0  0  0  0  0  0  0  0  0  0  0
  152.1263  143.5194  159.0298 C   0  0  0  0  0  0  0  0  0  0  0  0
  151.6149  142.5171  158.2581 C   0  0  0  0  0  0  0  0  0  0  0  0
  152.2463  141.3027  158.6627 C   0  0  0  0  0  0  0  0  0  0  0  0
  151.9866  139.9187  158.0829 C   0  0  2  0  0  0  0  0  0  0  0  0
  151.4318  138.9935  159.1785 C   0  0  0  0  0  0  0  0  0  0  0  0
  153.1655  139.2889  157.6192 O   0  0  0  0  0  0  0  0  0  0  0  0
  151.0193  139.9531  156.8774 C   0  0  0  0  0  0  0  0  0  0  0  0
  151.1673  138.8000  155.9990 N   0  0  0  0  0  0  0  0  0  0  0  0
  150.1977  137.8664  155.9010 C   0  0  0  0  0  0  0  0  0  0  0  0
  148.9578  138.3451  155.6437 N   0  0  0  0  0  0  0  0  0  0  0  0
  147.9247  137.5070  155.5365 C   0  0  0  0  0  0  0  0  0  0  0  0
  147.9162  136.1787  155.6473 N   0  0  0  0  0  0  0  0  0  0  0  0
  149.1621  135.6789  155.8973 C   0  0  0  0  0  0  0  0  0  0  0  0
  150.3502  136.4543  156.0447 C   0  0  0  0  0  0  0  0  0  0  0  0
  151.4186  135.6073  156.3138 N   0  0  0  0  0  0  0  0  0  0  0  0
  150.8912  134.4150  156.3299 C   0  0  0  0  0  0  0  0  0  0  0  0
  149.5421  134.3566  156.0567 N   0  0  0  0  0  0  0  0  0  0  0  0
  148.6717  133.1267  156.0361 C   0  0  1  0  0  0  0  0  0  0  0  0
  147.4824  133.4153  155.3679 O   0  0  0  0  0  0  0  0  0  0  0  0
  147.6303  133.1004  153.9897 C   0  0  2  0  0  0  0  0  0  0  0  0
  146.2689  133.0672  153.2738 C   0  0  0  0  0  0  0  0  0  0  0  0
  146.4421  132.6939  151.9233 O   0  0  0  0  0  0  0  0  0  0  0  0
  148.3791  131.7648  154.0690 C   0  0  2  0  0  0  0  0  0  0  0  0
  147.4758  130.6992  154.3172 O   0  0  0  0  0  0  0  0  0  0  0  0
  149.3517  131.9997  155.2276 C   0  0  2  0  0  0  0  0  0  0  0  0
  149.5966  130.8323  155.9904 O   0  0  0  0  0  0  0  0  0  0  0  0
  153.0947  141.6715  159.6788 C   0  0  0  0  0  0  0  0  0  0  0  0
  154.0386  140.9258  160.5631 C   0  0  0  0  0  0  0  0  0  0  0  0
  153.0314  143.0135  159.9041 O   0  0  0  0  0  0  0  0  0  0  0  0
  148.4963  132.8983  157.0880 H   0  0  0  0  0  0  0  0  0  0  0  0
  148.2841  133.8369  153.5174 H   0  0  0  0  0  0  0  0  0  0  0  0
  148.9088  131.5472  153.1411 H   0  0  0  0  0  0  0  0  0  0  0  0
  150.2996  132.3528  154.8207 H   0  0  0  0  0  0  0  0  0  0  0  0
  151.3414  145.3378  158.2262 H   0  0  0  0  0  0  0  0  0  0  0  0
  152.8391  145.5309  159.1379 H   0  0  0  0  0  0  0  0  0  0  0  0
  151.3187  145.2474  159.9890 H   0  0  0  0  0  0  0  0  0  0  0  0
  150.8726  142.6411  157.4837 H   0  0  0  0  0  0  0  0  0  0  0  0
  150.4904  139.3737  159.5769 H   0  0  0  0  0  0  0  0  0  0  0  0
  152.1288  138.9046  160.0131 H   0  0  0  0  0  0  0  0  0  0  0  0
  151.2436  137.9888  158.7975 H   0  0  0  0  0  0  0  0  0  0  0  0
  153.1370  138.3779  157.8683 H   0  0  0  0  0  0  0  0  0  0  0  0
  149.9851  140.0436  157.2130 H   0  0  0  0  0  0  0  0  0  0  0  0
  151.2402  140.8419  156.2848 H   0  0  0  0  0  0  0  0  0  0  0  0
  152.0310  138.7578  155.4766 H   0  0  0  0  0  0  0  0  0  0  0  0
  146.9682  137.9649  155.3320 H   0  0  0  0  0  0  0  0  0  0  0  0
  151.4823  133.5353  156.5396 H   0  0  0  0  0  0  0  0  0  0  0  0
  145.6189  132.3248  153.7373 H   0  0  0  0  0  0  0  0  0  0  0  0
  145.7621  134.0306  153.3366 H   0  0  0  0  0  0  0  0  0  0  0  0
  147.0942  132.0113  151.8815 H   0  0  0  0  0  0  0  0  0  0  0  0
  146.6445  131.0689  154.5737 H   0  0  0  0  0  0  0  0  0  0  0  0
  148.7745  130.5212  156.3371 H   0  0  0  0  0  0  0  0  0  0  0  0
  153.5295  140.1018  161.0628 H   0  0  0  0  0  0  0  0  0  0  0  0
  154.4574  141.5763  161.3312 H   0  0  0  0  0  0  0  0  0  0  0  0
  154.8654  140.5144  159.9843 H   0  0  0  0  0  0  0  0  0  0  0  0
  1  2  1  0  0  0  0
  1 35  1  0  0  0  0
  1 36  1  0  0  0  0
  1 37  1  0  0  0  0
  2 30  1  0  0  0  0
  2  3  2  0  0  0  0
  3  4  1  0  0  0  0
  3 38  1  0  0  0  0
  4  5  1  0  0  0  0
  4 28  2  0  0  0  0
  5  6  1  0  0  0  0
  5  7  1  0  0  0  0
  5  8  1  0  0  0  0
  6 39  1  0  0  0  0
  6 40  1  0  0  0  0
  6 41  1  0  0  0  0
  7 42  1  0  0  0  0
  8  9  1  0  0  0  0
  8 43  1  0  0  0  0
  8 44  1  0  0  0  0
  9 10  1  0  0  0  0
  9 45  1  0  0  0  0
 10 15  1  0  0  0  0
 10 11  2  0  0  0  0
 11 12  1  0  0  0  0
 12 13  2  0  0  0  0
 12 46  1  0  0  0  0
 13 14  1  0  0  0  0
 14 18  1  0  0  0  0
 14 15  2  0  0  0  0
 15 16  1  0  0  0  0
 16 17  2  0  0  0  0
 17 18  1  0  0  0  0
 17 47  1  0  0  0  0
 18 19  1  0  0  0  0
 19 31  1  0  0  0  0
 19 26  1  0  0  0  0
 19 20  1  0  0  0  0
 20 21  1  0  0  0  0
 21 32  1  0  0  0  0
 21 22  1  0  0  0  0
 21 24  1  0  0  0  0
 22 23  1  0  0  0  0
 22 48  1  0  0  0  0
 22 49  1  0  0  0  0
 23 50  1  0  0  0  0
 24 33  1  0  0  0  0
 24 25  1  0  0  0  0
 24 26  1  0  0  0  0
 25 51  1  0  0  0  0
 26 34  1  0  0  0  0
 26 27  1  0  0  0  0
 27 52  1  0  0  0  0
 28 29  1  0  0  0  0
 28 30  1  0  0  0  0
 29 53  1  0  0  0  0
 29 54  1  0  0  0  0
 29 55  1  0  0  0  0
M  END
> <s_m_source_file>
AV-unprocessed.smi

> <i_m_source_file_index>
287

> <i_lp_mmshare_version>
43012

> <i_f3d_flags>
0

> <s_epik_input>
W0NIM11jMVtjSF1jKGMobzEpW0NIM10pW0NAQF0oW0NIM10pKFtPSF0pW0NIMl1bTkhdYyhuW2NIXW4yKWMoYzIzKW5bY0hdbjNbQ0BASF00T1tDQEhdKFtDSDJdW09IXSlbQ0BASF0oW09IXSlbQ0BIXTRbT0hd

> <s_epik_cmdline>
J2VwaWtfcHl0aG9uJywgJy1waCcsICc3LjAnLCAnLXRuJywgJzgnLCAnLW1hJywgJzIwMCcsICctbWV0YWxfYmluZGluZycsICctaW1hZScsICc8aW5maWxlLm1hZT4nLCAnLW9tYWUnLCAnPG91dGZpbGUubWFlPic=

> <r_lp_tautomer_probability>
1

> <r_epik_Ionization_Penalty>
0.000992612

> <r_epik_Ionization_Penalty_Charging>
0

> <r_epik_Ionization_Penalty_Neutral>
0.000992612

> <r_epik_State_Penalty>
-0

> <r_epik_Charging_Adjusted_Penalty>
0

> <i_epik_Tot_Q>
0

> <i_epik_Tot_abs_Q>
0

> <r_epik_Metal_State_Penalty>
-0

> <b_epik_Metal_Only>
0

> <s_epik_Chemistry_Notes>
This compound contains an acetal/aminal-like group ( X-CH(R)-Y where X, Y are N, S, or O) that may be acid/base labile, releasing an aldehyde.

> <s_lp_Force_Field>
OPLS_2005

> <r_lp_Energy>
48.2808

> <b_lp_Chiralities_Consistent>
1

> <s_lp_Variant>
AV-unprocessed.smi:287-28

> <Gold.Version>
5.8.1

> <Gold.Id.Protein>
6NUR|6NUR_protein|mol2

> <Gold.PLP.Fitness>
53.6121

> <Gold.PLP.PLP>
-47.2241

> <Gold.PLP.part.hbond>
-3.0000

> <Gold.PLP.part.metal>
0.0000

> <Gold.PLP.part.buried>
-8.0952

> <Gold.PLP.part.nonpolar>
-37.7338

> <Gold.PLP.part.repulsive>
0.5023

> <Gold.PLP.ligand.clash>
0.0000

> <Gold.PLP.ligand.torsion>
1.3634

> <Gold.PLP.Chemscore.Hbond>
2.9920

> <Gold.PLP.Chemscore.CHOScore>
0.0000

> <Gold.PLP.Chemscore.Metal>
0.0000

> <Gold.Chemscore.Hbonds>
donor molecule, donor type, donor heavy atom, donor atom, acceptor molecule, acceptor atom, score
      P1  H  7997  8008       L1     7  1.00
      P1  H 10752 10764       L1    16  0.73

> <Gold.PLP.Chemscore.Internal.Correction>
0.1389

> <Gold.Rescore>
     Score         DG    S(hbond)    S(metal)    S(lipo)     H(rot)  DE(clash)    DE(int)     intcor
      9.89     -12.74       2.56        0.00     104.16       5.27       0.02       2.83       ----

> <Gold.Chemscore.Fitness>
9.8895

> <Gold.Chemscore.DG>
-12.7399

> <Gold.Chemscore.ZeroCoef>
-5.4800

> <Gold.Chemscore.Hbond>
2.5621

> <Gold.Chemscore.Metal>
0.0000

> <Gold.Chemscore.Lipo>
104.1567

> <Gold.Chemscore.Internal_Hbond>
0.0000

> <Gold.Chemscore.DEClash>
0.0217

> <Gold.Chemscore.DEInternal>
2.8287

> <Gold.Chemscore.Rot>
5.2672

> <Gold.Chemscore.Internal.Correction>
   9.000000E+99

> <Gold.Chemscore.Hbonds>
donor molecule, donor type, donor heavy atom, donor atom, acceptor molecule, acceptor atom, score
      P1  H  7997  8008       L1     7  1.00
      P1  H 10752 10764       L1    16  0.36

> <Gold.Chemscore.Hbond.Weighted>
-8.5575

> <Gold.Chemscore.Metal.Weighted>
-0.0000

> <Gold.Chemscore.Lipo.Weighted>
-12.1863

> <Gold.Chemscore.Internal_Hbond.Weighted>
0.0000

> <Gold.Chemscore.DEClash.Weighted>
0.0217

> <Gold.Chemscore.DEInternal.Weighted>
2.8287

> <Gold.Chemscore.Rot.Weighted>
13.4839

> <Gold.Chemscore.Internal.Correction.Weighted>
   9.000000E+99

> <Gold.Protein.RotatedTorsions>
[ 6907 6896 6895 6894 ] final   38.80 input  -60.11 | X-H torsion
[ 7974 7965 7964 7962 ] final    6.19 input  175.53 | X-H torsion
[ 8008 7997 7996 7995 ] final  -69.11 input   59.86 | X-H torsion
[ 10167 10162 10161 10158 ] final  -79.05 input  -65.29 | X-H torsion
[ 10718 10713 10712 10709 ] final  117.12 input   66.30 | X-H torsion
[ 10763 10752 10751 10750 ] final  -26.16 input  -60.55 | X-H torsion
[ 11005 11000 10999 10996 ] final  -61.99 input  -57.11 | X-H torsion

> <Gold.Protein.ActiveResidues>
 VAL166  LYS551  ARG553  GLY616  TRP617  ASP618  TYR619  PRO620  LYS621  CYS622 
 ASP623  PHE694  ASN695  SER759  ASP760  ASP761  ALA762  ILE779  LEU786  VAL792 
 PHE793  MET794  SER795  GLU796  ALA797  LYS798  CYS799  TRP800  GLU811  SER814 

> <Gold.Protein.RotatedAtoms>
  152.1612  134.8911  160.0541 H   0  0  0  0  0  0  0  0  0  0  0  0  # atno 6907 bound_to 6896
  151.9906  133.3784  159.4151 H   0  0  0  0  0  0  0  0  0  0  0  0  # atno 6908 bound_to 6896
  150.6888  134.3863  159.5100 H   0  0  0  0  0  0  0  0  0  0  0  0  # atno 6909 bound_to 6896
  146.2436  140.0270  142.8393 H   0  0  0  0  0  0  0  0  0  0  0  0  # atno 7974 bound_to 7965
  154.4915  140.0860  156.7605 H   0  0  0  0  0  0  0  0  0  0  0  0  # atno 8008 bound_to 7997
  155.4219  140.3446  155.4254 H   0  0  0  0  0  0  0  0  0  0  0  0  # atno 8009 bound_to 7997
  156.1336  140.1508  156.9016 H   0  0  0  0  0  0  0  0  0  0  0  0  # atno 8010 bound_to 7997
  140.4628  143.2449  151.8323 H   0  0  0  0  0  0  0  0  0  0  0  0  # atno 10167 bound_to 10162
  157.6117  131.1033  150.7570 H   0  0  0  0  0  0  0  0  0  0  0  0  # atno 10718 bound_to 10713
  153.7115  135.6950  153.5036 H   0  0  0  0  0  0  0  0  0  0  0  0  # atno 10763 bound_to 10752
  153.2269  135.4351  155.0551 H   0  0  0  0  0  0  0  0  0  0  0  0  # atno 10764 bound_to 10752
  154.8313  135.3474  154.6652 H   0  0  0  0  0  0  0  0  0  0  0  0  # atno 10765 bound_to 10752
  141.1344  133.6635  156.5459 H   0  0  0  0  0  0  0  0  0  0  0  0  # atno 11005 bound_to 11000
  145.1189  140.9450  143.4612 LP  0  0  0  0  0  0  0  0  0  0  0  0  # atno 17320 bound_to 7965
  145.0501  139.3189  143.5933 LP  0  0  0  0  0  0  0  0  0  0  0  0  # atno 17321 bound_to 7965
  139.4808  144.4987  151.9089 LP  0  0  0  0  0  0  0  0  0  0  0  0  # atno 17342 bound_to 10162
  140.4073  144.2415  150.5890 LP  0  0  0  0  0  0  0  0  0  0  0  0  # atno 17343 bound_to 10162
  156.7946  130.4901  149.5379 LP  0  0  0  0  0  0  0  0  0  0  0  0  # atno 17370 bound_to 10713
  156.1222  130.6118  151.0210 LP  0  0  0  0  0  0  0  0  0  0  0  0  # atno 17371 bound_to 10713
  140.4102  134.7279  157.4831 LP  0  0  0  0  0  0  0  0  0  0  0  0  # atno 17394 bound_to 11000
  140.0433  134.6236  155.8953 LP  0  0  0  0  0  0  0  0  0  0  0  0  # atno 17395 bound_to 11000

$$$$
