AV-unprocessed.smi:867|AV-procd|sdf|3995|dock5
  -GOLD-   22720 1473D 1   1.00000     0.00000
 Structure written by MMmdl.
 53 56  0  0  0  0  0  0  0  0  2 V2000
  148.6785  141.4996  155.2231 O   0  0  0  0  0  0  0  0  0  0  0  0
  149.6813  140.7964  155.0941 C   0  0  0  0  0  0  0  0  0  0  0  0
  150.8704  141.1391  155.6179 N   0  0  0  0  0  0  0  0  0  0  0  0
  151.1273  142.3367  156.4088 C   0  0  0  0  0  0  0  0  0  0  0  0
  151.4931  141.9857  157.8596 C   0  0  0  0  0  0  0  0  0  0  0  0
  151.7607  143.2227  158.6936 C   0  0  0  0  0  0  0  0  0  0  0  0
  152.3892  143.1245  159.9518 C   0  0  0  0  0  0  0  0  0  0  0  0
  152.6126  144.3014  160.6920 C   0  0  0  0  0  0  0  0  0  0  0  0
  152.1959  145.5298  160.1410 C   0  0  0  0  0  0  0  0  0  0  0  0
  151.5915  145.6356  158.9379 N   0  0  0  0  0  0  0  0  0  0  0  0
  151.3814  144.5020  158.2344 C   0  0  0  0  0  0  0  0  0  0  0  0
  149.6986  139.6613  154.3526 N   0  0  0  0  0  0  0  0  0  0  0  0
  150.8763  138.8294  154.0778 C   0  0  0  0  0  0  0  0  0  0  0  0
  150.8057  137.5422  154.9234 C   0  0  0  0  0  0  0  0  0  0  0  0
  149.5269  136.8000  154.7167 N   0  3  0  0  0  0  0  0  0  0  0  0
  149.3817  135.5642  155.5471 C   0  0  1  0  0  0  0  0  0  0  0  0
  148.0786  134.7929  155.2056 C   0  0  0  0  0  0  0  0  0  0  0  0
  148.5680  133.3697  154.8909 C   0  0  2  0  0  0  0  0  0  0  0  0
  149.0565  132.6958  156.1833 C   0  0  0  0  0  0  0  0  0  0  0  0
  150.3727  133.4394  156.4676 C   0  0  0  0  0  0  0  0  0  0  0  0
  150.4525  134.4600  155.3140 C   0  0  1  0  0  0  0  0  0  0  0  0
  149.8724  133.6531  154.1581 C   0  0  0  0  0  0  0  0  0  0  0  0
  148.3382  137.6935  154.8487 C   0  0  0  0  0  0  0  0  0  0  0  0
  148.4714  138.9559  153.9818 C   0  0  0  0  0  0  0  0  0  0  0  0
  151.6579  140.5317  155.4447 H   0  0  0  0  0  0  0  0  0  0  0  0
  151.9479  142.8807  155.9399 H   0  0  0  0  0  0  0  0  0  0  0  0
  150.2605  142.9993  156.3811 H   0  0  0  0  0  0  0  0  0  0  0  0
  150.6897  141.4138  158.3258 H   0  0  0  0  0  0  0  0  0  0  0  0
  152.3772  141.3466  157.8786 H   0  0  0  0  0  0  0  0  0  0  0  0
  152.6934  142.1654  160.3449 H   0  0  0  0  0  0  0  0  0  0  0  0
  153.0906  144.2640  161.6595 H   0  0  0  0  0  0  0  0  0  0  0  0
  152.3513  146.4515  160.6819 H   0  0  0  0  0  0  0  0  0  0  0  0
  150.8935  144.6198  157.2780 H   0  0  0  0  0  0  0  0  0  0  0  0
  150.8889  138.5755  153.0167 H   0  0  0  0  0  0  0  0  0  0  0  0
  151.8245  139.3331  154.2663 H   0  0  0  0  0  0  0  0  0  0  0  0
  151.6576  136.9285  154.6388 H   0  0  0  0  0  0  0  0  0  0  0  0
  150.9172  137.7841  155.9816 H   0  0  0  0  0  0  0  0  0  0  0  0
  149.3902  135.8628  156.5969 H   0  0  0  0  0  0  0  0  0  0  0  0
  147.3578  134.8133  156.0239 H   0  0  0  0  0  0  0  0  0  0  0  0
  147.5846  135.1977  154.3212 H   0  0  0  0  0  0  0  0  0  0  0  0
  147.8462  132.7727  154.3326 H   0  0  0  0  0  0  0  0  0  0  0  0
  148.3371  132.7921  156.9974 H   0  0  0  0  0  0  0  0  0  0  0  0
  149.2425  131.6331  156.0231 H   0  0  0  0  0  0  0  0  0  0  0  0
  150.3797  133.9152  157.4490 H   0  0  0  0  0  0  0  0  0  0  0  0
  151.2153  132.7475  156.4300 H   0  0  0  0  0  0  0  0  0  0  0  0
  151.4752  134.8000  155.1691 H   0  0  0  0  0  0  0  0  0  0  0  0
  150.4434  132.7514  153.9286 H   0  0  0  0  0  0  0  0  0  0  0  0
  149.7412  134.2363  153.2449 H   0  0  0  0  0  0  0  0  0  0  0  0
  147.4260  137.1693  154.5656 H   0  0  0  0  0  0  0  0  0  0  0  0
  148.2185  137.9817  155.8945 H   0  0  0  0  0  0  0  0  0  0  0  0
  147.5822  139.5796  154.0876 H   0  0  0  0  0  0  0  0  0  0  0  0
  148.5155  138.6838  152.9262 H   0  0  0  0  0  0  0  0  0  0  0  0
  149.5441  136.4935  153.7545 H   0  0  0  0  0  0  0  0  0  0  0  0
  1  2  2  0  0  0  0
  2  3  1  0  0  0  0
  2 12  1  0  0  0  0
  3  4  1  0  0  0  0
  3 25  1  0  0  0  0
  4  5  1  0  0  0  0
  4 26  1  0  0  0  0
  4 27  1  0  0  0  0
  5  6  1  0  0  0  0
  5 28  1  0  0  0  0
  5 29  1  0  0  0  0
  6 11  1  0  0  0  0
  6  7  2  0  0  0  0
  7  8  1  0  0  0  0
  7 30  1  0  0  0  0
  8  9  2  0  0  0  0
  8 31  1  0  0  0  0
  9 10  1  0  0  0  0
  9 32  1  0  0  0  0
 10 11  2  0  0  0  0
 11 33  1  0  0  0  0
 12 24  1  0  0  0  0
 12 13  1  0  0  0  0
 13 14  1  0  0  0  0
 13 34  1  0  0  0  0
 13 35  1  0  0  0  0
 14 15  1  0  0  0  0
 14 36  1  0  0  0  0
 14 37  1  0  0  0  0
 15 16  1  0  0  0  0
 15 23  1  0  0  0  0
 15 53  1  0  0  0  0
 16 21  1  0  0  0  0
 16 17  1  0  0  0  0
 16 38  1  0  0  0  0
 17 18  1  0  0  0  0
 17 39  1  0  0  0  0
 17 40  1  0  0  0  0
 18 22  1  0  0  0  0
 18 19  1  0  0  0  0
 18 41  1  0  0  0  0
 19 20  1  0  0  0  0
 19 42  1  0  0  0  0
 19 43  1  0  0  0  0
 20 21  1  0  0  0  0
 20 44  1  0  0  0  0
 20 45  1  0  0  0  0
 21 22  1  0  0  0  0
 21 46  1  0  0  0  0
 22 47  1  0  0  0  0
 22 48  1  0  0  0  0
 23 24  1  0  0  0  0
 23 49  1  0  0  0  0
 23 50  1  0  0  0  0
 24 51  1  0  0  0  0
 24 52  1  0  0  0  0
M  CHG  1  15   1
M  END
> <s_m_source_file>
AV-unprocessed.smi

> <i_m_source_file_index>
867

> <i_lp_mmshare_version>
43012

> <i_f3d_flags>
0

> <s_epik_input>
W0NIMl0xW0NIMl1bQ0BASF0oW0NIMl0yKVtDQEBIXShbQ0gyXVtDQEhdMTIpTihbQ0gyXVtDSDJdMylbQ0gyXVtDSDJdTjNDKD1PKVtOSF1bQ0gyXVtDSDJdYzRbY0hdW2NIXVtjSF1uW2NIXTQ=

> <s_epik_cmdline>
J2VwaWtfcHl0aG9uJywgJy1waCcsICc3LjAnLCAnLXRuJywgJzgnLCAnLW1hJywgJzIwMCcsICctbWV0YWxfYmluZGluZycsICctaW1hZScsICc8aW5maWxlLm1hZT4nLCAnLW9tYWUnLCAnPG91dGZpbGUubWFlPic=

> <r_epik_Ionization_Penalty>
0.0161279

> <r_epik_Ionization_Penalty_Charging>
0.00262064

> <r_epik_Ionization_Penalty_Neutral>
0.0135072

> <r_epik_State_Penalty>
0.0104914

> <r_epik_Charging_Adjusted_Penalty>
0.013112

> <i_epik_Tot_Q>
1

> <i_epik_Tot_abs_Q>
1

> <r_epik_Metal_State_Penalty>
0.0102536

> <b_epik_Metal_Only>
0

> <s_lp_Force_Field>
OPLS_2005

> <r_lp_Energy>
96.0256

> <b_lp_Chiralities_Consistent>
1

> <s_lp_Variant>
AV-unprocessed.smi:867-2

> <Gold.Version>
5.8.1

> <Gold.Id.Protein>
6NUR|6NUR_protein|mol2

> <Gold.PLP.Fitness>
53.6670

> <Gold.PLP.PLP>
-45.0871

> <Gold.PLP.part.hbond>
-2.0000

> <Gold.PLP.part.metal>
0.0000

> <Gold.PLP.part.buried>
-5.7695

> <Gold.PLP.part.nonpolar>
-36.7029

> <Gold.PLP.part.repulsive>
0.5134

> <Gold.PLP.ligand.clash>
0.0000

> <Gold.PLP.ligand.torsion>
0.2887

> <Gold.PLP.Chemscore.Hbond>
2.0000

> <Gold.PLP.Chemscore.CHOScore>
1.0000

> <Gold.PLP.Chemscore.Metal>
0.0000

> <Gold.Chemscore.Hbonds>
donor molecule, donor type, donor heavy atom, donor atom, acceptor molecule, acceptor atom, score
      L1  H    15    53       P1  7948  2.00
      L1  C    11    33       P1  8028  0.97

> <Gold.PLP.Chemscore.Internal.Correction>
0.1574

> <Gold.Rescore>
     Score         DG    S(hbond)    S(metal)    S(lipo)     H(rot)  DE(clash)    DE(int)     intcor
     19.40     -19.82       0.97        0.00     125.00       1.37       0.08       0.35       ----

> <Gold.Chemscore.Fitness>
19.3971

> <Gold.Chemscore.DG>
-19.8232

> <Gold.Chemscore.ZeroCoef>
-5.4800

> <Gold.Chemscore.Hbond>
0.9679

> <Gold.Chemscore.Metal>
0.0000

> <Gold.Chemscore.Lipo>
125.0041

> <Gold.Chemscore.Internal_Hbond>
0.0000

> <Gold.Chemscore.DEClash>
0.0804

> <Gold.Chemscore.DEInternal>
0.3457

> <Gold.Chemscore.Rot>
1.3731

> <Gold.Chemscore.Internal.Correction>
   9.000000E+99

> <Gold.Chemscore.Hbonds>
donor molecule, donor type, donor heavy atom, donor atom, acceptor molecule, acceptor atom, score
      L1  H    15    53       P1  7948  0.73

> <Gold.Chemscore.Hbond.Weighted>
-3.2329

> <Gold.Chemscore.Metal.Weighted>
-0.0000

> <Gold.Chemscore.Lipo.Weighted>
-14.6255

> <Gold.Chemscore.Internal_Hbond.Weighted>
0.0000

> <Gold.Chemscore.DEClash.Weighted>
0.0804

> <Gold.Chemscore.DEInternal.Weighted>
0.3457

> <Gold.Chemscore.Rot.Weighted>
3.5152

> <Gold.Chemscore.Internal.Correction.Weighted>
   9.000000E+99

> <Gold.Protein.RotatedTorsions>
[ 6907 6896 6895 6894 ] final  119.20 input  -60.11 | X-H torsion
[ 7974 7965 7964 7962 ] final   96.53 input  175.53 | X-H torsion
[ 8008 7997 7996 7995 ] final -160.30 input   59.86 | X-H torsion
[ 10167 10162 10161 10158 ] final  -65.15 input  -65.29 | X-H torsion
[ 10718 10713 10712 10709 ] final -153.58 input   66.30 | X-H torsion
[ 10763 10752 10751 10750 ] final  113.32 input  -60.55 | X-H torsion
[ 11005 11000 10999 10996 ] final  110.32 input  -57.11 | X-H torsion

> <Gold.Protein.ActiveResidues>
 VAL166  LYS551  ARG553  GLY616  TRP617  ASP618  TYR619  PRO620  LYS621  CYS622 
 ASP623  PHE694  ASN695  SER759  ASP760  ASP761  ALA762  ILE779  LEU786  VAL792 
 PHE793  MET794  SER795  GLU796  ALA797  LYS798  CYS799  TRP800  GLU811  SER814 

> <Gold.Protein.RotatedAtoms>
  152.4489  133.7589  159.6735 H   0  0  0  0  0  0  0  0  0  0  0  0  # atno 6907 bound_to 6896
  150.8395  133.7948  159.3072 H   0  0  0  0  0  0  0  0  0  0  0  0  # atno 6908 bound_to 6896
  151.5578  135.1069  160.0017 H   0  0  0  0  0  0  0  0  0  0  0  0  # atno 6909 bound_to 6896
  145.4376  139.2304  143.3110 H   0  0  0  0  0  0  0  0  0  0  0  0  # atno 7974 bound_to 7965
  155.7754  140.0857  157.2087 H   0  0  0  0  0  0  0  0  0  0  0  0  # atno 8008 bound_to 7997
  154.3993  140.1517  156.3047 H   0  0  0  0  0  0  0  0  0  0  0  0  # atno 8009 bound_to 7997
  155.8706  140.3425  155.5821 H   0  0  0  0  0  0  0  0  0  0  0  0  # atno 8010 bound_to 7997
  140.5750  143.2321  151.6461 H   0  0  0  0  0  0  0  0  0  0  0  0  # atno 10167 bound_to 10162
  156.4877  130.8333  151.2557 H   0  0  0  0  0  0  0  0  0  0  0  0  # atno 10718 bound_to 10713
  153.4907  135.3659  155.2490 H   0  0  0  0  0  0  0  0  0  0  0  0  # atno 10763 bound_to 10752
  154.8752  135.3976  154.3592 H   0  0  0  0  0  0  0  0  0  0  0  0  # atno 10764 bound_to 10752
  153.4211  135.7080  153.6359 H   0  0  0  0  0  0  0  0  0  0  0  0  # atno 10765 bound_to 10752
  139.8879  134.9481  156.6261 H   0  0  0  0  0  0  0  0  0  0  0  0  # atno 11005 bound_to 11000
  146.2574  140.5120  142.8868 LP  0  0  0  0  0  0  0  0  0  0  0  0  # atno 17320 bound_to 7965
  144.8142  140.6439  143.6395 LP  0  0  0  0  0  0  0  0  0  0  0  0  # atno 17321 bound_to 7965
  139.5138  144.3432  152.0721 LP  0  0  0  0  0  0  0  0  0  0  0  0  # atno 17342 bound_to 10162
  140.2575  144.4103  150.6198 LP  0  0  0  0  0  0  0  0  0  0  0  0  # atno 17343 bound_to 10162
  157.7477  131.0024  150.2998 LP  0  0  0  0  0  0  0  0  0  0  0  0  # atno 17370 bound_to 10713
  156.3458  130.3823  149.7370 LP  0  0  0  0  0  0  0  0  0  0  0  0  # atno 17371 bound_to 10713
  140.7702  133.8745  155.8486 LP  0  0  0  0  0  0  0  0  0  0  0  0  # atno 17394 bound_to 11000
  140.9848  134.1357  157.4462 LP  0  0  0  0  0  0  0  0  0  0  0  0  # atno 17395 bound_to 11000

$$$$
