AV-unprocessed.smi:217|AV-procd|sdf|1660|dock6
  -GOLD-   2262020 53D 1   1.00000     0.00000
 Structure written by MMmdl.
 57 61  0  0  0  0  0  0  0  0  1 V2000
  142.0029  134.3233  154.2969 O   0  0  0  0  0  0  0  0  0  0  0  0
  142.2867  135.1082  153.1570 C   0  0  0  0  0  0  0  0  0  0  0  0
  143.7873  135.0836  152.8230 C   0  0  0  0  0  0  0  0  0  0  0  0
  144.0881  133.8728  151.9160 C   0  0  0  0  0  0  0  0  0  0  0  0
  143.6863  134.1107  150.5820 O   0  0  0  0  0  0  0  0  0  0  0  0
  144.3844  136.4272  152.3470 C   0  0  0  0  0  0  0  0  0  0  0  0
  145.6260  136.1707  153.2036 C   0  0  0  0  0  0  0  0  0  0  0  0
  146.3458  137.2534  153.8072 N   0  0  0  0  0  0  0  0  0  0  0  0
  146.0590  138.5965  153.7006 C   0  0  0  0  0  0  0  0  0  0  0  0
  146.8360  139.3893  154.3878 N   0  0  0  0  0  0  0  0  0  0  0  0
  147.6986  138.5235  155.0470 C   0  0  0  0  0  0  0  0  0  0  0  0
  148.7674  138.7033  155.9629 C   0  0  0  0  0  0  0  0  0  0  0  0
  149.1551  139.9284  156.3768 N   0  0  0  0  0  0  0  0  0  0  0  0
  150.5464  140.2341  156.0596 C   0  0  0  0  0  0  0  0  0  0  0  0
  150.8550  141.7142  156.3397 C   0  0  0  0  0  0  0  0  0  0  0  0
  150.4996  142.1028  157.7914 C   0  0  0  0  0  0  0  0  0  0  0  0
  150.7460  143.5999  158.0704 C   0  0  2  0  0  0  0  0  0  0  0  0
  152.2145  144.0252  158.0513 C   0  0  0  0  0  0  0  0  0  0  0  0
  152.1737  145.2953  158.8693 C   0  0  0  0  0  0  0  0  0  0  0  0
  151.1491  144.9474  159.9453 C   0  0  0  0  0  0  0  0  0  0  0  0
  150.3060  143.9446  159.3821 O   0  0  0  0  0  0  0  0  0  0  0  0
  149.0317  141.7155  158.0691 C   0  0  0  0  0  0  0  0  0  0  0  0
  148.7697  140.2347  157.7509 C   0  0  0  0  0  0  0  0  0  0  0  0
  149.4040  137.5961  156.4278 N   0  0  0  0  0  0  0  0  0  0  0  0
  149.0118  136.3841  156.0227 C   0  0  0  0  0  0  0  0  0  0  0  0
  148.0308  136.0635  155.1753 N   0  0  0  0  0  0  0  0  0  0  0  0
  147.3973  137.1762  154.7039 C   0  0  0  0  0  0  0  0  0  0  0  0
  144.7317  135.2476  154.0347 C   0  0  0  0  0  0  0  0  0  0  0  0
  142.3165  133.4451  154.1431 H   0  0  0  0  0  0  0  0  0  0  0  0
  141.6821  134.7539  152.3221 H   0  0  0  0  0  0  0  0  0  0  0  0
  141.9537  136.1257  153.3633 H   0  0  0  0  0  0  0  0  0  0  0  0
  145.1540  133.6455  151.9036 H   0  0  0  0  0  0  0  0  0  0  0  0
  143.5936  132.9704  152.2757 H   0  0  0  0  0  0  0  0  0  0  0  0
  142.7473  134.2137  150.5649 H   0  0  0  0  0  0  0  0  0  0  0  0
  144.5841  136.4932  151.2772 H   0  0  0  0  0  0  0  0  0  0  0  0
  143.8156  137.2936  152.6896 H   0  0  0  0  0  0  0  0  0  0  0  0
  146.3653  135.5928  152.6468 H   0  0  0  0  0  0  0  0  0  0  0  0
  145.2528  138.9745  153.0885 H   0  0  0  0  0  0  0  0  0  0  0  0
  151.2041  139.5995  156.6557 H   0  0  0  0  0  0  0  0  0  0  0  0
  150.7462  140.0064  155.0116 H   0  0  0  0  0  0  0  0  0  0  0  0
  151.9103  141.9013  156.1418 H   0  0  0  0  0  0  0  0  0  0  0  0
  150.2937  142.3389  155.6435 H   0  0  0  0  0  0  0  0  0  0  0  0
  151.1348  141.5229  158.4627 H   0  0  0  0  0  0  0  0  0  0  0  0
  150.1881  144.2123  157.3600 H   0  0  0  0  0  0  0  0  0  0  0  0
  152.8390  143.2803  158.5467 H   0  0  0  0  0  0  0  0  0  0  0  0
  152.6004  144.1832  157.0438 H   0  0  0  0  0  0  0  0  0  0  0  0
  153.1448  145.5759  159.2781 H   0  0  0  0  0  0  0  0  0  0  0  0
  151.8085  146.1207  158.2565 H   0  0  0  0  0  0  0  0  0  0  0  0
  151.6418  144.5302  160.8243 H   0  0  0  0  0  0  0  0  0  0  0  0
  150.5734  145.8178  160.2608 H   0  0  0  0  0  0  0  0  0  0  0  0
  148.7785  141.9109  159.1114 H   0  0  0  0  0  0  0  0  0  0  0  0
  148.3665  142.3371  157.4680 H   0  0  0  0  0  0  0  0  0  0  0  0
  147.7131  140.0060  157.8979 H   0  0  0  0  0  0  0  0  0  0  0  0
  149.3330  139.6035  158.4399 H   0  0  0  0  0  0  0  0  0  0  0  0
  149.5628  135.5523  156.4360 H   0  0  0  0  0  0  0  0  0  0  0  0
  144.2604  135.7646  154.8726 H   0  0  0  0  0  0  0  0  0  0  0  0
  145.2153  134.3281  154.3662 H   0  0  0  0  0  0  0  0  0  0  0  0
  1  2  1  0  0  0  0
  1 29  1  0  0  0  0
  2  3  1  0  0  0  0
  2 30  1  0  0  0  0
  2 31  1  0  0  0  0
  3 28  1  0  0  0  0
  3  4  1  0  0  0  0
  3  6  1  0  0  0  0
  4  5  1  0  0  0  0
  4 32  1  0  0  0  0
  4 33  1  0  0  0  0
  5 34  1  0  0  0  0
  6  7  1  0  0  0  0
  6 35  1  0  0  0  0
  6 36  1  0  0  0  0
  7  8  1  0  0  0  0
  7 28  1  0  0  0  0
  7 37  1  0  0  0  0
  8 27  1  0  0  0  0
  8  9  1  0  0  0  0
  9 10  2  0  0  0  0
  9 38  1  0  0  0  0
 10 11  1  0  0  0  0
 11 27  2  0  0  0  0
 11 12  1  0  0  0  0
 12 13  1  0  0  0  0
 12 24  2  0  0  0  0
 13 23  1  0  0  0  0
 13 14  1  0  0  0  0
 14 15  1  0  0  0  0
 14 39  1  0  0  0  0
 14 40  1  0  0  0  0
 15 16  1  0  0  0  0
 15 41  1  0  0  0  0
 15 42  1  0  0  0  0
 16 17  1  0  0  0  0
 16 22  1  0  0  0  0
 16 43  1  0  0  0  0
 17 21  1  0  0  0  0
 17 18  1  0  0  0  0
 17 44  1  0  0  0  0
 18 19  1  0  0  0  0
 18 45  1  0  0  0  0
 18 46  1  0  0  0  0
 19 20  1  0  0  0  0
 19 47  1  0  0  0  0
 19 48  1  0  0  0  0
 20 21  1  0  0  0  0
 20 49  1  0  0  0  0
 20 50  1  0  0  0  0
 22 23  1  0  0  0  0
 22 51  1  0  0  0  0
 22 52  1  0  0  0  0
 23 53  1  0  0  0  0
 23 54  1  0  0  0  0
 24 25  1  0  0  0  0
 25 26  2  0  0  0  0
 25 55  1  0  0  0  0
 26 27  1  0  0  0  0
 28 56  1  0  0  0  0
 28 57  1  0  0  0  0
M  END
> <s_m_source_file>
AV-unprocessed.smi

> <i_m_source_file_index>
217

> <i_lp_mmshare_version>
43012

> <i_f3d_flags>
0

> <s_epik_input>
W09IXVtDSDJdQzEoW0NIMl1bT0hdKVtDSDJdW0NIXShbQ0gyXTEpbihbY0hdbjIpYyhjMjMpbltjSF1uYzNONFtDSDJdW0NIMl1bQ0hdKFtDSDJdW0NIMl00KVtDQEBIXTVbQ0gyXVtDSDJdW0NIMl1PNQ==

> <s_epik_cmdline>
J2VwaWtfcHl0aG9uJywgJy1waCcsICc3LjAnLCAnLXRuJywgJzgnLCAnLW1hJywgJzIwMCcsICctbWV0YWxfYmluZGluZycsICctaW1hZScsICc8aW5maWxlLm1hZT4nLCAnLW9tYWUnLCAnPG91dGZpbGUubWFlPic=

> <r_lp_tautomer_probability>
1

> <r_epik_Ionization_Penalty>
0.0037022

> <r_epik_Ionization_Penalty_Charging>
0

> <r_epik_Ionization_Penalty_Neutral>
0.0037022

> <r_epik_State_Penalty>
0.00257654

> <r_epik_Charging_Adjusted_Penalty>
0.00257654

> <i_epik_Tot_Q>
0

> <i_epik_Tot_abs_Q>
0

> <r_epik_Metal_State_Penalty>
-0

> <b_epik_Metal_Only>
0

> <s_lp_Force_Field>
OPLS_2005

> <r_lp_Energy>
56.6597

> <b_lp_Chiralities_Consistent>
1

> <s_lp_Variant>
AV-unprocessed.smi:217-1

> <Gold.Version>
5.8.1

> <Gold.Id.Protein>
6NUR|6NUR_protein|mol2

> <Gold.PLP.Fitness>
49.1837

> <Gold.PLP.PLP>
-38.7469

> <Gold.PLP.part.hbond>
-3.0000

> <Gold.PLP.part.metal>
0.0000

> <Gold.PLP.part.buried>
-7.5987

> <Gold.PLP.part.nonpolar>
-28.8211

> <Gold.PLP.part.repulsive>
0.3572

> <Gold.PLP.ligand.clash>
0.0000

> <Gold.PLP.ligand.torsion>
1.0820

> <Gold.PLP.Chemscore.Hbond>
2.9600

> <Gold.PLP.Chemscore.CHOScore>
1.0000

> <Gold.PLP.Chemscore.Metal>
0.0000

> <Gold.Chemscore.Hbonds>
donor molecule, donor type, donor heavy atom, donor atom, acceptor molecule, acceptor atom, score
      L1  H     1    29       P1 10957  0.98
      L1  H     5    34       P1 10186  1.00
      P1  H 11000 11005       L1     1  0.95
      L1  C     9    38       P1 10175  1.00

> <Gold.PLP.Chemscore.Internal.Correction>
0.7207

> <Gold.Rescore>
     Score         DG    S(hbond)    S(metal)    S(lipo)     H(rot)  DE(clash)    DE(int)     intcor
     13.32     -14.48       1.77        0.00      98.15       3.28       0.01       1.14       ----

> <Gold.Chemscore.Fitness>
13.3248

> <Gold.Chemscore.DG>
-14.4817

> <Gold.Chemscore.ZeroCoef>
-5.4800

> <Gold.Chemscore.Hbond>
1.7746

> <Gold.Chemscore.Metal>
0.0000

> <Gold.Chemscore.Lipo>
98.1518

> <Gold.Chemscore.Internal_Hbond>
0.0000

> <Gold.Chemscore.DEClash>
0.0126

> <Gold.Chemscore.DEInternal>
1.1444

> <Gold.Chemscore.Rot>
3.2848

> <Gold.Chemscore.Internal.Correction>
   9.000000E+99

> <Gold.Chemscore.Hbonds>
donor molecule, donor type, donor heavy atom, donor atom, acceptor molecule, acceptor atom, score
      L1  H     1    29       P1 10957  0.93
      L1  H     5    34       P1 10186  0.63
      P1  H 11000 11005       L1     1  0.20

> <Gold.Chemscore.Hbond.Weighted>
-5.9271

> <Gold.Chemscore.Metal.Weighted>
-0.0000

> <Gold.Chemscore.Lipo.Weighted>
-11.4838

> <Gold.Chemscore.Internal_Hbond.Weighted>
0.0000

> <Gold.Chemscore.DEClash.Weighted>
0.0126

> <Gold.Chemscore.DEInternal.Weighted>
1.1444

> <Gold.Chemscore.Rot.Weighted>
8.4092

> <Gold.Chemscore.Internal.Correction.Weighted>
   9.000000E+99

> <Gold.Protein.RotatedTorsions>
[ 6907 6896 6895 6894 ] final   76.70 input  -60.11 | X-H torsion
[ 7974 7965 7964 7962 ] final -133.47 input  175.53 | X-H torsion
[ 8008 7997 7996 7995 ] final -130.22 input   59.86 | X-H torsion
[ 10167 10162 10161 10158 ] final -173.55 input  -65.29 | X-H torsion
[ 10718 10713 10712 10709 ] final  -39.63 input   66.30 | X-H torsion
[ 10763 10752 10751 10750 ] final -129.24 input  -60.55 | X-H torsion
[ 11005 11000 10999 10996 ] final   -4.56 input  -57.11 | X-H torsion

> <Gold.Protein.ActiveResidues>
 VAL166  LYS551  ARG553  GLY616  TRP617  ASP618  TYR619  PRO620  LYS621  CYS622 
 ASP623  PHE694  ASN695  SER759  ASP760  ASP761  ALA762  ILE779  LEU786  VAL792 
 PHE793  MET794  SER795  GLU796  ALA797  LYS798  CYS799  TRP800  GLU811  SER814 

> <Gold.Protein.RotatedAtoms>
  152.5085  134.3929  159.9389 H   0  0  0  0  0  0  0  0  0  0  0  0  # atno 6907 bound_to 6896
  151.3890  133.3789  159.2726 H   0  0  0  0  0  0  0  0  0  0  0  0  # atno 6908 bound_to 6896
  150.9447  134.8873  159.7693 H   0  0  0  0  0  0  0  0  0  0  0  0  # atno 6909 bound_to 6896
  144.9190  140.6991  143.4977 H   0  0  0  0  0  0  0  0  0  0  0  0  # atno 7974 bound_to 7965
  155.2921  140.0449  157.3023 H   0  0  0  0  0  0  0  0  0  0  0  0  # atno 8008 bound_to 7997
  154.5535  140.2324  155.8414 H   0  0  0  0  0  0  0  0  0  0  0  0  # atno 8009 bound_to 7997
  156.1987  140.3031  155.9489 H   0  0  0  0  0  0  0  0  0  0  0  0  # atno 8010 bound_to 7997
  139.5682  144.1705  152.1344 H   0  0  0  0  0  0  0  0  0  0  0  0  # atno 10167 bound_to 10162
  156.2903  130.4227  149.8245 H   0  0  0  0  0  0  0  0  0  0  0  0  # atno 10718 bound_to 10713
  154.8757  135.3902  154.3888 H   0  0  0  0  0  0  0  0  0  0  0  0  # atno 10763 bound_to 10752
  153.4627  135.7029  153.6046 H   0  0  0  0  0  0  0  0  0  0  0  0  # atno 10764 bound_to 10752
  153.4538  135.3828  155.2267 H   0  0  0  0  0  0  0  0  0  0  0  0  # atno 10765 bound_to 10752
  140.6816  133.9149  155.8559 H   0  0  0  0  0  0  0  0  0  0  0  0  # atno 11005 bound_to 11000
  145.3327  139.1755  143.4528 LP  0  0  0  0  0  0  0  0  0  0  0  0  # atno 17320 bound_to 7965
  146.3196  140.3358  142.8644 LP  0  0  0  0  0  0  0  0  0  0  0  0  # atno 17321 bound_to 7965
  140.1232  144.5355  150.6849 LP  0  0  0  0  0  0  0  0  0  0  0  0  # atno 17342 bound_to 10162
  140.6966  143.2408  151.4983 LP  0  0  0  0  0  0  0  0  0  0  0  0  # atno 17343 bound_to 10162
  156.5661  130.8404  151.3343 LP  0  0  0  0  0  0  0  0  0  0  0  0  # atno 17370 bound_to 10713
  157.7340  130.9740  150.2009 LP  0  0  0  0  0  0  0  0  0  0  0  0  # atno 17371 bound_to 10713
  141.0313  134.0752  157.4010 LP  0  0  0  0  0  0  0  0  0  0  0  0  # atno 17394 bound_to 11000
  139.8950  135.0139  156.6980 LP  0  0  0  0  0  0  0  0  0  0  0  0  # atno 17395 bound_to 11000

$$$$
