AV-unprocessed.smi:1779|AV-procd|sdf|7181|dock7
  -GOLD-   22720 8423D 1   1.00000     0.00000
 Structure written by MMmdl.
 47 48  0  0  0  0  0  0  0  0  2 V2000
  150.8207  142.1560  156.5986 C   0  0  0  0  0  0  0  0  0  0  0  0
  150.5355  140.9576  155.7423 C   0  0  0  0  0  0  0  0  0  0  0  0
  149.3328  140.6417  155.0457 C   0  0  0  0  0  0  0  0  0  0  0  0
  149.6388  139.4532  154.4409 C   0  0  0  0  0  0  0  0  0  0  0  0
  148.8659  138.6834  153.6296 N   0  0  0  0  0  0  0  0  0  0  0  0
  147.5529  138.7992  153.3658 C   0  0  0  0  0  0  0  0  0  0  0  0
  146.7999  139.6486  153.8423 O   0  0  0  0  0  0  0  0  0  0  0  0
  147.1443  137.8468  152.5154 N   0  0  0  0  0  0  0  0  0  0  0  0
  145.7810  137.6837  152.0198 C   0  0  0  0  0  0  0  0  0  0  0  0
  145.5791  136.3264  151.3174 C   0  0  2  0  0  0  0  0  0  0  0  0
  145.2313  136.5857  149.9722 O   0  0  0  0  0  0  0  0  0  0  0  0
  144.4734  135.4573  151.9554 C   0  0  0  0  0  0  0  0  0  0  0  0
  144.6982  134.0049  151.7393 N   0  3  0  0  0  0  0  0  0  0  0  0
  146.1141  133.6125  151.9636 C   0  0  0  0  0  0  0  0  0  0  0  0
  146.2902  132.0869  151.8737 C   0  0  0  0  0  0  0  0  0  0  0  0
  145.7825  131.5523  150.5282 C   0  0  0  0  0  0  0  0  0  0  0  0
  144.3316  131.9966  150.3033 C   0  0  0  0  0  0  0  0  0  0  0  0
  144.1990  133.5240  150.4226 C   0  0  0  0  0  0  0  0  0  0  0  0
  150.9325  139.1093  154.7638 N   0  0  0  0  0  0  0  0  0  0  0  0
  151.7055  137.9501  154.3628 C   0  0  0  0  0  0  0  0  0  0  0  0
  151.4822  140.0416  155.5714 N   0  0  0  0  0  0  0  0  0  0  0  0
  149.9829  142.8536  156.5924 H   0  0  0  0  0  0  0  0  0  0  0  0
  151.7008  142.6927  156.2433 H   0  0  0  0  0  0  0  0  0  0  0  0
  151.0017  141.8644  157.6335 H   0  0  0  0  0  0  0  0  0  0  0  0
  148.4145  141.2080  155.0064 H   0  0  0  0  0  0  0  0  0  0  0  0
  149.3451  137.9160  153.1819 H   0  0  0  0  0  0  0  0  0  0  0  0
  147.8315  137.1915  152.1718 H   0  0  0  0  0  0  0  0  0  0  0  0
  145.0467  137.8258  152.8149 H   0  0  0  0  0  0  0  0  0  0  0  0
  145.6128  138.4917  151.3065 H   0  0  0  0  0  0  0  0  0  0  0  0
  146.5311  135.7962  151.3109 H   0  0  0  0  0  0  0  0  0  0  0  0
  145.6862  135.9706  149.4167 H   0  0  0  0  0  0  0  0  0  0  0  0
  144.3983  135.6398  153.0274 H   0  0  0  0  0  0  0  0  0  0  0  0
  143.5133  135.7552  151.5308 H   0  0  0  0  0  0  0  0  0  0  0  0
  146.7520  134.1103  151.2312 H   0  0  0  0  0  0  0  0  0  0  0  0
  146.4387  133.9497  152.9490 H   0  0  0  0  0  0  0  0  0  0  0  0
  147.3402  131.8242  152.0065 H   0  0  0  0  0  0  0  0  0  0  0  0
  145.7454  131.6066  152.6877 H   0  0  0  0  0  0  0  0  0  0  0  0
  146.4132  131.9261  149.7206 H   0  0  0  0  0  0  0  0  0  0  0  0
  145.8529  130.4644  150.5026 H   0  0  0  0  0  0  0  0  0  0  0  0
  143.9890  131.6679  149.3216 H   0  0  0  0  0  0  0  0  0  0  0  0
  143.6819  131.5146  151.0353 H   0  0  0  0  0  0  0  0  0  0  0  0
  143.1534  133.7982  150.2882 H   0  0  0  0  0  0  0  0  0  0  0  0
  144.7564  134.0111  149.6208 H   0  0  0  0  0  0  0  0  0  0  0  0
  151.1390  137.0411  154.5677 H   0  0  0  0  0  0  0  0  0  0  0  0
  152.6479  137.9084  154.9112 H   0  0  0  0  0  0  0  0  0  0  0  0
  151.9185  138.0059  153.2950 H   0  0  0  0  0  0  0  0  0  0  0  0
  144.1602  133.5300  152.4506 H   0  0  0  0  0  0  0  0  0  0  0  0
  1  2  1  0  0  0  0
  1 22  1  0  0  0  0
  1 23  1  0  0  0  0
  1 24  1  0  0  0  0
  2 21  2  0  0  0  0
  2  3  1  0  0  0  0
  3  4  2  0  0  0  0
  3 25  1  0  0  0  0
  4  5  1  0  0  0  0
  4 19  1  0  0  0  0
  5  6  1  0  0  0  0
  5 26  1  0  0  0  0
  6  7  2  0  0  0  0
  6  8  1  0  0  0  0
  8  9  1  0  0  0  0
  8 27  1  0  0  0  0
  9 10  1  0  0  0  0
  9 28  1  0  0  0  0
  9 29  1  0  0  0  0
 10 11  1  0  0  0  0
 10 12  1  0  0  0  0
 10 30  1  0  0  0  0
 11 31  1  0  0  0  0
 12 13  1  0  0  0  0
 12 32  1  0  0  0  0
 12 33  1  0  0  0  0
 13 18  1  0  0  0  0
 13 14  1  0  0  0  0
 13 47  1  0  0  0  0
 14 15  1  0  0  0  0
 14 34  1  0  0  0  0
 14 35  1  0  0  0  0
 15 16  1  0  0  0  0
 15 36  1  0  0  0  0
 15 37  1  0  0  0  0
 16 17  1  0  0  0  0
 16 38  1  0  0  0  0
 16 39  1  0  0  0  0
 17 18  1  0  0  0  0
 17 40  1  0  0  0  0
 17 41  1  0  0  0  0
 18 42  1  0  0  0  0
 18 43  1  0  0  0  0
 19 20  1  0  0  0  0
 19 21  1  0  0  0  0
 20 44  1  0  0  0  0
 20 45  1  0  0  0  0
 20 46  1  0  0  0  0
M  CHG  1  13   1
M  END
> <s_m_source_file>
AV-unprocessed.smi

> <i_m_source_file_index>
1779

> <i_lp_mmshare_version>
43012

> <i_f3d_flags>
0

> <s_epik_input>
W0NIM11jMVtjSF1jKG4objEpW0NIM10pW05IXUMoPU8pW05IXVtDSDJdW0NASF0oW09IXSlbQ0gyXU4yW0NIMl1bQ0gyXVtDSDJdW0NIMl1bQ0gyXTI=

> <s_epik_cmdline>
J2VwaWtfcHl0aG9uJywgJy1waCcsICc3LjAnLCAnLXRuJywgJzgnLCAnLW1hJywgJzIwMCcsICctbWV0YWxfYmluZGluZycsICctaW1hZScsICc8aW5maWxlLm1hZT4nLCAnLW9tYWUnLCAnPG91dGZpbGUubWFlPic=

> <r_lp_tautomer_probability>
1

> <r_epik_Ionization_Penalty>
0.00528203

> <r_epik_Ionization_Penalty_Charging>
0.00519125

> <r_epik_Ionization_Penalty_Neutral>
9.07781e-05

> <r_epik_State_Penalty>
0.0037836

> <r_epik_Charging_Adjusted_Penalty>
0.00897485

> <i_epik_Tot_Q>
1

> <i_epik_Tot_abs_Q>
1

> <r_epik_Metal_State_Penalty>
-0

> <b_epik_Metal_Only>
0

> <s_lp_Force_Field>
OPLS_2005

> <r_lp_Energy>
18.32

> <b_lp_Chiralities_Consistent>
1

> <s_lp_Variant>
AV-unprocessed.smi:1779-1

> <Gold.Version>
5.8.1

> <Gold.Id.Protein>
6NUR|6NUR_protein|mol2

> <Gold.PLP.Fitness>
49.0431

> <Gold.PLP.PLP>
-43.7564

> <Gold.PLP.part.hbond>
-5.0977

> <Gold.PLP.part.metal>
0.0000

> <Gold.PLP.part.buried>
-2.4500

> <Gold.PLP.part.nonpolar>
-37.8808

> <Gold.PLP.part.repulsive>
0.3277

> <Gold.PLP.ligand.clash>
0.0000

> <Gold.PLP.ligand.torsion>
1.3470

> <Gold.PLP.Chemscore.Hbond>
2.6442

> <Gold.PLP.Chemscore.CHOScore>
0.0000

> <Gold.PLP.Chemscore.Metal>
0.0000

> <Gold.Chemscore.Hbonds>
donor molecule, donor type, donor heavy atom, donor atom, acceptor molecule, acceptor atom, score
      L1  H     5    26       P1  7948  0.59
      L1  H     8    27       P1  7948  0.91
      L1  H    11    31       P1  7921  0.70

> <Gold.PLP.Chemscore.Internal.Correction>
0.0481

> <Gold.Rescore>
     Score         DG    S(hbond)    S(metal)    S(lipo)     H(rot)  DE(clash)    DE(int)     intcor
     15.66     -19.47       2.70        0.00      94.20       2.36       1.32       2.50       ----

> <Gold.Chemscore.Fitness>
15.6607

> <Gold.Chemscore.DG>
-19.4747

> <Gold.Chemscore.ZeroCoef>
-5.4800

> <Gold.Chemscore.Hbond>
2.6965

> <Gold.Chemscore.Metal>
0.0000

> <Gold.Chemscore.Lipo>
94.2049

> <Gold.Chemscore.Internal_Hbond>
0.0000

> <Gold.Chemscore.DEClash>
1.3180

> <Gold.Chemscore.DEInternal>
2.4960

> <Gold.Chemscore.Rot>
2.3569

> <Gold.Chemscore.Internal.Correction>
   9.000000E+99

> <Gold.Chemscore.Hbonds>
donor molecule, donor type, donor heavy atom, donor atom, acceptor molecule, acceptor atom, score
      L1  H     5    26       P1  7948  0.57
      L1  H     8    27       P1  7948  0.87
      L1  H    11    31       P1  7921  0.68

> <Gold.Chemscore.Hbond.Weighted>
-9.0064

> <Gold.Chemscore.Metal.Weighted>
-0.0000

> <Gold.Chemscore.Lipo.Weighted>
-11.0220

> <Gold.Chemscore.Internal_Hbond.Weighted>
0.0000

> <Gold.Chemscore.DEClash.Weighted>
1.3180

> <Gold.Chemscore.DEInternal.Weighted>
2.4960

> <Gold.Chemscore.Rot.Weighted>
6.0337

> <Gold.Chemscore.Internal.Correction.Weighted>
   9.000000E+99

> <Gold.Protein.RotatedTorsions>
[ 6907 6896 6895 6894 ] final  -22.95 input  -60.11 | X-H torsion
[ 7974 7965 7964 7962 ] final -175.60 input  175.53 | X-H torsion
[ 8008 7997 7996 7995 ] final   67.36 input   59.86 | X-H torsion
[ 10167 10162 10161 10158 ] final -160.58 input  -65.29 | X-H torsion
[ 10718 10713 10712 10709 ] final  143.46 input   66.30 | X-H torsion
[ 10763 10752 10751 10750 ] final  164.34 input  -60.55 | X-H torsion
[ 11005 11000 10999 10996 ] final  103.72 input  -57.11 | X-H torsion

> <Gold.Protein.ActiveResidues>
 VAL166  LYS551  ARG553  GLY616  TRP617  ASP618  TYR619  PRO620  LYS621  CYS622 
 ASP623  PHE694  ASN695  SER759  ASP760  ASP761  ALA762  ILE779  LEU786  VAL792 
 PHE793  MET794  SER795  GLU796  ALA797  LYS798  CYS799  TRP800  GLU811  SER814 

> <Gold.Protein.RotatedAtoms>
  151.2111  135.0481  159.8911 H   0  0  0  0  0  0  0  0  0  0  0  0  # atno 6907 bound_to 6896
  152.5424  134.0744  159.8218 H   0  0  0  0  0  0  0  0  0  0  0  0  # atno 6908 bound_to 6896
  151.0897  133.5278  159.2647 H   0  0  0  0  0  0  0  0  0  0  0  0  # atno 6909 bound_to 6896
  144.7128  140.1296  143.6399 H   0  0  0  0  0  0  0  0  0  0  0  0  # atno 7974 bound_to 7965
  155.6917  140.3496  155.4896 H   0  0  0  0  0  0  0  0  0  0  0  0  # atno 8008 bound_to 7997
  155.9518  140.1121  157.0992 H   0  0  0  0  0  0  0  0  0  0  0  0  # atno 8009 bound_to 7997
  154.4123  140.1192  156.5049 H   0  0  0  0  0  0  0  0  0  0  0  0  # atno 8010 bound_to 7997
  139.6529  144.0052  152.2174 H   0  0  0  0  0  0  0  0  0  0  0  0  # atno 10167 bound_to 10162
  157.3687  131.0976  151.0848 H   0  0  0  0  0  0  0  0  0  0  0  0  # atno 10718 bound_to 10713
  154.3074  135.2758  155.2582 H   0  0  0  0  0  0  0  0  0  0  0  0  # atno 10763 bound_to 10752
  154.4992  135.5813  153.6521 H   0  0  0  0  0  0  0  0  0  0  0  0  # atno 10764 bound_to 10752
  152.9892  135.6153  154.3249 H   0  0  0  0  0  0  0  0  0  0  0  0  # atno 10765 bound_to 10752
  139.8786  134.9274  156.5252 H   0  0  0  0  0  0  0  0  0  0  0  0  # atno 11005 bound_to 11000
  145.9299  139.2599  143.1331 LP  0  0  0  0  0  0  0  0  0  0  0  0  # atno 17320 bound_to 7965
  145.9534  140.8891  143.0247 LP  0  0  0  0  0  0  0  0  0  0  0  0  # atno 17321 bound_to 7965
  139.9771  144.6454  150.7935 LP  0  0  0  0  0  0  0  0  0  0  0  0  # atno 17342 bound_to 10162
  140.7546  143.3030  151.3033 LP  0  0  0  0  0  0  0  0  0  0  0  0  # atno 17343 bound_to 10162
  157.1960  130.6373  149.5721 LP  0  0  0  0  0  0  0  0  0  0  0  0  # atno 17370 bound_to 10713
  155.9751  130.4706  150.6437 LP  0  0  0  0  0  0  0  0  0  0  0  0  # atno 17371 bound_to 10713
  140.8421  133.8197  155.9085 LP  0  0  0  0  0  0  0  0  0  0  0  0  # atno 17394 bound_to 11000
  140.9227  134.2121  157.4916 LP  0  0  0  0  0  0  0  0  0  0  0  0  # atno 17395 bound_to 11000

$$$$
