AV-unprocessed.smi:148|AV-procd|sdf|1227|dock2
  -GOLD-   2262018423D 1   1.00000     0.00000
 Structure written by MMmdl.
 63 67  0  0  0  0  0  0  0  0  1 V2000
  154.5589  132.7653  160.5720 O   0  0  0  0  0  0  0  0  0  0  0  0
  155.6865  133.6097  160.6752 C   0  0  0  0  0  0  0  0  0  0  0  0
  155.2648  135.0974  160.6279 C   0  0  1  0  0  0  0  0  0  0  0  0
  154.6644  135.4425  159.2416 C   0  0  0  0  0  0  0  0  0  0  0  0
  154.3466  136.8512  159.0855 N   0  0  0  0  0  0  0  0  0  0  0  0
  155.2383  137.8701  158.8353 C   0  0  0  0  0  0  0  0  0  0  0  0
  154.7106  139.0599  158.7325 N   0  0  0  0  0  0  0  0  0  0  0  0
  153.3527  138.8405  158.9228 C   0  0  0  0  0  0  0  0  0  0  0  0
  152.2101  139.6816  158.9321 C   0  0  0  0  0  0  0  0  0  0  0  0
  152.3039  141.0145  158.7339 N   0  0  0  0  0  0  0  0  0  0  0  0
  152.6233  141.6772  160.0005 C   0  0  0  0  0  0  0  0  0  0  0  0
  153.0173  143.1407  159.7833 C   0  0  0  0  0  0  0  0  0  0  0  0
  151.9005  143.8702  159.0366 C   0  0  0  0  0  0  0  0  0  0  0  0
  151.5985  143.1468  157.7181 C   0  0  0  0  0  0  0  0  0  0  0  0
  151.2468  141.6468  157.9168 C   0  0  1  0  0  0  0  0  0  0  0  0
  151.0252  140.9538  156.5257 C   0  0  2  0  0  0  0  0  0  0  0  0
  150.1085  141.7192  155.5529 C   0  0  0  0  0  0  0  0  0  0  0  0
  149.6911  140.7164  154.4721 C   0  0  0  0  0  0  0  0  0  0  0  0
  149.9462  139.3246  155.0607 C   0  0  0  0  0  0  0  0  0  0  0  0
  150.3829  139.5469  156.5134 C   0  0  2  0  0  0  0  0  0  0  0  0
  149.2390  139.4964  157.3459 O   0  0  0  0  0  0  0  0  0  0  0  0
  150.9973  139.1109  159.1597 N   0  0  0  0  0  0  0  0  0  0  0  0
  150.9093  137.7910  159.3513 C   0  0  0  0  0  0  0  0  0  0  0  0
  151.8867  136.8815  159.3595 N   0  0  0  0  0  0  0  0  0  0  0  0
  153.1039  137.4574  159.1412 C   0  0  0  0  0  0  0  0  0  0  0  0
  154.3300  135.5229  161.7964 C   0  0  1  0  0  0  0  0  0  0  0  0
  154.7788  135.1471  163.1964 C   0  0  0  0  0  0  0  0  0  0  0  0
  153.8547  136.0090  164.0499 C   0  0  0  0  0  0  0  0  0  0  0  0
  153.6359  137.2008  163.2998 O   0  0  0  0  0  0  0  0  0  0  0  0
  154.0734  137.0248  161.9545 C   0  0  0  0  0  0  0  0  0  0  0  0
  154.7773  131.9237  160.9424 H   0  0  0  0  0  0  0  0  0  0  0  0
  156.2153  133.3794  161.6002 H   0  0  0  0  0  0  0  0  0  0  0  0
  156.3528  133.3516  159.8546 H   0  0  0  0  0  0  0  0  0  0  0  0
  156.1741  135.6899  160.7409 H   0  0  0  0  0  0  0  0  0  0  0  0
  155.3595  135.1763  158.4449 H   0  0  0  0  0  0  0  0  0  0  0  0
  153.7612  134.8570  159.0658 H   0  0  0  0  0  0  0  0  0  0  0  0
  156.3006  137.7013  158.7335 H   0  0  0  0  0  0  0  0  0  0  0  0
  151.7607  141.6272  160.6670 H   0  0  0  0  0  0  0  0  0  0  0  0
  153.4411  141.1545  160.4995 H   0  0  0  0  0  0  0  0  0  0  0  0
  153.2105  143.6245  160.7411 H   0  0  0  0  0  0  0  0  0  0  0  0
  153.9446  143.1940  159.2112 H   0  0  0  0  0  0  0  0  0  0  0  0
  151.0019  143.9060  159.6538 H   0  0  0  0  0  0  0  0  0  0  0  0
  152.1899  144.9034  158.8426 H   0  0  0  0  0  0  0  0  0  0  0  0
  150.7808  143.6760  157.2301 H   0  0  0  0  0  0  0  0  0  0  0  0
  152.4624  143.2343  157.0573 H   0  0  0  0  0  0  0  0  0  0  0  0
  150.3176  141.6068  158.4865 H   0  0  0  0  0  0  0  0  0  0  0  0
  151.9983  140.8753  156.0370 H   0  0  0  0  0  0  0  0  0  0  0  0
  149.2181  142.0651  156.0799 H   0  0  0  0  0  0  0  0  0  0  0  0
  150.5941  142.5933  155.1180 H   0  0  0  0  0  0  0  0  0  0  0  0
  148.6443  140.8515  154.1989 H   0  0  0  0  0  0  0  0  0  0  0  0
  150.2851  140.8547  153.5681 H   0  0  0  0  0  0  0  0  0  0  0  0
  149.0775  138.6699  154.9764 H   0  0  0  0  0  0  0  0  0  0  0  0
  150.7582  138.8492  154.5091 H   0  0  0  0  0  0  0  0  0  0  0  0
  151.0693  138.7578  156.8141 H   0  0  0  0  0  0  0  0  0  0  0  0
  148.7883  140.3251  157.2843 H   0  0  0  0  0  0  0  0  0  0  0  0
  149.9133  137.4088  159.5195 H   0  0  0  0  0  0  0  0  0  0  0  0
  153.3482  135.0747  161.6394 H   0  0  0  0  0  0  0  0  0  0  0  0
  154.6790  134.0836  163.4121 H   0  0  0  0  0  0  0  0  0  0  0  0
  155.8147  135.4367  163.3726 H   0  0  0  0  0  0  0  0  0  0  0  0
  152.8960  135.5087  164.1930 H   0  0  0  0  0  0  0  0  0  0  0  0
  154.2738  136.2252  165.0326 H   0  0  0  0  0  0  0  0  0  0  0  0
  154.9770  137.6169  161.8219 H   0  0  0  0  0  0  0  0  0  0  0  0
  153.3291  137.3921  161.2477 H   0  0  0  0  0  0  0  0  0  0  0  0
  1  2  1  0  0  0  0
  1 31  1  0  0  0  0
  2  3  1  0  0  0  0
  2 32  1  0  0  0  0
  2 33  1  0  0  0  0
  3  4  1  0  0  0  0
  3 26  1  0  0  0  0
  3 34  1  0  0  0  0
  4  5  1  0  0  0  0
  4 35  1  0  0  0  0
  4 36  1  0  0  0  0
  5 25  1  0  0  0  0
  5  6  1  0  0  0  0
  6  7  2  0  0  0  0
  6 37  1  0  0  0  0
  7  8  1  0  0  0  0
  8 25  2  0  0  0  0
  8  9  1  0  0  0  0
  9 10  1  0  0  0  0
  9 22  2  0  0  0  0
 10 15  1  0  0  0  0
 10 11  1  0  0  0  0
 11 12  1  0  0  0  0
 11 38  1  0  0  0  0
 11 39  1  0  0  0  0
 12 13  1  0  0  0  0
 12 40  1  0  0  0  0
 12 41  1  0  0  0  0
 13 14  1  0  0  0  0
 13 42  1  0  0  0  0
 13 43  1  0  0  0  0
 14 15  1  0  0  0  0
 14 44  1  0  0  0  0
 14 45  1  0  0  0  0
 15 16  1  0  0  0  0
 15 46  1  0  0  0  0
 16 20  1  0  0  0  0
 16 17  1  0  0  0  0
 16 47  1  0  0  0  0
 17 18  1  0  0  0  0
 17 48  1  0  0  0  0
 17 49  1  0  0  0  0
 18 19  1  0  0  0  0
 18 50  1  0  0  0  0
 18 51  1  0  0  0  0
 19 20  1  0  0  0  0
 19 52  1  0  0  0  0
 19 53  1  0  0  0  0
 20 21  1  0  0  0  0
 20 54  1  0  0  0  0
 21 55  1  0  0  0  0
 22 23  1  0  0  0  0
 23 24  2  0  0  0  0
 23 56  1  0  0  0  0
 24 25  1  0  0  0  0
 26 30  1  0  0  0  0
 26 27  1  0  0  0  0
 26 57  1  0  0  0  0
 27 28  1  0  0  0  0
 27 58  1  0  0  0  0
 27 59  1  0  0  0  0
 28 29  1  0  0  0  0
 28 60  1  0  0  0  0
 28 61  1  0  0  0  0
 29 30  1  0  0  0  0
 30 62  1  0  0  0  0
 30 63  1  0  0  0  0
M  END
> <s_m_source_file>
AV-unprocessed.smi

> <i_m_source_file_index>
148

> <i_lp_mmshare_version>
43012

> <i_f3d_flags>
0

> <s_epik_input>
W0NIMl0xT1tDSDJdW0NIMl1bQ0BIXTFbQ0BIXShbQ0gyXVtPSF0pW0NIMl1uKFtjSF1uMiljKGMyMyluW2NIXW5jM040W0NIMl1bQ0gyXVtDSDJdW0NIMl1bQ0BIXTRbQ0BASF01W0NIMl1bQ0gyXVtDSDJdW0NASF01W09IXQ==

> <s_epik_cmdline>
J2VwaWtfcHl0aG9uJywgJy1waCcsICc3LjAnLCAnLXRuJywgJzgnLCAnLW1hJywgJzIwMCcsICctbWV0YWxfYmluZGluZycsICctaW1hZScsICc8aW5maWxlLm1hZT4nLCAnLW9tYWUnLCAnPG91dGZpbGUubWFlPic=

> <r_lp_tautomer_probability>
1

> <r_epik_Ionization_Penalty>
0.00556303

> <r_epik_Ionization_Penalty_Charging>
0

> <r_epik_Ionization_Penalty_Neutral>
0.00556303

> <r_epik_State_Penalty>
0.00401767

> <r_epik_Charging_Adjusted_Penalty>
0.00401767

> <i_epik_Tot_Q>
0

> <i_epik_Tot_abs_Q>
0

> <r_epik_Metal_State_Penalty>
-0

> <b_epik_Metal_Only>
0

> <s_lp_Force_Field>
OPLS_2005

> <r_lp_Energy>
69.6846

> <b_lp_Chiralities_Consistent>
1

> <s_lp_Variant>
AV-unprocessed.smi:148-26

> <Gold.Version>
5.8.1

> <Gold.Id.Protein>
6NUR|6NUR_protein|mol2

> <Gold.PLP.Fitness>
52.0508

> <Gold.PLP.PLP>
-47.4628

> <Gold.PLP.part.hbond>
-2.3638

> <Gold.PLP.part.metal>
0.0000

> <Gold.PLP.part.buried>
-5.2450

> <Gold.PLP.part.nonpolar>
-39.8310

> <Gold.PLP.part.repulsive>
0.0123

> <Gold.PLP.ligand.clash>
0.0000

> <Gold.PLP.ligand.torsion>
1.0711

> <Gold.PLP.Chemscore.Hbond>
2.0000

> <Gold.PLP.Chemscore.CHOScore>
0.0000

> <Gold.PLP.Chemscore.Metal>
0.0000

> <Gold.Chemscore.Hbonds>
donor molecule, donor type, donor heavy atom, donor atom, acceptor molecule, acceptor atom, score
      P1  H  6896  6909       L1    24  1.00
      P1  H  7997  8008       L1     7  1.00

> <Gold.PLP.Chemscore.Internal.Correction>
0.7301

> <Gold.Rescore>
     Score         DG    S(hbond)    S(metal)    S(lipo)     H(rot)  DE(clash)    DE(int)     intcor
     11.75     -16.94       1.87        0.00     117.09       3.32       0.17       5.01       ----

> <Gold.Chemscore.Fitness>
11.7527

> <Gold.Chemscore.DG>
-16.9369

> <Gold.Chemscore.ZeroCoef>
-5.4800

> <Gold.Chemscore.Hbond>
1.8734

> <Gold.Chemscore.Metal>
0.0000

> <Gold.Chemscore.Lipo>
117.0929

> <Gold.Chemscore.Internal_Hbond>
0.0000

> <Gold.Chemscore.DEClash>
0.1699

> <Gold.Chemscore.DEInternal>
5.0143

> <Gold.Chemscore.Rot>
3.3203

> <Gold.Chemscore.Internal.Correction>
   9.000000E+99

> <Gold.Chemscore.Hbonds>
donor molecule, donor type, donor heavy atom, donor atom, acceptor molecule, acceptor atom, score
      P1  H  6896  6907       L1     1  0.01
      P1  H  6896  6909       L1    24  0.96
      P1  H  7997  8008       L1     7  0.89

> <Gold.Chemscore.Hbond.Weighted>
-6.2570

> <Gold.Chemscore.Metal.Weighted>
-0.0000

> <Gold.Chemscore.Lipo.Weighted>
-13.6999

> <Gold.Chemscore.Internal_Hbond.Weighted>
0.0000

> <Gold.Chemscore.DEClash.Weighted>
0.1699

> <Gold.Chemscore.DEInternal.Weighted>
5.0143

> <Gold.Chemscore.Rot.Weighted>
8.5000

> <Gold.Chemscore.Internal.Correction.Weighted>
   9.000000E+99

> <Gold.Protein.RotatedTorsions>
[ 6907 6896 6895 6894 ] final  130.47 input  -60.11 | X-H torsion
[ 7974 7965 7964 7962 ] final  102.06 input  175.53 | X-H torsion
[ 8008 7997 7996 7995 ] final -126.00 input   59.86 | X-H torsion
[ 10167 10162 10161 10158 ] final  -10.66 input  -65.29 | X-H torsion
[ 10718 10713 10712 10709 ] final  -74.43 input   66.30 | X-H torsion
[ 10763 10752 10751 10750 ] final   52.33 input  -60.55 | X-H torsion
[ 11005 11000 10999 10996 ] final  120.86 input  -57.11 | X-H torsion

> <Gold.Protein.ActiveResidues>
 VAL166  LYS551  ARG553  GLY616  TRP617  ASP618  TYR619  PRO620  LYS621  CYS622 
 ASP623  PHE694  ASN695  SER759  ASP760  ASP761  ALA762  ILE779  LEU786  VAL792 
 PHE793  MET794  SER795  GLU796  ALA797  LYS798  CYS799  TRP800  GLU811  SER814 

> <Gold.Protein.RotatedAtoms>
  152.3523  133.6194  159.5953 H   0  0  0  0  0  0  0  0  0  0  0  0  # atno 6907 bound_to 6896
  150.7546  133.9555  159.3508 H   0  0  0  0  0  0  0  0  0  0  0  0  # atno 6908 bound_to 6896
  151.7405  135.0856  160.0366 H   0  0  0  0  0  0  0  0  0  0  0  0  # atno 6909 bound_to 6896
  145.3641  139.2412  143.3491 H   0  0  0  0  0  0  0  0  0  0  0  0  # atno 7974 bound_to 7965
  155.2225  140.0422  157.2950 H   0  0  0  0  0  0  0  0  0  0  0  0  # atno 8008 bound_to 7997
  154.5940  140.2434  155.7852 H   0  0  0  0  0  0  0  0  0  0  0  0  # atno 8009 bound_to 7997
  156.2278  140.2948  156.0120 H   0  0  0  0  0  0  0  0  0  0  0  0  # atno 8010 bound_to 7997
  140.7119  143.5724  150.9078 H   0  0  0  0  0  0  0  0  0  0  0  0  # atno 10167 bound_to 10162
  156.0243  130.4417  150.2891 H   0  0  0  0  0  0  0  0  0  0  0  0  # atno 10718 bound_to 10713
  152.9788  135.5816  154.4561 H   0  0  0  0  0  0  0  0  0  0  0  0  # atno 10763 bound_to 10752
  154.4144  135.2770  155.2018 H   0  0  0  0  0  0  0  0  0  0  0  0  # atno 10764 bound_to 10752
  154.3794  135.6150  153.5837 H   0  0  0  0  0  0  0  0  0  0  0  0  # atno 10765 bound_to 10752
  139.9202  134.9636  156.7870 H   0  0  0  0  0  0  0  0  0  0  0  0  # atno 11005 bound_to 11000
  146.2914  140.4280  142.8738 LP  0  0  0  0  0  0  0  0  0  0  0  0  # atno 17320 bound_to 7965
  144.8625  140.7159  143.6098 LP  0  0  0  0  0  0  0  0  0  0  0  0  # atno 17321 bound_to 7965
  139.9450  143.6338  152.3044 LP  0  0  0  0  0  0  0  0  0  0  0  0  # atno 17342 bound_to 10162
  139.6836  144.7653  151.1564 LP  0  0  0  0  0  0  0  0  0  0  0  0  # atno 17343 bound_to 10162
  157.0994  131.0191  151.3091 LP  0  0  0  0  0  0  0  0  0  0  0  0  # atno 17370 bound_to 10713
  157.4791  130.7754  149.7397 LP  0  0  0  0  0  0  0  0  0  0  0  0  # atno 17371 bound_to 10713
  140.6498  133.9742  155.7749 LP  0  0  0  0  0  0  0  0  0  0  0  0  # atno 17394 bound_to 11000
  141.0716  134.0197  157.3518 LP  0  0  0  0  0  0  0  0  0  0  0  0  # atno 17395 bound_to 11000

$$$$
