#       Name:                AV-unprocessed.smi:183
#       Creating user name   scv26
#       Creation time:       Thu Mar 26 19:26:40 2020


#       File generated by GOLD software.
#

@<TRIPOS>MOLECULE
AV-unprocessed.smi:183
    65    67     1
SMALL
NO_CHARGES


@<TRIPOS>ATOM
      1 ****        -4.1087  -5.0472   2.6271 C.3            1 S1                 0.0000
      2 ****        -3.2414  -4.0028   1.9331 C.2            1 S1                 0.0000
      3 ****        -2.0496  -4.2284   1.7249 O.2            1 S1                 0.0000
      4 ****        -3.8541  -2.8633   1.5792 N.am           1 S1                 0.0000
      5 ****        -3.2071  -1.7408   0.9135 C.3            1 S1                 0.0000
      6 ****        -3.0875  -1.9840  -0.6042 C.3            1 S1                 0.0000
      7 ****        -2.4710  -0.8691  -1.3292 N.3            1 S1                 0.0000
      8 ****        -1.1193  -0.9012  -1.2293 C.ar           1 S1                 0.0000
      9 ****        -0.4567  -1.7282  -2.0765 N.ar           1 S1                 0.0000
     10 ****         0.8756  -1.8158  -2.0224 C.ar           1 S1                 0.0000
     11 ****         1.7218  -1.1820  -1.2083 N.ar           1 S1                 0.0000
     12 ****         1.0586  -0.3571  -0.3482 C.ar           1 S1                 0.0000
     13 ****        -0.3495  -0.1584  -0.2880 C.ar           1 S1                 0.0000
     14 ****        -0.6559   0.7432   0.7250 N.2            1 S1                 0.0000
     15 ****         0.5036   1.0611   1.2312 C.2            1 S1                 0.0000
     16 ****         1.5881   0.4531   0.6408 N.pl3          1 S1                 0.0000
     17 ****         2.9868   0.6268   0.9995 C.3            1 S1                 0.0000
     18 ****         3.6616   1.8199   0.2820 C.3            1 S1                 0.0000
     19 ****         3.6207   1.5891  -1.1172 O.3            1 S1                 0.0000
     20 ****         3.0062   3.1642   0.5647 C.3            1 S1                 0.0000
     21 ****         4.1407   4.1461   0.3030 C.3            1 S1                 0.0000
     22 ****         5.3033   3.4833   0.7806 O.3            1 S1                 0.0000
     23 ****         5.1111   2.0692   0.7575 C.3            1 S1                 0.0000
     24 ****         6.2269   1.3806  -0.0448 C.3            1 S1                 0.0000
     25 ****        -3.1264   0.4502  -1.3524 C.3            1 S1                 0.0000
     26 ****        -4.6212   0.3406  -1.7085 C.3            1 S1                 0.0000
     27 ****        -2.4520   1.4272  -2.3402 C.3            1 S1                 0.0000
     28 ****        -4.8251  -5.4719   1.9234 H              1 S1                 0.0000
     29 ****        -4.6593  -4.6000   3.4552 H              1 S1                 0.0000
     30 ****        -3.4968  -5.8578   3.0240 H              1 S1                 0.0000
     31 ****        -4.8367  -2.7654   1.7900 H              1 S1                 0.0000
     32 ****        -3.8023  -0.8498   1.1114 H              1 S1                 0.0000
     33 ****        -2.2279  -1.5659   1.3606 H              1 S1                 0.0000
     34 ****        -2.5120  -2.8941  -0.7815 H              1 S1                 0.0000
     35 ****        -4.0710  -2.1847  -1.0281 H              1 S1                 0.0000
     36 ****         1.3282  -2.4924  -2.7319 H              1 S1                 0.0000
     37 ****         0.6004   1.7557   2.0527 H              1 S1                 0.0000
     38 ****         3.0408   0.7563   2.0813 H              1 S1                 0.0000
     39 ****         3.5204  -0.2983   0.7772 H              1 S1                 0.0000
     40 ****         4.0542   2.3073  -1.5519 H              1 S1                 0.0000
     41 ****         2.1214   3.3598  -0.0428 H              1 S1                 0.0000
     42 ****         2.7135   3.2273   1.6136 H              1 S1                 0.0000
     43 ****         4.2507   4.3310  -0.7664 H              1 S1                 0.0000
     44 ****         3.9923   5.1045   0.8007 H              1 S1                 0.0000
     45 ****         5.1969   1.7499   1.7971 H              1 S1                 0.0000
     46 ****         6.0758   0.3016  -0.0794 H              1 S1                 0.0000
     47 ****         7.1994   1.5648   0.4120 H              1 S1                 0.0000
     48 ****         6.2728   1.7493  -1.0697 H              1 S1                 0.0000
     49 ****        -3.0610   0.8826  -0.3541 H              1 S1                 0.0000
     50 ****        -5.0814   1.3268  -1.7738 H              1 S1                 0.0000
     51 ****        -5.1795  -0.2142  -0.9546 H              1 S1                 0.0000
     52 ****        -4.7655  -0.1557  -2.6687 H              1 S1                 0.0000
     53 ****        -2.9804   2.3805  -2.3678 H              1 S1                 0.0000
     54 ****        -2.4488   1.0234  -3.3532 H              1 S1                 0.0000
     55 ****        -1.4210   1.6515  -2.0686 H              1 S1                 0.0000
     56 ****        -1.6480  -5.0983   2.0111 LP             1 S1                 0.0000
     57 ****        -1.4829  -3.5418   1.2695 LP             1 S1                 0.0000
     58 ****        -2.6984  -1.0612  -2.2839 LP             1 S1                 0.0000
     59 ****        -0.9662  -2.2730  -2.7425 LP             1 S1                 0.0000
     60 ****         2.7149  -1.2971  -1.2265 LP             1 S1                 0.0000
     61 ****        -1.5586   1.0726   1.0021 LP             1 S1                 0.0000
     62 ****         2.6700   1.5343  -1.4225 LP             1 S1                 0.0000
     63 ****         4.0896   0.7323  -1.3317 LP             1 S1                 0.0000
     64 ****         5.4880   3.7760   1.7188 LP             1 S1                 0.0000
     65 ****         6.0809   3.7202   0.1983 LP             1 S1                 0.0000
@<TRIPOS>BOND
    1    1    2 1     
    2    1   28 1     
    3    1   29 1     
    4    1   30 1     
    5    2    3 2     
    6    2    4 am    
    7    4    5 1     
    8    4   31 1     
    9    5    6 1     
   10    5   32 1     
   11    5   33 1     
   12    6    7 1     
   13    6   34 1     
   14    6   35 1     
   15    7    8 1     
   16    7   25 1     
   17    8   13 ar    
   18    8    9 ar    
   19    9   10 ar    
   20   10   11 ar    
   21   10   36 1     
   22   11   12 ar    
   23   12   16 1     
   24   12   13 ar    
   25   13   14 1     
   26   14   15 2     
   27   15   16 1     
   28   15   37 1     
   29   16   17 1     
   30   17   18 1     
   31   17   38 1     
   32   17   39 1     
   33   18   23 1     
   34   18   19 1     
   35   18   20 1     
   36   19   40 1     
   37   20   21 1     
   38   20   41 1     
   39   20   42 1     
   40   21   22 1     
   41   21   43 1     
   42   21   44 1     
   43   22   23 1     
   44   23   24 1     
   45   23   45 1     
   46   24   46 1     
   47   24   47 1     
   48   24   48 1     
   49   25   26 1     
   50   25   27 1     
   51   25   49 1     
   52   26   50 1     
   53   26   51 1     
   54   26   52 1     
   55   27   53 1     
   56   27   54 1     
   57   27   55 1     
   58    3   56 1     
   59    3   57 1     
   60    7   58 1     
   61    9   59 1     
   62   11   60 1     
   63   14   61 1     
   64   19   62 1     
   65   19   63 1     
   66   22   64 1     
   67   22   65 1     
@<TRIPOS>SUBSTRUCTURE
      1 S1             1
@<TRIPOS>SET
LONE_PAIRS      STATIC     ATOMS    <user>   **** ""
10 56 57 58 59 60 61 62 63 64 65
DONOR_HYDROGENS      STATIC     ATOMS    <user>   **** ""
2 31 40
ATOM$BLUE        STATIC     ATOMS    COLORGROUP SYSTEM
10 56 57 58 59 60 61 62 63 64 65
ATOM$RED        STATIC     ATOMS    COLORGROUP SYSTEM
2 31 40
