AV-unprocessed.smi:1830|AV-procd|sdf|7452|dock6
  -GOLD-   22720 9143D 1   1.00000     0.00000
 Structure written by MMmdl.
 53 56  0  0  0  0  0  0  0  0  2 V2000
  153.4279  136.4509  160.6276 O   0  0  0  0  0  0  0  0  0  0  0  0
  153.9686  137.4633  161.0718 C   0  0  0  0  0  0  0  0  0  0  0  0
  153.6290  138.7062  160.7034 N   0  0  0  0  0  0  0  0  0  0  0  0
  152.5649  139.0381  159.7619 C   0  0  0  0  0  0  0  0  0  0  0  0
  152.0016  140.4483  160.0098 C   0  0  2  0  0  0  0  0  0  0  0  0
  151.0638  140.9053  158.8697 C   0  0  0  0  0  0  0  0  0  0  0  0
  150.6486  142.2759  159.0967 N   0  0  0  0  0  0  0  0  0  0  0  0
  149.8233  142.8876  158.0816 C   0  0  0  0  0  0  0  0  0  0  0  0
  149.9024  144.3941  158.3856 C   0  0  0  0  0  0  0  0  0  0  0  0
  151.1791  144.5481  159.2421 C   0  0  0  0  0  0  0  0  0  0  0  0
  151.7892  143.1464  159.1928 C   0  0  1  0  0  0  0  0  0  0  0  0
  152.7005  142.7232  160.3540 C   0  0  0  0  0  0  0  0  0  0  0  0
  153.0958  141.3667  160.1324 O   0  0  0  0  0  0  0  0  0  0  0  0
  154.9476  137.4800  161.9915 N   0  0  0  0  0  0  0  0  0  0  0  0
  155.5168  136.3808  162.6962 C   0  0  0  0  0  0  0  0  0  0  0  0
  155.0208  135.0609  162.5346 C   0  0  0  0  0  0  0  0  0  0  0  0
  155.5852  134.0015  163.2693 C   0  0  0  0  0  0  0  0  0  0  0  0
  156.6428  134.2749  164.1529 C   0  0  0  0  0  0  0  0  0  0  0  0
  157.1082  135.5356  164.2674 N   0  3  0  0  0  0  0  0  0  0  0  0
  156.6180  136.5954  163.5766 C   0  0  0  0  0  0  0  0  0  0  0  0
  157.2217  137.8559  163.7924 N   0  0  0  0  0  0  0  0  0  0  0  0
  156.4857  138.9209  164.4643 C   0  0  0  0  0  0  0  0  0  0  0  0
  157.5391  139.9631  164.8286 C   0  0  0  0  0  0  0  0  0  0  0  0
  158.7561  139.1009  165.1485 C   0  0  0  0  0  0  0  0  0  0  0  0
  158.6264  137.9164  164.1851 C   0  0  0  0  0  0  0  0  0  0  0  0
  154.1212  139.4824  161.1209 H   0  0  0  0  0  0  0  0  0  0  0  0
  152.9669  138.9690  158.7507 H   0  0  0  0  0  0  0  0  0  0  0  0
  151.7697  138.2939  159.8310 H   0  0  0  0  0  0  0  0  0  0  0  0
  151.4398  140.4550  160.9454 H   0  0  0  0  0  0  0  0  0  0  0  0
  151.5786  140.8254  157.9109 H   0  0  0  0  0  0  0  0  0  0  0  0
  150.1895  140.2559  158.8171 H   0  0  0  0  0  0  0  0  0  0  0  0
  150.2344  142.6873  157.0908 H   0  0  0  0  0  0  0  0  0  0  0  0
  148.8022  142.5059  158.1083 H   0  0  0  0  0  0  0  0  0  0  0  0
  149.9536  144.9772  157.4658 H   0  0  0  0  0  0  0  0  0  0  0  0
  149.0275  144.7267  158.9453 H   0  0  0  0  0  0  0  0  0  0  0  0
  151.8585  145.3072  158.8538 H   0  0  0  0  0  0  0  0  0  0  0  0
  150.9148  144.8189  160.2652 H   0  0  0  0  0  0  0  0  0  0  0  0
  152.3678  143.0712  158.2694 H   0  0  0  0  0  0  0  0  0  0  0  0
  153.5869  143.3558  160.4000 H   0  0  0  0  0  0  0  0  0  0  0  0
  152.1856  142.8097  161.3121 H   0  0  0  0  0  0  0  0  0  0  0  0
  155.2319  138.3939  162.3117 H   0  0  0  0  0  0  0  0  0  0  0  0
  154.2148  134.8390  161.8520 H   0  0  0  0  0  0  0  0  0  0  0  0
  155.2091  132.9951  163.1574 H   0  0  0  0  0  0  0  0  0  0  0  0
  157.1340  133.5287  164.7606 H   0  0  0  0  0  0  0  0  0  0  0  0
  155.7093  139.3371  163.8219 H   0  0  0  0  0  0  0  0  0  0  0  0
  156.0158  138.5442  165.3738 H   0  0  0  0  0  0  0  0  0  0  0  0
  157.7494  140.5999  163.9680 H   0  0  0  0  0  0  0  0  0  0  0  0
  157.2364  140.6020  165.6586 H   0  0  0  0  0  0  0  0  0  0  0  0
  159.6991  139.6365  165.0367 H   0  0  0  0  0  0  0  0  0  0  0  0
  158.6919  138.7455  166.1778 H   0  0  0  0  0  0  0  0  0  0  0  0
  158.9654  136.9894  164.6499 H   0  0  0  0  0  0  0  0  0  0  0  0
  159.2317  138.0936  163.2955 H   0  0  0  0  0  0  0  0  0  0  0  0
  157.8839  135.7002  164.9091 H   0  0  0  0  0  0  0  0  0  0  0  0
  1  2  2  0  0  0  0
  2  3  1  0  0  0  0
  2 14  1  0  0  0  0
  3  4  1  0  0  0  0
  3 26  1  0  0  0  0
  4  5  1  0  0  0  0
  4 27  1  0  0  0  0
  4 28  1  0  0  0  0
  5 13  1  0  0  0  0
  5  6  1  0  0  0  0
  5 29  1  0  0  0  0
  6  7  1  0  0  0  0
  6 30  1  0  0  0  0
  6 31  1  0  0  0  0
  7 11  1  0  0  0  0
  7  8  1  0  0  0  0
  8  9  1  0  0  0  0
  8 32  1  0  0  0  0
  8 33  1  0  0  0  0
  9 10  1  0  0  0  0
  9 34  1  0  0  0  0
  9 35  1  0  0  0  0
 10 11  1  0  0  0  0
 10 36  1  0  0  0  0
 10 37  1  0  0  0  0
 11 12  1  0  0  0  0
 11 38  1  0  0  0  0
 12 13  1  0  0  0  0
 12 39  1  0  0  0  0
 12 40  1  0  0  0  0
 14 15  1  0  0  0  0
 14 41  1  0  0  0  0
 15 20  1  0  0  0  0
 15 16  2  0  0  0  0
 16 17  1  0  0  0  0
 16 42  1  0  0  0  0
 17 18  2  0  0  0  0
 17 43  1  0  0  0  0
 18 19  1  0  0  0  0
 18 44  1  0  0  0  0
 19 20  2  0  0  0  0
 19 53  1  0  0  0  0
 20 21  1  0  0  0  0
 21 25  1  0  0  0  0
 21 22  1  0  0  0  0
 22 23  1  0  0  0  0
 22 45  1  0  0  0  0
 22 46  1  0  0  0  0
 23 24  1  0  0  0  0
 23 47  1  0  0  0  0
 23 48  1  0  0  0  0
 24 25  1  0  0  0  0
 24 49  1  0  0  0  0
 24 50  1  0  0  0  0
 25 51  1  0  0  0  0
 25 52  1  0  0  0  0
M  CHG  1  19   1
M  END
> <s_m_source_file>
AV-unprocessed.smi

> <i_m_source_file_index>
1830

> <i_lp_mmshare_version>
43012

> <i_f3d_flags>
0

> <s_epik_input>
W0NIMl0xW0NIMl1bQ0gyXVtDQEhdKE4xMilbQ0gyXU9bQ0BASF0oW0NIMl0yKVtDSDJdW05IXUMoPU8pW05IXWMzW2NIXVtjSF1bY0hdbmMzTjRbQ0gyXVtDSDJdW0NIMl1bQ0gyXTQ=

> <s_epik_cmdline>
J2VwaWtfcHl0aG9uJywgJy1waCcsICc3LjAnLCAnLXRuJywgJzgnLCAnLW1hJywgJzIwMCcsICctbWV0YWxfYmluZGluZycsICctaW1hZScsICc8aW5maWxlLm1hZT4nLCAnLW9tYWUnLCAnPG91dGZpbGUubWFlPic=

> <r_epik_Ionization_Penalty>
2.19264

> <r_epik_Ionization_Penalty_Charging>
1.12452

> <r_epik_Ionization_Penalty_Neutral>
1.06812

> <r_epik_State_Penalty>
2.334

> <r_epik_Charging_Adjusted_Penalty>
3.45852

> <i_epik_Tot_Q>
1

> <i_epik_Tot_abs_Q>
1

> <r_epik_Metal_State_Penalty>
2.41144

> <b_epik_Metal_Only>
0

> <s_lp_Force_Field>
OPLS_2005

> <r_lp_Energy>
81.6261

> <b_lp_Chiralities_Consistent>
1

> <s_lp_Variant>
AV-unprocessed.smi:1830-21

> <Gold.Version>
5.8.1

> <Gold.Id.Protein>
6NUR|6NUR_protein|mol2

> <Gold.PLP.Fitness>
43.5466

> <Gold.PLP.PLP>
-41.4986

> <Gold.PLP.part.hbond>
-1.6303

> <Gold.PLP.part.metal>
0.0000

> <Gold.PLP.part.buried>
-6.6035

> <Gold.PLP.part.nonpolar>
-33.6361

> <Gold.PLP.part.repulsive>
0.1102

> <Gold.PLP.ligand.clash>
0.0000

> <Gold.PLP.ligand.torsion>
0.6720

> <Gold.PLP.Chemscore.Hbond>
1.0000

> <Gold.PLP.Chemscore.CHOScore>
0.0000

> <Gold.PLP.Chemscore.Metal>
0.0000

> <Gold.Chemscore.Hbonds>
donor molecule, donor type, donor heavy atom, donor atom, acceptor molecule, acceptor atom, score
      P1  H  6896  6909       L1     1  0.94

> <Gold.PLP.Chemscore.Internal.Correction>
0.3920

> <Gold.Rescore>
     Score         DG    S(hbond)    S(metal)    S(lipo)     H(rot)  DE(clash)    DE(int)     intcor
     16.73     -18.70       1.00        0.00     115.03       1.40       0.17       1.80       ----

> <Gold.Chemscore.Fitness>
16.7292

> <Gold.Chemscore.DG>
-18.7036

> <Gold.Chemscore.ZeroCoef>
-5.4800

> <Gold.Chemscore.Hbond>
0.9995

> <Gold.Chemscore.Metal>
0.0000

> <Gold.Chemscore.Lipo>
115.0324

> <Gold.Chemscore.Internal_Hbond>
0.0000

> <Gold.Chemscore.DEClash>
0.1701

> <Gold.Chemscore.DEInternal>
1.8043

> <Gold.Chemscore.Rot>
1.3959

> <Gold.Chemscore.Internal.Correction>
   9.000000E+99

> <Gold.Chemscore.Hbonds>
donor molecule, donor type, donor heavy atom, donor atom, acceptor molecule, acceptor atom, score
      P1  H  6896  6909       L1     1  0.89

> <Gold.Chemscore.Hbond.Weighted>
-3.3384

> <Gold.Chemscore.Metal.Weighted>
-0.0000

> <Gold.Chemscore.Lipo.Weighted>
-13.4588

> <Gold.Chemscore.Internal_Hbond.Weighted>
0.0000

> <Gold.Chemscore.DEClash.Weighted>
0.1701

> <Gold.Chemscore.DEInternal.Weighted>
1.8043

> <Gold.Chemscore.Rot.Weighted>
3.5736

> <Gold.Chemscore.Internal.Correction.Weighted>
   9.000000E+99

> <Gold.Protein.RotatedTorsions>
[ 6907 6896 6895 6894 ] final  172.03 input  -60.11 | X-H torsion
[ 7974 7965 7964 7962 ] final -176.66 input  175.53 | X-H torsion
[ 8008 7997 7996 7995 ] final   26.54 input   59.86 | X-H torsion
[ 10167 10162 10161 10158 ] final  -62.30 input  -65.29 | X-H torsion
[ 10718 10713 10712 10709 ] final    8.70 input   66.30 | X-H torsion
[ 10763 10752 10751 10750 ] final  -29.70 input  -60.55 | X-H torsion
[ 11005 11000 10999 10996 ] final  121.31 input  -57.11 | X-H torsion

> <Gold.Protein.ActiveResidues>
 VAL166  LYS551  ARG553  GLY616  TRP617  ASP618  TYR619  PRO620  LYS621  CYS622 
 ASP623  PHE694  ASN695  SER759  ASP760  ASP761  ALA762  ILE779  LEU786  VAL792 
 PHE793  MET794  SER795  GLU796  ALA797  LYS798  CYS799  TRP800  GLU811  SER814 

> <Gold.Protein.RotatedAtoms>
  151.7908  133.3359  159.3498 H   0  0  0  0  0  0  0  0  0  0  0  0  # atno 6907 bound_to 6896
  150.7392  134.5844  159.5965 H   0  0  0  0  0  0  0  0  0  0  0  0  # atno 6908 bound_to 6896
  152.3211  134.7380  160.0364 H   0  0  0  0  0  0  0  0  0  0  0  0  # atno 6909 bound_to 6896
  144.7127  140.1136  143.6409 H   0  0  0  0  0  0  0  0  0  0  0  0  # atno 7974 bound_to 7965
  155.0288  140.3156  155.4766 H   0  0  0  0  0  0  0  0  0  0  0  0  # atno 8008 bound_to 7997
  156.2878  140.2184  156.5351 H   0  0  0  0  0  0  0  0  0  0  0  0  # atno 8009 bound_to 7997
  154.7388  140.0475  157.0780 H   0  0  0  0  0  0  0  0  0  0  0  0  # atno 8010 bound_to 7997
  140.5948  143.2348  151.6059 H   0  0  0  0  0  0  0  0  0  0  0  0  # atno 10167 bound_to 10162
  156.9555  130.5913  149.5659 H   0  0  0  0  0  0  0  0  0  0  0  0  # atno 10718 bound_to 10713
  153.7689  135.6914  153.4910 H   0  0  0  0  0  0  0  0  0  0  0  0  # atno 10763 bound_to 10752
  153.1888  135.4479  155.0121 H   0  0  0  0  0  0  0  0  0  0  0  0  # atno 10764 bound_to 10752
  154.8125  135.3384  154.7200 H   0  0  0  0  0  0  0  0  0  0  0  0  # atno 10765 bound_to 10752
  139.9220  134.9638  156.7938 H   0  0  0  0  0  0  0  0  0  0  0  0  # atno 11005 bound_to 11000
  145.9433  139.2683  143.1256 LP  0  0  0  0  0  0  0  0  0  0  0  0  # atno 17320 bound_to 7965
  145.9401  140.8986  143.0312 LP  0  0  0  0  0  0  0  0  0  0  0  0  # atno 17321 bound_to 7965
  139.5251  144.3084  152.1014 LP  0  0  0  0  0  0  0  0  0  0  0  0  # atno 17342 bound_to 10162
  140.2254  144.4423  150.6323 LP  0  0  0  0  0  0  0  0  0  0  0  0  # atno 17343 bound_to 10162
  156.0344  130.5433  150.8617 LP  0  0  0  0  0  0  0  0  0  0  0  0  # atno 17370 bound_to 10713
  157.5693  131.0946  150.9442 LP  0  0  0  0  0  0  0  0  0  0  0  0  # atno 17371 bound_to 10713
  140.6445  133.9788  155.7724 LP  0  0  0  0  0  0  0  0  0  0  0  0  # atno 17394 bound_to 11000
  141.0749  134.0150  157.3472 LP  0  0  0  0  0  0  0  0  0  0  0  0  # atno 17395 bound_to 11000

$$$$
