AV-unprocessed.smi:2061|AV-procd|sdf|8376|dock10
  -GOLD-   2272011 53D 1   1.00000     0.00000
 Structure written by MMmdl.
 44 45  0  0  0  0  0  0  0  0  2 V2000
  142.7143  135.2413  162.6828 C   0  0  0  0  0  0  0  0  0  0  0  0
  144.0854  134.8968  162.2105 C   0  0  0  0  0  0  0  0  0  0  0  0
  145.1945  135.6513  161.9522 C   0  0  0  0  0  0  0  0  0  0  0  0
  146.1541  134.6873  161.5381 C   0  0  0  0  0  0  0  0  0  0  0  0
  147.4151  134.9429  161.1571 N   0  5  0  0  0  0  0  0  0  0  0  0
  147.7505  136.1663  160.6864 C   0  0  0  0  0  0  0  0  0  0  0  0
  147.2804  137.2456  161.0541 O   0  0  0  0  0  0  0  0  0  0  0  0
  148.6853  136.1371  159.7255 N   0  0  0  0  0  0  0  0  0  0  0  0
  149.2259  137.2973  159.0203 C   0  0  0  0  0  0  0  0  0  0  0  0
  149.3012  137.1072  157.4763 C   0  0  2  0  0  0  0  0  0  0  0  0
  149.5886  135.6146  157.1710 C   0  0  0  0  0  0  0  0  0  0  0  0
  150.2638  138.0210  156.8160 N   0  0  0  0  0  0  0  0  0  0  0  0
  150.4028  137.7454  155.3812 C   0  0  0  0  0  0  0  0  0  0  0  0
  151.3773  138.6965  154.6579 C   0  0  2  0  0  0  0  0  0  0  0  0
  152.8557  138.4087  154.9707 C   0  0  0  0  0  0  0  0  0  0  0  0
  151.0327  140.0551  154.9185 O   0  0  0  0  0  0  0  0  0  0  0  0
  150.9112  140.3837  156.2980 C   0  0  1  0  0  0  0  0  0  0  0  0
  150.4764  141.8496  156.3997 C   0  0  0  0  0  0  0  0  0  0  0  0
  149.9028  139.4336  156.9687 C   0  0  0  0  0  0  0  0  0  0  0  0
  145.6649  133.4586  161.5291 N   0  0  0  0  0  0  0  0  0  0  0  0
  144.3406  133.5834  161.9656 O   0  0  0  0  0  0  0  0  0  0  0  0
  142.1478  135.7334  161.8924 H   0  0  0  0  0  0  0  0  0  0  0  0
  142.7592  135.9156  163.5380 H   0  0  0  0  0  0  0  0  0  0  0  0
  142.1668  134.3484  162.9858 H   0  0  0  0  0  0  0  0  0  0  0  0
  145.3049  136.7210  162.0467 H   0  0  0  0  0  0  0  0  0  0  0  0
  149.0439  135.2327  159.4565 H   0  0  0  0  0  0  0  0  0  0  0  0
  148.6040  138.1461  159.3012 H   0  0  0  0  0  0  0  0  0  0  0  0
  150.2206  137.5004  159.4177 H   0  0  0  0  0  0  0  0  0  0  0  0
  148.3095  137.3262  157.0777 H   0  0  0  0  0  0  0  0  0  0  0  0
  148.9133  134.9433  157.7004 H   0  0  0  0  0  0  0  0  0  0  0  0
  150.6063  135.3438  157.4531 H   0  0  0  0  0  0  0  0  0  0  0  0
  149.4537  135.3736  156.1177 H   0  0  0  0  0  0  0  0  0  0  0  0
  150.7579  136.7305  155.2125 H   0  0  0  0  0  0  0  0  0  0  0  0
  149.4235  137.8154  154.9050 H   0  0  0  0  0  0  0  0  0  0  0  0
  151.2481  138.5521  153.5850 H   0  0  0  0  0  0  0  0  0  0  0  0
  153.1313  137.4050  154.6462 H   0  0  0  0  0  0  0  0  0  0  0  0
  153.0703  138.4750  156.0370 H   0  0  0  0  0  0  0  0  0  0  0  0
  153.5068  139.1134  154.4531 H   0  0  0  0  0  0  0  0  0  0  0  0
  151.8826  140.2824  156.7828 H   0  0  0  0  0  0  0  0  0  0  0  0
  150.3756  142.1575  157.4408 H   0  0  0  0  0  0  0  0  0  0  0  0
  149.5168  142.0115  155.9078 H   0  0  0  0  0  0  0  0  0  0  0  0
  151.2077  142.5067  155.9286 H   0  0  0  0  0  0  0  0  0  0  0  0
  148.9050  139.6058  156.5615 H   0  0  0  0  0  0  0  0  0  0  0  0
  149.8680  139.7108  158.0197 H   0  0  0  0  0  0  0  0  0  0  0  0
  1  2  1  0  0  0  0
  1 22  1  0  0  0  0
  1 23  1  0  0  0  0
  1 24  1  0  0  0  0
  2 21  1  0  0  0  0
  2  3  2  0  0  0  0
  3  4  1  0  0  0  0
  3 25  1  0  0  0  0
  4  5  1  0  0  0  0
  4 20  2  0  0  0  0
  5  6  1  0  0  0  0
  6  7  2  0  0  0  0
  6  8  1  0  0  0  0
  8  9  1  0  0  0  0
  8 26  1  0  0  0  0
  9 10  1  0  0  0  0
  9 27  1  0  0  0  0
  9 28  1  0  0  0  0
 10 11  1  0  0  0  0
 10 12  1  0  0  0  0
 10 29  1  0  0  0  0
 11 30  1  0  0  0  0
 11 31  1  0  0  0  0
 11 32  1  0  0  0  0
 12 19  1  0  0  0  0
 12 13  1  0  0  0  0
 13 14  1  0  0  0  0
 13 33  1  0  0  0  0
 13 34  1  0  0  0  0
 14 15  1  0  0  0  0
 14 16  1  0  0  0  0
 14 35  1  0  0  0  0
 15 36  1  0  0  0  0
 15 37  1  0  0  0  0
 15 38  1  0  0  0  0
 16 17  1  0  0  0  0
 17 18  1  0  0  0  0
 17 19  1  0  0  0  0
 17 39  1  0  0  0  0
 18 40  1  0  0  0  0
 18 41  1  0  0  0  0
 18 42  1  0  0  0  0
 19 43  1  0  0  0  0
 19 44  1  0  0  0  0
 20 21  1  0  0  0  0
M  CHG  1   5  -1
M  END
> <s_m_source_file>
AV-unprocessed.smi

> <i_m_source_file_index>
2061

> <i_lp_mmshare_version>
43012

> <i_f3d_flags>
0

> <s_epik_input>
W0NIM11jMVtjSF1jKG5vMSlbTkhdQyg9TylbTkhdW0NIMl1bQ0BIXShbQ0gzXSlOMltDSDJdW0NAQEhdKFtDSDNdKU9bQ0BASF0oW0NIM10pW0NIMl0y

> <s_epik_cmdline>
J2VwaWtfcHl0aG9uJywgJy1waCcsICc3LjAnLCAnLXRuJywgJzgnLCAnLW1hJywgJzIwMCcsICctbWV0YWxfYmluZGluZycsICctaW1hZScsICc8aW5maWxlLm1hZT4nLCAnLW9tYWUnLCAnPG91dGZpbGUubWFlPic=

> <r_epik_Ionization_Penalty>
6.88367

> <r_epik_Ionization_Penalty_Charging>
6.57198

> <r_epik_Ionization_Penalty_Neutral>
0.311681

> <r_epik_State_Penalty>
6.77619

> <r_epik_Charging_Adjusted_Penalty>
13.3482

> <i_epik_Tot_Q>
-1

> <i_epik_Tot_abs_Q>
1

> <r_epik_Metal_State_Penalty>
2.70524

> <b_epik_Metal_Only>
1

> <s_lp_Force_Field>
OPLS_2005

> <r_lp_Energy>
24.3932

> <b_lp_Chiralities_Consistent>
1

> <s_lp_Variant>
AV-unprocessed.smi:2061-17

> <Gold.Version>
5.8.1

> <Gold.Id.Protein>
6NUR|6NUR_protein|mol2

> <Gold.PLP.Fitness>
39.7897

> <Gold.PLP.PLP>
-32.6230

> <Gold.PLP.part.hbond>
-3.0000

> <Gold.PLP.part.metal>
0.0000

> <Gold.PLP.part.buried>
-7.2498

> <Gold.PLP.part.nonpolar>
-23.5915

> <Gold.PLP.part.repulsive>
0.3427

> <Gold.PLP.ligand.clash>
0.0000

> <Gold.PLP.ligand.torsion>
0.7514

> <Gold.PLP.Chemscore.Hbond>
2.8720

> <Gold.PLP.Chemscore.CHOScore>
0.0000

> <Gold.PLP.Chemscore.Metal>
0.0000

> <Gold.Chemscore.Hbonds>
donor molecule, donor type, donor heavy atom, donor atom, acceptor molecule, acceptor atom, score
      P1  H  6931  6943       L1     7  0.48
      P1  H  6934  6947       L1     7  1.00
      P1  H  7989  7998       L1    16  1.00

> <Gold.PLP.Chemscore.Internal.Correction>
0.0536

> <Gold.Rescore>
     Score         DG    S(hbond)    S(metal)    S(lipo)     H(rot)  DE(clash)    DE(int)     intcor
     15.69     -18.14       2.64        0.00      65.99       1.52       0.08       2.37       ----

> <Gold.Chemscore.Fitness>
15.6917

> <Gold.Chemscore.DG>
-18.1444

> <Gold.Chemscore.ZeroCoef>
-5.4800

> <Gold.Chemscore.Hbond>
2.6444

> <Gold.Chemscore.Metal>
0.0000

> <Gold.Chemscore.Lipo>
65.9902

> <Gold.Chemscore.Internal_Hbond>
0.0000

> <Gold.Chemscore.DEClash>
0.0850

> <Gold.Chemscore.DEInternal>
2.3677

> <Gold.Chemscore.Rot>
1.5190

> <Gold.Chemscore.Internal.Correction>
   9.000000E+99

> <Gold.Chemscore.Hbonds>
donor molecule, donor type, donor heavy atom, donor atom, acceptor molecule, acceptor atom, score
      P1  H  6931  6943       L1     7  0.19
      P1  H  6934  6947       L1     7  0.98
      P1  H  7989  7998       L1    16  0.35

> <Gold.Chemscore.Hbond.Weighted>
-8.8322

> <Gold.Chemscore.Metal.Weighted>
-0.0000

> <Gold.Chemscore.Lipo.Weighted>
-7.7209

> <Gold.Chemscore.Internal_Hbond.Weighted>
0.0000

> <Gold.Chemscore.DEClash.Weighted>
0.0850

> <Gold.Chemscore.DEInternal.Weighted>
2.3677

> <Gold.Chemscore.Rot.Weighted>
3.8886

> <Gold.Chemscore.Internal.Correction.Weighted>
   9.000000E+99

> <Gold.Protein.RotatedTorsions>
[ 6907 6896 6895 6894 ] final   15.36 input  -60.11 | X-H torsion
[ 7974 7965 7964 7962 ] final -150.27 input  175.53 | X-H torsion
[ 8008 7997 7996 7995 ] final  -31.49 input   59.86 | X-H torsion
[ 10167 10162 10161 10158 ] final  176.24 input  -65.29 | X-H torsion
[ 10718 10713 10712 10709 ] final  165.37 input   66.30 | X-H torsion
[ 10763 10752 10751 10750 ] final  158.07 input  -60.55 | X-H torsion
[ 11005 11000 10999 10996 ] final  -71.37 input  -57.11 | X-H torsion

> <Gold.Protein.ActiveResidues>
 VAL166  LYS551  ARG553  GLY616  TRP617  ASP618  TYR619  PRO620  LYS621  CYS622 
 ASP623  PHE694  ASN695  SER759  ASP760  ASP761  ALA762  ILE779  LEU786  VAL792 
 PHE793  MET794  SER795  GLU796  ALA797  LYS798  CYS799  TRP800  GLU811  SER814 

> <Gold.Protein.RotatedAtoms>
  151.8169  135.0663  160.0419 H   0  0  0  0  0  0  0  0  0  0  0  0  # atno 6907 bound_to 6896
  152.2979  133.5622  159.5608 H   0  0  0  0  0  0  0  0  0  0  0  0  # atno 6908 bound_to 6896
  150.7260  134.0250  159.3756 H   0  0  0  0  0  0  0  0  0  0  0  0  # atno 6909 bound_to 6896
  144.7917  140.4954  143.5768 H   0  0  0  0  0  0  0  0  0  0  0  0  # atno 7974 bound_to 7965
  154.4212  140.1763  156.1575 H   0  0  0  0  0  0  0  0  0  0  0  0  # atno 8008 bound_to 7997
  155.9865  140.3373  155.6688 H   0  0  0  0  0  0  0  0  0  0  0  0  # atno 8009 bound_to 7997
  155.6430  140.0682  157.2603 H   0  0  0  0  0  0  0  0  0  0  0  0  # atno 8010 bound_to 7997
  139.5207  144.2938  152.0440 H   0  0  0  0  0  0  0  0  0  0  0  0  # atno 10167 bound_to 10162
  157.0810  131.0392  151.2575 H   0  0  0  0  0  0  0  0  0  0  0  0  # atno 10718 bound_to 10713
  154.2102  135.2786  155.2961 H   0  0  0  0  0  0  0  0  0  0  0  0  # atno 10763 bound_to 10752
  154.5785  135.5597  153.7165 H   0  0  0  0  0  0  0  0  0  0  0  0  # atno 10764 bound_to 10752
  153.0066  135.6339  154.2241 H   0  0  0  0  0  0  0  0  0  0  0  0  # atno 10765 bound_to 10752
  141.1591  133.6816  156.6896 H   0  0  0  0  0  0  0  0  0  0  0  0  # atno 11005 bound_to 11000
  145.5776  139.1487  143.3253 LP  0  0  0  0  0  0  0  0  0  0  0  0  # atno 17320 bound_to 7965
  146.2172  140.5907  142.9033 LP  0  0  0  0  0  0  0  0  0  0  0  0  # atno 17321 bound_to 7965
  140.2388  144.4291  150.6269 LP  0  0  0  0  0  0  0  0  0  0  0  0  # atno 17342 bound_to 10162
  140.6305  143.2187  151.6506 LP  0  0  0  0  0  0  0  0  0  0  0  0  # atno 17343 bound_to 10162
  157.4800  130.7759  149.7404 LP  0  0  0  0  0  0  0  0  0  0  0  0  # atno 17370 bound_to 10713
  155.9923  130.3931  150.2946 LP  0  0  0  0  0  0  0  0  0  0  0  0  # atno 17371 bound_to 10713
  140.3041  134.8140  157.4122 LP  0  0  0  0  0  0  0  0  0  0  0  0  # atno 17394 bound_to 11000
  140.1236  134.5187  155.8163 LP  0  0  0  0  0  0  0  0  0  0  0  0  # atno 17395 bound_to 11000

$$$$
