AV-unprocessed.smi:2100|AV-procd|sdf|8576|dock1
  -GOLD-   2272011303D 1   1.00000     0.00000
 Structure written by MMmdl.
 40 41  0  0  0  0  0  0  0  0  2 V2000
  148.4664  137.0441  158.9533 C   0  0  0  0  0  0  0  0  0  0  0  0
  149.5638  136.7000  157.9405 C   0  0  2  0  0  0  0  0  0  0  0  0
  150.0761  137.9497  157.2064 C   0  0  0  0  0  0  0  0  0  0  0  0
  151.0404  137.5847  156.1517 N   0  0  0  0  0  0  0  0  0  0  0  0
  151.9924  138.8591  155.4548 S   0  0  0  0  0  0  0  0  0  0  0  0
  153.1242  138.2145  154.7692 O   0  0  0  0  0  0  0  0  0  0  0  0
  151.0586  139.6560  154.6419 O   0  0  0  0  0  0  0  0  0  0  0  0
  152.4281  139.5648  156.8458 N   0  5  0  0  0  0  0  0  0  0  0  0
  151.9502  140.9018  157.1531 C   0  0  0  0  0  0  0  0  0  0  0  0
  151.7667  141.0619  158.6803 C   0  0  0  0  0  0  0  0  0  0  0  0
  151.7026  142.5052  159.1778 C   0  0  0  0  0  0  0  0  0  0  0  0
  152.6051  142.9676  160.1634 C   0  0  0  0  0  0  0  0  0  0  0  0
  152.5099  144.3043  160.5938 C   0  0  0  0  0  0  0  0  0  0  0  0
  151.5281  145.1334  160.0190 C   0  0  0  0  0  0  0  0  0  0  0  0
  150.6814  144.5851  159.0352 C   0  0  0  0  0  0  0  0  0  0  0  0
  150.7621  143.3042  158.6161 N   0  0  0  0  0  0  0  0  0  0  0  0
  150.5166  136.5596  155.2347 C   0  0  0  0  0  0  0  0  0  0  0  0
  149.9422  135.3507  155.9996 C   0  0  1  0  0  0  0  0  0  0  0  0
  151.0266  134.4162  156.5659 C   0  0  0  0  0  0  0  0  0  0  0  0
  149.0233  135.7760  157.0029 O   0  0  0  0  0  0  0  0  0  0  0  0
  148.8340  137.7424  159.7057 H   0  0  0  0  0  0  0  0  0  0  0  0
  148.1193  136.1496  159.4706 H   0  0  0  0  0  0  0  0  0  0  0  0
  147.6063  137.5015  158.4634 H   0  0  0  0  0  0  0  0  0  0  0  0
  150.3864  136.2368  158.4855 H   0  0  0  0  0  0  0  0  0  0  0  0
  149.2464  138.4906  156.7497 H   0  0  0  0  0  0  0  0  0  0  0  0
  150.5340  138.6280  157.9257 H   0  0  0  0  0  0  0  0  0  0  0  0
  152.6526  141.6583  156.8020 H   0  0  0  0  0  0  0  0  0  0  0  0
  151.0045  141.1226  156.6569 H   0  0  0  0  0  0  0  0  0  0  0  0
  150.8668  140.5359  159.0021 H   0  0  0  0  0  0  0  0  0  0  0  0
  152.5932  140.5639  159.1887 H   0  0  0  0  0  0  0  0  0  0  0  0
  153.3438  142.3045  160.5898 H   0  0  0  0  0  0  0  0  0  0  0  0
  153.1780  144.6857  161.3517 H   0  0  0  0  0  0  0  0  0  0  0  0
  151.4261  146.1641  160.3241 H   0  0  0  0  0  0  0  0  0  0  0  0
  149.9186  145.1931  158.5716 H   0  0  0  0  0  0  0  0  0  0  0  0
  149.7382  137.0139  154.6206 H   0  0  0  0  0  0  0  0  0  0  0  0
  151.3001  136.2282  154.5536 H   0  0  0  0  0  0  0  0  0  0  0  0
  149.3601  134.7597  155.2921 H   0  0  0  0  0  0  0  0  0  0  0  0
  151.6213  133.9831  155.7615 H   0  0  0  0  0  0  0  0  0  0  0  0
  150.5791  133.5940  157.1247 H   0  0  0  0  0  0  0  0  0  0  0  0
  151.7164  134.9382  157.2288 H   0  0  0  0  0  0  0  0  0  0  0  0
  1  2  1  0  0  0  0
  1 21  1  0  0  0  0
  1 22  1  0  0  0  0
  1 23  1  0  0  0  0
  2 20  1  0  0  0  0
  2  3  1  0  0  0  0
  2 24  1  0  0  0  0
  3  4  1  0  0  0  0
  3 25  1  0  0  0  0
  3 26  1  0  0  0  0
  4  5  1  0  0  0  0
  4 17  1  0  0  0  0
  5  6  2  0  0  0  0
  5  7  2  0  0  0  0
  5  8  1  0  0  0  0
  8  9  1  0  0  0  0
  9 10  1  0  0  0  0
  9 27  1  0  0  0  0
  9 28  1  0  0  0  0
 10 11  1  0  0  0  0
 10 29  1  0  0  0  0
 10 30  1  0  0  0  0
 11 16  1  0  0  0  0
 11 12  2  0  0  0  0
 12 13  1  0  0  0  0
 12 31  1  0  0  0  0
 13 14  2  0  0  0  0
 13 32  1  0  0  0  0
 14 15  1  0  0  0  0
 14 33  1  0  0  0  0
 15 16  2  0  0  0  0
 15 34  1  0  0  0  0
 17 18  1  0  0  0  0
 17 35  1  0  0  0  0
 17 36  1  0  0  0  0
 18 19  1  0  0  0  0
 18 20  1  0  0  0  0
 18 37  1  0  0  0  0
 19 38  1  0  0  0  0
 19 39  1  0  0  0  0
 19 40  1  0  0  0  0
M  CHG  1   8  -1
M  END
> <s_m_source_file>
AV-unprocessed.smi

> <i_m_source_file_index>
2100

> <i_lp_mmshare_version>
43012

> <i_f3d_flags>
0

> <s_epik_input>
W0NIM11bQ0BASF0xW0NIMl1OKFtDSDJdW0NASF0oTzEpW0NIM10pUyg9TykoPU8pW05IXVtDSDJdW0NIMl1jMltjSF1bY0hdW2NIXVtjSF1uMg==

> <s_epik_cmdline>
J2VwaWtfcHl0aG9uJywgJy1waCcsICc3LjAnLCAnLXRuJywgJzgnLCAnLW1hJywgJzIwMCcsICctbWV0YWxfYmluZGluZycsICctaW1hZScsICc8aW5maWxlLm1hZT4nLCAnLW9tYWUnLCAnPG91dGZpbGUubWFlPic=

> <r_epik_Ionization_Penalty>
1.27779

> <r_epik_Ionization_Penalty_Charging>
1.20871

> <r_epik_Ionization_Penalty_Neutral>
0.0690773

> <r_epik_State_Penalty>
1.64557

> <r_epik_Charging_Adjusted_Penalty>
2.85428

> <i_epik_Tot_Q>
-1

> <i_epik_Tot_abs_Q>
1

> <r_epik_Metal_State_Penalty>
0.643506

> <b_epik_Metal_Only>
0

> <s_lp_Force_Field>
OPLS_2005

> <r_lp_Energy>
11.2488

> <b_lp_Chiralities_Consistent>
1

> <s_lp_Variant>
AV-unprocessed.smi:2100-4

> <Gold.Version>
5.8.1

> <Gold.Id.Protein>
6NUR|6NUR_protein|mol2

> <Gold.PLP.Fitness>
44.5609

> <Gold.PLP.PLP>
-33.1458

> <Gold.PLP.part.hbond>
-2.5203

> <Gold.PLP.part.metal>
0.0000

> <Gold.PLP.part.buried>
-7.5981

> <Gold.PLP.part.nonpolar>
-23.1812

> <Gold.PLP.part.repulsive>
0.2258

> <Gold.PLP.ligand.clash>
0.0000

> <Gold.PLP.ligand.torsion>
1.0870

> <Gold.PLP.Chemscore.Hbond>
3.0000

> <Gold.PLP.Chemscore.CHOScore>
1.0000

> <Gold.PLP.Chemscore.Metal>
0.0000

> <Gold.Chemscore.Hbonds>
donor molecule, donor type, donor heavy atom, donor atom, acceptor molecule, acceptor atom, score
      P1  H  7989  7998       L1     7  1.00
      P1  H  7997  8010       L1     8  1.60
      L1  C    15    34       P1  8029  1.00

> <Gold.PLP.Chemscore.Internal.Correction>
1.5891

> <Gold.Rescore>
     Score         DG    S(hbond)    S(metal)    S(lipo)     H(rot)  DE(clash)    DE(int)     intcor
     15.86     -17.09       1.47        0.00      89.41       1.47       0.16       1.06       ----

> <Gold.Chemscore.Fitness>
15.8649

> <Gold.Chemscore.DG>
-17.0884

> <Gold.Chemscore.ZeroCoef>
-5.4800

> <Gold.Chemscore.Hbond>
1.4726

> <Gold.Chemscore.Metal>
0.0000

> <Gold.Chemscore.Lipo>
89.4126

> <Gold.Chemscore.Internal_Hbond>
0.0000

> <Gold.Chemscore.DEClash>
0.1587

> <Gold.Chemscore.DEInternal>
1.0648

> <Gold.Chemscore.Rot>
1.4731

> <Gold.Chemscore.Internal.Correction>
   9.000000E+99

> <Gold.Chemscore.Hbonds>
donor molecule, donor type, donor heavy atom, donor atom, acceptor molecule, acceptor atom, score
      P1  H  7989  7998       L1     7  0.98
      P1  H  7997  8010       L1     8  0.05

> <Gold.Chemscore.Hbond.Weighted>
-4.9183

> <Gold.Chemscore.Metal.Weighted>
-0.0000

> <Gold.Chemscore.Lipo.Weighted>
-10.4613

> <Gold.Chemscore.Internal_Hbond.Weighted>
0.0000

> <Gold.Chemscore.DEClash.Weighted>
0.1587

> <Gold.Chemscore.DEInternal.Weighted>
1.0648

> <Gold.Chemscore.Rot.Weighted>
3.7712

> <Gold.Chemscore.Internal.Correction.Weighted>
   9.000000E+99

> <Gold.Protein.RotatedTorsions>
[ 6907 6896 6895 6894 ] final  -16.20 input  -60.11 | X-H torsion
[ 7974 7965 7964 7962 ] final  118.82 input  175.53 | X-H torsion
[ 8008 7997 7996 7995 ] final   64.60 input   59.86 | X-H torsion
[ 10167 10162 10161 10158 ] final   79.36 input  -65.29 | X-H torsion
[ 10718 10713 10712 10709 ] final  143.16 input   66.30 | X-H torsion
[ 10763 10752 10751 10750 ] final  158.42 input  -60.55 | X-H torsion
[ 11005 11000 10999 10996 ] final  153.76 input  -57.11 | X-H torsion

> <Gold.Protein.ActiveResidues>
 VAL166  LYS551  ARG553  GLY616  TRP617  ASP618  TYR619  PRO620  LYS621  CYS622 
 ASP623  PHE694  ASN695  SER759  ASP760  ASP761  ALA762  ILE779  LEU786  VAL792 
 PHE793  MET794  SER795  GLU796  ALA797  LYS798  CYS799  TRP800  GLU811  SER814 

> <Gold.Protein.RotatedAtoms>
  151.3122  135.0797  159.9275 H   0  0  0  0  0  0  0  0  0  0  0  0  # atno 6907 bound_to 6896
  152.5275  133.9724  159.7779 H   0  0  0  0  0  0  0  0  0  0  0  0  # atno 6908 bound_to 6896
  151.0030  133.5986  159.2723 H   0  0  0  0  0  0  0  0  0  0  0  0  # atno 6909 bound_to 6896
  145.1506  139.3213  143.4569 H   0  0  0  0  0  0  0  0  0  0  0  0  # atno 7974 bound_to 7965
  155.6486  140.3497  155.4740 H   0  0  0  0  0  0  0  0  0  0  0  0  # atno 8008 bound_to 7997
  155.9867  140.1185  157.0700 H   0  0  0  0  0  0  0  0  0  0  0  0  # atno 8009 bound_to 7997
  154.4207  140.1127  156.5495 H   0  0  0  0  0  0  0  0  0  0  0  0  # atno 8010 bound_to 7997
  139.9611  144.5960  150.8071 H   0  0  0  0  0  0  0  0  0  0  0  0  # atno 10167 bound_to 10162
  157.3722  131.0980  151.0817 H   0  0  0  0  0  0  0  0  0  0  0  0  # atno 10718 bound_to 10713
  154.2158  135.2784  155.2942 H   0  0  0  0  0  0  0  0  0  0  0  0  # atno 10763 bound_to 10752
  154.5742  135.5609  153.7127 H   0  0  0  0  0  0  0  0  0  0  0  0  # atno 10764 bound_to 10752
  153.0053  135.6329  154.2297 H   0  0  0  0  0  0  0  0  0  0  0  0  # atno 10765 bound_to 10752
  140.1427  134.8728  157.2352 H   0  0  0  0  0  0  0  0  0  0  0  0  # atno 11005 bound_to 11000
  146.3495  140.1578  142.8591 LP  0  0  0  0  0  0  0  0  0  0  0  0  # atno 17320 bound_to 7965
  145.0435  140.8963  143.5038 LP  0  0  0  0  0  0  0  0  0  0  0  0  # atno 17321 bound_to 7965
  140.7553  143.3043  151.3002 LP  0  0  0  0  0  0  0  0  0  0  0  0  # atno 17342 bound_to 10162
  139.6553  144.0288  152.2655 LP  0  0  0  0  0  0  0  0  0  0  0  0  # atno 17343 bound_to 10162
  157.1917  130.6355  149.5707 LP  0  0  0  0  0  0  0  0  0  0  0  0  # atno 17370 bound_to 10713
  155.9758  130.4720  150.6484 LP  0  0  0  0  0  0  0  0  0  0  0  0  # atno 17371 bound_to 10713
  140.2702  134.3469  155.7376 LP  0  0  0  0  0  0  0  0  0  0  0  0  # atno 17394 bound_to 11000
  141.2188  133.7419  156.9211 LP  0  0  0  0  0  0  0  0  0  0  0  0  # atno 17395 bound_to 11000

$$$$
