AV-unprocessed.smi:2748|AV-procd|sdf|10584|dock5
  -GOLD-   2272015 33D 1   1.00000     0.00000
 Structure written by MMmdl.
 29 31  0  0  0  0  0  0  0  0  2 V2000
  156.1678  137.2689  165.3006 O   0  0  0  0  0  0  0  0  0  0  0  0
  155.9842  137.9712  164.3074 C   0  0  0  0  0  0  0  0  0  0  0  0
  156.8148  139.0012  163.9700 N   0  5  0  0  0  0  0  0  0  0  0  0
  156.6282  139.7921  162.8683 C   0  0  0  0  0  0  0  0  0  0  0  0
  157.3859  140.7217  162.5888 O   0  0  0  0  0  0  0  0  0  0  0  0
  155.5627  139.5406  162.0514 N   0  0  0  0  0  0  0  0  0  0  0  0
  155.2858  140.3392  160.8499 C   0  0  0  0  0  0  0  0  0  0  0  0
  153.7908  140.6905  160.7304 C   0  0  1  0  0  0  0  0  0  0  0  0
  153.3098  141.6364  161.8630 C   0  0  0  0  0  0  0  0  0  0  0  0
  152.8271  142.8153  161.0931 C   0  0  0  0  0  0  0  0  0  0  0  0
  152.2708  144.0096  161.5822 C   0  0  0  0  0  0  0  0  0  0  0  0
  151.8893  144.9923  160.6423 C   0  0  0  0  0  0  0  0  0  0  0  0
  152.0694  144.7668  159.2562 C   0  0  0  0  0  0  0  0  0  0  0  0
  152.6325  143.5562  158.7927 C   0  0  0  0  0  0  0  0  0  0  0  0
  153.0064  142.5873  159.7405 C   0  0  0  0  0  0  0  0  0  0  0  0
  153.5579  141.3658  159.4786 O   0  0  0  0  0  0  0  0  0  0  0  0
  154.6729  138.4972  162.3576 C   0  0  0  0  0  0  0  0  0  0  0  0
  154.8373  137.7117  163.4396 C   0  0  0  0  0  0  0  0  0  0  0  0
  153.7250  136.4376  163.7928 Cl  0  0  0  0  0  0  0  0  0  0  0  0
  155.8823  141.2530  160.8655 H   0  0  0  0  0  0  0  0  0  0  0  0
  155.6108  139.8050  159.9558 H   0  0  0  0  0  0  0  0  0  0  0  0
  153.1876  139.7817  160.7432 H   0  0  0  0  0  0  0  0  0  0  0  0
  152.4970  141.1978  162.4425 H   0  0  0  0  0  0  0  0  0  0  0  0
  154.1122  141.9287  162.5414 H   0  0  0  0  0  0  0  0  0  0  0  0
  152.1398  144.1711  162.6421 H   0  0  0  0  0  0  0  0  0  0  0  0
  151.4578  145.9219  160.9830 H   0  0  0  0  0  0  0  0  0  0  0  0
  151.7740  145.5259  158.5470 H   0  0  0  0  0  0  0  0  0  0  0  0
  152.7718  143.3785  157.7366 H   0  0  0  0  0  0  0  0  0  0  0  0
  153.8509  138.3803  161.6665 H   0  0  0  0  0  0  0  0  0  0  0  0
  1  2  2  0  0  0  0
  2 18  1  0  0  0  0
  2  3  1  0  0  0  0
  3  4  1  0  0  0  0
  4  5  2  0  0  0  0
  4  6  1  0  0  0  0
  6  7  1  0  0  0  0
  6 17  1  0  0  0  0
  7  8  1  0  0  0  0
  7 20  1  0  0  0  0
  7 21  1  0  0  0  0
  8 16  1  0  0  0  0
  8  9  1  0  0  0  0
  8 22  1  0  0  0  0
  9 10  1  0  0  0  0
  9 23  1  0  0  0  0
  9 24  1  0  0  0  0
 10 15  2  0  0  0  0
 10 11  1  0  0  0  0
 11 12  2  0  0  0  0
 11 25  1  0  0  0  0
 12 13  1  0  0  0  0
 12 26  1  0  0  0  0
 13 14  2  0  0  0  0
 13 27  1  0  0  0  0
 14 15  1  0  0  0  0
 14 28  1  0  0  0  0
 15 16  1  0  0  0  0
 17 18  2  0  0  0  0
 17 29  1  0  0  0  0
 18 19  1  0  0  0  0
M  CHG  1   3  -1
M  END
> <s_m_source_file>
AV-unprocessed.smi

> <i_m_source_file_index>
2748

> <i_lp_mmshare_version>
43012

> <i_f3d_flags>
0

> <s_epik_input>
Tz1jMVtuSF1jKD1PKW4oW2NIXWMxQ2wpW0NIMl1bQ0BIXShbQ0gyXTIpT2MoYzIzKVtjSF1bY0hdW2NIXVtjSF0z

> <s_epik_cmdline>
J2VwaWtfcHl0aG9uJywgJy1waCcsICc3LjAnLCAnLXRuJywgJzgnLCAnLW1hJywgJzIwMCcsICctbWV0YWxfYmluZGluZycsICctaW1hZScsICc8aW5maWxlLm1hZT4nLCAnLW9tYWUnLCAnPG91dGZpbGUubWFlPic=

> <r_lp_tautomer_probability>
1

> <r_epik_Ionization_Penalty>
2.00749

> <r_epik_Ionization_Penalty_Charging>
2.26533e-08

> <r_epik_Ionization_Penalty_Neutral>
2.00749

> <r_epik_State_Penalty>
2.13675

> <r_epik_Charging_Adjusted_Penalty>
2.13675

> <i_epik_Tot_Q>
-1

> <i_epik_Tot_abs_Q>
1

> <r_epik_Metal_State_Penalty>
0.0208594

> <b_epik_Metal_Only>
0

> <s_lp_Force_Field>
OPLS_2005

> <r_lp_Energy>
29.9215

> <b_lp_Chiralities_Consistent>
1

> <s_lp_Variant>
AV-unprocessed.smi:2748-4

> <Gold.Version>
5.8.1

> <Gold.Id.Protein>
6NUR|6NUR_protein|mol2

> <Gold.PLP.Fitness>
45.7458

> <Gold.PLP.PLP>
-46.1986

> <Gold.PLP.part.hbond>
-0.2784

> <Gold.PLP.part.metal>
0.0000

> <Gold.PLP.part.buried>
-4.6551

> <Gold.PLP.part.nonpolar>
-41.3057

> <Gold.PLP.part.repulsive>
0.0867

> <Gold.PLP.ligand.clash>
0.0000

> <Gold.PLP.ligand.torsion>
0.2269

> <Gold.PLP.Chemscore.Hbond>
0.0000

> <Gold.PLP.Chemscore.CHOScore>
0.0000

> <Gold.PLP.Chemscore.Metal>
0.0000

> <Gold.PLP.Chemscore.Internal.Correction>
0.0009

> <Gold.Rescore>
     Score         DG    S(hbond)    S(metal)    S(lipo)     H(rot)  DE(clash)    DE(int)     intcor
     15.05     -16.89       0.00        0.00     125.86       1.29       1.57       0.27       ----

> <Gold.Chemscore.Fitness>
15.0473

> <Gold.Chemscore.DG>
-16.8926

> <Gold.Chemscore.ZeroCoef>
-5.4800

> <Gold.Chemscore.Hbond>
0.0000

> <Gold.Chemscore.Metal>
0.0000

> <Gold.Chemscore.Lipo>
125.8604

> <Gold.Chemscore.Internal_Hbond>
0.0000

> <Gold.Chemscore.DEClash>
1.5738

> <Gold.Chemscore.DEInternal>
0.2715

> <Gold.Chemscore.Rot>
1.2942

> <Gold.Chemscore.Internal.Correction>
   9.000000E+99

> <Gold.Chemscore.Hbond.Weighted>
-0.0000

> <Gold.Chemscore.Metal.Weighted>
-0.0000

> <Gold.Chemscore.Lipo.Weighted>
-14.7257

> <Gold.Chemscore.Internal_Hbond.Weighted>
0.0000

> <Gold.Chemscore.DEClash.Weighted>
1.5738

> <Gold.Chemscore.DEInternal.Weighted>
0.2715

> <Gold.Chemscore.Rot.Weighted>
3.3131

> <Gold.Chemscore.Internal.Correction.Weighted>
   9.000000E+99

> <Gold.Protein.RotatedTorsions>
[ 6907 6896 6895 6894 ] final  -90.49 input  -60.11 | X-H torsion
[ 7974 7965 7964 7962 ] final   81.28 input  175.53 | X-H torsion
[ 8008 7997 7996 7995 ] final  -74.16 input   59.86 | X-H torsion
[ 10167 10162 10161 10158 ] final  -20.89 input  -65.29 | X-H torsion
[ 10718 10713 10712 10709 ] final -104.69 input   66.30 | X-H torsion
[ 10763 10752 10751 10750 ] final   31.90 input  -60.55 | X-H torsion
[ 11005 11000 10999 10996 ] final  -17.59 input  -57.11 | X-H torsion

> <Gold.Protein.ActiveResidues>
 VAL166  LYS551  ARG553  GLY616  TRP617  ASP618  TYR619  PRO620  LYS621  CYS622 
 ASP623  PHE694  ASN695  SER759  ASP760  ASP761  ALA762  ILE779  LEU786  VAL792 
 PHE793  MET794  SER795  GLU796  ALA797  LYS798  CYS799  TRP800  GLU811  SER814 

> <Gold.Protein.RotatedAtoms>
  150.6882  134.2424  159.4477 H   0  0  0  0  0  0  0  0  0  0  0  0  # atno 6907 bound_to 6896
  152.0367  134.9733  160.0582 H   0  0  0  0  0  0  0  0  0  0  0  0  # atno 6908 bound_to 6896
  152.1251  133.4340  159.4731 H   0  0  0  0  0  0  0  0  0  0  0  0  # atno 6909 bound_to 6896
  145.6402  139.2424  143.2035 H   0  0  0  0  0  0  0  0  0  0  0  0  # atno 7974 bound_to 7965
  154.5307  140.0766  156.8340 H   0  0  0  0  0  0  0  0  0  0  0  0  # atno 8008 bound_to 7997
  155.3381  140.3405  155.4221 H   0  0  0  0  0  0  0  0  0  0  0  0  # atno 8009 bound_to 7997
  156.1778  140.1642  156.8317 H   0  0  0  0  0  0  0  0  0  0  0  0  # atno 8010 bound_to 7997
  140.7279  143.4679  151.0287 H   0  0  0  0  0  0  0  0  0  0  0  0  # atno 10167 bound_to 10162
  156.0315  130.5527  150.7432 H   0  0  0  0  0  0  0  0  0  0  0  0  # atno 10718 bound_to 10713
  153.0291  135.6427  154.1271 H   0  0  0  0  0  0  0  0  0  0  0  0  # atno 10763 bound_to 10752
  154.0996  135.2860  155.3256 H   0  0  0  0  0  0  0  0  0  0  0  0  # atno 10764 bound_to 10752
  154.6408  135.5460  153.7850 H   0  0  0  0  0  0  0  0  0  0  0  0  # atno 10765 bound_to 10752
  140.8183  133.8088  155.9633 H   0  0  0  0  0  0  0  0  0  0  0  0  # atno 11005 bound_to 11000
  146.1287  140.7214  142.9423 LP  0  0  0  0  0  0  0  0  0  0  0  0  # atno 17320 bound_to 7965
  144.7160  140.4211  143.7044 LP  0  0  0  0  0  0  0  0  0  0  0  0  # atno 17321 bound_to 7965
  139.8369  143.7616  152.3180 LP  0  0  0  0  0  0  0  0  0  0  0  0  # atno 17342 bound_to 10162
  139.7751  144.7463  151.0168 LP  0  0  0  0  0  0  0  0  0  0  0  0  # atno 17343 bound_to 10162
  157.4996  131.0917  151.0330 LP  0  0  0  0  0  0  0  0  0  0  0  0  # atno 17370 bound_to 10713
  157.0715  130.5866  149.5403 LP  0  0  0  0  0  0  0  0  0  0  0  0  # atno 17371 bound_to 10713
  140.9126  134.2242  157.4976 LP  0  0  0  0  0  0  0  0  0  0  0  0  # atno 17394 bound_to 11000
  139.8710  134.9757  156.4892 LP  0  0  0  0  0  0  0  0  0  0  0  0  # atno 17395 bound_to 11000

$$$$
