AV-unprocessed.smi:2568|AV-procd|sdf|10098|dock1
  -GOLD-   2272014113D 1   1.00000     0.00000
 Structure written by MMmdl.
 24 25  0  0  0  0  0  0  0  0  3 V2000
  155.1568  136.7096  157.7743 C   0  0  0  0  0  0  0  0  0  0  0  0
  153.9575  137.4509  157.2304 C   0  0  0  0  0  0  0  0  0  0  0  0
  153.6598  138.7431  157.4534 N   0  5  0  0  0  0  0  0  0  0  0  0
  152.5455  139.0591  156.8260 N   0  0  0  0  0  0  0  0  0  0  0  0
  152.1603  137.9379  156.1977 C   0  0  0  0  0  0  0  0  0  0  0  0
  150.8980  137.8111  155.3707 C   0  0  2  0  0  0  0  0  0  0  0  0
  150.9716  138.6917  154.1079 C   0  0  0  0  0  0  0  0  0  0  0  0
  149.7284  138.5636  153.3232 N   0  3  0  0  0  0  0  0  0  0  0  0
  148.5373  138.8623  154.1414 C   0  0  0  0  0  0  0  0  0  0  0  0
  148.5319  137.9848  155.4043 C   0  0  0  0  0  0  0  0  0  0  0  0
  149.7438  138.1779  156.1248 O   0  0  0  0  0  0  0  0  0  0  0  0
  153.0144  136.9352  156.4489 N   0  0  0  0  0  0  0  0  0  0  0  0
  155.7631  137.3641  158.4009 H   0  0  0  0  0  0  0  0  0  0  0  0
  155.7770  136.3437  156.9560 H   0  0  0  0  0  0  0  0  0  0  0  0
  154.8351  135.8582  158.3741 H   0  0  0  0  0  0  0  0  0  0  0  0
  150.8055  136.7627  155.0810 H   0  0  0  0  0  0  0  0  0  0  0  0
  151.1164  139.7379  154.3817 H   0  0  0  0  0  0  0  0  0  0  0  0
  151.8188  138.4027  153.4852 H   0  0  0  0  0  0  0  0  0  0  0  0
  149.7634  139.1940  152.5349 H   0  0  0  0  0  0  0  0  0  0  0  0
  148.5469  139.9179  154.4160 H   0  0  0  0  0  0  0  0  0  0  0  0
  147.6382  138.6907  153.5494 H   0  0  0  0  0  0  0  0  0  0  0  0
  147.6927  138.2545  156.0456 H   0  0  0  0  0  0  0  0  0  0  0  0
  148.4111  136.9310  155.1481 H   0  0  0  0  0  0  0  0  0  0  0  0
  149.6593  137.6144  152.9849 H   0  0  0  0  0  0  0  0  0  0  0  0
  1 13  1  0  0  0  0
  1 14  1  0  0  0  0
  1 15  1  0  0  0  0
  1  2  1  0  0  0  0
  2 12  2  0  0  0  0
  2  3  1  0  0  0  0
  3  4  1  0  0  0  0
  4  5  2  0  0  0  0
  5 12  1  0  0  0  0
  5  6  1  0  0  0  0
  6 11  1  0  0  0  0
  6  7  1  0  0  0  0
  6 16  1  0  0  0  0
  7  8  1  0  0  0  0
  7 17  1  0  0  0  0
  7 18  1  0  0  0  0
  8  9  1  0  0  0  0
  8 19  1  0  0  0  0
  8 24  1  0  0  0  0
  9 10  1  0  0  0  0
  9 20  1  0  0  0  0
  9 21  1  0  0  0  0
 10 11  1  0  0  0  0
 10 22  1  0  0  0  0
 10 23  1  0  0  0  0
M  CHG  1   3  -1
M  CHG  1   8   1
M  END
> <s_m_source_file>
AV-unprocessed.smi

> <i_m_source_file_index>
2568

> <i_lp_mmshare_version>
43012

> <i_f3d_flags>
0

> <s_epik_input>
W0NIM11jMW5bbkhdYyhuMSlbQ0BASF0yW0NIMl1bTkhdW0NIMl1bQ0gyXU8y

> <s_epik_cmdline>
J2VwaWtfcHl0aG9uJywgJy1waCcsICc3LjAnLCAnLXRuJywgJzgnLCAnLW1hJywgJzIwMCcsICctbWV0YWxfYmluZGluZycsICctaW1hZScsICc8aW5maWxlLm1hZT4nLCAnLW9tYWUnLCAnPG91dGZpbGUubWFlPic=

> <r_lp_tautomer_probability>
0.948284

> <r_epik_Ionization_Penalty>
5.18319

> <r_epik_Ionization_Penalty_Charging>
5.18319

> <r_epik_Ionization_Penalty_Neutral>
2.73247e-13

> <r_epik_State_Penalty>
2.89074

> <r_epik_Charging_Adjusted_Penalty>
8.07392

> <i_epik_Tot_Q>
0

> <i_epik_Tot_abs_Q>
2

> <r_epik_Metal_State_Penalty>
0.548499

> <b_epik_Metal_Only>
1

> <s_lp_Force_Field>
OPLS_2005

> <r_lp_Energy>
8.28058

> <b_lp_Chiralities_Consistent>
1

> <s_lp_Variant>
AV-unprocessed.smi:2568-11

> <Gold.Version>
5.8.1

> <Gold.Id.Protein>
6NUR|6NUR_protein|mol2

> <Gold.PLP.Fitness>
30.8471

> <Gold.PLP.PLP>
-13.4622

> <Gold.PLP.part.hbond>
-5.0000

> <Gold.PLP.part.metal>
0.0000

> <Gold.PLP.part.buried>
-3.1566

> <Gold.PLP.part.nonpolar>
-5.8379

> <Gold.PLP.part.repulsive>
0.1013

> <Gold.PLP.ligand.clash>
0.0000

> <Gold.PLP.ligand.torsion>
0.0375

> <Gold.PLP.Chemscore.Hbond>
5.8160

> <Gold.PLP.Chemscore.CHOScore>
0.0000

> <Gold.PLP.Chemscore.Metal>
0.0000

> <Gold.Chemscore.Hbonds>
donor molecule, donor type, donor heavy atom, donor atom, acceptor molecule, acceptor atom, score
      L1  H     8    19       P1  7957  1.00
      L1  H     8    24       P1  7948  2.00
      P1  H  7997  8008       L1     3  2.00
      P1  H 10752 10763       L1    12  0.83

> <Gold.PLP.Chemscore.Internal.Correction>
0.0119

> <Gold.Rescore>
     Score         DG    S(hbond)    S(metal)    S(lipo)     H(rot)  DE(clash)    DE(int)     intcor
     16.91     -16.97       3.46        0.00      21.37       1.00       0.00       0.06       ----

> <Gold.Chemscore.Fitness>
16.9124

> <Gold.Chemscore.DG>
-16.9733

> <Gold.Chemscore.ZeroCoef>
-5.4800

> <Gold.Chemscore.Hbond>
3.4590

> <Gold.Chemscore.Metal>
0.0000

> <Gold.Chemscore.Lipo>
21.3690

> <Gold.Chemscore.Internal_Hbond>
0.0000

> <Gold.Chemscore.DEClash>
0.0000

> <Gold.Chemscore.DEInternal>
0.0609

> <Gold.Chemscore.Rot>
1.0000

> <Gold.Chemscore.Internal.Correction>
   9.000000E+99

> <Gold.Chemscore.Hbonds>
donor molecule, donor type, donor heavy atom, donor atom, acceptor molecule, acceptor atom, score
      L1  H     8    19       P1  7957  0.90
      L1  H     8    24       P1  7948  0.64
      P1  H  7997  8008       L1     3  0.38
      P1  H 10752 10763       L1    12  0.79

> <Gold.Chemscore.Hbond.Weighted>
-11.5531

> <Gold.Chemscore.Metal.Weighted>
-0.0000

> <Gold.Chemscore.Lipo.Weighted>
-2.5002

> <Gold.Chemscore.Internal_Hbond.Weighted>
0.0000

> <Gold.Chemscore.DEClash.Weighted>
0.0000

> <Gold.Chemscore.DEInternal.Weighted>
0.0609

> <Gold.Chemscore.Rot.Weighted>
2.5600

> <Gold.Chemscore.Internal.Correction.Weighted>
   9.000000E+99

> <Gold.Protein.RotatedTorsions>
[ 6907 6896 6895 6894 ] final  -54.97 input  -60.11 | X-H torsion
[ 7974 7965 7964 7962 ] final  125.64 input  175.53 | X-H torsion
[ 8008 7997 7996 7995 ] final  -91.48 input   59.86 | X-H torsion
[ 10167 10162 10161 10158 ] final  169.66 input  -65.29 | X-H torsion
[ 10718 10713 10712 10709 ] final  -24.55 input   66.30 | X-H torsion
[ 10763 10752 10751 10750 ] final  107.18 input  -60.55 | X-H torsion
[ 11005 11000 10999 10996 ] final   50.21 input  -57.11 | X-H torsion

> <Gold.Protein.ActiveResidues>
 VAL166  LYS551  ARG553  GLY616  TRP617  ASP618  TYR619  PRO620  LYS621  CYS622 
 ASP623  PHE694  ASN695  SER759  ASP760  ASP761  ALA762  ILE779  LEU786  VAL792 
 PHE793  MET794  SER795  GLU796  ALA797  LYS798  CYS799  TRP800  GLU811  SER814 

> <Gold.Protein.RotatedAtoms>
  150.8292  134.7537  159.6838 H   0  0  0  0  0  0  0  0  0  0  0  0  # atno 6907 bound_to 6896
  152.4399  134.5609  159.9903 H   0  0  0  0  0  0  0  0  0  0  0  0  # atno 6908 bound_to 6896
  151.5774  133.3344  159.3037 H   0  0  0  0  0  0  0  0  0  0  0  0  # atno 6909 bound_to 6896
  145.0707  139.3732  143.4959 H   0  0  0  0  0  0  0  0  0  0  0  0  # atno 7974 bound_to 7965
  154.7113  140.0519  157.0553 H   0  0  0  0  0  0  0  0  0  0  0  0  # atno 8008 bound_to 7997
  155.0551  140.3183  155.4660 H   0  0  0  0  0  0  0  0  0  0  0  0  # atno 8009 bound_to 7997
  156.2790  140.2109  156.5677 H   0  0  0  0  0  0  0  0  0  0  0  0  # atno 8010 bound_to 7997
  139.4998  144.3682  151.9753 H   0  0  0  0  0  0  0  0  0  0  0  0  # atno 10167 bound_to 10162
  156.4761  130.4535  149.6839 H   0  0  0  0  0  0  0  0  0  0  0  0  # atno 10718 bound_to 10713
  153.4032  135.3852  155.2002 H   0  0  0  0  0  0  0  0  0  0  0  0  # atno 10763 bound_to 10752
  154.8731  135.3776  154.4592 H   0  0  0  0  0  0  0  0  0  0  0  0  # atno 10764 bound_to 10752
  153.5092  135.7087  153.5852 H   0  0  0  0  0  0  0  0  0  0  0  0  # atno 10765 bound_to 10752
  140.1037  134.5047  155.8739 H   0  0  0  0  0  0  0  0  0  0  0  0  # atno 11005 bound_to 11000
  146.3528  140.0451  142.8640 LP  0  0  0  0  0  0  0  0  0  0  0  0  # atno 17320 bound_to 7965
  145.1295  140.9510  143.4552 LP  0  0  0  0  0  0  0  0  0  0  0  0  # atno 17321 bound_to 7965
  140.3118  144.3529  150.6032 LP  0  0  0  0  0  0  0  0  0  0  0  0  # atno 17342 bound_to 10162
  140.5793  143.2174  151.7458 LP  0  0  0  0  0  0  0  0  0  0  0  0  # atno 17343 bound_to 10162
  156.3569  130.7461  151.2428 LP  0  0  0  0  0  0  0  0  0  0  0  0  # atno 17370 bound_to 10713
  157.7487  131.0361  150.4395 LP  0  0  0  0  0  0  0  0  0  0  0  0  # atno 17371 bound_to 10713
  141.2112  133.6704  156.6569 LP  0  0  0  0  0  0  0  0  0  0  0  0  # atno 17394 bound_to 11000
  140.3185  134.8027  157.4233 LP  0  0  0  0  0  0  0  0  0  0  0  0  # atno 17395 bound_to 11000

$$$$
