AV-unprocessed.smi:1107|AV-procd|sdf|4783|dock7
  -GOLD-   22720 3323D 1   1.00000     0.00000
 Structure written by MMmdl.
 49 50  0  0  0  0  0  0  0  0  2 V2000
  151.3342  143.7482  157.9372 C   0  0  0  0  0  0  0  0  0  0  0  0
  151.1543  142.5114  157.0842 C   0  0  0  0  0  0  0  0  0  0  0  0
  150.0977  142.5997  156.1928 N   0  0  0  0  0  0  0  0  0  0  0  0
  149.8554  141.5168  155.3663 C   0  0  0  0  0  0  0  0  0  0  0  0
  148.6728  141.6883  154.4295 C   0  0  0  0  0  0  0  0  0  0  0  0
  150.6284  140.4030  155.4248 C   0  0  0  0  0  0  0  0  0  0  0  0
  150.3859  139.1739  154.5469 C   0  0  0  0  0  0  0  0  0  0  0  0
  148.9920  138.5387  154.6061 C   0  0  0  0  0  0  0  0  0  0  0  0
  148.6249  137.9837  155.6405 O   0  0  0  0  0  0  0  0  0  0  0  0
  148.2139  138.6456  153.5154 N   0  0  0  0  0  0  0  0  0  0  0  0
  146.8406  138.1632  153.3786 C   0  0  2  0  0  0  0  0  0  0  0  0
  145.9238  139.0076  154.2737 C   0  0  0  0  0  0  0  0  0  0  0  0
  146.7457  136.6615  153.7327 C   0  0  0  0  0  0  0  0  0  0  0  0
  146.6301  135.7903  152.5349 N   0  3  0  0  0  0  0  0  0  0  0  0
  146.6654  134.3428  152.8661 C   0  0  0  0  0  0  0  0  0  0  0  0
  146.7111  133.4875  151.5885 C   0  0  0  0  0  0  0  0  0  0  0  0
  145.5291  133.8115  150.6651 C   0  0  0  0  0  0  0  0  0  0  0  0
  145.4897  135.3170  150.3712 C   0  0  0  0  0  0  0  0  0  0  0  0
  145.4659  136.1307  151.6753 C   0  0  0  0  0  0  0  0  0  0  0  0
  151.7382  140.3627  156.4060 C   0  0  0  0  0  0  0  0  0  0  0  0
  152.4549  139.3696  156.5238 O   0  0  0  0  0  0  0  0  0  0  0  0
  151.9443  141.4894  157.2180 N   0  0  0  0  0  0  0  0  0  0  0  0
  149.5006  143.4107  156.1147 H   0  0  0  0  0  0  0  0  0  0  0  0
  152.1756  143.6317  158.6214 H   0  0  0  0  0  0  0  0  0  0  0  0
  150.4376  143.9364  158.5286 H   0  0  0  0  0  0  0  0  0  0  0  0
  151.5246  144.6189  157.3090 H   0  0  0  0  0  0  0  0  0  0  0  0
  149.0040  141.6668  153.3911 H   0  0  0  0  0  0  0  0  0  0  0  0
  148.1603  142.6365  154.5973 H   0  0  0  0  0  0  0  0  0  0  0  0
  147.9493  140.8861  154.5785 H   0  0  0  0  0  0  0  0  0  0  0  0
  151.1238  138.4044  154.7776 H   0  0  0  0  0  0  0  0  0  0  0  0
  150.5795  139.4361  153.5067 H   0  0  0  0  0  0  0  0  0  0  0  0
  148.6063  139.1144  152.7112 H   0  0  0  0  0  0  0  0  0  0  0  0
  146.5059  138.3126  152.3514 H   0  0  0  0  0  0  0  0  0  0  0  0
  144.8843  138.6920  154.1790 H   0  0  0  0  0  0  0  0  0  0  0  0
  145.9724  140.0626  154.0019 H   0  0  0  0  0  0  0  0  0  0  0  0
  146.2029  138.9218  155.3244 H   0  0  0  0  0  0  0  0  0  0  0  0
  147.6466  136.3908  154.2859 H   0  0  0  0  0  0  0  0  0  0  0  0
  145.9098  136.4733  154.4083 H   0  0  0  0  0  0  0  0  0  0  0  0
  147.5462  134.1236  153.4710 H   0  0  0  0  0  0  0  0  0  0  0  0
  145.7923  134.0832  153.4667 H   0  0  0  0  0  0  0  0  0  0  0  0
  147.6484  133.6693  151.0607 H   0  0  0  0  0  0  0  0  0  0  0  0
  146.7024  132.4282  151.8470 H   0  0  0  0  0  0  0  0  0  0  0  0
  145.6102  133.2474  149.7355 H   0  0  0  0  0  0  0  0  0  0  0  0
  144.5960  133.5032  151.1383 H   0  0  0  0  0  0  0  0  0  0  0  0
  146.3621  135.5995  149.7803 H   0  0  0  0  0  0  0  0  0  0  0  0
  144.6149  135.5560  149.7657 H   0  0  0  0  0  0  0  0  0  0  0  0
  144.5399  135.9409  152.2202 H   0  0  0  0  0  0  0  0  0  0  0  0
  145.4751  137.1927  151.4313 H   0  0  0  0  0  0  0  0  0  0  0  0
  147.4581  135.9674  151.9839 H   0  0  0  0  0  0  0  0  0  0  0  0
  1 24  1  0  0  0  0
  1 25  1  0  0  0  0
  1 26  1  0  0  0  0
  1  2  1  0  0  0  0
  2  3  1  0  0  0  0
  2 22  2  0  0  0  0
  3  4  1  0  0  0  0
  3 23  1  0  0  0  0
  4  6  2  0  0  0  0
  4  5  1  0  0  0  0
  5 27  1  0  0  0  0
  5 28  1  0  0  0  0
  5 29  1  0  0  0  0
  6 20  1  0  0  0  0
  6  7  1  0  0  0  0
  7  8  1  0  0  0  0
  7 30  1  0  0  0  0
  7 31  1  0  0  0  0
  8  9  2  0  0  0  0
  8 10  1  0  0  0  0
 10 11  1  0  0  0  0
 10 32  1  0  0  0  0
 11 12  1  0  0  0  0
 11 13  1  0  0  0  0
 11 33  1  0  0  0  0
 12 34  1  0  0  0  0
 12 35  1  0  0  0  0
 12 36  1  0  0  0  0
 13 14  1  0  0  0  0
 13 37  1  0  0  0  0
 13 38  1  0  0  0  0
 14 19  1  0  0  0  0
 14 15  1  0  0  0  0
 14 49  1  0  0  0  0
 15 16  1  0  0  0  0
 15 39  1  0  0  0  0
 15 40  1  0  0  0  0
 16 17  1  0  0  0  0
 16 41  1  0  0  0  0
 16 42  1  0  0  0  0
 17 18  1  0  0  0  0
 17 43  1  0  0  0  0
 17 44  1  0  0  0  0
 18 19  1  0  0  0  0
 18 45  1  0  0  0  0
 18 46  1  0  0  0  0
 19 47  1  0  0  0  0
 19 48  1  0  0  0  0
 20 21  2  0  0  0  0
 20 22  1  0  0  0  0
M  CHG  1  14   1
M  END
> <s_m_source_file>
AV-unprocessed.smi

> <i_m_source_file_index>
1107

> <i_lp_mmshare_version>
43012

> <i_f3d_flags>
0

> <s_epik_input>
W0NIM11jMW5jKFtDSDNdKWMoYyg9TylbbkhdMSlbQ0gyXUMoPU8pW05IXVtDQEhdKFtDSDNdKVtDSDJdTjJbQ0gyXVtDSDJdW0NIMl1bQ0gyXVtDSDJdMg==

> <s_epik_cmdline>
J2VwaWtfcHl0aG9uJywgJy1waCcsICc3LjAnLCAnLXRuJywgJzgnLCAnLW1hJywgJzIwMCcsICctbWV0YWxfYmluZGluZycsICctaW1hZScsICc8aW5maWxlLm1hZT4nLCAnLW9tYWUnLCAnPG91dGZpbGUubWFlPic=

> <r_lp_tautomer_probability>
0.156392

> <r_epik_Ionization_Penalty>
0.0190033

> <r_epik_Ionization_Penalty_Charging>
0.0189172

> <r_epik_Ionization_Penalty_Neutral>
8.60838e-05

> <r_epik_State_Penalty>
1.15342

> <r_epik_Charging_Adjusted_Penalty>
1.17233

> <i_epik_Tot_Q>
1

> <i_epik_Tot_abs_Q>
1

> <r_epik_Metal_State_Penalty>
1.34593

> <b_epik_Metal_Only>
0

> <s_lp_Force_Field>
OPLS_2005

> <r_lp_Energy>
27.2894

> <b_lp_Chiralities_Consistent>
1

> <s_lp_Variant>
AV-unprocessed.smi:1107-3

> <Gold.Version>
5.8.1

> <Gold.Id.Protein>
6NUR|6NUR_protein|mol2

> <Gold.PLP.Fitness>
47.2013

> <Gold.PLP.PLP>
-34.3953

> <Gold.PLP.part.hbond>
-4.6115

> <Gold.PLP.part.metal>
0.0000

> <Gold.PLP.part.buried>
3.2097

> <Gold.PLP.part.nonpolar>
-31.6701

> <Gold.PLP.part.repulsive>
0.2107

> <Gold.PLP.ligand.clash>
0.0000

> <Gold.PLP.ligand.torsion>
0.7737

> <Gold.PLP.Chemscore.Hbond>
4.7637

> <Gold.PLP.Chemscore.CHOScore>
0.0000

> <Gold.PLP.Chemscore.Metal>
0.0000

> <Gold.Chemscore.Hbonds>
donor molecule, donor type, donor heavy atom, donor atom, acceptor molecule, acceptor atom, score
      L1  H     3    23       P1  8028  0.96
      L1  H    10    32       P1  7957  0.94
      L1  H    14    49       P1  7948  1.85
      P1  H  7997  8008       L1    21  1.00

> <Gold.PLP.Chemscore.Internal.Correction>
0.0621

> <Gold.Rescore>
     Score         DG    S(hbond)    S(metal)    S(lipo)     H(rot)  DE(clash)    DE(int)     intcor
     15.68     -18.43       2.77        0.00      75.09       1.98       1.10       1.65       ----

> <Gold.Chemscore.Fitness>
15.6832

> <Gold.Chemscore.DG>
-18.4319

> <Gold.Chemscore.ZeroCoef>
-5.4800

> <Gold.Chemscore.Hbond>
2.7678

> <Gold.Chemscore.Metal>
0.0000

> <Gold.Chemscore.Lipo>
75.0908

> <Gold.Chemscore.Internal_Hbond>
0.0000

> <Gold.Chemscore.DEClash>
1.1022

> <Gold.Chemscore.DEInternal>
1.6464

> <Gold.Chemscore.Rot>
1.9837

> <Gold.Chemscore.Internal.Correction>
   9.000000E+99

> <Gold.Chemscore.Hbonds>
donor molecule, donor type, donor heavy atom, donor atom, acceptor molecule, acceptor atom, score
      L1  H     3    23       P1  8028  0.91
      L1  H    10    32       P1  7957  0.90
      L1  H    14    49       P1  7948  0.86
      P1  H  7997  8008       L1    21  0.42

> <Gold.Chemscore.Hbond.Weighted>
-9.2446

> <Gold.Chemscore.Metal.Weighted>
-0.0000

> <Gold.Chemscore.Lipo.Weighted>
-8.7856

> <Gold.Chemscore.Internal_Hbond.Weighted>
0.0000

> <Gold.Chemscore.DEClash.Weighted>
1.1022

> <Gold.Chemscore.DEInternal.Weighted>
1.6464

> <Gold.Chemscore.Rot.Weighted>
5.0783

> <Gold.Chemscore.Internal.Correction.Weighted>
   9.000000E+99

> <Gold.Protein.RotatedTorsions>
[ 6907 6896 6895 6894 ] final   44.61 input  -60.11 | X-H torsion
[ 7974 7965 7964 7962 ] final   27.90 input  175.53 | X-H torsion
[ 8008 7997 7996 7995 ] final  -45.92 input   59.86 | X-H torsion
[ 10167 10162 10161 10158 ] final  169.34 input  -65.29 | X-H torsion
[ 10718 10713 10712 10709 ] final   70.06 input   66.30 | X-H torsion
[ 10763 10752 10751 10750 ] final -175.81 input  -60.55 | X-H torsion
[ 11005 11000 10999 10996 ] final  -84.52 input  -57.11 | X-H torsion

> <Gold.Protein.ActiveResidues>
 VAL166  LYS551  ARG553  GLY616  TRP617  ASP618  TYR619  PRO620  LYS621  CYS622 
 ASP623  PHE694  ASN695  SER759  ASP760  ASP761  ALA762  ILE779  LEU786  VAL792 
 PHE793  MET794  SER795  GLU796  ALA797  LYS798  CYS799  TRP800  GLU811  SER814 

> <Gold.Protein.RotatedAtoms>
  152.2346  134.8288  160.0468 H   0  0  0  0  0  0  0  0  0  0  0  0  # atno 6907 bound_to 6896
  151.9024  133.3536  159.3843 H   0  0  0  0  0  0  0  0  0  0  0  0  # atno 6908 bound_to 6896
  150.7035  134.4740  159.5483 H   0  0  0  0  0  0  0  0  0  0  0  0  # atno 6909 bound_to 6896
  146.1759  139.7129  142.8935 H   0  0  0  0  0  0  0  0  0  0  0  0  # atno 7974 bound_to 7965
  154.4004  140.1384  156.3926 H   0  0  0  0  0  0  0  0  0  0  0  0  # atno 8008 bound_to 7997
  155.7899  140.3479  155.5323 H   0  0  0  0  0  0  0  0  0  0  0  0  # atno 8009 bound_to 7997
  155.8589  140.0953  157.1616 H   0  0  0  0  0  0  0  0  0  0  0  0  # atno 8010 bound_to 7997
  139.4990  144.3717  151.9718 H   0  0  0  0  0  0  0  0  0  0  0  0  # atno 10167 bound_to 10162
  157.6380  130.9458  150.0599 H   0  0  0  0  0  0  0  0  0  0  0  0  # atno 10718 bound_to 10713
  154.5799  135.2835  155.0743 H   0  0  0  0  0  0  0  0  0  0  0  0  # atno 10763 bound_to 10752
  154.2084  135.6412  153.5111 H   0  0  0  0  0  0  0  0  0  0  0  0  # atno 10764 bound_to 10752
  153.0085  135.5485  154.6449 H   0  0  0  0  0  0  0  0  0  0  0  0  # atno 10765 bound_to 10752
  141.1650  133.7350  156.8880 H   0  0  0  0  0  0  0  0  0  0  0  0  # atno 11005 bound_to 11000
  145.4213  141.0407  143.2962 LP  0  0  0  0  0  0  0  0  0  0  0  0  # atno 17320 bound_to 7965
  144.8235  139.5750  143.6976 LP  0  0  0  0  0  0  0  0  0  0  0  0  # atno 17321 bound_to 7965
  140.3153  144.3491  150.6023 LP  0  0  0  0  0  0  0  0  0  0  0  0  # atno 17342 bound_to 10162
  140.5766  143.2176  151.7504 LP  0  0  0  0  0  0  0  0  0  0  0  0  # atno 17343 bound_to 10162
  156.1635  130.3644  149.9265 LP  0  0  0  0  0  0  0  0  0  0  0  0  # atno 17370 bound_to 10713
  156.7258  130.9024  151.3622 LP  0  0  0  0  0  0  0  0  0  0  0  0  # atno 17371 bound_to 10713
  140.1668  134.9127  157.2784 LP  0  0  0  0  0  0  0  0  0  0  0  0  # atno 17394 bound_to 11000
  140.2547  134.3641  155.7428 LP  0  0  0  0  0  0  0  0  0  0  0  0  # atno 17395 bound_to 11000

$$$$
