AV-unprocessed.smi:810|AV-procd|sdf|3810|dock7
  -GOLD-   22720 1253D 1   1.00000     0.00000
 Structure written by MMmdl.
 34 35  0  0  0  0  0  0  0  0  1 V2000
  150.7974  141.0572  157.2582 O   0  0  0  0  0  0  0  0  0  0  0  0
  150.1022  141.9971  156.8743 C   0  0  0  0  0  0  0  0  0  0  0  0
  150.0811  143.2233  157.4241 N   0  0  0  0  0  0  0  0  0  0  0  0
  150.7851  143.6916  158.5661 C   0  0  0  0  0  0  0  0  0  0  0  0
  151.6628  142.7982  159.2142 C   0  0  0  0  0  0  0  0  0  0  0  0
  152.3882  143.2415  160.3362 C   0  0  0  0  0  0  0  0  0  0  0  0
  152.2139  144.5720  160.7631 C   0  0  0  0  0  0  0  0  0  0  0  0
  151.3905  145.4451  160.1457 N   0  0  0  0  0  0  0  0  0  0  0  0
  150.6957  145.0128  159.0712 C   0  0  0  0  0  0  0  0  0  0  0  0
  149.2729  141.9252  155.8235 N   0  0  0  0  0  0  0  0  0  0  0  0
  149.0526  140.7415  154.9960 C   0  0  1  0  0  0  0  0  0  0  0  0
  148.1944  141.1188  153.7727 C   0  0  0  0  0  0  0  0  0  0  0  0
  146.9160  141.8963  154.1291 C   0  0  0  0  0  0  0  0  0  0  0  0
  145.8607  140.9931  154.3778 O   0  0  0  0  0  0  0  0  0  0  0  0
  150.3468  140.0740  154.5620 C   0  0  0  0  0  0  0  0  0  0  0  0
  150.3630  138.6359  154.1006 C   0  0  0  0  0  0  0  0  0  0  0  0
  151.0084  139.0162  155.4133 C   0  0  0  0  0  0  0  0  0  0  0  0
  149.5284  143.9173  156.9423 H   0  0  0  0  0  0  0  0  0  0  0  0
  151.7780  141.7838  158.8607 H   0  0  0  0  0  0  0  0  0  0  0  0
  153.0630  142.5782  160.8568 H   0  0  0  0  0  0  0  0  0  0  0  0
  152.7546  144.9465  161.6196 H   0  0  0  0  0  0  0  0  0  0  0  0
  150.0758  145.7629  158.6057 H   0  0  0  0  0  0  0  0  0  0  0  0
  148.7489  142.7522  155.5771 H   0  0  0  0  0  0  0  0  0  0  0  0
  148.4829  140.0116  155.5749 H   0  0  0  0  0  0  0  0  0  0  0  0
  148.7936  141.7009  153.0709 H   0  0  0  0  0  0  0  0  0  0  0  0
  147.9111  140.2073  153.2442 H   0  0  0  0  0  0  0  0  0  0  0  0
  147.0737  142.5086  155.0174 H   0  0  0  0  0  0  0  0  0  0  0  0
  146.6205  142.5645  153.3198 H   0  0  0  0  0  0  0  0  0  0  0  0
  145.2422  141.0479  153.6653 H   0  0  0  0  0  0  0  0  0  0  0  0
  151.0205  140.7413  154.0276 H   0  0  0  0  0  0  0  0  0  0  0  0
  149.4295  138.0783  154.1442 H   0  0  0  0  0  0  0  0  0  0  0  0
  151.0196  138.3825  153.2707 H   0  0  0  0  0  0  0  0  0  0  0  0
  152.0954  139.0167  155.4594 H   0  0  0  0  0  0  0  0  0  0  0  0
  150.5036  138.7090  156.3269 H   0  0  0  0  0  0  0  0  0  0  0  0
  1  2  2  0  0  0  0
  2  3  1  0  0  0  0
  2 10  1  0  0  0  0
  3  4  1  0  0  0  0
  3 18  1  0  0  0  0
  4  9  1  0  0  0  0
  4  5  2  0  0  0  0
  5  6  1  0  0  0  0
  5 19  1  0  0  0  0
  6  7  2  0  0  0  0
  6 20  1  0  0  0  0
  7  8  1  0  0  0  0
  7 21  1  0  0  0  0
  8  9  2  0  0  0  0
  9 22  1  0  0  0  0
 10 11  1  0  0  0  0
 10 23  1  0  0  0  0
 11 12  1  0  0  0  0
 11 15  1  0  0  0  0
 11 24  1  0  0  0  0
 12 13  1  0  0  0  0
 12 25  1  0  0  0  0
 12 26  1  0  0  0  0
 13 14  1  0  0  0  0
 13 27  1  0  0  0  0
 13 28  1  0  0  0  0
 14 29  1  0  0  0  0
 15 17  1  0  0  0  0
 15 16  1  0  0  0  0
 15 30  1  0  0  0  0
 16 17  1  0  0  0  0
 16 31  1  0  0  0  0
 16 32  1  0  0  0  0
 17 33  1  0  0  0  0
 17 34  1  0  0  0  0
M  END
> <s_m_source_file>
AV-unprocessed.smi

> <i_m_source_file_index>
810

> <i_lp_mmshare_version>
43012

> <i_f3d_flags>
0

> <s_epik_input>
W09IXVtDSDJdW0NIMl1bQ0BIXShbQ0hdMVtDSDJdW0NIMl0xKVtOSF1DKD1PKVtOSF1jMltjSF1bY0hdW2NIXW5bY0hdMg==

> <s_epik_cmdline>
J2VwaWtfcHl0aG9uJywgJy1waCcsICc3LjAnLCAnLXRuJywgJzgnLCAnLW1hJywgJzIwMCcsICctbWV0YWxfYmluZGluZycsICctaW1hZScsICc8aW5maWxlLm1hZT4nLCAnLW9tYWUnLCAnPG91dGZpbGUubWFlPic=

> <r_epik_Ionization_Penalty>
0.00486911

> <r_epik_Ionization_Penalty_Charging>
0

> <r_epik_Ionization_Penalty_Neutral>
0.00486911

> <r_epik_State_Penalty>
0.00350304

> <r_epik_Charging_Adjusted_Penalty>
0.00350304

> <i_epik_Tot_Q>
0

> <i_epik_Tot_abs_Q>
0

> <r_epik_Metal_State_Penalty>
-0

> <b_epik_Metal_Only>
0

> <s_lp_Force_Field>
OPLS_2005

> <r_lp_Energy>
17.3052

> <b_lp_Chiralities_Consistent>
1

> <s_lp_Variant>
AV-unprocessed.smi:810-2

> <Gold.Version>
5.8.1

> <Gold.Id.Protein>
6NUR|6NUR_protein|mol2

> <Gold.PLP.Fitness>
46.6503

> <Gold.PLP.PLP>
-35.7823

> <Gold.PLP.part.hbond>
-3.0000

> <Gold.PLP.part.metal>
0.0000

> <Gold.PLP.part.buried>
-3.1312

> <Gold.PLP.part.nonpolar>
-30.3695

> <Gold.PLP.part.repulsive>
0.3421

> <Gold.PLP.ligand.clash>
0.0000

> <Gold.PLP.ligand.torsion>
0.8463

> <Gold.PLP.Chemscore.Hbond>
2.8320

> <Gold.PLP.Chemscore.CHOScore>
0.9921

> <Gold.PLP.Chemscore.Metal>
0.0000

> <Gold.Chemscore.Hbonds>
donor molecule, donor type, donor heavy atom, donor atom, acceptor molecule, acceptor atom, score
      L1  H     3    18       P1  8028  1.00
      L1  H    10    23       P1  8028  0.83
      L1  H    14    29       P1 10175  1.00
      L1  C     9    22       P1  8029  0.98

> <Gold.PLP.Chemscore.Internal.Correction>
1.0883

> <Gold.Rescore>
     Score         DG    S(hbond)    S(metal)    S(lipo)     H(rot)  DE(clash)    DE(int)     intcor
     17.32     -19.63       2.85        0.00      90.07       2.31       0.03       2.28       ----

> <Gold.Chemscore.Fitness>
17.3167

> <Gold.Chemscore.DG>
-19.6334

> <Gold.Chemscore.ZeroCoef>
-5.4800

> <Gold.Chemscore.Hbond>
2.8526

> <Gold.Chemscore.Metal>
0.0000

> <Gold.Chemscore.Lipo>
90.0710

> <Gold.Chemscore.Internal_Hbond>
0.0000

> <Gold.Chemscore.DEClash>
0.0322

> <Gold.Chemscore.DEInternal>
2.2845

> <Gold.Chemscore.Rot>
2.3097

> <Gold.Chemscore.Internal.Correction>
   9.000000E+99

> <Gold.Chemscore.Hbonds>
donor molecule, donor type, donor heavy atom, donor atom, acceptor molecule, acceptor atom, score
      L1  H     3    18       P1  8028  0.81
      L1  H    10    23       P1  8028  0.80
      L1  H    14    29       P1 10175  0.65

> <Gold.Chemscore.Hbond.Weighted>
-9.5278

> <Gold.Chemscore.Metal.Weighted>
-0.0000

> <Gold.Chemscore.Lipo.Weighted>
-10.5383

> <Gold.Chemscore.Internal_Hbond.Weighted>
0.0000

> <Gold.Chemscore.DEClash.Weighted>
0.0322

> <Gold.Chemscore.DEInternal.Weighted>
2.2845

> <Gold.Chemscore.Rot.Weighted>
5.9127

> <Gold.Chemscore.Internal.Correction.Weighted>
   9.000000E+99

> <Gold.Protein.RotatedTorsions>
[ 6907 6896 6895 6894 ] final  -53.81 input  -60.11 | X-H torsion
[ 7974 7965 7964 7962 ] final   27.31 input  175.53 | X-H torsion
[ 8008 7997 7996 7995 ] final  -88.53 input   59.86 | X-H torsion
[ 10167 10162 10161 10158 ] final   -9.94 input  -65.29 | X-H torsion
[ 10718 10713 10712 10709 ] final  -45.63 input   66.30 | X-H torsion
[ 10763 10752 10751 10750 ] final   82.97 input  -60.55 | X-H torsion
[ 11005 11000 10999 10996 ] final  179.93 input  -57.11 | X-H torsion

> <Gold.Protein.ActiveResidues>
 VAL166  LYS551  ARG553  GLY616  TRP617  ASP618  TYR619  PRO620  LYS621  CYS622 
 ASP623  PHE694  ASN695  SER759  ASP760  ASP761  ALA762  ILE779  LEU786  VAL792 
 PHE793  MET794  SER795  GLU796  ALA797  LYS798  CYS799  TRP800  GLU811  SER814 

> <Gold.Protein.RotatedAtoms>
  150.8393  134.7679  159.6918 H   0  0  0  0  0  0  0  0  0  0  0  0  # atno 6907 bound_to 6896
  152.4484  134.5443  159.9858 H   0  0  0  0  0  0  0  0  0  0  0  0  # atno 6908 bound_to 6896
  151.5587  133.3368  159.3002 H   0  0  0  0  0  0  0  0  0  0  0  0  # atno 6909 bound_to 6896
  146.1791  139.7209  142.8913 H   0  0  0  0  0  0  0  0  0  0  0  0  # atno 7974 bound_to 7965
  154.6758  140.0552  157.0214 H   0  0  0  0  0  0  0  0  0  0  0  0  # atno 8008 bound_to 7997
  155.1022  140.3230  155.4525 H   0  0  0  0  0  0  0  0  0  0  0  0  # atno 8009 bound_to 7997
  156.2675  140.2029  156.6148 H   0  0  0  0  0  0  0  0  0  0  0  0  # atno 8010 bound_to 7997
  140.7101  143.5802  150.9000 H   0  0  0  0  0  0  0  0  0  0  0  0  # atno 10167 bound_to 10162
  156.2264  130.4169  149.8929 H   0  0  0  0  0  0  0  0  0  0  0  0  # atno 10718 bound_to 10713
  153.1250  135.4708  154.9257 H   0  0  0  0  0  0  0  0  0  0  0  0  # atno 10763 bound_to 10752
  154.7611  135.3132  154.8379 H   0  0  0  0  0  0  0  0  0  0  0  0  # atno 10764 bound_to 10752
  153.8934  135.6882  153.4813 H   0  0  0  0  0  0  0  0  0  0  0  0  # atno 10765 bound_to 10752
  140.4117  134.6686  157.4617 H   0  0  0  0  0  0  0  0  0  0  0  0  # atno 11005 bound_to 11000
  145.4127  141.0398  143.3008 LP  0  0  0  0  0  0  0  0  0  0  0  0  # atno 17320 bound_to 7965
  144.8285  139.5669  143.6954 LP  0  0  0  0  0  0  0  0  0  0  0  0  # atno 17321 bound_to 7965
  139.9528  143.6252  152.3024 LP  0  0  0  0  0  0  0  0  0  0  0  0  # atno 17342 bound_to 10162
  139.6777  144.7657  151.1666 LP  0  0  0  0  0  0  0  0  0  0  0  0  # atno 17343 bound_to 10162
  156.6558  130.8762  151.3539 LP  0  0  0  0  0  0  0  0  0  0  0  0  # atno 17370 bound_to 10713
  157.7112  130.9443  150.1097 LP  0  0  0  0  0  0  0  0  0  0  0  0  # atno 17371 bound_to 10713
  140.0263  134.6472  155.9168 LP  0  0  0  0  0  0  0  0  0  0  0  0  # atno 17394 bound_to 11000
  141.1818  133.6548  156.5054 LP  0  0  0  0  0  0  0  0  0  0  0  0  # atno 17395 bound_to 11000

$$$$
