AV-unprocessed.smi:906|AV-procd|sdf|4105|dock2
  -GOLD-   22720 2 03D 1   1.00000     0.00000
 Structure written by MMmdl.
 48 49  0  0  0  0  0  0  0  0  2 V2000
  143.6895  133.0318  150.9791 C   0  0  0  0  0  0  0  0  0  0  0  0
  144.3050  134.3468  151.4088 C   0  0  0  0  0  0  0  0  0  0  0  0
  143.5961  135.2427  152.2368 C   0  0  0  0  0  0  0  0  0  0  0  0
  144.2185  136.4508  152.6043 C   0  0  0  0  0  0  0  0  0  0  0  0
  145.5187  136.7186  152.1280 C   0  0  0  0  0  0  0  0  0  0  0  0
  146.2275  138.0175  152.4704 C   0  0  0  0  0  0  0  0  0  0  0  0
  146.8123  138.0413  153.8953 C   0  0  0  0  0  0  0  0  0  0  0  0
  147.2890  139.3702  154.2710 N   0  0  0  0  0  0  0  0  0  0  0  0
  146.8010  140.1290  155.2681 C   0  0  0  0  0  0  0  0  0  0  0  0
  145.8582  139.7669  155.9728 O   0  0  0  0  0  0  0  0  0  0  0  0
  147.4877  141.2775  155.4871 N   0  0  0  0  0  0  0  0  0  0  0  0
  147.1673  142.2919  156.5015 C   0  0  0  0  0  0  0  0  0  0  0  0
  148.1776  142.1829  157.6594 C   0  0  0  0  0  0  0  0  0  0  0  0
  149.5804  142.2886  157.1701 N   0  3  0  0  0  0  0  0  0  0  0  0
  150.5895  142.3099  158.2720 C   0  0  1  0  0  0  0  0  0  0  0  0
  151.7579  141.3259  158.0561 C   0  0  0  0  0  0  0  0  0  0  0  0
  151.0710  143.7437  158.5856 C   0  0  0  0  0  0  0  0  0  0  0  0
  150.0385  144.4901  158.9785 F   0  0  0  0  0  0  0  0  0  0  0  0
  151.9602  143.7068  159.5777 F   0  0  0  0  0  0  0  0  0  0  0  0
  151.6427  144.3192  157.5288 F   0  0  0  0  0  0  0  0  0  0  0  0
  149.8704  141.3569  156.0425 C   0  0  0  0  0  0  0  0  0  0  0  0
  148.8225  141.5017  154.9250 C   0  0  0  0  0  0  0  0  0  0  0  0
  146.1400  135.7552  151.3056 C   0  0  0  0  0  0  0  0  0  0  0  0
  145.5518  134.5931  150.9503 N   0  0  0  0  0  0  0  0  0  0  0  0
  142.6955  132.9010  151.4076 H   0  0  0  0  0  0  0  0  0  0  0  0
  144.3119  132.1974  151.3033 H   0  0  0  0  0  0  0  0  0  0  0  0
  143.6002  132.9929  149.8930 H   0  0  0  0  0  0  0  0  0  0  0  0
  142.5990  135.0122  152.5821 H   0  0  0  0  0  0  0  0  0  0  0  0
  143.7012  137.1620  153.2315 H   0  0  0  0  0  0  0  0  0  0  0  0
  147.0223  138.1930  151.7443 H   0  0  0  0  0  0  0  0  0  0  0  0
  145.5224  138.8407  152.3505 H   0  0  0  0  0  0  0  0  0  0  0  0
  146.0438  137.7436  154.6088 H   0  0  0  0  0  0  0  0  0  0  0  0
  147.6104  137.3025  153.9857 H   0  0  0  0  0  0  0  0  0  0  0  0
  148.0811  139.7257  153.7560 H   0  0  0  0  0  0  0  0  0  0  0  0
  147.2303  143.2808  156.0448 H   0  0  0  0  0  0  0  0  0  0  0  0
  146.1539  142.2179  156.8961 H   0  0  0  0  0  0  0  0  0  0  0  0
  147.9773  142.9729  158.3842 H   0  0  0  0  0  0  0  0  0  0  0  0
  148.0406  141.2330  158.1780 H   0  0  0  0  0  0  0  0  0  0  0  0
  150.0670  141.9818  159.1721 H   0  0  0  0  0  0  0  0  0  0  0  0
  152.3892  141.2771  158.9435 H   0  0  0  0  0  0  0  0  0  0  0  0
  152.3967  141.6264  157.2256 H   0  0  0  0  0  0  0  0  0  0  0  0
  151.4022  140.3148  157.8579 H   0  0  0  0  0  0  0  0  0  0  0  0
  150.8582  141.5515  155.6288 H   0  0  0  0  0  0  0  0  0  0  0  0
  149.8678  140.3255  156.3967 H   0  0  0  0  0  0  0  0  0  0  0  0
  149.0517  140.8208  154.1037 H   0  0  0  0  0  0  0  0  0  0  0  0
  148.8674  142.5036  154.4959 H   0  0  0  0  0  0  0  0  0  0  0  0
  147.1321  135.9254  150.9145 H   0  0  0  0  0  0  0  0  0  0  0  0
  149.6313  143.2125  156.7644 H   0  0  0  0  0  0  0  0  0  0  0  0
  1  2  1  0  0  0  0
  1 25  1  0  0  0  0
  1 26  1  0  0  0  0
  1 27  1  0  0  0  0
  2 24  1  0  0  0  0
  2  3  2  0  0  0  0
  3  4  1  0  0  0  0
  3 28  1  0  0  0  0
  4  5  2  0  0  0  0
  4 29  1  0  0  0  0
  5  6  1  0  0  0  0
  5 23  1  0  0  0  0
  6  7  1  0  0  0  0
  6 30  1  0  0  0  0
  6 31  1  0  0  0  0
  7  8  1  0  0  0  0
  7 32  1  0  0  0  0
  7 33  1  0  0  0  0
  8  9  1  0  0  0  0
  8 34  1  0  0  0  0
  9 10  2  0  0  0  0
  9 11  1  0  0  0  0
 11 22  1  0  0  0  0
 11 12  1  0  0  0  0
 12 13  1  0  0  0  0
 12 35  1  0  0  0  0
 12 36  1  0  0  0  0
 13 14  1  0  0  0  0
 13 37  1  0  0  0  0
 13 38  1  0  0  0  0
 14 15  1  0  0  0  0
 14 21  1  0  0  0  0
 14 48  1  0  0  0  0
 15 16  1  0  0  0  0
 15 17  1  0  0  0  0
 15 39  1  0  0  0  0
 16 40  1  0  0  0  0
 16 41  1  0  0  0  0
 16 42  1  0  0  0  0
 17 18  1  0  0  0  0
 17 19  1  0  0  0  0
 17 20  1  0  0  0  0
 21 22  1  0  0  0  0
 21 43  1  0  0  0  0
 21 44  1  0  0  0  0
 22 45  1  0  0  0  0
 22 46  1  0  0  0  0
 23 24  2  0  0  0  0
 23 47  1  0  0  0  0
M  CHG  1  14   1
M  END
> <s_m_source_file>
AV-unprocessed.smi

> <i_m_source_file_index>
906

> <i_lp_mmshare_version>
43012

> <i_f3d_flags>
0

> <s_epik_input>
W0NIM11jMVtjSF1bY0hdYyhbY0hdbjEpW0NIMl1bQ0gyXVtOSF1DKD1PKU4yW0NIMl1bQ0gyXU4oW0NASF0oW0NIM10pQyhGKShGKUYpW0NIMl1bQ0gyXTI=

> <s_epik_cmdline>
J2VwaWtfcHl0aG9uJywgJy1waCcsICc3LjAnLCAnLXRuJywgJzgnLCAnLW1hJywgJzIwMCcsICctbWV0YWxfYmluZGluZycsICctaW1hZScsICc8aW5maWxlLm1hZT4nLCAnLW9tYWUnLCAnPG91dGZpbGUubWFlPic=

> <r_epik_Ionization_Penalty>
2.02136

> <r_epik_Ionization_Penalty_Charging>
1.96814

> <r_epik_Ionization_Penalty_Neutral>
0.0532286

> <r_epik_State_Penalty>
2.14285

> <r_epik_Charging_Adjusted_Penalty>
4.11098

> <i_epik_Tot_Q>
1

> <i_epik_Tot_abs_Q>
1

> <r_epik_Metal_State_Penalty>
2.1406

> <b_epik_Metal_Only>
0

> <s_lp_Force_Field>
OPLS_2005

> <r_lp_Energy>
51.1917

> <b_lp_Chiralities_Consistent>
1

> <s_lp_Variant>
AV-unprocessed.smi:906-6

> <Gold.Version>
5.8.1

> <Gold.Id.Protein>
6NUR|6NUR_protein|mol2

> <Gold.PLP.Fitness>
43.6611

> <Gold.PLP.PLP>
-38.9109

> <Gold.PLP.part.hbond>
-1.0000

> <Gold.PLP.part.metal>
0.0000

> <Gold.PLP.part.buried>
-3.8175

> <Gold.PLP.part.nonpolar>
-35.1448

> <Gold.PLP.part.repulsive>
0.2429

> <Gold.PLP.ligand.clash>
1.5880

> <Gold.PLP.ligand.torsion>
1.7538

> <Gold.PLP.Chemscore.Hbond>
2.0000

> <Gold.PLP.Chemscore.CHOScore>
0.9864

> <Gold.PLP.Chemscore.Metal>
0.0000

> <Gold.Chemscore.Hbonds>
donor molecule, donor type, donor heavy atom, donor atom, acceptor molecule, acceptor atom, score
      L1  H    14    48       P1  8028  2.00
      L1  C    23    47       P1  7948  0.97

> <Gold.PLP.Chemscore.Internal.Correction>
0.8866

> <Gold.Rescore>
     Score         DG    S(hbond)    S(metal)    S(lipo)     H(rot)  DE(clash)    DE(int)     intcor
     12.88     -14.84       0.97        0.00      87.56       1.62       0.12       1.84       ----

> <Gold.Chemscore.Fitness>
12.8758

> <Gold.Chemscore.DG>
-14.8353

> <Gold.Chemscore.ZeroCoef>
-5.4800

> <Gold.Chemscore.Hbond>
0.9731

> <Gold.Chemscore.Metal>
0.0000

> <Gold.Chemscore.Lipo>
87.5644

> <Gold.Chemscore.Internal_Hbond>
0.0000

> <Gold.Chemscore.DEClash>
0.1244

> <Gold.Chemscore.DEInternal>
1.8351

> <Gold.Chemscore.Rot>
1.6171

> <Gold.Chemscore.Internal.Correction>
   9.000000E+99

> <Gold.Chemscore.Hbonds>
donor molecule, donor type, donor heavy atom, donor atom, acceptor molecule, acceptor atom, score
      L1  H    14    48       P1  8028  0.92

> <Gold.Chemscore.Hbond.Weighted>
-3.2501

> <Gold.Chemscore.Metal.Weighted>
-0.0000

> <Gold.Chemscore.Lipo.Weighted>
-10.2450

> <Gold.Chemscore.Internal_Hbond.Weighted>
0.0000

> <Gold.Chemscore.DEClash.Weighted>
0.1244

> <Gold.Chemscore.DEInternal.Weighted>
1.8351

> <Gold.Chemscore.Rot.Weighted>
4.1398

> <Gold.Chemscore.Internal.Correction.Weighted>
   9.000000E+99

> <Gold.Protein.RotatedTorsions>
[ 6907 6896 6895 6894 ] final  139.00 input  -60.11 | X-H torsion
[ 7974 7965 7964 7962 ] final -114.24 input  175.53 | X-H torsion
[ 8008 7997 7996 7995 ] final -117.04 input   59.86 | X-H torsion
[ 10167 10162 10161 10158 ] final   60.25 input  -65.29 | X-H torsion
[ 10718 10713 10712 10709 ] final -166.45 input   66.30 | X-H torsion
[ 10763 10752 10751 10750 ] final  129.93 input  -60.55 | X-H torsion
[ 11005 11000 10999 10996 ] final    0.95 input  -57.11 | X-H torsion

> <Gold.Protein.ActiveResidues>
 VAL166  LYS551  ARG553  GLY616  TRP617  ASP618  TYR619  PRO620  LYS621  CYS622 
 ASP623  PHE694  ASN695  SER759  ASP760  ASP761  ALA762  ILE779  LEU786  VAL792 
 PHE793  MET794  SER795  GLU796  ALA797  LYS798  CYS799  TRP800  GLU811  SER814 

> <Gold.Protein.RotatedAtoms>
  152.2600  133.5289  159.5375 H   0  0  0  0  0  0  0  0  0  0  0  0  # atno 6907 bound_to 6896
  150.7122  134.0842  159.3918 H   0  0  0  0  0  0  0  0  0  0  0  0  # atno 6908 bound_to 6896
  151.8760  135.0471  160.0535 H   0  0  0  0  0  0  0  0  0  0  0  0  # atno 6909 bound_to 6896
  145.1225  140.8677  143.3805 H   0  0  0  0  0  0  0  0  0  0  0  0  # atno 7974 bound_to 7965
  155.0773  140.0394  157.2628 H   0  0  0  0  0  0  0  0  0  0  0  0  # atno 8008 bound_to 7997
  154.6934  140.2658  155.6765 H   0  0  0  0  0  0  0  0  0  0  0  0  # atno 8009 bound_to 7997
  156.2736  140.2755  156.1520 H   0  0  0  0  0  0  0  0  0  0  0  0  # atno 8010 bound_to 7997
  140.1676  144.4308  150.6677 H   0  0  0  0  0  0  0  0  0  0  0  0  # atno 10167 bound_to 10162
  156.6681  130.9073  151.3039 H   0  0  0  0  0  0  0  0  0  0  0  0  # atno 10718 bound_to 10713
  153.7498  135.3211  155.3319 H   0  0  0  0  0  0  0  0  0  0  0  0  # atno 10763 bound_to 10752
  154.8267  135.4564  154.0943 H   0  0  0  0  0  0  0  0  0  0  0  0  # atno 10764 bound_to 10752
  153.2142  135.6940  153.8159 H   0  0  0  0  0  0  0  0  0  0  0  0  # atno 10765 bound_to 10752
  140.6209  133.9662  155.8224 H   0  0  0  0  0  0  0  0  0  0  0  0  # atno 11005 bound_to 11000
  145.0725  139.3021  143.5825 LP  0  0  0  0  0  0  0  0  0  0  0  0  # atno 17320 bound_to 7965
  146.3520  140.0204  142.8659 LP  0  0  0  0  0  0  0  0  0  0  0  0  # atno 17321 bound_to 7965
  140.6603  143.2250  151.5873 LP  0  0  0  0  0  0  0  0  0  0  0  0  # atno 17342 bound_to 10162
  139.5352  144.2801  152.1236 LP  0  0  0  0  0  0  0  0  0  0  0  0  # atno 17343 bound_to 10162
  157.7087  130.9414  150.1015 LP  0  0  0  0  0  0  0  0  0  0  0  0  # atno 17370 bound_to 10713
  156.1960  130.3657  149.8849 LP  0  0  0  0  0  0  0  0  0  0  0  0  # atno 17371 bound_to 10713
  141.0743  134.0159  157.3481 LP  0  0  0  0  0  0  0  0  0  0  0  0  # atno 17394 bound_to 11000
  139.9154  135.0196  156.7859 LP  0  0  0  0  0  0  0  0  0  0  0  0  # atno 17395 bound_to 11000

$$$$
