AV-unprocessed.smi:1487|AV-procd|sdf|6009|dock10
  -GOLD-   22720 6103D 1   1.00000     0.00000
 Structure written by MMmdl.
 48 50  0  0  0  0  0  0  0  0  2 V2000
  153.4378  142.5979  160.6402 C   0  0  0  0  0  0  0  0  0  0  0  0
  152.5087  142.3383  159.4675 C   0  0  0  0  0  0  0  0  0  0  0  0
  152.6190  141.1195  158.7608 C   0  0  0  0  0  0  0  0  0  0  0  0
  151.7737  140.8387  157.6654 C   0  0  0  0  0  0  0  0  0  0  0  0
  151.7082  139.7273  156.8431 N   0  0  0  0  0  0  0  0  0  0  0  0
  150.7227  140.0626  156.0162 C   0  0  0  0  0  0  0  0  0  0  0  0
  150.1504  141.2689  156.1959 N   0  0  0  0  0  0  0  0  0  0  0  0
  149.0725  141.8502  155.4154 C   0  0  0  0  0  0  0  0  0  0  0  0
  148.6041  140.9325  154.2680 C   0  0  2  0  0  0  0  0  0  0  0  0
  149.5140  141.0919  153.1981 O   0  0  0  0  0  0  0  0  0  0  0  0
  147.1751  141.2469  153.7690 C   0  0  0  0  0  0  0  0  0  0  0  0
  146.2982  140.0485  153.7663 N   0  3  2  0  0  0  0  0  0  0  0  0
  145.9170  139.6215  155.1367 C   0  0  0  0  0  0  0  0  0  0  0  0
  144.8690  138.4988  155.0906 C   0  0  0  0  0  0  0  0  0  0  0  0
  145.3787  137.3018  154.2760 C   0  0  0  0  0  0  0  0  0  0  0  0
  145.8585  137.7433  152.8830 C   0  0  1  0  0  0  0  0  0  0  0  0
  144.7581  138.1068  152.0722 O   0  0  0  0  0  0  0  0  0  0  0  0
  146.8521  138.9182  152.9700 C   0  0  0  0  0  0  0  0  0  0  0  0
  150.8080  141.8187  157.2917 C   0  0  0  0  0  0  0  0  0  0  0  0
  150.6864  143.0334  157.9897 C   0  0  0  0  0  0  0  0  0  0  0  0
  151.5404  143.2991  159.0805 C   0  0  0  0  0  0  0  0  0  0  0  0
  151.4026  144.6150  159.8257 C   0  0  0  0  0  0  0  0  0  0  0  0
  154.0689  141.7330  160.8474 H   0  0  0  0  0  0  0  0  0  0  0  0
  152.8659  142.8162  161.5423 H   0  0  0  0  0  0  0  0  0  0  0  0
  154.0895  143.4457  160.4284 H   0  0  0  0  0  0  0  0  0  0  0  0
  153.3557  140.3867  159.0565 H   0  0  0  0  0  0  0  0  0  0  0  0
  150.4046  139.3958  155.2279 H   0  0  0  0  0  0  0  0  0  0  0  0
  148.2402  142.0711  156.0860 H   0  0  0  0  0  0  0  0  0  0  0  0
  149.4176  142.8065  155.0201 H   0  0  0  0  0  0  0  0  0  0  0  0
  148.6712  139.8997  154.6060 H   0  0  0  0  0  0  0  0  0  0  0  0
  149.1982  140.6100  152.4492 H   0  0  0  0  0  0  0  0  0  0  0  0
  146.6997  142.0153  154.3798 H   0  0  0  0  0  0  0  0  0  0  0  0
  147.2465  141.6668  152.7643 H   0  0  0  0  0  0  0  0  0  0  0  0
  146.8048  139.2928  155.6800 H   0  0  0  0  0  0  0  0  0  0  0  0
  145.5033  140.4682  155.6857 H   0  0  0  0  0  0  0  0  0  0  0  0
  144.6203  138.1793  156.1033 H   0  0  0  0  0  0  0  0  0  0  0  0
  143.9447  138.8776  154.6521 H   0  0  0  0  0  0  0  0  0  0  0  0
  146.2093  136.8371  154.8090 H   0  0  0  0  0  0  0  0  0  0  0  0
  144.6031  136.5392  154.1922 H   0  0  0  0  0  0  0  0  0  0  0  0
  146.3444  136.8986  152.3936 H   0  0  0  0  0  0  0  0  0  0  0  0
  144.5876  139.0295  152.1882 H   0  0  0  0  0  0  0  0  0  0  0  0
  147.1186  139.2436  151.9646 H   0  0  0  0  0  0  0  0  0  0  0  0
  147.7777  138.5770  153.4370 H   0  0  0  0  0  0  0  0  0  0  0  0
  149.9407  143.7549  157.6910 H   0  0  0  0  0  0  0  0  0  0  0  0
  150.6657  145.2650  159.3529 H   0  0  0  0  0  0  0  0  0  0  0  0
  152.3535  145.1478  159.8443 H   0  0  0  0  0  0  0  0  0  0  0  0
  151.0839  144.4381  160.8532 H   0  0  0  0  0  0  0  0  0  0  0  0
  145.4377  140.3272  153.3171 H   0  0  0  0  0  0  0  0  0  0  0  0
  1  2  1  0  0  0  0
  1 23  1  0  0  0  0
  1 24  1  0  0  0  0
  1 25  1  0  0  0  0
  2 21  1  0  0  0  0
  2  3  2  0  0  0  0
  3  4  1  0  0  0  0
  3 26  1  0  0  0  0
  4 19  2  0  0  0  0
  4  5  1  0  0  0  0
  5  6  2  0  0  0  0
  6  7  1  0  0  0  0
  6 27  1  0  0  0  0
  7  8  1  0  0  0  0
  7 19  1  0  0  0  0
  8  9  1  0  0  0  0
  8 28  1  0  0  0  0
  8 29  1  0  0  0  0
  9 10  1  0  0  0  0
  9 11  1  0  0  0  0
  9 30  1  0  0  0  0
 10 31  1  0  0  0  0
 11 12  1  0  0  0  0
 11 32  1  0  0  0  0
 11 33  1  0  0  0  0
 12 18  1  0  0  0  0
 12 13  1  0  0  0  0
 12 48  1  0  0  0  0
 13 14  1  0  0  0  0
 13 34  1  0  0  0  0
 13 35  1  0  0  0  0
 14 15  1  0  0  0  0
 14 36  1  0  0  0  0
 14 37  1  0  0  0  0
 15 16  1  0  0  0  0
 15 38  1  0  0  0  0
 15 39  1  0  0  0  0
 16 17  1  0  0  0  0
 16 18  1  0  0  0  0
 16 40  1  0  0  0  0
 17 41  1  0  0  0  0
 18 42  1  0  0  0  0
 18 43  1  0  0  0  0
 19 20  1  0  0  0  0
 20 21  2  0  0  0  0
 20 44  1  0  0  0  0
 21 22  1  0  0  0  0
 22 45  1  0  0  0  0
 22 46  1  0  0  0  0
 22 47  1  0  0  0  0
M  CHG  1  12   1
M  END
> <s_m_source_file>
AV-unprocessed.smi

> <i_m_source_file_index>
1487

> <i_lp_mmshare_version>
43012

> <i_f3d_flags>
0

> <s_epik_input>
W0NIM11jKFtjSF0xKWMoW0NIM10pW2NIXWMoYzEyKW4oW2NIXW4yKVtDSDJdW0NASF0oW09IXSlbQ0gyXU4zW0NIMl1bQ0gyXVtDSDJdW0NAQEhdKFtPSF0pW0NIMl0z

> <s_epik_cmdline>
J2VwaWtfcHl0aG9uJywgJy1waCcsICc3LjAnLCAnLXRuJywgJzgnLCAnLW1hJywgJzIwMCcsICctbWV0YWxfYmluZGluZycsICctaW1hZScsICc8aW5maWxlLm1hZT4nLCAnLW9tYWUnLCAnPG91dGZpbGUubWFlPic=

> <r_epik_Ionization_Penalty>
0.0940186

> <r_epik_Ionization_Penalty_Charging>
0.00679686

> <r_epik_Ionization_Penalty_Neutral>
0.0872218

> <r_epik_State_Penalty>
0.0799311

> <r_epik_Charging_Adjusted_Penalty>
0.086728

> <i_epik_Tot_Q>
1

> <i_epik_Tot_abs_Q>
1

> <r_epik_Metal_State_Penalty>
7.95545e-05

> <b_epik_Metal_Only>
0

> <s_lp_Force_Field>
OPLS_2005

> <r_lp_Energy>
25.8202

> <b_lp_Chiralities_Consistent>
1

> <s_lp_Variant>
AV-unprocessed.smi:1487-3

> <Gold.Version>
5.8.1

> <Gold.Id.Protein>
6NUR|6NUR_protein|mol2

> <Gold.PLP.Fitness>
54.2279

> <Gold.PLP.PLP>
-42.7223

> <Gold.PLP.part.hbond>
-5.0035

> <Gold.PLP.part.metal>
0.0000

> <Gold.PLP.part.buried>
-4.2667

> <Gold.PLP.part.nonpolar>
-34.4832

> <Gold.PLP.part.repulsive>
0.0000

> <Gold.PLP.ligand.clash>
0.0000

> <Gold.PLP.ligand.torsion>
0.9715

> <Gold.PLP.Chemscore.Hbond>
4.4721

> <Gold.PLP.Chemscore.CHOScore>
0.0000

> <Gold.PLP.Chemscore.Metal>
0.0000

> <Gold.Chemscore.Hbonds>
donor molecule, donor type, donor heavy atom, donor atom, acceptor molecule, acceptor atom, score
      L1  H    10    31       P1  7957  0.72
      L1  H    12    48       P1 10175  2.00
      L1  H    17    41       P1 10175  1.00
      P1  H  7989  7998       L1    10  0.09
      P1  H  8011  8017       L1    10  0.65

> <Gold.PLP.Chemscore.Internal.Correction>
0.0322

> <Gold.Rescore>
     Score         DG    S(hbond)    S(metal)    S(lipo)     H(rot)  DE(clash)    DE(int)     intcor
     19.91     -22.03       3.01        0.00     114.08       2.67       1.13       0.99       ----

> <Gold.Chemscore.Fitness>
19.9059

> <Gold.Chemscore.DG>
-22.0318

> <Gold.Chemscore.ZeroCoef>
-5.4800

> <Gold.Chemscore.Hbond>
3.0069

> <Gold.Chemscore.Metal>
0.0000

> <Gold.Chemscore.Lipo>
114.0791

> <Gold.Chemscore.Internal_Hbond>
0.0000

> <Gold.Chemscore.DEClash>
1.1317

> <Gold.Chemscore.DEInternal>
0.9942

> <Gold.Chemscore.Rot>
2.6712

> <Gold.Chemscore.Internal.Correction>
   9.000000E+99

> <Gold.Chemscore.Hbonds>
donor molecule, donor type, donor heavy atom, donor atom, acceptor molecule, acceptor atom, score
      L1  H    10    31       P1  7957  0.70
      L1  H    12    48       P1 10175  0.98
      L1  H    17    41       P1 10175  0.99
      P1  H  7989  7998       L1    10  0.09
      P1  H  8011  8017       L1    10  0.06

> <Gold.Chemscore.Hbond.Weighted>
-10.0429

> <Gold.Chemscore.Metal.Weighted>
-0.0000

> <Gold.Chemscore.Lipo.Weighted>
-13.3473

> <Gold.Chemscore.Internal_Hbond.Weighted>
0.0000

> <Gold.Chemscore.DEClash.Weighted>
1.1317

> <Gold.Chemscore.DEInternal.Weighted>
0.9942

> <Gold.Chemscore.Rot.Weighted>
6.8383

> <Gold.Chemscore.Internal.Correction.Weighted>
   9.000000E+99

> <Gold.Protein.RotatedTorsions>
[ 6907 6896 6895 6894 ] final  120.23 input  -60.11 | X-H torsion
[ 7974 7965 7964 7962 ] final  177.85 input  175.53 | X-H torsion
[ 8008 7997 7996 7995 ] final  -52.14 input   59.86 | X-H torsion
[ 10167 10162 10161 10158 ] final  159.99 input  -65.29 | X-H torsion
[ 10718 10713 10712 10709 ] final  -92.78 input   66.30 | X-H torsion
[ 10763 10752 10751 10750 ] final   52.58 input  -60.55 | X-H torsion
[ 11005 11000 10999 10996 ] final  -29.08 input  -57.11 | X-H torsion

> <Gold.Protein.ActiveResidues>
 VAL166  LYS551  ARG553  GLY616  TRP617  ASP618  TYR619  PRO620  LYS621  CYS622 
 ASP623  PHE694  ASN695  SER759  ASP760  ASP761  ALA762  ILE779  LEU786  VAL792 
 PHE793  MET794  SER795  GLU796  ALA797  LYS798  CYS799  TRP800  GLU811  SER814 

> <Gold.Protein.RotatedAtoms>
  152.4413  133.7454  159.6664 H   0  0  0  0  0  0  0  0  0  0  0  0  # atno 6907 bound_to 6896
  150.8305  133.8089  159.3107 H   0  0  0  0  0  0  0  0  0  0  0  0  # atno 6908 bound_to 6896
  151.5744  135.1063  160.0054 H   0  0  0  0  0  0  0  0  0  0  0  0  # atno 6909 bound_to 6896
  144.7163  140.0310  143.6439 H   0  0  0  0  0  0  0  0  0  0  0  0  # atno 7974 bound_to 7965
  154.4099  140.1231  156.4942 H   0  0  0  0  0  0  0  0  0  0  0  0  # atno 8008 bound_to 7997
  155.6959  140.3495  155.4893 H   0  0  0  0  0  0  0  0  0  0  0  0  # atno 8009 bound_to 7997
  155.9428  140.1090  157.1032 H   0  0  0  0  0  0  0  0  0  0  0  0  # atno 8010 bound_to 7997
  139.4836  144.4677  151.8619 H   0  0  0  0  0  0  0  0  0  0  0  0  # atno 10167 bound_to 10162
  156.0006  130.5000  150.5677 H   0  0  0  0  0  0  0  0  0  0  0  0  # atno 10718 bound_to 10713
  152.9790  135.5807  154.4602 H   0  0  0  0  0  0  0  0  0  0  0  0  # atno 10763 bound_to 10752
  154.4179  135.2771  155.1997 H   0  0  0  0  0  0  0  0  0  0  0  0  # atno 10764 bound_to 10752
  154.3758  135.6157  153.5818 H   0  0  0  0  0  0  0  0  0  0  0  0  # atno 10765 bound_to 10752
  140.9265  133.7365  156.0875 H   0  0  0  0  0  0  0  0  0  0  0  0  # atno 11005 bound_to 11000
  146.0103  139.3164  143.0874 LP  0  0  0  0  0  0  0  0  0  0  0  0  # atno 17320 bound_to 7965
  145.8690  140.9431  143.0660 LP  0  0  0  0  0  0  0  0  0  0  0  0  # atno 17321 bound_to 7965
  140.4144  144.2327  150.5888 LP  0  0  0  0  0  0  0  0  0  0  0  0  # atno 17342 bound_to 10162
  140.4935  143.2340  151.8783 LP  0  0  0  0  0  0  0  0  0  0  0  0  # atno 17343 bound_to 10162
  157.3577  131.0744  151.1662 LP  0  0  0  0  0  0  0  0  0  0  0  0  # atno 17370 bound_to 10713
  157.2458  130.6590  149.5909 LP  0  0  0  0  0  0  0  0  0  0  0  0  # atno 17371 bound_to 10713
  140.7919  134.3608  157.5462 LP  0  0  0  0  0  0  0  0  0  0  0  0  # atno 17394 bound_to 11000
  139.8786  134.9145  156.3109 LP  0  0  0  0  0  0  0  0  0  0  0  0  # atno 17395 bound_to 11000

$$$$
