AV-unprocessed.smi:227|AV-procd|sdf|1739|dock10
  -GOLD-   2262020243D 1   1.00000     0.00000
 Structure written by MMmdl.
 54 58  0  0  0  0  0  0  0  0  1 V2000
  148.1191  132.9069  153.5053 O   0  0  0  0  0  0  0  0  0  0  0  0
  149.3679  133.4748  153.8438 C   0  0  0  0  0  0  0  0  0  0  0  0
  149.5806  133.5130  155.3789 C   0  0  2  0  0  0  0  0  0  0  0  0
  150.8962  134.2617  155.7458 C   0  0  0  0  0  0  0  0  0  0  0  0
  150.6919  135.5997  156.2822 N   0  0  0  0  0  0  0  0  0  0  0  0
  150.1773  135.9200  157.5176 C   0  0  0  0  0  0  0  0  0  0  0  0
  150.0806  137.1968  157.7661 N   0  0  0  0  0  0  0  0  0  0  0  0
  150.5801  137.8089  156.6224 C   0  0  0  0  0  0  0  0  0  0  0  0
  150.7576  139.1624  156.2115 C   0  0  0  0  0  0  0  0  0  0  0  0
  150.3958  140.2346  156.9666 N   0  0  0  0  0  0  0  0  0  0  0  0
  151.0544  141.5228  156.8142 C   0  0  2  0  0  0  0  0  0  0  0  0
  150.4859  142.3193  158.0013 C   0  0  0  0  0  0  0  0  0  0  0  0
  149.0532  141.7652  158.0768 C   0  0  0  0  0  0  0  0  0  0  0  0
  149.0469  140.7786  156.8946 C   0  0  1  0  0  0  0  0  0  0  0  0
  149.0083  141.5945  155.5774 C   0  0  2  0  0  0  0  0  0  0  0  0
  148.5459  140.7879  154.3478 C   0  0  0  0  0  0  0  0  0  0  0  0
  149.2136  141.2411  153.1897 O   0  0  0  0  0  0  0  0  0  0  0  0
  150.4693  142.0834  155.5009 C   0  0  0  0  0  0  0  0  0  0  0  0
  151.3339  139.3733  154.9983 N   0  0  0  0  0  0  0  0  0  0  0  0
  151.6824  138.3425  154.2245 C   0  0  0  0  0  0  0  0  0  0  0  0
  151.5518  137.0382  154.4668 N   0  0  0  0  0  0  0  0  0  0  0  0
  150.9910  136.8145  155.6888 C   0  0  0  0  0  0  0  0  0  0  0  0
  149.5055  132.0861  156.0096 C   0  0  1  0  0  0  0  0  0  0  0  0
  150.6618  131.1715  155.6149 C   0  0  0  0  0  0  0  0  0  0  0  0
  151.7599  131.5128  156.6228 C   0  0  0  0  0  0  0  0  0  0  0  0
  151.0986  132.1021  157.7365 O   0  0  0  0  0  0  0  0  0  0  0  0
  149.6952  132.0323  157.5327 C   0  0  0  0  0  0  0  0  0  0  0  0
  147.7760  132.4609  154.2649 H   0  0  0  0  0  0  0  0  0  0  0  0
  150.1162  132.8570  153.3529 H   0  0  0  0  0  0  0  0  0  0  0  0
  149.4457  134.4706  153.4075 H   0  0  0  0  0  0  0  0  0  0  0  0
  148.7599  134.0993  155.7945 H   0  0  0  0  0  0  0  0  0  0  0  0
  151.4646  133.6911  156.4804 H   0  0  0  0  0  0  0  0  0  0  0  0
  151.5614  134.3342  154.8871 H   0  0  0  0  0  0  0  0  0  0  0  0
  149.8646  135.1711  158.2305 H   0  0  0  0  0  0  0  0  0  0  0  0
  152.1443  141.4850  156.8223 H   0  0  0  0  0  0  0  0  0  0  0  0
  151.0311  142.0966  158.9194 H   0  0  0  0  0  0  0  0  0  0  0  0
  150.5178  143.3971  157.8384 H   0  0  0  0  0  0  0  0  0  0  0  0
  148.8972  141.2394  159.0197 H   0  0  0  0  0  0  0  0  0  0  0  0
  148.2907  142.5404  157.9934 H   0  0  0  0  0  0  0  0  0  0  0  0
  148.2374  140.0558  156.9796 H   0  0  0  0  0  0  0  0  0  0  0  0
  148.3306  142.4415  155.6955 H   0  0  0  0  0  0  0  0  0  0  0  0
  148.7353  139.7215  154.4653 H   0  0  0  0  0  0  0  0  0  0  0  0
  147.4729  140.9095  154.1976 H   0  0  0  0  0  0  0  0  0  0  0  0
  149.2098  140.5465  152.5489 H   0  0  0  0  0  0  0  0  0  0  0  0
  150.5472  143.1691  155.4359 H   0  0  0  0  0  0  0  0  0  0  0  0
  150.9855  141.6625  154.6370 H   0  0  0  0  0  0  0  0  0  0  0  0
  152.1257  138.5999  153.2739 H   0  0  0  0  0  0  0  0  0  0  0  0
  148.5494  131.6318  155.7471 H   0  0  0  0  0  0  0  0  0  0  0  0
  150.3575  130.1327  155.7525 H   0  0  0  0  0  0  0  0  0  0  0  0
  151.0018  131.2642  154.5859 H   0  0  0  0  0  0  0  0  0  0  0  0
  152.3238  130.6289  156.9217 H   0  0  0  0  0  0  0  0  0  0  0  0
  152.4600  132.2384  156.2078 H   0  0  0  0  0  0  0  0  0  0  0  0
  149.1676  132.7953  158.1001 H   0  0  0  0  0  0  0  0  0  0  0  0
  149.3473  131.0697  157.9113 H   0  0  0  0  0  0  0  0  0  0  0  0
  1  2  1  0  0  0  0
  1 28  1  0  0  0  0
  2  3  1  0  0  0  0
  2 29  1  0  0  0  0
  2 30  1  0  0  0  0
  3  4  1  0  0  0  0
  3 23  1  0  0  0  0
  3 31  1  0  0  0  0
  4  5  1  0  0  0  0
  4 32  1  0  0  0  0
  4 33  1  0  0  0  0
  5 22  1  0  0  0  0
  5  6  1  0  0  0  0
  6  7  2  0  0  0  0
  6 34  1  0  0  0  0
  7  8  1  0  0  0  0
  8 22  2  0  0  0  0
  8  9  1  0  0  0  0
  9 10  1  0  0  0  0
  9 19  2  0  0  0  0
 10 14  1  0  0  0  0
 10 11  1  0  0  0  0
 11 18  1  0  0  0  0
 11 12  1  0  0  0  0
 11 35  1  0  0  0  0
 12 13  1  0  0  0  0
 12 36  1  0  0  0  0
 12 37  1  0  0  0  0
 13 14  1  0  0  0  0
 13 38  1  0  0  0  0
 13 39  1  0  0  0  0
 14 15  1  0  0  0  0
 14 40  1  0  0  0  0
 15 16  1  0  0  0  0
 15 18  1  0  0  0  0
 15 41  1  0  0  0  0
 16 17  1  0  0  0  0
 16 42  1  0  0  0  0
 16 43  1  0  0  0  0
 17 44  1  0  0  0  0
 18 45  1  0  0  0  0
 18 46  1  0  0  0  0
 19 20  1  0  0  0  0
 20 21  2  0  0  0  0
 20 47  1  0  0  0  0
 21 22  1  0  0  0  0
 23 27  1  0  0  0  0
 23 24  1  0  0  0  0
 23 48  1  0  0  0  0
 24 25  1  0  0  0  0
 24 49  1  0  0  0  0
 24 50  1  0  0  0  0
 25 26  1  0  0  0  0
 25 51  1  0  0  0  0
 25 52  1  0  0  0  0
 26 27  1  0  0  0  0
 27 53  1  0  0  0  0
 27 54  1  0  0  0  0
M  END
> <s_m_source_file>
AV-unprocessed.smi

> <i_m_source_file_index>
227

> <i_lp_mmshare_version>
43012

> <i_f3d_flags>
0

> <s_epik_input>
W0NIMl0xT1tDSDJdW0NIMl1bQ0BIXTFbQ0BIXShbQ0gyXVtPSF0pW0NIMl1uKFtjSF1uMiljKGMyMyluW2NIXW5jM04oW0NASF00NSlbQ0BASF0oW0NIMl1bQ0gyXTQpW0NASF0oW0NIMl01KVtDSDJdW09IXQ==

> <s_epik_cmdline>
J2VwaWtfcHl0aG9uJywgJy1waCcsICc3LjAnLCAnLXRuJywgJzgnLCAnLW1hJywgJzIwMCcsICctbWV0YWxfYmluZGluZycsICctaW1hZScsICc8aW5maWxlLm1hZT4nLCAnLW9tYWUnLCAnPG91dGZpbGUubWFlPic=

> <r_lp_tautomer_probability>
1

> <r_epik_Ionization_Penalty>
0.0055791

> <r_epik_Ionization_Penalty_Charging>
0

> <r_epik_Ionization_Penalty_Neutral>
0.0055791

> <r_epik_State_Penalty>
0.00401299

> <r_epik_Charging_Adjusted_Penalty>
0.00401299

> <i_epik_Tot_Q>
0

> <i_epik_Tot_abs_Q>
0

> <r_epik_Metal_State_Penalty>
-0

> <b_epik_Metal_Only>
0

> <s_lp_Force_Field>
OPLS_2005

> <r_lp_Energy>
89.9209

> <b_lp_Chiralities_Consistent>
1

> <s_lp_Variant>
AV-unprocessed.smi:227-13

> <Gold.Version>
5.8.1

> <Gold.Id.Protein>
6NUR|6NUR_protein|mol2

> <Gold.PLP.Fitness>
44.5946

> <Gold.PLP.PLP>
-34.5895

> <Gold.PLP.part.hbond>
-5.2361

> <Gold.PLP.part.metal>
0.0000

> <Gold.PLP.part.buried>
-4.0614

> <Gold.PLP.part.nonpolar>
-24.9472

> <Gold.PLP.part.repulsive>
0.2159

> <Gold.PLP.ligand.clash>
0.0000

> <Gold.PLP.ligand.torsion>
1.9292

> <Gold.PLP.Chemscore.Hbond>
4.5610

> <Gold.PLP.Chemscore.CHOScore>
0.0000

> <Gold.PLP.Chemscore.Metal>
0.0000

> <Gold.Chemscore.Hbonds>
donor molecule, donor type, donor heavy atom, donor atom, acceptor molecule, acceptor atom, score
      L1  H    17    44       P1  7957  0.95
      P1  H  6896  6909       L1    26  1.00
      P1  H  7989  7998       L1    19  0.55
      P1  H  8011  8017       L1    17  1.00
      P1  H 10752 10763       L1    21  1.00

> <Gold.PLP.Chemscore.Internal.Correction>
0.1805

> <Gold.Rescore>
     Score         DG    S(hbond)    S(metal)    S(lipo)     H(rot)  DE(clash)    DE(int)     intcor
      9.57     -16.36       3.34        0.00      76.57       3.61       1.44       5.35       ----

> <Gold.Chemscore.Fitness>
9.5697

> <Gold.Chemscore.DG>
-16.3581

> <Gold.Chemscore.ZeroCoef>
-5.4800

> <Gold.Chemscore.Hbond>
3.3396

> <Gold.Chemscore.Metal>
0.0000

> <Gold.Chemscore.Lipo>
76.5650

> <Gold.Chemscore.Internal_Hbond>
0.0000

> <Gold.Chemscore.DEClash>
1.4403

> <Gold.Chemscore.DEInternal>
5.3481

> <Gold.Chemscore.Rot>
3.6071

> <Gold.Chemscore.Internal.Correction>
   9.000000E+99

> <Gold.Chemscore.Hbonds>
donor molecule, donor type, donor heavy atom, donor atom, acceptor molecule, acceptor atom, score
      L1  H    17    44       P1  7957  0.85
      P1  H  6896  6909       L1    26  0.39
      P1  H  7989  7998       L1    19  0.07
      P1  H  8011  8017       L1    17  0.24
      P1  H 10752 10763       L1    21  0.44

> <Gold.Chemscore.Hbond.Weighted>
-11.1542

> <Gold.Chemscore.Metal.Weighted>
-0.0000

> <Gold.Chemscore.Lipo.Weighted>
-8.9581

> <Gold.Chemscore.Internal_Hbond.Weighted>
0.0000

> <Gold.Chemscore.DEClash.Weighted>
1.4403

> <Gold.Chemscore.DEInternal.Weighted>
5.3481

> <Gold.Chemscore.Rot.Weighted>
9.2342

> <Gold.Chemscore.Internal.Correction.Weighted>
   9.000000E+99

> <Gold.Protein.RotatedTorsions>
[ 6907 6896 6895 6894 ] final  -35.29 input  -60.11 | X-H torsion
[ 7974 7965 7964 7962 ] final  -34.74 input  175.53 | X-H torsion
[ 8008 7997 7996 7995 ] final  179.04 input   59.86 | X-H torsion
[ 10167 10162 10161 10158 ] final  -88.12 input  -65.29 | X-H torsion
[ 10718 10713 10712 10709 ] final  -50.10 input   66.30 | X-H torsion
[ 10763 10752 10751 10750 ] final   43.54 input  -60.55 | X-H torsion
[ 11005 11000 10999 10996 ] final  172.17 input  -57.11 | X-H torsion

> <Gold.Protein.ActiveResidues>
 VAL166  LYS551  ARG553  GLY616  TRP617  ASP618  TYR619  PRO620  LYS621  CYS622 
 ASP623  PHE694  ASN695  SER759  ASP760  ASP761  ALA762  ILE779  LEU786  VAL792 
 PHE793  MET794  SER795  GLU796  ALA797  LYS798  CYS799  TRP800  GLU811  SER814 

> <Gold.Protein.RotatedAtoms>
  151.0417  134.9612  159.8164 H   0  0  0  0  0  0  0  0  0  0  0  0  # atno 6907 bound_to 6896
  152.5365  134.2649  159.8959 H   0  0  0  0  0  0  0  0  0  0  0  0  # atno 6908 bound_to 6896
  151.2662  133.4235  159.2652 H   0  0  0  0  0  0  0  0  0  0  0  0  # atno 6909 bound_to 6896
  146.0804  140.6075  142.8911 H   0  0  0  0  0  0  0  0  0  0  0  0  # atno 7974 bound_to 7965
  156.0479  140.1318  157.0083 H   0  0  0  0  0  0  0  0  0  0  0  0  # atno 8008 bound_to 7997
  154.4421  140.1017  156.6403 H   0  0  0  0  0  0  0  0  0  0  0  0  # atno 8009 bound_to 7997
  155.5568  140.3464  155.4484 H   0  0  0  0  0  0  0  0  0  0  0  0  # atno 8010 bound_to 7997
  140.3777  143.2763  151.9422 H   0  0  0  0  0  0  0  0  0  0  0  0  # atno 10167 bound_to 10162
  156.1832  130.4151  149.9477 H   0  0  0  0  0  0  0  0  0  0  0  0  # atno 10718 bound_to 10713
  152.9858  135.6098  154.3128 H   0  0  0  0  0  0  0  0  0  0  0  0  # atno 10763 bound_to 10752
  154.2843  135.2776  155.2685 H   0  0  0  0  0  0  0  0  0  0  0  0  # atno 10764 bound_to 10752
  154.5010  135.5867  153.6587 H   0  0  0  0  0  0  0  0  0  0  0  0  # atno 10765 bound_to 10752
  140.3268  134.7391  157.4105 H   0  0  0  0  0  0  0  0  0  0  0  0  # atno 11005 bound_to 11000
  144.7290  140.4612  143.6952 LP  0  0  0  0  0  0  0  0  0  0  0  0  # atno 17320 bound_to 7965
  145.6228  139.1526  143.3013 LP  0  0  0  0  0  0  0  0  0  0  0  0  # atno 17321 bound_to 7965
  139.4798  144.5847  151.7873 LP  0  0  0  0  0  0  0  0  0  0  0  0  # atno 17342 bound_to 10162
  140.4969  144.1227  150.5962 LP  0  0  0  0  0  0  0  0  0  0  0  0  # atno 17343 bound_to 10162
  156.7241  130.9018  151.3620 LP  0  0  0  0  0  0  0  0  0  0  0  0  # atno 17370 bound_to 10713
  157.6881  130.9206  150.0441 LP  0  0  0  0  0  0  0  0  0  0  0  0  # atno 17371 bound_to 10713
  140.0894  134.5621  155.8459 LP  0  0  0  0  0  0  0  0  0  0  0  0  # atno 17394 bound_to 11000
  141.2073  133.6663  156.6298 LP  0  0  0  0  0  0  0  0  0  0  0  0  # atno 17395 bound_to 11000

$$$$
