#       Name:                AV-unprocessed.smi:772
#       Creating user name   scv26
#       Creation time:       Fri Mar 27 01:10:16 2020


#       File generated by GOLD software.
#

@<TRIPOS>MOLECULE
AV-unprocessed.smi:772
    49    50     1
SMALL
NO_CHARGES


@<TRIPOS>ATOM
      1 ****        -1.1241   4.7485   1.7533 C.3            1 S1                 0.0000
      2 ****        -1.7618   3.8019   0.7582 C.ar           1 S1                 0.0000
      3 ****        -2.8955   3.0390   1.1092 C.ar           1 S1                 0.0000
      4 ****        -3.4379   2.1637   0.1490 C.ar           1 S1                 0.0000
      5 ****        -2.8286   2.0844  -1.1198 C.ar           1 S1                 0.0000
      6 ****        -3.3510   1.1240  -2.1740 C.3            1 S1                 0.0000
      7 ****        -2.9597  -0.3439  -1.9150 C.3            1 S1                 0.0000
      8 ****        -1.5133  -0.5134  -1.7936 N.am           1 S1                 0.0000
      9 ****        -0.8241  -0.5959  -0.6415 C.2            1 S1                 0.0000
     10 ****        -1.3781  -0.5786   0.4588 O.2            1 S1                 0.0000
     11 ****         0.5242  -0.6385  -0.7902 N.am           1 S1                 0.0000
     12 ****         1.2454  -0.9236  -2.0408 C.3            1 S1                 0.0000
     13 ****         1.6148  -2.4147  -2.0742 C.3            1 S1                 0.0000
     14 ****         2.7374  -2.8382  -0.7063 S.3            1 S1                 0.0000
     15 ****         1.8274  -2.1031   0.6990 C.3            1 S1                 0.0000
     16 ****         2.6045  -2.2263   2.0341 C.3            1 S1                 0.0000
     17 ****         3.9700  -1.5137   2.0313 C.3            1 S1                 0.0000
     18 ****         2.7503  -3.6909   2.4815 C.3            1 S1                 0.0000
     19 ****         1.4233  -0.6488   0.3698 C.3            1 S1                 0.0000
     20 ****        -1.7025   2.8968  -1.3719 C.ar           1 S1                 0.0000
     21 ****        -1.1743   3.7373  -0.4570 N.ar           1 S1                 0.0000
     22 ****        -1.7470   4.8682   2.6402 H              1 S1                 0.0000
     23 ****        -0.9785   5.7323   1.3062 H              1 S1                 0.0000
     24 ****        -0.1529   4.3653   2.0674 H              1 S1                 0.0000
     25 ****        -3.3364   3.1144   2.0922 H              1 S1                 0.0000
     26 ****        -4.2977   1.5551   0.3875 H              1 S1                 0.0000
     27 ****        -4.4369   1.2120  -2.2204 H              1 S1                 0.0000
     28 ****        -2.9804   1.4343  -3.1519 H              1 S1                 0.0000
     29 ****        -3.4673  -0.7140  -1.0226 H              1 S1                 0.0000
     30 ****        -3.3081  -0.9658  -2.7396 H              1 S1                 0.0000
     31 ****        -0.9863  -0.5242  -2.6545 H              1 S1                 0.0000
     32 ****         0.6776  -0.6619  -2.9336 H              1 S1                 0.0000
     33 ****         2.1488  -0.3145  -2.0962 H              1 S1                 0.0000
     34 ****         0.7182  -3.0316  -2.0034 H              1 S1                 0.0000
     35 ****         2.1025  -2.6653  -3.0164 H              1 S1                 0.0000
     36 ****         0.9074  -2.6802   0.8060 H              1 S1                 0.0000
     37 ****         1.9980  -1.7370   2.7975 H              1 S1                 0.0000
     38 ****         4.6545  -1.9516   1.3047 H              1 S1                 0.0000
     39 ****         4.4451  -1.5855   3.0100 H              1 S1                 0.0000
     40 ****         3.8718  -0.4532   1.8020 H              1 S1                 0.0000
     41 ****         3.3733  -4.2632   1.7940 H              1 S1                 0.0000
     42 ****         1.7794  -4.1836   2.5404 H              1 S1                 0.0000
     43 ****         3.2084  -3.7543   3.4689 H              1 S1                 0.0000
     44 ****         2.3034  -0.0425   0.1531 H              1 S1                 0.0000
     45 ****         0.9585  -0.1785   1.2379 H              1 S1                 0.0000
     46 ****        -1.2002   2.8598  -2.3274 H              1 S1                 0.0000
     47 ****        -2.3735  -0.5011   0.5162 LP             1 S1                 0.0000
     48 ****        -0.8325  -0.6421   1.2944 LP             1 S1                 0.0000
     49 ****        -0.3727   4.2951  -0.6721 LP             1 S1                 0.0000
@<TRIPOS>BOND
    1    1    2 1     
    2    1   22 1     
    3    1   23 1     
    4    1   24 1     
    5    2   21 ar    
    6    2    3 ar    
    7    3    4 ar    
    8    3   25 1     
    9    4    5 ar    
   10    4   26 1     
   11    5    6 1     
   12    5   20 ar    
   13    6    7 1     
   14    6   27 1     
   15    6   28 1     
   16    7    8 1     
   17    7   29 1     
   18    7   30 1     
   19    8    9 am    
   20    8   31 1     
   21    9   10 2     
   22    9   11 am    
   23   11   19 1     
   24   11   12 1     
   25   12   13 1     
   26   12   32 1     
   27   12   33 1     
   28   13   14 1     
   29   13   34 1     
   30   13   35 1     
   31   14   15 1     
   32   15   16 1     
   33   15   19 1     
   34   15   36 1     
   35   16   17 1     
   36   16   18 1     
   37   16   37 1     
   38   17   38 1     
   39   17   39 1     
   40   17   40 1     
   41   18   41 1     
   42   18   42 1     
   43   18   43 1     
   44   19   44 1     
   45   19   45 1     
   46   20   21 ar    
   47   20   46 1     
   48   10   47 1     
   49   10   48 1     
   50   21   49 1     
@<TRIPOS>SUBSTRUCTURE
      1 S1             1
@<TRIPOS>SET
LONE_PAIRS      STATIC     ATOMS    <user>   **** ""
3 47 48 49
DONOR_HYDROGENS      STATIC     ATOMS    <user>   **** ""
1 31
ATOM$BLUE        STATIC     ATOMS    COLORGROUP SYSTEM
3 47 48 49
ATOM$RED        STATIC     ATOMS    COLORGROUP SYSTEM
1 31
