AV-unprocessed.smi:47|AV-procd|sdf|446|dock3
  -GOLD-   2262016313D 1   1.00000     0.00000
 Structure written by MMmdl.
 30 32  0  0  0  0  0  0  0  0  2 V2000
  145.8026  140.2785  154.6173 O   0  0  0  0  0  0  0  0  0  0  0  0
  147.1580  140.6637  154.7090 C   0  0  2  0  0  0  0  0  0  0  0  0
  147.7067  141.1840  153.3871 C   0  0  0  0  0  0  0  0  0  0  0  0
  149.1517  141.0714  153.5254 N   0  0  0  0  0  0  0  0  0  0  0  0
  149.4306  139.9089  154.3766 C   0  0  1  0  0  0  0  0  0  0  0  0
  150.4853  140.1945  155.4306 C   0  0  0  0  0  0  0  0  0  0  0  0
  151.6616  139.5452  155.5486 N   0  0  0  0  0  0  0  0  0  0  0  0
  152.2985  140.1172  156.5531 N   0  5  0  0  0  0  0  0  0  0  0  0
  151.5182  141.1030  157.0216 C   0  0  0  0  0  0  0  0  0  0  0  0
  151.9256  141.9620  158.1528 C   0  0  0  0  0  0  0  0  0  0  0  0
  151.5625  143.3285  158.1809 C   0  0  0  0  0  0  0  0  0  0  0  0
  151.9438  144.1603  159.2520 C   0  0  0  0  0  0  0  0  0  0  0  0
  152.6975  143.6353  160.3171 C   0  0  0  0  0  0  0  0  0  0  0  0
  153.0679  142.2784  160.3062 C   0  0  0  0  0  0  0  0  0  0  0  0
  152.6841  141.4509  159.2328 C   0  0  0  0  0  0  0  0  0  0  0  0
  150.3855  141.1793  156.3370 N   0  0  0  0  0  0  0  0  0  0  0  0
  148.0895  139.4934  155.0088 C   0  0  0  0  0  0  0  0  0  0  0  0
  147.2665  141.4287  155.4794 H   0  0  0  0  0  0  0  0  0  0  0  0
  149.7949  139.0871  153.7590 H   0  0  0  0  0  0  0  0  0  0  0  0
  145.4756  140.5402  153.7702 H   0  0  0  0  0  0  0  0  0  0  0  0
  147.3666  140.5503  152.5667 H   0  0  0  0  0  0  0  0  0  0  0  0
  147.3947  142.2065  153.1737 H   0  0  0  0  0  0  0  0  0  0  0  0
  149.5631  140.9338  152.6083 H   0  0  0  0  0  0  0  0  0  0  0  0
  150.9834  143.7502  157.3725 H   0  0  0  0  0  0  0  0  0  0  0  0
  151.6568  145.2013  159.2544 H   0  0  0  0  0  0  0  0  0  0  0  0
  152.9907  144.2711  161.1394 H   0  0  0  0  0  0  0  0  0  0  0  0
  153.6470  141.8701  161.1212 H   0  0  0  0  0  0  0  0  0  0  0  0
  152.9797  140.4122  159.2462 H   0  0  0  0  0  0  0  0  0  0  0  0
  148.1581  139.2711  156.0746 H   0  0  0  0  0  0  0  0  0  0  0  0
  147.7282  138.5930  154.5096 H   0  0  0  0  0  0  0  0  0  0  0  0
  1  2  1  0  0  0  0
  1 20  1  0  0  0  0
  2 18  1  0  0  0  0
  2 17  1  0  0  0  0
  2  3  1  0  0  0  0
  3  4  1  0  0  0  0
  3 21  1  0  0  0  0
  3 22  1  0  0  0  0
  4  5  1  0  0  0  0
  4 23  1  0  0  0  0
  5 19  1  0  0  0  0
  5  6  1  0  0  0  0
  5 17  1  0  0  0  0
  6 16  1  0  0  0  0
  6  7  2  0  0  0  0
  7  8  1  0  0  0  0
  8  9  1  0  0  0  0
  9 10  1  0  0  0  0
  9 16  2  0  0  0  0
 10 15  1  0  0  0  0
 10 11  2  0  0  0  0
 11 12  1  0  0  0  0
 11 24  1  0  0  0  0
 12 13  2  0  0  0  0
 12 25  1  0  0  0  0
 13 14  1  0  0  0  0
 13 26  1  0  0  0  0
 14 15  2  0  0  0  0
 14 27  1  0  0  0  0
 15 28  1  0  0  0  0
 17 29  1  0  0  0  0
 17 30  1  0  0  0  0
M  CHG  1   8  -1
M  END
> <s_m_source_file>
AV-unprocessed.smi

> <i_m_source_file_index>
47

> <i_lp_mmshare_version>
43012

> <i_f3d_flags>
0

> <s_epik_input>
W09IXVtDQEhdMVtDSDJdW05IXVtDQEBIXShbQ0gyXTEpYzJuW25IXWMobjIpLWMzW2NIXVtjSF1bY0hdW2NIXVtjSF0z

> <s_epik_cmdline>
J2VwaWtfcHl0aG9uJywgJy1waCcsICc3LjAnLCAnLXRuJywgJzgnLCAnLW1hJywgJzIwMCcsICctbWV0YWxfYmluZGluZycsICctaW1hZScsICc8aW5maWxlLm1hZT4nLCAnLW9tYWUnLCAnPG91dGZpbGUubWFlPic=

> <r_epik_Ionization_Penalty>
16.1968

> <r_epik_Ionization_Penalty_Charging>
13.1522

> <r_epik_Ionization_Penalty_Neutral>
3.04463

> <r_epik_State_Penalty>
6.32428

> <r_epik_Charging_Adjusted_Penalty>
19.4764

> <i_epik_Tot_Q>
-1

> <i_epik_Tot_abs_Q>
1

> <r_epik_Metal_State_Penalty>
2.82187

> <b_epik_Metal_Only>
1

> <s_lp_Force_Field>
OPLS_2005

> <r_lp_Energy>
30.4729

> <b_lp_Chiralities_Consistent>
1

> <s_lp_Variant>
AV-unprocessed.smi:47-24

> <Gold.Version>
5.8.1

> <Gold.Id.Protein>
6NUR|6NUR_protein|mol2

> <Gold.PLP.Fitness>
44.7368

> <Gold.PLP.PLP>
-35.3008

> <Gold.PLP.part.hbond>
-5.0000

> <Gold.PLP.part.metal>
0.0000

> <Gold.PLP.part.buried>
-3.9532

> <Gold.PLP.part.nonpolar>
-25.9090

> <Gold.PLP.part.repulsive>
0.0618

> <Gold.PLP.ligand.clash>
0.0000

> <Gold.PLP.ligand.torsion>
0.5045

> <Gold.PLP.Chemscore.Hbond>
3.4782

> <Gold.PLP.Chemscore.CHOScore>
0.0000

> <Gold.PLP.Chemscore.Metal>
0.0000

> <Gold.Chemscore.Hbonds>
donor molecule, donor type, donor heavy atom, donor atom, acceptor molecule, acceptor atom, score
      L1  H     1    20       P1 10175  0.48
      L1  H     4    23       P1  7957  0.99
      P1  H  7997  8008       L1     8  1.95

> <Gold.PLP.Chemscore.Internal.Correction>
0.0103

> <Gold.Rescore>
     Score         DG    S(hbond)    S(metal)    S(lipo)     H(rot)  DE(clash)    DE(int)     intcor
     19.56     -20.06       2.39        0.00      88.40       1.46       0.12       0.37       ----

> <Gold.Chemscore.Fitness>
19.5638

> <Gold.Chemscore.DG>
-20.0580

> <Gold.Chemscore.ZeroCoef>
-5.4800

> <Gold.Chemscore.Hbond>
2.3885

> <Gold.Chemscore.Metal>
0.0000

> <Gold.Chemscore.Lipo>
88.4042

> <Gold.Chemscore.Internal_Hbond>
0.0000

> <Gold.Chemscore.DEClash>
0.1210

> <Gold.Chemscore.DEInternal>
0.3732

> <Gold.Chemscore.Rot>
1.4621

> <Gold.Chemscore.Internal.Correction>
   9.000000E+99

> <Gold.Chemscore.Hbonds>
donor molecule, donor type, donor heavy atom, donor atom, acceptor molecule, acceptor atom, score
      L1  H     1    20       P1 10175  0.47
      L1  H     4    23       P1  7957  0.93
      P1  H  7997  8008       L1     8  0.85

> <Gold.Chemscore.Hbond.Weighted>
-7.9775

> <Gold.Chemscore.Metal.Weighted>
-0.0000

> <Gold.Chemscore.Lipo.Weighted>
-10.3433

> <Gold.Chemscore.Internal_Hbond.Weighted>
0.0000

> <Gold.Chemscore.DEClash.Weighted>
0.1210

> <Gold.Chemscore.DEInternal.Weighted>
0.3732

> <Gold.Chemscore.Rot.Weighted>
3.7429

> <Gold.Chemscore.Internal.Correction.Weighted>
   9.000000E+99

> <Gold.Protein.RotatedTorsions>
[ 6907 6896 6895 6894 ] final   -9.29 input  -60.11 | X-H torsion
[ 7974 7965 7964 7962 ] final -179.82 input  175.53 | X-H torsion
[ 8008 7997 7996 7995 ] final  -48.11 input   59.86 | X-H torsion
[ 10167 10162 10161 10158 ] final -146.59 input  -65.29 | X-H torsion
[ 10718 10713 10712 10709 ] final  123.04 input   66.30 | X-H torsion
[ 10763 10752 10751 10750 ] final   61.03 input  -60.55 | X-H torsion
[ 11005 11000 10999 10996 ] final -142.68 input  -57.11 | X-H torsion

> <Gold.Protein.ActiveResidues>
 VAL166  LYS551  ARG553  GLY616  TRP617  ASP618  TYR619  PRO620  LYS621  CYS622 
 ASP623  PHE694  ASN695  SER759  ASP760  ASP761  ALA762  ILE779  LEU786  VAL792 
 PHE793  MET794  SER795  GLU796  ALA797  LYS798  CYS799  TRP800  GLU811  SER814 

> <Gold.Protein.RotatedAtoms>
  151.4201  135.0996  159.9610 H   0  0  0  0  0  0  0  0  0  0  0  0  # atno 6907 bound_to 6896
  152.4991  133.8715  159.7311 H   0  0  0  0  0  0  0  0  0  0  0  0  # atno 6908 bound_to 6896
  150.9229  133.6800  159.2856 H   0  0  0  0  0  0  0  0  0  0  0  0  # atno 6909 bound_to 6896
  144.7139  140.0659  143.6431 H   0  0  0  0  0  0  0  0  0  0  0  0  # atno 7974 bound_to 7965
  154.4025  140.1329  156.4285 H   0  0  0  0  0  0  0  0  0  0  0  0  # atno 8008 bound_to 7997
  155.7574  140.3487  155.5160 H   0  0  0  0  0  0  0  0  0  0  0  0  # atno 8009 bound_to 7997
  155.8892  140.1000  157.1421 H   0  0  0  0  0  0  0  0  0  0  0  0  # atno 8010 bound_to 7997
  139.7699  143.8252  152.2623 H   0  0  0  0  0  0  0  0  0  0  0  0  # atno 10167 bound_to 10162
  157.5696  131.1084  150.8391 H   0  0  0  0  0  0  0  0  0  0  0  0  # atno 10718 bound_to 10713
  152.9938  135.5515  154.5969 H   0  0  0  0  0  0  0  0  0  0  0  0  # atno 10763 bound_to 10752
  154.5318  135.2814  155.1175 H   0  0  0  0  0  0  0  0  0  0  0  0  # atno 10764 bound_to 10752
  154.2487  135.6403  153.5285 H   0  0  0  0  0  0  0  0  0  0  0  0  # atno 10765 bound_to 10752
  140.8201  134.2642  157.4904 H   0  0  0  0  0  0  0  0  0  0  0  0  # atno 11005 bound_to 11000
  145.9824  139.2951  143.1034 LP  0  0  0  0  0  0  0  0  0  0  0  0  # atno 17320 bound_to 7965
  145.8995  140.9252  143.0510 LP  0  0  0  0  0  0  0  0  0  0  0  0  # atno 17321 bound_to 7965
  139.8284  144.7265  150.9482 LP  0  0  0  0  0  0  0  0  0  0  0  0  # atno 17342 bound_to 10162
  140.7813  143.4093  151.1019 LP  0  0  0  0  0  0  0  0  0  0  0  0  # atno 17343 bound_to 10162
  156.8866  130.5198  149.5288 LP  0  0  0  0  0  0  0  0  0  0  0  0  # atno 17370 bound_to 10713
  156.0742  130.5768  150.9442 LP  0  0  0  0  0  0  0  0  0  0  0  0  # atno 17371 bound_to 10713
  139.8709  134.9530  156.4133 LP  0  0  0  0  0  0  0  0  0  0  0  0  # atno 17394 bound_to 11000
  140.9108  133.7713  155.9790 LP  0  0  0  0  0  0  0  0  0  0  0  0  # atno 17395 bound_to 11000

$$$$
