#       Name:                AV-unprocessed.smi:517
#       Creating user name   scv26
#       Creation time:       Thu Mar 26 23:26:32 2020


#       File generated by GOLD software.
#

@<TRIPOS>MOLECULE
AV-unprocessed.smi:517
    40    41     1
SMALL
NO_CHARGES


@<TRIPOS>ATOM
      1 ****        -3.2980   2.3530  -0.1030 C.3            1 S1                 0.0000
      2 ****        -2.8086   1.3813  -1.1791 C.3            1 S1                 0.0000
      3 ****        -1.4177   1.1647  -1.0123 O.3            1 S1                 0.0000
      4 ****        -0.8924   0.2414  -1.9518 C.3            1 S1                 0.0000
      5 ****         0.6237   0.0918  -1.7627 C.3            1 S1                 0.0000
      6 ****         0.9759  -0.3803  -0.4295 N.pl3          1 S1                 0.0000
      7 ****         1.2610   0.3350   0.6927 C.2            1 S1                 0.0000
      8 ****         1.2436   1.8399   0.7437 C.3            1 S1                 0.0000
      9 ****         0.2148   2.3715   1.7519 C.3            1 S1                 0.0000
     10 ****         2.5100   2.3709   1.0744 O.3            1 S1                 0.0000
     11 ****         1.5916  -0.3890   1.7650 N.2            1 S1                 0.0000
     12 ****         1.4780  -1.6865   1.3105 C.ar           1 S1                 0.0000
     13 ****         1.6834  -2.9149   1.9788 C.ar           1 S1                 0.0000
     14 ****         1.5012  -4.1365   1.2984 C.ar           1 S1                 0.0000
     15 ****         1.1139  -4.1469  -0.0572 C.ar           1 S1                 0.0000
     16 ****         0.9074  -2.9338  -0.7419 C.ar           1 S1                 0.0000
     17 ****         1.0898  -1.7167  -0.0577 C.ar           1 S1                 0.0000
     18 ****        -4.3602   2.5655  -0.2245 H              1 S1                 0.0000
     19 ****        -2.7589   3.2991  -0.1546 H              1 S1                 0.0000
     20 ****        -3.1543   1.9375   0.8945 H              1 S1                 0.0000
     21 ****        -3.3508   0.4380  -1.1007 H              1 S1                 0.0000
     22 ****        -3.0055   1.7945  -2.1693 H              1 S1                 0.0000
     23 ****        -1.3793  -0.7274  -1.8295 H              1 S1                 0.0000
     24 ****        -1.0994   0.5830  -2.9670 H              1 S1                 0.0000
     25 ****         1.0090  -0.6228  -2.4908 H              1 S1                 0.0000
     26 ****         1.1405   1.0261  -1.9767 H              1 S1                 0.0000
     27 ****         0.9811   2.2476  -0.2293 H              1 S1                 0.0000
     28 ****        -0.7847   2.0067   1.5188 H              1 S1                 0.0000
     29 ****         0.1793   3.4612   1.7412 H              1 S1                 0.0000
     30 ****         0.4513   2.0571   2.7692 H              1 S1                 0.0000
     31 ****         3.1284   2.1013   0.4130 H              1 S1                 0.0000
     32 ****         1.9800  -2.9168   3.0173 H              1 S1                 0.0000
     33 ****         1.6590  -5.0696   1.8192 H              1 S1                 0.0000
     34 ****         0.9760  -5.0869  -0.5711 H              1 S1                 0.0000
     35 ****         0.6102  -2.9399  -1.7798 H              1 S1                 0.0000
     36 ****        -1.2570   0.8105  -0.0911 LP             1 S1                 0.0000
     37 ****        -0.9424   2.0378  -1.1213 LP             1 S1                 0.0000
     38 ****         2.7984   2.0253   1.9673 LP             1 S1                 0.0000
     39 ****         2.4605   3.3693   1.1035 LP             1 S1                 0.0000
     40 ****         1.8566  -0.0690   2.6746 LP             1 S1                 0.0000
@<TRIPOS>BOND
    1    1    2 1     
    2    1   18 1     
    3    1   19 1     
    4    1   20 1     
    5    2    3 1     
    6    2   21 1     
    7    2   22 1     
    8    3    4 1     
    9    4    5 1     
   10    4   23 1     
   11    4   24 1     
   12    5    6 1     
   13    5   25 1     
   14    5   26 1     
   15    6   17 1     
   16    6    7 1     
   17    7    8 1     
   18    7   11 2     
   19    8    9 1     
   20    8   10 1     
   21    8   27 1     
   22    9   28 1     
   23    9   29 1     
   24    9   30 1     
   25   10   31 1     
   26   11   12 1     
   27   12   17 ar    
   28   12   13 ar    
   29   13   14 ar    
   30   13   32 1     
   31   14   15 ar    
   32   14   33 1     
   33   15   16 ar    
   34   15   34 1     
   35   16   17 ar    
   36   16   35 1     
   37    3   36 1     
   38    3   37 1     
   39   10   38 1     
   40   10   39 1     
   41   11   40 1     
@<TRIPOS>SUBSTRUCTURE
      1 S1             1
@<TRIPOS>SET
LONE_PAIRS      STATIC     ATOMS    <user>   **** ""
5 36 37 38 39 40
DONOR_HYDROGENS      STATIC     ATOMS    <user>   **** ""
1 31
ATOM$BLUE        STATIC     ATOMS    COLORGROUP SYSTEM
5 36 37 38 39 40
ATOM$RED        STATIC     ATOMS    COLORGROUP SYSTEM
1 31
