AV-unprocessed.smi:3153|AV-procd|sdf|12020|dock3
  -GOLD-   2272017433D 1   1.00000     0.00000
 Structure written by MMmdl.
 37 38  0  0  0  0  0  0  0  0  1 V2000
  148.1694  140.0411  156.3780 O   0  0  0  0  0  0  0  0  0  0  0  0
  148.6011  141.3865  156.2745 C   0  0  0  0  0  0  0  0  0  0  0  0
  149.7652  141.5700  157.2751 C   0  0  0  0  0  0  0  0  0  0  0  0
  150.2864  142.9359  157.2914 N   0  0  0  0  0  0  0  0  0  0  0  0
  150.5963  143.4215  158.6329 C   0  0  0  0  0  0  0  0  0  0  0  0
  152.1136  143.5227  158.8584 C   0  0  0  0  0  0  0  0  0  0  0  0
  152.5119  143.0466  160.1711 N   0  0  0  0  0  0  0  0  0  0  0  0
  152.1497  143.5382  161.4077 C   0  0  0  0  0  0  0  0  0  0  0  0
  152.7697  142.7671  162.3489 C   0  0  0  0  0  0  0  0  0  0  0  0
  153.5018  141.8192  161.5803 C   0  0  0  0  0  0  0  0  0  0  0  0
  153.3470  141.9903  160.2772 N   0  0  0  0  0  0  0  0  0  0  0  0
  149.1248  141.5982  154.8338 C   0  0  0  0  0  0  0  0  0  0  0  0
  148.0145  141.5291  153.7699 C   0  0  0  0  0  0  0  0  0  0  0  0
  146.8821  142.5171  154.0805 C   0  0  0  0  0  0  0  0  0  0  0  0
  146.3146  142.2729  155.4856 C   0  0  0  0  0  0  0  0  0  0  0  0
  147.4161  142.3447  156.5585 C   0  0  0  0  0  0  0  0  0  0  0  0
  147.2434  140.0383  156.5650 H   0  0  0  0  0  0  0  0  0  0  0  0
  149.4338  141.2874  158.2756 H   0  0  0  0  0  0  0  0  0  0  0  0
  150.5718  140.8827  157.0167 H   0  0  0  0  0  0  0  0  0  0  0  0
  149.6138  143.5589  156.8558 H   0  0  0  0  0  0  0  0  0  0  0  0
  150.1353  144.3965  158.7967 H   0  0  0  0  0  0  0  0  0  0  0  0
  150.1669  142.7480  159.3754 H   0  0  0  0  0  0  0  0  0  0  0  0
  152.6408  142.9335  158.1069 H   0  0  0  0  0  0  0  0  0  0  0  0
  152.4501  144.5535  158.7385 H   0  0  0  0  0  0  0  0  0  0  0  0
  151.4864  144.3841  161.5135 H   0  0  0  0  0  0  0  0  0  0  0  0
  152.7097  142.8652  163.4226 H   0  0  0  0  0  0  0  0  0  0  0  0
  154.1368  141.0176  161.9282 H   0  0  0  0  0  0  0  0  0  0  0  0
  149.6059  142.5752  154.7668 H   0  0  0  0  0  0  0  0  0  0  0  0
  149.9000  140.8665  154.6018 H   0  0  0  0  0  0  0  0  0  0  0  0
  148.4320  141.7429  152.7857 H   0  0  0  0  0  0  0  0  0  0  0  0
  147.6133  140.5162  153.7188 H   0  0  0  0  0  0  0  0  0  0  0  0
  147.2548  143.5394  154.0073 H   0  0  0  0  0  0  0  0  0  0  0  0
  146.0901  142.4215  153.3370 H   0  0  0  0  0  0  0  0  0  0  0  0
  145.5387  143.0070  155.7033 H   0  0  0  0  0  0  0  0  0  0  0  0
  145.8300  141.2964  155.5196 H   0  0  0  0  0  0  0  0  0  0  0  0
  146.9755  142.1356  157.5340 H   0  0  0  0  0  0  0  0  0  0  0  0
  147.7894  143.3684  156.6089 H   0  0  0  0  0  0  0  0  0  0  0  0
  1  2  1  0  0  0  0
  1 17  1  0  0  0  0
  2 16  1  0  0  0  0
  2  3  1  0  0  0  0
  2 12  1  0  0  0  0
  3  4  1  0  0  0  0
  3 18  1  0  0  0  0
  3 19  1  0  0  0  0
  4  5  1  0  0  0  0
  4 20  1  0  0  0  0
  5  6  1  0  0  0  0
  5 21  1  0  0  0  0
  5 22  1  0  0  0  0
  6  7  1  0  0  0  0
  6 23  1  0  0  0  0
  6 24  1  0  0  0  0
  7 11  1  0  0  0  0
  7  8  1  0  0  0  0
  8  9  2  0  0  0  0
  8 25  1  0  0  0  0
  9 10  1  0  0  0  0
  9 26  1  0  0  0  0
 10 11  2  0  0  0  0
 10 27  1  0  0  0  0
 12 13  1  0  0  0  0
 12 28  1  0  0  0  0
 12 29  1  0  0  0  0
 13 14  1  0  0  0  0
 13 30  1  0  0  0  0
 13 31  1  0  0  0  0
 14 15  1  0  0  0  0
 14 32  1  0  0  0  0
 14 33  1  0  0  0  0
 15 16  1  0  0  0  0
 15 34  1  0  0  0  0
 15 35  1  0  0  0  0
 16 36  1  0  0  0  0
 16 37  1  0  0  0  0
M  END
> <s_m_source_file>
AV-unprocessed.smi

> <i_m_source_file_index>
3153

> <i_lp_mmshare_version>
43012

> <i_f3d_flags>
0

> <s_epik_input>
W0NIMl0xW0NIMl1bQ0gyXVtDSDJdW0NIMl1DMShbT0hdKVtDSDJdW05IXVtDSDJdW0NIMl1uMltjSF1bY0hdW2NIXW4y

> <s_epik_cmdline>
J2VwaWtfcHl0aG9uJywgJy1waCcsICc3LjAnLCAnLXRuJywgJzgnLCAnLW1hJywgJzIwMCcsICctbWV0YWxfYmluZGluZycsICctaW1hZScsICc8aW5maWxlLm1hZT4nLCAnLW9tYWUnLCAnPG91dGZpbGUubWFlPic=

> <r_lp_tautomer_probability>
1

> <r_epik_Ionization_Penalty>
1.91265

> <r_epik_Ionization_Penalty_Charging>
0

> <r_epik_Ionization_Penalty_Neutral>
1.91265

> <r_epik_State_Penalty>
2.0334

> <r_epik_Charging_Adjusted_Penalty>
2.0334

> <i_epik_Tot_Q>
0

> <i_epik_Tot_abs_Q>
0

> <r_epik_Metal_State_Penalty>
2.03214

> <b_epik_Metal_Only>
0

> <s_lp_Force_Field>
OPLS_2005

> <r_lp_Energy>
22.2281

> <b_lp_Chiralities_Consistent>
1

> <s_lp_Variant>
AV-unprocessed.smi:3153-2

> <Gold.Version>
5.8.1

> <Gold.Id.Protein>
6NUR|6NUR_protein|mol2

> <Gold.PLP.Fitness>
40.1406

> <Gold.PLP.PLP>
-38.9528

> <Gold.PLP.part.hbond>
-1.0000

> <Gold.PLP.part.metal>
0.0000

> <Gold.PLP.part.buried>
-4.7032

> <Gold.PLP.part.nonpolar>
-33.2399

> <Gold.PLP.part.repulsive>
0.0000

> <Gold.PLP.ligand.clash>
0.0000

> <Gold.PLP.ligand.torsion>
0.9384

> <Gold.PLP.Chemscore.Hbond>
1.0000

> <Gold.PLP.Chemscore.CHOScore>
0.0000

> <Gold.PLP.Chemscore.Metal>
0.0000

> <Gold.Chemscore.Hbonds>
donor molecule, donor type, donor heavy atom, donor atom, acceptor molecule, acceptor atom, score
      L1  H     4    20       P1  8028  1.00

> <Gold.PLP.Chemscore.Internal.Correction>
0.0646

> <Gold.Rescore>
     Score         DG    S(hbond)    S(metal)    S(lipo)     H(rot)  DE(clash)    DE(int)     intcor
     13.61     -14.54       1.00        0.00      96.49       2.18       0.02       0.90       ----

> <Gold.Chemscore.Fitness>
13.6086

> <Gold.Chemscore.DG>
-14.5350

> <Gold.Chemscore.ZeroCoef>
-5.4800

> <Gold.Chemscore.Hbond>
0.9988

> <Gold.Chemscore.Metal>
0.0000

> <Gold.Chemscore.Lipo>
96.4851

> <Gold.Chemscore.Internal_Hbond>
0.0000

> <Gold.Chemscore.DEClash>
0.0226

> <Gold.Chemscore.DEInternal>
0.9038

> <Gold.Chemscore.Rot>
2.1756

> <Gold.Chemscore.Internal.Correction>
   9.000000E+99

> <Gold.Chemscore.Hbonds>
donor molecule, donor type, donor heavy atom, donor atom, acceptor molecule, acceptor atom, score
      L1  H     4    20       P1  8028  0.98

> <Gold.Chemscore.Hbond.Weighted>
-3.3359

> <Gold.Chemscore.Metal.Weighted>
-0.0000

> <Gold.Chemscore.Lipo.Weighted>
-11.2888

> <Gold.Chemscore.Internal_Hbond.Weighted>
0.0000

> <Gold.Chemscore.DEClash.Weighted>
0.0226

> <Gold.Chemscore.DEInternal.Weighted>
0.9038

> <Gold.Chemscore.Rot.Weighted>
5.5696

> <Gold.Chemscore.Internal.Correction.Weighted>
   9.000000E+99

> <Gold.Protein.RotatedTorsions>
[ 6907 6896 6895 6894 ] final   77.19 input  -60.11 | X-H torsion
[ 7974 7965 7964 7962 ] final -157.44 input  175.53 | X-H torsion
[ 8008 7997 7996 7995 ] final  -13.72 input   59.86 | X-H torsion
[ 10167 10162 10161 10158 ] final  -56.76 input  -65.29 | X-H torsion
[ 10718 10713 10712 10709 ] final    3.21 input   66.30 | X-H torsion
[ 10763 10752 10751 10750 ] final -100.11 input  -60.55 | X-H torsion
[ 11005 11000 10999 10996 ] final  -62.61 input  -57.11 | X-H torsion

> <Gold.Protein.ActiveResidues>
 VAL166  LYS551  ARG553  GLY616  TRP617  ASP618  TYR619  PRO620  LYS621  CYS622 
 ASP623  PHE694  ASN695  SER759  ASP760  ASP761  ALA762  ILE779  LEU786  VAL792 
 PHE793  MET794  SER795  GLU796  ALA797  LYS798  CYS799  TRP800  GLU811  SER814 

> <Gold.Protein.RotatedAtoms>
  152.5107  134.3854  159.9365 H   0  0  0  0  0  0  0  0  0  0  0  0  # atno 6907 bound_to 6896
  151.3812  133.3814  159.2718 H   0  0  0  0  0  0  0  0  0  0  0  0  # atno 6908 bound_to 6896
  150.9503  134.8924  159.7726 H   0  0  0  0  0  0  0  0  0  0  0  0  # atno 6909 bound_to 6896
  144.7548  140.3968  143.6020 H   0  0  0  0  0  0  0  0  0  0  0  0  # atno 7974 bound_to 7965
  154.5269  140.2242  155.8873 H   0  0  0  0  0  0  0  0  0  0  0  0  # atno 8008 bound_to 7997
  156.1723  140.3119  155.8960 H   0  0  0  0  0  0  0  0  0  0  0  0  # atno 8009 bound_to 7997
  155.3532  140.0457  157.3037 H   0  0  0  0  0  0  0  0  0  0  0  0  # atno 8010 bound_to 7997
  140.6298  143.2454  151.5270 H   0  0  0  0  0  0  0  0  0  0  0  0  # atno 10167 bound_to 10162
  156.8744  130.5631  149.5656 H   0  0  0  0  0  0  0  0  0  0  0  0  # atno 10718 bound_to 10713
  154.7553  135.4947  153.9363 H   0  0  0  0  0  0  0  0  0  0  0  0  # atno 10763 bound_to 10752
  153.1188  135.6727  153.9378 H   0  0  0  0  0  0  0  0  0  0  0  0  # atno 10764 bound_to 10752
  153.9116  135.3098  155.3427 H   0  0  0  0  0  0  0  0  0  0  0  0  # atno 10765 bound_to 10752
  141.1365  133.6642  156.5554 H   0  0  0  0  0  0  0  0  0  0  0  0  # atno 11005 bound_to 11000
  145.6817  139.1620  143.2697 LP  0  0  0  0  0  0  0  0  0  0  0  0  # atno 17320 bound_to 7965
  146.1545  140.6878  142.9306 LP  0  0  0  0  0  0  0  0  0  0  0  0  # atno 17321 bound_to 7965
  139.5514  144.2387  152.1536 LP  0  0  0  0  0  0  0  0  0  0  0  0  # atno 17342 bound_to 10162
  140.1628  144.5010  150.6623 LP  0  0  0  0  0  0  0  0  0  0  0  0  # atno 17343 bound_to 10162
  156.0710  130.5742  150.9382 LP  0  0  0  0  0  0  0  0  0  0  0  0  # atno 17370 bound_to 10713
  157.6177  131.0932  150.8680 LP  0  0  0  0  0  0  0  0  0  0  0  0  # atno 17371 bound_to 10713
  140.4030  134.7340  157.4791 LP  0  0  0  0  0  0  0  0  0  0  0  0  # atno 17394 bound_to 11000
  140.0482  134.6169  155.8894 LP  0  0  0  0  0  0  0  0  0  0  0  0  # atno 17395 bound_to 11000

$$$$
