AV-unprocessed.smi:66|AV-procd|sdf|623|dock3
  -GOLD-   2262016513D 1   1.00000     0.00000
 Structure written by MMmdl.
 28 30  0  0  0  0  0  0  0  0  2 V2000
  148.1095  136.9280  160.5034 O   0  0  0  0  0  0  0  0  0  0  0  0
  148.5270  136.6739  159.3525 C   0  0  0  0  0  0  0  0  0  0  0  0
  149.3084  135.7427  159.0553 O   0  5  0  0  0  0  0  0  0  0  0  0
  148.0378  137.5899  158.2207 C   0  0  2  0  0  0  0  0  0  0  0  0
  146.4963  137.6529  158.1349 C   0  0  0  0  0  0  0  0  0  0  0  0
  146.1896  137.4498  156.6510 C   0  0  2  0  0  0  0  0  0  0  0  0
  144.9431  136.8221  156.4374 O   0  0  0  0  0  0  0  0  0  0  0  0
  147.3602  136.5947  156.1798 C   0  0  0  0  0  0  0  0  0  0  0  0
  148.5085  137.1169  156.9148 N   0  0  0  0  0  0  0  0  0  0  0  0
  149.4868  137.9011  156.2610 C   0  0  0  0  0  0  0  0  0  0  0  0
  149.3844  138.1434  154.9315 N   0  0  0  0  0  0  0  0  0  0  0  0
  150.3275  138.8913  154.3437 C   0  0  0  0  0  0  0  0  0  0  0  0
  151.4121  139.4659  154.8856 N   0  0  0  0  0  0  0  0  0  0  0  0
  151.5351  139.2349  156.1992 C   0  0  0  0  0  0  0  0  0  0  0  0
  152.5570  139.6980  157.0170 N   0  0  0  0  0  0  0  0  0  0  0  0
  152.2134  139.1917  158.2003 C   0  0  0  0  0  0  0  0  0  0  0  0
  151.0899  138.4572  158.2314 N   0  0  0  0  0  0  0  0  0  0  0  0
  150.5952  138.4549  156.9374 C   0  0  0  0  0  0  0  0  0  0  0  0
  150.6961  138.0149  159.0518 H   0  0  0  0  0  0  0  0  0  0  0  0
  148.4079  138.6008  158.3993 H   0  0  0  0  0  0  0  0  0  0  0  0
  146.0328  136.8595  158.7247 H   0  0  0  0  0  0  0  0  0  0  0  0
  146.1020  138.6002  158.5036 H   0  0  0  0  0  0  0  0  0  0  0  0
  146.2066  138.4110  156.1352 H   0  0  0  0  0  0  0  0  0  0  0  0
  144.9792  135.9560  156.8145 H   0  0  0  0  0  0  0  0  0  0  0  0
  147.2219  135.5554  156.4824 H   0  0  0  0  0  0  0  0  0  0  0  0
  147.4544  136.5914  155.0940 H   0  0  0  0  0  0  0  0  0  0  0  0
  150.1959  139.0550  153.2844 H   0  0  0  0  0  0  0  0  0  0  0  0
  152.8056  139.3629  159.0871 H   0  0  0  0  0  0  0  0  0  0  0  0
  1  2  2  0  0  0  0
  2  3  1  0  0  0  0
  2  4  1  0  0  0  0
  4  9  1  0  0  0  0
  4  5  1  0  0  0  0
  4 20  1  0  0  0  0
  5  6  1  0  0  0  0
  5 21  1  0  0  0  0
  5 22  1  0  0  0  0
  6  7  1  0  0  0  0
  6  8  1  0  0  0  0
  6 23  1  0  0  0  0
  7 24  1  0  0  0  0
  8  9  1  0  0  0  0
  8 25  1  0  0  0  0
  8 26  1  0  0  0  0
  9 10  1  0  0  0  0
 10 18  1  0  0  0  0
 10 11  2  0  0  0  0
 11 12  1  0  0  0  0
 12 13  2  0  0  0  0
 12 27  1  0  0  0  0
 13 14  1  0  0  0  0
 14 18  2  0  0  0  0
 14 15  1  0  0  0  0
 15 16  2  0  0  0  0
 16 17  1  0  0  0  0
 16 28  1  0  0  0  0
 17 19  1  0  0  0  0
 17 18  1  0  0  0  0
M  CHG  1   3  -1
M  END
> <s_m_source_file>
AV-unprocessed.smi

> <i_m_source_file_index>
66

> <i_lp_mmshare_version>
43012

> <i_f3d_flags>
0

> <s_epik_input>
Tz1DKFtPSF0pW0NAQEhdMVtDSDJdW0NAQEhdKFtPSF0pW0NIMl1OMWMobltjSF1uMiljKGMyMylbbkhdW2NIXW4z

> <s_epik_cmdline>
J2VwaWtfcHl0aG9uJywgJy1waCcsICc3LjAnLCAnLXRuJywgJzgnLCAnLW1hJywgJzIwMCcsICctbWV0YWxfYmluZGluZycsICctaW1hZScsICc8aW5maWxlLm1hZT4nLCAnLW9tYWUnLCAnPG91dGZpbGUubWFlPic=

> <r_lp_tautomer_probability>
0.0419193

> <r_epik_Ionization_Penalty>
0.0157405

> <r_epik_Ionization_Penalty_Charging>
0.000248217

> <r_epik_Ionization_Penalty_Neutral>
0.0154923

> <r_epik_State_Penalty>
1.99742

> <r_epik_Charging_Adjusted_Penalty>
1.99767

> <i_epik_Tot_Q>
-1

> <i_epik_Tot_abs_Q>
1

> <r_epik_Metal_State_Penalty>
2.31035

> <b_epik_Metal_Only>
0

> <s_lp_Force_Field>
OPLS_2005

> <r_lp_Energy>
22.103

> <b_lp_Chiralities_Consistent>
1

> <s_lp_Variant>
AV-unprocessed.smi:66-7

> <Gold.Version>
5.8.1

> <Gold.Id.Protein>
6NUR|6NUR_protein|mol2

> <Gold.PLP.Fitness>
39.7958

> <Gold.PLP.PLP>
-15.9961

> <Gold.PLP.part.hbond>
-5.0000

> <Gold.PLP.part.metal>
0.0000

> <Gold.PLP.part.buried>
-3.7280

> <Gold.PLP.part.nonpolar>
-8.2415

> <Gold.PLP.part.repulsive>
0.2678

> <Gold.PLP.ligand.clash>
0.0000

> <Gold.PLP.ligand.torsion>
0.2724

> <Gold.PLP.Chemscore.Hbond>
7.0400

> <Gold.PLP.Chemscore.CHOScore>
1.0000

> <Gold.PLP.Chemscore.Metal>
0.0000

> <Gold.Chemscore.Hbonds>
donor molecule, donor type, donor heavy atom, donor atom, acceptor molecule, acceptor atom, score
      P1  H  6896  6907       L1     3  2.00
      P1  H  6931  6943       L1     1  1.29
      P1  H  6934  6947       L1     1  0.40
      P1  H  7989  7998       L1    13  0.85
      P1  H  7997  8010       L1    15  1.00
      L1  C    12    27       P1  7957  1.00

> <Gold.PLP.Chemscore.Internal.Correction>
0.2244

> <Gold.Rescore>
     Score         DG    S(hbond)    S(metal)    S(lipo)     H(rot)  DE(clash)    DE(int)     intcor
     11.10     -11.40       3.47        0.00       5.63       2.48       0.01       0.29       ----

> <Gold.Chemscore.Fitness>
11.0959

> <Gold.Chemscore.DG>
-11.3955

> <Gold.Chemscore.ZeroCoef>
-5.4800

> <Gold.Chemscore.Hbond>
3.4717

> <Gold.Chemscore.Metal>
0.0000

> <Gold.Chemscore.Lipo>
5.6343

> <Gold.Chemscore.Internal_Hbond>
0.0000

> <Gold.Chemscore.DEClash>
0.0089

> <Gold.Chemscore.DEInternal>
0.2907

> <Gold.Chemscore.Rot>
2.4762

> <Gold.Chemscore.Internal.Correction>
   9.000000E+99

> <Gold.Chemscore.Hbonds>
donor molecule, donor type, donor heavy atom, donor atom, acceptor molecule, acceptor atom, score
      P1  H  6896  6907       L1     3  1.00
      P1  H  6931  6943       L1     1  0.63
      P1  H  6934  6947       L1     1  0.20
      P1  H  7989  7998       L1    13  0.14
      P1  H  7997  8010       L1    15  0.89

> <Gold.Chemscore.Hbond.Weighted>
-11.5954

> <Gold.Chemscore.Metal.Weighted>
-0.0000

> <Gold.Chemscore.Lipo.Weighted>
-0.6592

> <Gold.Chemscore.Internal_Hbond.Weighted>
0.0000

> <Gold.Chemscore.DEClash.Weighted>
0.0089

> <Gold.Chemscore.DEInternal.Weighted>
0.2907

> <Gold.Chemscore.Rot.Weighted>
6.3391

> <Gold.Chemscore.Internal.Correction.Weighted>
   9.000000E+99

> <Gold.Protein.RotatedTorsions>
[ 6907 6896 6895 6894 ] final  -71.38 input  -60.11 | X-H torsion
[ 7974 7965 7964 7962 ] final  -35.56 input  175.53 | X-H torsion
[ 8008 7997 7996 7995 ] final   49.33 input   59.86 | X-H torsion
[ 10167 10162 10161 10158 ] final -142.59 input  -65.29 | X-H torsion
[ 10718 10713 10712 10709 ] final  113.02 input   66.30 | X-H torsion
[ 10763 10752 10751 10750 ] final   26.82 input  -60.55 | X-H torsion
[ 11005 11000 10999 10996 ] final  -20.84 input  -57.11 | X-H torsion

> <Gold.Protein.ActiveResidues>
 VAL166  LYS551  ARG553  GLY616  TRP617  ASP618  TYR619  PRO620  LYS621  CYS622 
 ASP623  PHE694  ASN695  SER759  ASP760  ASP761  ALA762  ILE779  LEU786  VAL792 
 PHE793  MET794  SER795  GLU796  ALA797  LYS798  CYS799  TRP800  GLU811  SER814 

> <Gold.Protein.RotatedAtoms>
  150.7215  134.5317  159.5703 H   0  0  0  0  0  0  0  0  0  0  0  0  # atno 6907 bound_to 6896
  152.2849  134.7784  160.0398 H   0  0  0  0  0  0  0  0  0  0  0  0  # atno 6908 bound_to 6896
  151.8418  133.3389  159.3682 H   0  0  0  0  0  0  0  0  0  0  0  0  # atno 6909 bound_to 6896
  146.0736  140.6174  142.8941 H   0  0  0  0  0  0  0  0  0  0  0  0  # atno 7974 bound_to 7965
  155.4005  140.3437  155.4256 H   0  0  0  0  0  0  0  0  0  0  0  0  # atno 8008 bound_to 7997
  156.1506  140.1570  156.8807 H   0  0  0  0  0  0  0  0  0  0  0  0  # atno 8009 bound_to 7997
  154.5049  140.0805  156.7856 H   0  0  0  0  0  0  0  0  0  0  0  0  # atno 8010 bound_to 7997
  139.8073  143.7750  152.2662 H   0  0  0  0  0  0  0  0  0  0  0  0  # atno 10167 bound_to 10162
  157.6361  131.0977  150.6981 H   0  0  0  0  0  0  0  0  0  0  0  0  # atno 10718 bound_to 10713
  153.0596  135.6551  154.0494 H   0  0  0  0  0  0  0  0  0  0  0  0  # atno 10763 bound_to 10752
  154.0164  135.2924  155.3388 H   0  0  0  0  0  0  0  0  0  0  0  0  # atno 10764 bound_to 10752
  154.6928  135.5276  153.8485 H   0  0  0  0  0  0  0  0  0  0  0  0  # atno 10765 bound_to 10752
  140.8504  133.7861  155.9959 H   0  0  0  0  0  0  0  0  0  0  0  0  # atno 11005 bound_to 11000
  144.7247  140.4486  143.6982 LP  0  0  0  0  0  0  0  0  0  0  0  0  # atno 17320 bound_to 7965
  145.6347  139.1541  143.2949 LP  0  0  0  0  0  0  0  0  0  0  0  0  # atno 17321 bound_to 7965
  139.7889  144.7418  150.9983 LP  0  0  0  0  0  0  0  0  0  0  0  0  # atno 17342 bound_to 10162
  140.7819  143.4463  151.0477 LP  0  0  0  0  0  0  0  0  0  0  0  0  # atno 17343 bound_to 10162
  156.7312  130.4710  149.5499 LP  0  0  0  0  0  0  0  0  0  0  0  0  # atno 17370 bound_to 10713
  156.1601  130.6368  151.0707 LP  0  0  0  0  0  0  0  0  0  0  0  0  # atno 17371 bound_to 10713
  140.8797  134.2626  157.5150 LP  0  0  0  0  0  0  0  0  0  0  0  0  # atno 17394 bound_to 11000
  139.8704  134.9609  156.4378 LP  0  0  0  0  0  0  0  0  0  0  0  0  # atno 17395 bound_to 11000

$$$$
