AV-unprocessed.smi:1130|AV-procd|sdf|4848|dock2
  -GOLD-   22720 3413D 1   1.00000     0.00000
 Structure written by MMmdl.
 36 37  0  0  0  0  0  0  0  0  1 V2000
  144.6819  145.1013  153.2799 C   0  0  0  0  0  0  0  0  0  0  0  0
  145.1313  143.8708  153.9913 C   0  0  0  0  0  0  0  0  0  0  0  0
  144.6199  143.5284  155.1674 N   0  0  0  0  0  0  0  0  0  0  0  0
  145.2946  142.3392  155.4794 O   0  0  0  0  0  0  0  0  0  0  0  0
  146.1518  142.1207  154.4534 C   0  0  0  0  0  0  0  0  0  0  0  0
  146.9908  140.8871  154.4633 C   0  0  0  0  0  0  0  0  0  0  0  0
  148.4312  141.1580  154.0011 C   0  0  0  0  0  0  0  0  0  0  0  0
  149.1240  142.0737  154.9000 N   0  0  0  0  0  0  0  0  0  0  0  0
  150.2531  141.7906  155.5639 C   0  0  0  0  0  0  0  0  0  0  0  0
  150.8381  140.7092  155.5010 O   0  0  0  0  0  0  0  0  0  0  0  0
  150.6667  142.8272  156.3050 N   0  0  0  0  0  0  0  0  0  0  0  0
  151.8639  142.8336  157.1382 C   0  0  0  0  0  0  0  0  0  0  0  0
  151.5652  143.2805  158.5797 C   0  0  2  0  0  0  0  0  0  0  0  0
  151.3374  144.7850  158.7529 C   0  0  0  0  0  0  0  0  0  0  0  0
  151.8566  145.0803  160.1538 C   0  0  0  0  0  0  0  0  0  0  0  0
  152.4738  143.7584  160.6140 C   0  0  0  0  0  0  0  0  0  0  0  0
  152.6837  143.0295  159.4150 O   0  0  0  0  0  0  0  0  0  0  0  0
  146.0811  143.0349  153.4888 N   0  0  0  0  0  0  0  0  0  0  0  0
  143.6682  145.3723  153.5773 H   0  0  0  0  0  0  0  0  0  0  0  0
  144.6912  144.9424  152.2012 H   0  0  0  0  0  0  0  0  0  0  0  0
  145.3461  145.9335  153.5138 H   0  0  0  0  0  0  0  0  0  0  0  0
  146.9907  140.4750  155.4732 H   0  0  0  0  0  0  0  0  0  0  0  0
  146.5178  140.1427  153.8217 H   0  0  0  0  0  0  0  0  0  0  0  0
  148.9881  140.2232  153.9160 H   0  0  0  0  0  0  0  0  0  0  0  0
  148.4229  141.6056  153.0069 H   0  0  0  0  0  0  0  0  0  0  0  0
  148.7191  142.9911  155.0176 H   0  0  0  0  0  0  0  0  0  0  0  0
  150.1175  143.6742  156.2911 H   0  0  0  0  0  0  0  0  0  0  0  0
  152.3252  141.8449  157.1374 H   0  0  0  0  0  0  0  0  0  0  0  0
  152.5874  143.5104  156.6827 H   0  0  0  0  0  0  0  0  0  0  0  0
  150.7109  142.7300  158.9786 H   0  0  0  0  0  0  0  0  0  0  0  0
  151.9184  145.3489  158.0219 H   0  0  0  0  0  0  0  0  0  0  0  0
  150.2890  145.0561  158.6269 H   0  0  0  0  0  0  0  0  0  0  0  0
  152.6087  145.8691  160.1177 H   0  0  0  0  0  0  0  0  0  0  0  0
  151.0638  145.4033  160.8294 H   0  0  0  0  0  0  0  0  0  0  0  0
  153.4039  143.8968  161.1660 H   0  0  0  0  0  0  0  0  0  0  0  0
  151.7782  143.2090  161.2502 H   0  0  0  0  0  0  0  0  0  0  0  0
  1  2  1  0  0  0  0
  1 19  1  0  0  0  0
  1 20  1  0  0  0  0
  1 21  1  0  0  0  0
  2 18  1  0  0  0  0
  2  3  2  0  0  0  0
  3  4  1  0  0  0  0
  4  5  1  0  0  0  0
  5  6  1  0  0  0  0
  5 18  2  0  0  0  0
  6  7  1  0  0  0  0
  6 22  1  0  0  0  0
  6 23  1  0  0  0  0
  7  8  1  0  0  0  0
  7 24  1  0  0  0  0
  7 25  1  0  0  0  0
  8  9  1  0  0  0  0
  8 26  1  0  0  0  0
  9 10  2  0  0  0  0
  9 11  1  0  0  0  0
 11 12  1  0  0  0  0
 11 27  1  0  0  0  0
 12 13  1  0  0  0  0
 12 28  1  0  0  0  0
 12 29  1  0  0  0  0
 13 17  1  0  0  0  0
 13 14  1  0  0  0  0
 13 30  1  0  0  0  0
 14 15  1  0  0  0  0
 14 31  1  0  0  0  0
 14 32  1  0  0  0  0
 15 16  1  0  0  0  0
 15 33  1  0  0  0  0
 15 34  1  0  0  0  0
 16 17  1  0  0  0  0
 16 35  1  0  0  0  0
 16 36  1  0  0  0  0
M  END
> <s_m_source_file>
AV-unprocessed.smi

> <i_m_source_file_index>
1130

> <i_lp_mmshare_version>
43012

> <i_f3d_flags>
0

> <s_epik_input>
W0NIM11jMW5vYyhuMSlbQ0gyXVtDSDJdW05IXUMoPU8pW05IXVtDSDJdW0NAQEhdMltDSDJdW0NIMl1bQ0gyXU8y

> <s_epik_cmdline>
J2VwaWtfcHl0aG9uJywgJy1waCcsICc3LjAnLCAnLXRuJywgJzgnLCAnLW1hJywgJzIwMCcsICctbWV0YWxfYmluZGluZycsICctaW1hZScsICc8aW5maWxlLm1hZT4nLCAnLW9tYWUnLCAnPG91dGZpbGUubWFlPic=

> <r_lp_tautomer_probability>
1

> <r_epik_Ionization_Penalty>
4.67036e-05

> <r_epik_Ionization_Penalty_Charging>
0

> <r_epik_Ionization_Penalty_Neutral>
4.67036e-05

> <r_epik_State_Penalty>
-0

> <r_epik_Charging_Adjusted_Penalty>
0

> <i_epik_Tot_Q>
0

> <i_epik_Tot_abs_Q>
0

> <r_epik_Metal_State_Penalty>
-0

> <b_epik_Metal_Only>
0

> <s_lp_Force_Field>
OPLS_2005

> <r_lp_Energy>
8.95109

> <b_lp_Chiralities_Consistent>
1

> <s_lp_Variant>
AV-unprocessed.smi:1130-1

> <Gold.Version>
5.8.1

> <Gold.Id.Protein>
6NUR|6NUR_protein|mol2

> <Gold.PLP.Fitness>
42.4446

> <Gold.PLP.PLP>
-35.5632

> <Gold.PLP.part.hbond>
-2.9737

> <Gold.PLP.part.metal>
0.0000

> <Gold.PLP.part.buried>
-6.9718

> <Gold.PLP.part.nonpolar>
-25.9571

> <Gold.PLP.part.repulsive>
0.8787

> <Gold.PLP.ligand.clash>
0.0000

> <Gold.PLP.ligand.torsion>
0.3414

> <Gold.PLP.Chemscore.Hbond>
2.5054

> <Gold.PLP.Chemscore.CHOScore>
0.0000

> <Gold.PLP.Chemscore.Metal>
0.0000

> <Gold.Chemscore.Hbonds>
donor molecule, donor type, donor heavy atom, donor atom, acceptor molecule, acceptor atom, score
      L1  H     8    26       P1  8028  0.99
      L1  H    11    27       P1  8028  1.00
      P1  H  7989  7998       L1    10  0.53

> <Gold.PLP.Chemscore.Internal.Correction>
0.0478

> <Gold.Rescore>
     Score         DG    S(hbond)    S(metal)    S(lipo)     H(rot)  DE(clash)    DE(int)     intcor
     13.84     -15.68       2.00        0.00      81.01       2.33       1.52       0.32       ----

> <Gold.Chemscore.Fitness>
13.8422

> <Gold.Chemscore.DG>
-15.6826

> <Gold.Chemscore.ZeroCoef>
-5.4800

> <Gold.Chemscore.Hbond>
2.0016

> <Gold.Chemscore.Metal>
0.0000

> <Gold.Chemscore.Lipo>
81.0149

> <Gold.Chemscore.Internal_Hbond>
0.0000

> <Gold.Chemscore.DEClash>
1.5187

> <Gold.Chemscore.DEInternal>
0.3217

> <Gold.Chemscore.Rot>
2.3288

> <Gold.Chemscore.Internal.Correction>
   9.000000E+99

> <Gold.Chemscore.Hbonds>
donor molecule, donor type, donor heavy atom, donor atom, acceptor molecule, acceptor atom, score
      L1  H     8    26       P1  8028  0.94
      L1  H    11    27       P1  8028  0.98
      P1  H  7989  7998       L1    10  0.10

> <Gold.Chemscore.Hbond.Weighted>
-6.6855

> <Gold.Chemscore.Metal.Weighted>
-0.0000

> <Gold.Chemscore.Lipo.Weighted>
-9.4787

> <Gold.Chemscore.Internal_Hbond.Weighted>
0.0000

> <Gold.Chemscore.DEClash.Weighted>
1.5187

> <Gold.Chemscore.DEInternal.Weighted>
0.3217

> <Gold.Chemscore.Rot.Weighted>
5.9617

> <Gold.Chemscore.Internal.Correction.Weighted>
   9.000000E+99

> <Gold.Protein.RotatedTorsions>
[ 6907 6896 6895 6894 ] final   77.64 input  -60.11 | X-H torsion
[ 7974 7965 7964 7962 ] final -127.39 input  175.53 | X-H torsion
[ 8008 7997 7996 7995 ] final  146.77 input   59.86 | X-H torsion
[ 10167 10162 10161 10158 ] final  -49.86 input  -65.29 | X-H torsion
[ 10718 10713 10712 10709 ] final -107.31 input   66.30 | X-H torsion
[ 10763 10752 10751 10750 ] final  130.93 input  -60.55 | X-H torsion
[ 11005 11000 10999 10996 ] final   34.23 input  -57.11 | X-H torsion

> <Gold.Protein.ActiveResidues>
 VAL166  LYS551  ARG553  GLY616  TRP617  ASP618  TYR619  PRO620  LYS621  CYS622 
 ASP623  PHE694  ASN695  SER759  ASP760  ASP761  ALA762  ILE779  LEU786  VAL792 
 PHE793  MET794  SER795  GLU796  ALA797  LYS798  CYS799  TRP800  GLU811  SER814 

> <Gold.Protein.RotatedAtoms>
  152.5126  134.3786  159.9342 H   0  0  0  0  0  0  0  0  0  0  0  0  # atno 6907 bound_to 6896
  151.3742  133.3838  159.2710 H   0  0  0  0  0  0  0  0  0  0  0  0  # atno 6908 bound_to 6896
  150.9554  134.8969  159.7756 H   0  0  0  0  0  0  0  0  0  0  0  0  # atno 6909 bound_to 6896
  144.9776  140.7608  143.4632 H   0  0  0  0  0  0  0  0  0  0  0  0  # atno 7974 bound_to 7965
  156.2845  140.2173  156.5430 H   0  0  0  0  0  0  0  0  0  0  0  0  # atno 8008 bound_to 7997
  154.7354  140.0492  157.0786 H   0  0  0  0  0  0  0  0  0  0  0  0  # atno 8009 bound_to 7997
  155.0299  140.3134  155.4765 H   0  0  0  0  0  0  0  0  0  0  0  0  # atno 8010 bound_to 7997
  140.6665  143.2681  151.4275 H   0  0  0  0  0  0  0  0  0  0  0  0  # atno 10167 bound_to 10162
  156.0431  130.5656  150.7804 H   0  0  0  0  0  0  0  0  0  0  0  0  # atno 10718 bound_to 10713
  153.7660  135.3189  155.3344 H   0  0  0  0  0  0  0  0  0  0  0  0  # atno 10763 bound_to 10752
  154.8213  135.4601  154.0790 H   0  0  0  0  0  0  0  0  0  0  0  0  # atno 10764 bound_to 10752
  153.2036  135.6926  153.8285 H   0  0  0  0  0  0  0  0  0  0  0  0  # atno 10765 bound_to 10752
  140.2549  134.3259  155.7877 H   0  0  0  0  0  0  0  0  0  0  0  0  # atno 11005 bound_to 11000
  145.2468  139.2049  143.4963 LP  0  0  0  0  0  0  0  0  0  0  0  0  # atno 17320 bound_to 7965
  146.3399  140.2374  142.8595 LP  0  0  0  0  0  0  0  0  0  0  0  0  # atno 17321 bound_to 7965
  139.5916  144.1486  152.2095 LP  0  0  0  0  0  0  0  0  0  0  0  0  # atno 17342 bound_to 10162
  140.0843  144.5674  150.7100 LP  0  0  0  0  0  0  0  0  0  0  0  0  # atno 17343 bound_to 10162
  157.5273  131.0935  151.0001 LP  0  0  0  0  0  0  0  0  0  0  0  0  # atno 17370 bound_to 10713
  157.0316  130.5714  149.5344 LP  0  0  0  0  0  0  0  0  0  0  0  0  # atno 17371 bound_to 10713
  141.2197  133.7375  156.9096 LP  0  0  0  0  0  0  0  0  0  0  0  0  # atno 17394 bound_to 11000
  140.1521  134.9223  157.2606 LP  0  0  0  0  0  0  0  0  0  0  0  0  # atno 17395 bound_to 11000

$$$$
