AV-unprocessed.smi:3349|AV-procd|sdf|12934|dock7
  -GOLD-   2272019363D 1   1.00000     0.00000
 Structure written by MMmdl.
 40 41  0  0  0  0  0  0  0  0  1 V2000
  153.6681  140.6592  160.2674 C   0  0  0  0  0  0  0  0  0  0  0  0
  152.9149  141.3438  159.0976 C   0  0  1  0  0  0  0  0  0  0  0  0
  151.5478  140.6338  158.8931 C   0  0  0  0  0  0  0  0  0  0  0  0
  151.3094  140.2640  157.5026 N   0  0  0  0  0  0  0  0  0  0  0  0
  152.1764  139.5879  156.7347 C   0  0  0  0  0  0  0  0  0  0  0  0
  153.2675  139.1893  157.1444 O   0  0  0  0  0  0  0  0  0  0  0  0
  151.7377  139.3233  155.2862 C   0  0  1  0  0  0  0  0  0  0  0  0
  151.6732  137.8220  154.9506 C   0  0  0  0  0  0  0  0  0  0  0  0
  150.4630  139.9723  155.0136 N   0  0  0  0  0  0  0  0  0  0  0  0
  149.3299  139.4954  154.4897 C   0  0  0  0  0  0  0  0  0  0  0  0
  148.3676  140.4002  154.3776 N   0  0  0  0  0  0  0  0  0  0  0  0
  149.0202  141.4902  154.8799 C   0  0  0  0  0  0  0  0  0  0  0  0
  150.2785  141.2892  155.2718 N   0  0  0  0  0  0  0  0  0  0  0  0
  152.7888  142.8091  159.2794 N   0  0  0  0  0  0  0  0  0  0  0  0
  152.2659  143.1769  160.6005 C   0  0  0  0  0  0  0  0  0  0  0  0
  152.1107  144.6973  160.7801 C   0  0  0  0  0  0  0  0  0  0  0  0
  151.2717  145.2184  159.7586 O   0  0  0  0  0  0  0  0  0  0  0  0
  151.7846  144.9522  158.4607 C   0  0  0  0  0  0  0  0  0  0  0  0
  151.9319  143.4334  158.2645 C   0  0  0  0  0  0  0  0  0  0  0  0
  153.7202  139.5766  160.1563 H   0  0  0  0  0  0  0  0  0  0  0  0
  153.1835  140.8666  161.2220 H   0  0  0  0  0  0  0  0  0  0  0  0
  154.7053  140.9833  160.3381 H   0  0  0  0  0  0  0  0  0  0  0  0
  153.5027  141.1670  158.1953 H   0  0  0  0  0  0  0  0  0  0  0  0
  151.4934  139.7446  159.5236 H   0  0  0  0  0  0  0  0  0  0  0  0
  150.7175  141.2800  159.1746 H   0  0  0  0  0  0  0  0  0  0  0  0
  150.4314  140.5511  157.0946 H   0  0  0  0  0  0  0  0  0  0  0  0
  152.4905  139.7700  154.6334 H   0  0  0  0  0  0  0  0  0  0  0  0
  152.6237  137.3290  155.1574 H   0  0  0  0  0  0  0  0  0  0  0  0
  151.4500  137.6705  153.8943 H   0  0  0  0  0  0  0  0  0  0  0  0
  150.9005  137.3111  155.5263 H   0  0  0  0  0  0  0  0  0  0  0  0
  149.2076  138.4663  154.1838 H   0  0  0  0  0  0  0  0  0  0  0  0
  148.5550  142.4618  154.9574 H   0  0  0  0  0  0  0  0  0  0  0  0
  151.3024  142.6924  160.7655 H   0  0  0  0  0  0  0  0  0  0  0  0
  152.9330  142.8344  161.3889 H   0  0  0  0  0  0  0  0  0  0  0  0
  151.6683  144.9204  161.7511 H   0  0  0  0  0  0  0  0  0  0  0  0
  153.0835  145.1909  160.7507 H   0  0  0  0  0  0  0  0  0  0  0  0
  151.1027  145.3654  157.7172 H   0  0  0  0  0  0  0  0  0  0  0  0
  152.7446  145.4542  158.3291 H   0  0  0  0  0  0  0  0  0  0  0  0
  152.3418  143.2809  157.2677 H   0  0  0  0  0  0  0  0  0  0  0  0
  150.9447  142.9692  158.2769 H   0  0  0  0  0  0  0  0  0  0  0  0
  1  2  1  0  0  0  0
  1 20  1  0  0  0  0
  1 21  1  0  0  0  0
  1 22  1  0  0  0  0
  2  3  1  0  0  0  0
  2 14  1  0  0  0  0
  2 23  1  0  0  0  0
  3  4  1  0  0  0  0
  3 24  1  0  0  0  0
  3 25  1  0  0  0  0
  4  5  1  0  0  0  0
  4 26  1  0  0  0  0
  5  6  2  0  0  0  0
  5  7  1  0  0  0  0
  7  8  1  0  0  0  0
  7  9  1  0  0  0  0
  7 27  1  0  0  0  0
  8 28  1  0  0  0  0
  8 29  1  0  0  0  0
  8 30  1  0  0  0  0
  9 13  1  0  0  0  0
  9 10  1  0  0  0  0
 10 11  2  0  0  0  0
 10 31  1  0  0  0  0
 11 12  1  0  0  0  0
 12 13  2  0  0  0  0
 12 32  1  0  0  0  0
 14 19  1  0  0  0  0
 14 15  1  0  0  0  0
 15 16  1  0  0  0  0
 15 33  1  0  0  0  0
 15 34  1  0  0  0  0
 16 17  1  0  0  0  0
 16 35  1  0  0  0  0
 16 36  1  0  0  0  0
 17 18  1  0  0  0  0
 18 19  1  0  0  0  0
 18 37  1  0  0  0  0
 18 38  1  0  0  0  0
 19 39  1  0  0  0  0
 19 40  1  0  0  0  0
M  END
> <s_m_source_file>
AV-unprocessed.smi

> <i_m_source_file_index>
3349

> <i_lp_mmshare_version>
43012

> <i_f3d_flags>
0

> <s_epik_input>
W0NIMl0xW0NIMl1PW0NIMl1bQ0gyXU4xW0NASF0oW0NIM10pW0NIMl1bTkhdQyg9TylbQ0BIXShbQ0gzXSluMltjSF1uW2NIXW4y

> <s_epik_cmdline>
J2VwaWtfcHl0aG9uJywgJy1waCcsICc3LjAnLCAnLXRuJywgJzgnLCAnLW1hJywgJzIwMCcsICctbWV0YWxfYmluZGluZycsICctaW1hZScsICc8aW5maWxlLm1hZT4nLCAnLW9tYWUnLCAnPG91dGZpbGUubWFlPic=

> <r_lp_tautomer_probability>
1

> <r_epik_Ionization_Penalty>
0.211373

> <r_epik_Ionization_Penalty_Charging>
0

> <r_epik_Ionization_Penalty_Neutral>
0.211373

> <r_epik_State_Penalty>
0.201459

> <r_epik_Charging_Adjusted_Penalty>
0.201459

> <i_epik_Tot_Q>
0

> <i_epik_Tot_abs_Q>
0

> <r_epik_Metal_State_Penalty>
0.201458

> <b_epik_Metal_Only>
0

> <s_lp_Force_Field>
OPLS_2005

> <r_lp_Energy>
35.0343

> <b_lp_Chiralities_Consistent>
1

> <s_lp_Variant>
AV-unprocessed.smi:3349-4

> <Gold.Version>
5.8.1

> <Gold.Id.Protein>
6NUR|6NUR_protein|mol2

> <Gold.PLP.Fitness>
44.8795

> <Gold.PLP.PLP>
-40.6118

> <Gold.PLP.part.hbond>
-1.8911

> <Gold.PLP.part.metal>
0.0000

> <Gold.PLP.part.buried>
-3.9394

> <Gold.PLP.part.nonpolar>
-34.5765

> <Gold.PLP.part.repulsive>
0.4219

> <Gold.PLP.ligand.clash>
0.0000

> <Gold.PLP.ligand.torsion>
0.9140

> <Gold.PLP.Chemscore.Hbond>
1.0000

> <Gold.PLP.Chemscore.CHOScore>
1.0000

> <Gold.PLP.Chemscore.Metal>
0.0000

> <Gold.Chemscore.Hbonds>
donor molecule, donor type, donor heavy atom, donor atom, acceptor molecule, acceptor atom, score
      P1  H  7997  8010       L1     6  1.00
      L1  C    12    32       P1  8028  1.00

> <Gold.PLP.Chemscore.Internal.Correction>
0.0956

> <Gold.Rescore>
     Score         DG    S(hbond)    S(metal)    S(lipo)     H(rot)  DE(clash)    DE(int)     intcor
      8.94     -12.38       0.98        0.00      86.99       2.56       0.01       3.43       ----

> <Gold.Chemscore.Fitness>
8.9375

> <Gold.Chemscore.DG>
-12.3782

> <Gold.Chemscore.ZeroCoef>
-5.4800

> <Gold.Chemscore.Hbond>
0.9780

> <Gold.Chemscore.Metal>
0.0000

> <Gold.Chemscore.Lipo>
86.9874

> <Gold.Chemscore.Internal_Hbond>
0.0000

> <Gold.Chemscore.DEClash>
0.0133

> <Gold.Chemscore.DEInternal>
3.4275

> <Gold.Chemscore.Rot>
2.5570

> <Gold.Chemscore.Internal.Correction>
   9.000000E+99

> <Gold.Chemscore.Hbonds>
donor molecule, donor type, donor heavy atom, donor atom, acceptor molecule, acceptor atom, score
      P1  H  7997  8010       L1     6  0.91

> <Gold.Chemscore.Hbond.Weighted>
-3.2666

> <Gold.Chemscore.Metal.Weighted>
-0.0000

> <Gold.Chemscore.Lipo.Weighted>
-10.1775

> <Gold.Chemscore.Internal_Hbond.Weighted>
0.0000

> <Gold.Chemscore.DEClash.Weighted>
0.0133

> <Gold.Chemscore.DEInternal.Weighted>
3.4275

> <Gold.Chemscore.Rot.Weighted>
6.5459

> <Gold.Chemscore.Internal.Correction.Weighted>
   9.000000E+99

> <Gold.Protein.RotatedTorsions>
[ 6907 6896 6895 6894 ] final    5.50 input  -60.11 | X-H torsion
[ 7974 7965 7964 7962 ] final   35.78 input  175.53 | X-H torsion
[ 8008 7997 7996 7995 ] final   37.78 input   59.86 | X-H torsion
[ 10167 10162 10161 10158 ] final   25.14 input  -65.29 | X-H torsion
[ 10718 10713 10712 10709 ] final -106.19 input   66.30 | X-H torsion
[ 10763 10752 10751 10750 ] final  122.75 input  -60.55 | X-H torsion
[ 11005 11000 10999 10996 ] final   81.34 input  -57.11 | X-H torsion

> <Gold.Protein.ActiveResidues>
 VAL166  LYS551  ARG553  GLY616  TRP617  ASP618  TYR619  PRO620  LYS621  CYS622 
 ASP623  PHE694  ASN695  SER759  ASP760  ASP761  ALA762  ILE779  LEU786  VAL792 
 PHE793  MET794  SER795  GLU796  ALA797  LYS798  CYS799  TRP800  GLU811  SER814 

> <Gold.Protein.RotatedAtoms>
  151.6585  135.0992  160.0174 H   0  0  0  0  0  0  0  0  0  0  0  0  # atno 6907 bound_to 6896
  152.3960  133.6743  159.6285 H   0  0  0  0  0  0  0  0  0  0  0  0  # atno 6908 bound_to 6896
  150.7867  133.8790  159.3321 H   0  0  0  0  0  0  0  0  0  0  0  0  # atno 6909 bound_to 6896
  146.1258  139.6099  142.9259 H   0  0  0  0  0  0  0  0  0  0  0  0  # atno 7974 bound_to 7965
  155.2094  140.3322  155.4331 H   0  0  0  0  0  0  0  0  0  0  0  0  # atno 8008 bound_to 7997
  156.2376  140.1880  156.7125 H   0  0  0  0  0  0  0  0  0  0  0  0  # atno 8009 bound_to 7997
  154.6088  140.0612  156.9452 H   0  0  0  0  0  0  0  0  0  0  0  0  # atno 8010 bound_to 7997
  140.5130  144.0128  150.6381 H   0  0  0  0  0  0  0  0  0  0  0  0  # atno 10167 bound_to 10162
  156.0379  130.5600  150.7646 H   0  0  0  0  0  0  0  0  0  0  0  0  # atno 10718 bound_to 10713
  153.6346  135.3390  155.3052 H   0  0  0  0  0  0  0  0  0  0  0  0  # atno 10763 bound_to 10752
  154.8573  135.4304  154.2069 H   0  0  0  0  0  0  0  0  0  0  0  0  # atno 10764 bound_to 10752
  153.2973  135.7022  153.7310 H   0  0  0  0  0  0  0  0  0  0  0  0  # atno 10765 bound_to 10752
  139.9102  134.7989  156.2028 H   0  0  0  0  0  0  0  0  0  0  0  0  # atno 11005 bound_to 11000
  145.5368  141.0423  143.2353 LP  0  0  0  0  0  0  0  0  0  0  0  0  # atno 17320 bound_to 7965
  144.7641  139.6886  143.7222 LP  0  0  0  0  0  0  0  0  0  0  0  0  # atno 17321 bound_to 7965
  140.3456  143.2993  152.0542 LP  0  0  0  0  0  0  0  0  0  0  0  0  # atno 17342 bound_to 10162
  139.4901  144.6411  151.6875 LP  0  0  0  0  0  0  0  0  0  0  0  0  # atno 17343 bound_to 10162
  157.5156  131.0928  151.0143 LP  0  0  0  0  0  0  0  0  0  0  0  0  # atno 17370 bound_to 10713
  157.0487  130.5778  149.5367 LP  0  0  0  0  0  0  0  0  0  0  0  0  # atno 17371 bound_to 10713
  141.0514  133.6887  156.1779 LP  0  0  0  0  0  0  0  0  0  0  0  0  # atno 17394 bound_to 11000
  140.6804  134.4773  157.5589 LP  0  0  0  0  0  0  0  0  0  0  0  0  # atno 17395 bound_to 11000

$$$$
