#       Name:                AV-unprocessed.smi:2047
#       Creating user name   scv26
#       Creation time:       Fri Mar 27 10:58:30 2020


#       File generated by GOLD software.
#

@<TRIPOS>MOLECULE
AV-unprocessed.smi:2047
    46    48     1
SMALL
NO_CHARGES


@<TRIPOS>ATOM
      1 ****         0.1648   2.6415  -0.0419 O.2            1 S1                 0.0000
      2 ****        -0.3106   1.5125  -0.2090 C.2            1 S1                 0.0000
      3 ****         0.4920   0.4349  -0.2329 N.am           1 S1                 0.0000
      4 ****         1.9063   0.3701  -0.0858 C.ar           1 S1                 0.0000
      5 ****         2.7590   1.3818  -0.5951 C.ar           1 S1                 0.0000
      6 ****         4.1532   1.2685  -0.4334 C.ar           1 S1                 0.0000
      7 ****         4.6737   0.1402   0.2248 C.ar           1 S1                 0.0000
      8 ****         3.8363  -0.8147   0.6802 N.pl3          1 S1                 1.0000
      9 ****         2.4869  -0.7590   0.5539 C.ar           1 S1                 0.0000
     10 ****         1.7103  -1.8305   1.0450 N.3            1 S1                 0.0000
     11 ****         1.0637  -2.6317   0.0085 C.3            1 S1                 0.0000
     12 ****         1.1004  -4.0827   0.4938 C.3            1 S1                 0.0000
     13 ****         2.3087  -4.1090   1.4216 C.3            1 S1                 0.0000
     14 ****         2.2604  -2.7239   2.0628 C.3            1 S1                 0.0000
     15 ****        -1.6182   1.1750  -0.3674 N.pl3          1 S1                -1.0000
     16 ****        -2.7354   2.1236  -0.3618 C.3            1 S1                 0.0000
     17 ****        -4.0343   1.4369   0.1047 C.3            1 S1                 0.0000
     18 ****        -5.2222   2.3468  -0.2392 C.3            1 S1                 0.0000
     19 ****        -4.7483   3.2233  -1.7798 S.o2           1 S1                 0.0000
     20 ****        -5.4284   2.6027  -2.9275 O.2            1 S1                 0.0000
     21 ****        -4.8326   4.6742  -1.5502 O.2            1 S1                 0.0000
     22 ****        -2.9901   2.6937  -1.7662 C.3            1 S1                 0.0000
     23 ****         0.0144  -0.4537  -0.2630 H              1 S1                 0.0000
     24 ****         2.3632   2.2389  -1.1186 H              1 S1                 0.0000
     25 ****         4.8123   2.0349  -0.8140 H              1 S1                 0.0000
     26 ****         5.7272  -0.0319   0.3912 H              1 S1                 0.0000
     27 ****         0.0396  -2.3006  -0.1651 H              1 S1                 0.0000
     28 ****         1.6093  -2.5390  -0.9322 H              1 S1                 0.0000
     29 ****         0.1960  -4.3059   1.0617 H              1 S1                 0.0000
     30 ****         1.1720  -4.8015  -0.3228 H              1 S1                 0.0000
     31 ****         2.2706  -4.9176   2.1519 H              1 S1                 0.0000
     32 ****         3.2240  -4.2190   0.8383 H              1 S1                 0.0000
     33 ****         3.2322  -2.4263   2.4557 H              1 S1                 0.0000
     34 ****         1.5682  -2.7299   2.9054 H              1 S1                 0.0000
     35 ****        -2.5562   2.9623   0.3130 H              1 S1                 0.0000
     36 ****        -4.1567   0.4914  -0.4259 H              1 S1                 0.0000
     37 ****        -4.0084   1.2031   1.1695 H              1 S1                 0.0000
     38 ****        -6.1476   1.7918  -0.3916 H              1 S1                 0.0000
     39 ****        -5.3900   3.0924   0.5396 H              1 S1                 0.0000
     40 ****        -2.3403   3.5354  -2.0058 H              1 S1                 0.0000
     41 ****        -2.8685   1.9292  -2.5343 H              1 S1                 0.0000
     42 ****         4.2423  -1.6284   1.1421 H              1 S1                 0.0000
     43 ****         1.1512   2.7562   0.0763 LP             1 S1                 0.0000
     44 ****        -0.4370   3.4400  -0.0250 LP             1 S1                 0.0000
     45 ****         1.0424  -1.2777   1.5434 LP             1 S1                 0.0000
     46 ****        -1.8337   0.2072  -0.4974 LP             1 S1                 0.0000
@<TRIPOS>BOND
    1    1    2 2     
    2    2    3 am    
    3    2   15 1     
    4    3    4 1     
    5    3   23 1     
    6    4    9 ar    
    7    4    5 ar    
    8    5    6 ar    
    9    5   24 1     
   10    6    7 ar    
   11    6   25 1     
   12    7    8 ar    
   13    7   26 1     
   14    8    9 ar    
   15    8   42 1     
   16    9   10 1     
   17   10   14 1     
   18   10   11 1     
   19   11   12 1     
   20   11   27 1     
   21   11   28 1     
   22   12   13 1     
   23   12   29 1     
   24   12   30 1     
   25   13   14 1     
   26   13   31 1     
   27   13   32 1     
   28   14   33 1     
   29   14   34 1     
   30   15   16 1     
   31   16   22 1     
   32   16   17 1     
   33   16   35 1     
   34   17   18 1     
   35   17   36 1     
   36   17   37 1     
   37   18   19 1     
   38   18   38 1     
   39   18   39 1     
   40   19   20 2     
   41   19   21 2     
   42   19   22 1     
   43   22   40 1     
   44   22   41 1     
   45    1   43 1     
   46    1   44 1     
   47   10   45 1     
   48   15   46 1     
@<TRIPOS>SUBSTRUCTURE
      1 S1             1
@<TRIPOS>SET
LONE_PAIRS      STATIC     ATOMS    <user>   **** ""
6 43 44 45 46 20 21
DONOR_HYDROGENS      STATIC     ATOMS    <user>   **** ""
2 23 42
ATOM$BLUE        STATIC     ATOMS    COLORGROUP SYSTEM
6 43 44 45 46 20 21
ATOM$RED        STATIC     ATOMS    COLORGROUP SYSTEM
2 23 42
