AV-unprocessed.smi:636|AV-procd|sdf|3140|dock7
  -GOLD-   22720 0 63D 1   1.00000     0.00000
 Structure written by MMmdl.
 39 41  0  0  0  0  0  0  0  0  1 V2000
  148.9828  140.0908  155.6323 O   0  0  0  0  0  0  0  0  0  0  0  0
  149.1853  141.3000  155.7333 C   0  0  0  0  0  0  0  0  0  0  0  0
  150.6358  141.8138  155.7443 C   0  0  0  0  0  0  0  0  0  0  0  0
  151.2756  141.8368  157.0726 N   0  0  0  0  0  0  0  0  0  0  0  0
  151.0931  142.9990  157.8456 C   0  0  0  0  0  0  0  0  0  0  0  0
  151.6221  143.1515  159.0736 C   0  0  0  0  0  0  0  0  0  0  0  0
  151.4661  144.4455  159.8568 C   0  0  0  0  0  0  0  0  0  0  0  0
  150.1737  144.7085  160.0432 F   0  0  0  0  0  0  0  0  0  0  0  0
  152.0486  144.3552  161.0524 F   0  0  0  0  0  0  0  0  0  0  0  0
  152.0091  145.4729  159.2029 F   0  0  0  0  0  0  0  0  0  0  0  0
  152.4296  142.0546  159.5677 C   0  0  0  0  0  0  0  0  0  0  0  0
  152.6305  140.9377  158.8397 C   0  0  0  0  0  0  0  0  0  0  0  0
  153.6031  139.6610  159.4783 Cl  0  0  0  0  0  0  0  0  0  0  0  0
  152.0345  140.7857  157.5063 C   0  0  0  0  0  0  0  0  0  0  0  0
  152.2100  139.7820  156.8143 O   0  0  0  0  0  0  0  0  0  0  0  0
  148.1926  142.2003  155.8374 N   0  0  0  0  0  0  0  0  0  0  0  0
  146.7644  141.9086  155.8448 C   0  0  0  0  0  0  0  0  0  0  0  0
  146.2588  141.4446  154.4887 C   0  0  0  0  0  0  0  0  0  0  0  0
  146.5018  140.0366  153.9977 C   0  0  0  0  0  0  0  0  0  0  0  0
  147.2049  141.1998  153.3368 C   0  0  0  0  0  0  0  0  0  0  0  0
  145.9618  143.1033  156.3257 C   0  0  0  0  0  0  0  0  0  0  0  0
  144.4525  143.0910  156.2939 C   0  0  0  0  0  0  0  0  0  0  0  0
  145.2221  143.9984  155.3600 C   0  0  0  0  0  0  0  0  0  0  0  0
  151.2177  141.1906  155.0638 H   0  0  0  0  0  0  0  0  0  0  0  0
  150.6539  142.8076  155.2937 H   0  0  0  0  0  0  0  0  0  0  0  0
  150.5038  143.7676  157.3668 H   0  0  0  0  0  0  0  0  0  0  0  0
  152.8811  142.1300  160.5461 H   0  0  0  0  0  0  0  0  0  0  0  0
  148.4507  143.1729  155.9190 H   0  0  0  0  0  0  0  0  0  0  0  0
  146.5865  141.1006  156.5576 H   0  0  0  0  0  0  0  0  0  0  0  0
  145.2928  141.8695  154.2216 H   0  0  0  0  0  0  0  0  0  0  0  0
  147.1065  139.3761  154.6153 H   0  0  0  0  0  0  0  0  0  0  0  0
  145.6995  139.5531  153.4442 H   0  0  0  0  0  0  0  0  0  0  0  0
  146.8714  141.4934  152.3437 H   0  0  0  0  0  0  0  0  0  0  0  0
  148.2719  141.3082  153.5209 H   0  0  0  0  0  0  0  0  0  0  0  0
  146.4080  143.6060  157.1821 H   0  0  0  0  0  0  0  0  0  0  0  0
  143.9614  142.2233  155.8580 H   0  0  0  0  0  0  0  0  0  0  0  0
  143.9293  143.5531  157.1284 H   0  0  0  0  0  0  0  0  0  0  0  0
  145.2125  145.0654  155.5724 H   0  0  0  0  0  0  0  0  0  0  0  0
  145.2335  143.7329  154.3050 H   0  0  0  0  0  0  0  0  0  0  0  0
  1  2  2  0  0  0  0
  2  3  1  0  0  0  0
  2 16  1  0  0  0  0
  3  4  1  0  0  0  0
  3 24  1  0  0  0  0
  3 25  1  0  0  0  0
  4 14  1  0  0  0  0
  4  5  1  0  0  0  0
  5  6  2  0  0  0  0
  5 26  1  0  0  0  0
  6  7  1  0  0  0  0
  6 11  1  0  0  0  0
  7  8  1  0  0  0  0
  7  9  1  0  0  0  0
  7 10  1  0  0  0  0
 11 12  2  0  0  0  0
 11 27  1  0  0  0  0
 12 13  1  0  0  0  0
 12 14  1  0  0  0  0
 14 15  2  0  0  0  0
 16 17  1  0  0  0  0
 16 28  1  0  0  0  0
 17 18  1  0  0  0  0
 17 21  1  0  0  0  0
 17 29  1  0  0  0  0
 18 20  1  0  0  0  0
 18 19  1  0  0  0  0
 18 30  1  0  0  0  0
 19 20  1  0  0  0  0
 19 31  1  0  0  0  0
 19 32  1  0  0  0  0
 20 33  1  0  0  0  0
 20 34  1  0  0  0  0
 21 23  1  0  0  0  0
 21 22  1  0  0  0  0
 21 35  1  0  0  0  0
 22 23  1  0  0  0  0
 22 36  1  0  0  0  0
 22 37  1  0  0  0  0
 23 38  1  0  0  0  0
 23 39  1  0  0  0  0
M  END
> <s_m_source_file>
AV-unprocessed.smi

> <i_m_source_file_index>
636

> <i_lp_mmshare_version>
43012

> <i_f3d_flags>
0

> <s_epik_input>
W0NIMl0xW0NIMl1bQ0hdMVtDSF0oW0NIXTJbQ0gyXVtDSDJdMilbTkhdQyg9TylbQ0gyXW4zW2NIXWMoQyhGKShGKUYpW2NIXWMoQ2wpYzM9Tw==

> <s_epik_cmdline>
J2VwaWtfcHl0aG9uJywgJy1waCcsICc3LjAnLCAnLXRuJywgJzgnLCAnLW1hJywgJzIwMCcsICctbWV0YWxfYmluZGluZycsICctaW1hZScsICc8aW5maWxlLm1hZT4nLCAnLW9tYWUnLCAnPG91dGZpbGUubWFlPic=

> <r_lp_tautomer_probability>
1

> <r_epik_Ionization_Penalty>
2.07964e-08

> <r_epik_Ionization_Penalty_Charging>
3.83819e-10

> <r_epik_Ionization_Penalty_Neutral>
2.04126e-08

> <r_epik_State_Penalty>
-0

> <r_epik_Charging_Adjusted_Penalty>
3.83819e-10

> <i_epik_Tot_Q>
0

> <i_epik_Tot_abs_Q>
0

> <r_epik_Metal_State_Penalty>
-0

> <b_epik_Metal_Only>
0

> <s_lp_Force_Field>
OPLS_2005

> <r_lp_Energy>
34.6708

> <b_lp_Chiralities_Consistent>
1

> <s_lp_Variant>
AV-unprocessed.smi:636-1

> <Gold.Version>
5.8.1

> <Gold.Id.Protein>
6NUR|6NUR_protein|mol2

> <Gold.PLP.Fitness>
51.1380

> <Gold.PLP.PLP>
-45.0619

> <Gold.PLP.part.hbond>
-2.0000

> <Gold.PLP.part.metal>
0.0000

> <Gold.PLP.part.buried>
-6.1674

> <Gold.PLP.part.nonpolar>
-36.4315

> <Gold.PLP.part.repulsive>
0.0705

> <Gold.PLP.ligand.clash>
0.0000

> <Gold.PLP.ligand.torsion>
2.4090

> <Gold.PLP.Chemscore.Hbond>
2.0000

> <Gold.PLP.Chemscore.CHOScore>
0.8997

> <Gold.PLP.Chemscore.Metal>
0.0000

> <Gold.Chemscore.Hbonds>
donor molecule, donor type, donor heavy atom, donor atom, acceptor molecule, acceptor atom, score
      L1  H    16    28       P1  8028  1.00
      P1  H  7997  8009       L1    15  0.40
      L1  C     5    26       P1  8028  1.00

> <Gold.PLP.Chemscore.Internal.Correction>
2.1949

> <Gold.Rescore>
     Score         DG    S(hbond)    S(metal)    S(lipo)     H(rot)  DE(clash)    DE(int)     intcor
     14.75     -17.41       1.80        0.00      91.97       1.90       0.06       2.60       ----

> <Gold.Chemscore.Fitness>
14.7472

> <Gold.Chemscore.DG>
-17.4062

> <Gold.Chemscore.ZeroCoef>
-5.4800

> <Gold.Chemscore.Hbond>
1.8038

> <Gold.Chemscore.Metal>
0.0000

> <Gold.Chemscore.Lipo>
91.9655

> <Gold.Chemscore.Internal_Hbond>
0.0000

> <Gold.Chemscore.DEClash>
0.0595

> <Gold.Chemscore.DEInternal>
2.5995

> <Gold.Chemscore.Rot>
1.8979

> <Gold.Chemscore.Internal.Correction>
   9.000000E+99

> <Gold.Chemscore.Hbonds>
donor molecule, donor type, donor heavy atom, donor atom, acceptor molecule, acceptor atom, score
      L1  H    16    28       P1  8028  0.95
      P1  H  7997  8009       L1    15  0.04

> <Gold.Chemscore.Hbond.Weighted>
-6.0247

> <Gold.Chemscore.Metal.Weighted>
-0.0000

> <Gold.Chemscore.Lipo.Weighted>
-10.7600

> <Gold.Chemscore.Internal_Hbond.Weighted>
0.0000

> <Gold.Chemscore.DEClash.Weighted>
0.0595

> <Gold.Chemscore.DEInternal.Weighted>
2.5995

> <Gold.Chemscore.Rot.Weighted>
4.8586

> <Gold.Chemscore.Internal.Correction.Weighted>
   9.000000E+99

> <Gold.Protein.RotatedTorsions>
[ 6907 6896 6895 6894 ] final   78.60 input  -60.11 | X-H torsion
[ 7974 7965 7964 7962 ] final -170.76 input  175.53 | X-H torsion
[ 8008 7997 7996 7995 ] final  176.81 input   59.86 | X-H torsion
[ 10167 10162 10161 10158 ] final -172.09 input  -65.29 | X-H torsion
[ 10718 10713 10712 10709 ] final  -87.56 input   66.30 | X-H torsion
[ 10763 10752 10751 10750 ] final  164.59 input  -60.55 | X-H torsion
[ 11005 11000 10999 10996 ] final  -70.44 input  -57.11 | X-H torsion

> <Gold.Protein.ActiveResidues>
 VAL166  LYS551  ARG553  GLY616  TRP617  ASP618  TYR619  PRO620  LYS621  CYS622 
 ASP623  PHE694  ASN695  SER759  ASP760  ASP761  ALA762  ILE779  LEU786  VAL792 
 PHE793  MET794  SER795  GLU796  ALA797  LYS798  CYS799  TRP800  GLU811  SER814 

> <Gold.Protein.RotatedAtoms>
  152.5166  134.3639  159.9294 H   0  0  0  0  0  0  0  0  0  0  0  0  # atno 6907 bound_to 6896
  151.3592  133.3890  159.2695 H   0  0  0  0  0  0  0  0  0  0  0  0  # atno 6908 bound_to 6896
  150.9665  134.9064  159.7821 H   0  0  0  0  0  0  0  0  0  0  0  0  # atno 6909 bound_to 6896
  144.7165  140.2023  143.6337 H   0  0  0  0  0  0  0  0  0  0  0  0  # atno 7974 bound_to 7965
  156.0725  140.1374  156.9812 H   0  0  0  0  0  0  0  0  0  0  0  0  # atno 8008 bound_to 7997
  154.4539  140.0969  156.6751 H   0  0  0  0  0  0  0  0  0  0  0  0  # atno 8009 bound_to 7997
  155.5206  140.3456  155.4408 H   0  0  0  0  0  0  0  0  0  0  0  0  # atno 8010 bound_to 7997
  139.5764  144.1522  152.1456 H   0  0  0  0  0  0  0  0  0  0  0  0  # atno 10167 bound_to 10162
  155.9985  130.4804  150.4885 H   0  0  0  0  0  0  0  0  0  0  0  0  # atno 10718 bound_to 10713
  154.3112  135.2757  155.2565 H   0  0  0  0  0  0  0  0  0  0  0  0  # atno 10763 bound_to 10752
  154.4959  135.5821  153.6498 H   0  0  0  0  0  0  0  0  0  0  0  0  # atno 10764 bound_to 10752
  152.9888  135.6146  154.3289 H   0  0  0  0  0  0  0  0  0  0  0  0  # atno 10765 bound_to 10752
  141.1574  133.6790  156.6753 H   0  0  0  0  0  0  0  0  0  0  0  0  # atno 11005 bound_to 11000
  145.8668  139.2251  143.1684 LP  0  0  0  0  0  0  0  0  0  0  0  0  # atno 17320 bound_to 7965
  146.0122  140.8425  142.9965 LP  0  0  0  0  0  0  0  0  0  0  0  0  # atno 17321 bound_to 7965
  140.1066  144.5494  150.6953 LP  0  0  0  0  0  0  0  0  0  0  0  0  # atno 17342 bound_to 10162
  140.7046  143.2459  151.4763 LP  0  0  0  0  0  0  0  0  0  0  0  0  # atno 17343 bound_to 10162
  157.2883  131.0621  151.2151 LP  0  0  0  0  0  0  0  0  0  0  0  0  # atno 17370 bound_to 10713
  157.3173  130.6919  149.6249 LP  0  0  0  0  0  0  0  0  0  0  0  0  # atno 17371 bound_to 10713
  140.3144  134.8060  157.4202 LP  0  0  0  0  0  0  0  0  0  0  0  0  # atno 17394 bound_to 11000
  140.1151  134.5294  155.8232 LP  0  0  0  0  0  0  0  0  0  0  0  0  # atno 17395 bound_to 11000

$$$$
