#       Name:                AV-unprocessed.smi:283
#       Creating user name   scv26
#       Creation time:       Thu Mar 26 21:44:34 2020


#       File generated by GOLD software.
#

@<TRIPOS>MOLECULE
AV-unprocessed.smi:283
    59    62     1
SMALL
NO_CHARGES


@<TRIPOS>ATOM
      1 ****        -5.0749   0.5690  -1.8764 C.3            1 S1                 0.0000
      2 ****        -3.7499   0.9598  -1.2087 C.3            1 S1                 0.0000
      3 ****        -2.7156  -0.0194  -1.5385 N.pl3          1 S1                 0.0000
      4 ****        -1.4196   0.2005  -1.2200 C.ar           1 S1                 0.0000
      5 ****        -1.0064   1.4045  -0.7443 N.ar           1 S1                 0.0000
      6 ****         0.2791   1.5971  -0.4370 C.ar           1 S1                 0.0000
      7 ****         1.2966   0.7393  -0.5346 N.ar           1 S1                 0.0000
      8 ****         0.8909  -0.4698  -1.0198 C.ar           1 S1                 0.0000
      9 ****        -0.4419  -0.8152  -1.3809 C.ar           1 S1                 0.0000
     10 ****        -0.4830  -2.1293  -1.8274 N.2            1 S1                 0.0000
     11 ****         0.7560  -2.5321  -1.7371 C.2            1 S1                 0.0000
     12 ****         1.6497  -1.5986  -1.2609 N.pl3          1 S1                 0.0000
     13 ****         3.1227  -1.7769  -1.0551 C.3            1 S1                 0.0000
     14 ****         3.7871  -0.5819  -1.3391 O.3            1 S1                 0.0000
     15 ****         4.8456  -0.3505  -0.4060 C.3            1 S1                 0.0000
     16 ****         4.5349   0.9585   0.3484 C.3            1 S1                 0.0000
     17 ****         5.6953   1.4607   0.9777 O.3            1 S1                 0.0000
     18 ****         4.9053  -1.6296   0.4502 C.3            1 S1                 0.0000
     19 ****         5.3770  -1.4674   1.7747 O.3            1 S1                 0.0000
     20 ****         3.4914  -2.1814   0.3774 C.3            1 S1                 0.0000
     21 ****         2.6289  -1.6320   1.3604 O.3            1 S1                 0.0000
     22 ****        -3.9504   1.1753   0.2927 C.ar           1 S1                 0.0000
     23 ****        -3.9763   0.0578   1.1585 C.ar           1 S1                 0.0000
     24 ****        -4.1596   0.2267   2.5437 C.ar           1 S1                 0.0000
     25 ****        -4.3222   1.5173   3.0781 C.ar           1 S1                 0.0000
     26 ****        -4.3061   2.6360   2.2249 C.ar           1 S1                 0.0000
     27 ****        -4.1252   2.4729   0.8368 C.ar           1 S1                 0.0000
     28 ****        -4.1258   3.8841  -0.1625 Cl             1 S1                 0.0000
     29 ****         3.4206  -2.5269  -1.7890 H              1 S1                 0.0000
     30 ****         5.7729  -0.2289  -0.9675 H              1 S1                 0.0000
     31 ****         5.5703  -2.3353  -0.0501 H              1 S1                 0.0000
     32 ****         3.4698  -3.2679   0.4691 H              1 S1                 0.0000
     33 ****        -5.8370   1.3301  -1.7064 H              1 S1                 0.0000
     34 ****        -5.4547  -0.3756  -1.4855 H              1 S1                 0.0000
     35 ****        -4.9548   0.4598  -2.9546 H              1 S1                 0.0000
     36 ****        -3.4294   1.8956  -1.6646 H              1 S1                 0.0000
     37 ****        -3.0456  -0.8950  -1.9182 H              1 S1                 0.0000
     38 ****         0.5283   2.5779  -0.0599 H              1 S1                 0.0000
     39 ****         1.0550  -3.5317  -2.0176 H              1 S1                 0.0000
     40 ****         4.1923   1.7181  -0.3548 H              1 S1                 0.0000
     41 ****         3.7407   0.8256   1.0826 H              1 S1                 0.0000
     42 ****         6.0051   0.8151   1.5947 H              1 S1                 0.0000
     43 ****         4.7492  -0.9437   2.2496 H              1 S1                 0.0000
     44 ****         1.7430  -1.8939   1.1605 H              1 S1                 0.0000
     45 ****        -3.8557  -0.9395   0.7616 H              1 S1                 0.0000
     46 ****        -4.1763  -0.6344   3.1954 H              1 S1                 0.0000
     47 ****        -4.4620   1.6494   4.1409 H              1 S1                 0.0000
     48 ****        -4.4350   3.6253   2.6385 H              1 S1                 0.0000
     49 ****        -1.6654   2.1470  -0.6242 LP             1 S1                 0.0000
     50 ****         2.2399   0.9558  -0.2832 LP             1 S1                 0.0000
     51 ****        -1.2774  -2.6473  -2.1446 LP             1 S1                 0.0000
     52 ****         3.1353   0.1748  -1.2886 LP             1 S1                 0.0000
     53 ****         4.1694  -0.6315  -2.2618 LP             1 S1                 0.0000
     54 ****         5.4775   2.3099   1.4588 LP             1 S1                 0.0000
     55 ****         6.4012   1.6379   0.2919 LP             1 S1                 0.0000
     56 ****         6.2640  -1.0057   1.7641 LP             1 S1                 0.0000
     57 ****         5.4719  -2.3616   2.2122 LP             1 S1                 0.0000
     58 ****         2.6967  -0.6343   1.3495 LP             1 S1                 0.0000
     59 ****         2.8862  -1.9737   2.2643 LP             1 S1                 0.0000
@<TRIPOS>BOND
    1    1    2 1     
    2    1   33 1     
    3    1   34 1     
    4    1   35 1     
    5    2    3 1     
    6    2   22 1     
    7    2   36 1     
    8    3    4 1     
    9    3   37 1     
   10    4    9 ar    
   11    4    5 ar    
   12    5    6 ar    
   13    6    7 ar    
   14    6   38 1     
   15    7    8 ar    
   16    8   12 1     
   17    8    9 ar    
   18    9   10 1     
   19   10   11 2     
   20   11   12 1     
   21   11   39 1     
   22   12   13 1     
   23   13   29 1     
   24   13   20 1     
   25   13   14 1     
   26   14   15 1     
   27   15   30 1     
   28   15   16 1     
   29   15   18 1     
   30   16   17 1     
   31   16   40 1     
   32   16   41 1     
   33   17   42 1     
   34   18   31 1     
   35   18   19 1     
   36   18   20 1     
   37   19   43 1     
   38   20   32 1     
   39   20   21 1     
   40   21   44 1     
   41   22   27 ar    
   42   22   23 ar    
   43   23   24 ar    
   44   23   45 1     
   45   24   25 ar    
   46   24   46 1     
   47   25   26 ar    
   48   25   47 1     
   49   26   27 ar    
   50   26   48 1     
   51   27   28 1     
   52    5   49 1     
   53    7   50 1     
   54   10   51 1     
   55   14   52 1     
   56   14   53 1     
   57   17   54 1     
   58   17   55 1     
   59   19   56 1     
   60   19   57 1     
   61   21   58 1     
   62   21   59 1     
@<TRIPOS>SUBSTRUCTURE
      1 S1             1
@<TRIPOS>SET
LONE_PAIRS      STATIC     ATOMS    <user>   **** ""
11 49 50 51 52 53 54 55 56 57 58 59
DONOR_HYDROGENS      STATIC     ATOMS    <user>   **** ""
4 37 42 43 44
ATOM$BLUE        STATIC     ATOMS    COLORGROUP SYSTEM
11 49 50 51 52 53 54 55 56 57 58 59
ATOM$RED        STATIC     ATOMS    COLORGROUP SYSTEM
4 37 42 43 44
