AV-unprocessed.smi:1697|AV-procd|sdf|6805|dock3
  -GOLD-   22720 7573D 1   1.00000     0.00000
 Structure written by MMmdl.
 54 56  0  0  0  0  0  0  0  0  2 V2000
  147.5452  135.1208  155.7455 C   0  0  0  0  0  0  0  0  0  0  0  0
  146.3197  135.8776  155.2155 C   0  0  0  0  0  0  0  0  0  0  0  0
  146.6517  136.7292  154.1262 O   0  0  0  0  0  0  0  0  0  0  0  0
  145.5476  137.3684  153.4931 C   0  0  2  0  0  0  0  0  0  0  0  0
  146.0654  138.1599  152.2827 C   0  0  0  0  0  0  0  0  0  0  0  0
  146.9527  139.3419  152.7109 C   0  0  0  0  0  0  0  0  0  0  0  0
  146.2395  140.2357  153.6596 N   0  3  2  0  0  0  0  0  0  0  0  0
  147.0213  141.4587  153.9747 C   0  0  0  0  0  0  0  0  0  0  0  0
  147.9627  141.2725  155.1858 C   0  0  2  0  0  0  0  0  0  0  0  0
  147.6598  142.2647  156.1473 O   0  0  0  0  0  0  0  0  0  0  0  0
  149.4608  141.3616  154.8186 C   0  0  0  0  0  0  0  0  0  0  0  0
  150.3428  140.7863  155.8214 N   0  0  0  0  0  0  0  0  0  0  0  0
  150.7397  139.5021  155.9132 C   0  0  0  0  0  0  0  0  0  0  0  0
  151.5438  139.1832  156.9228 N   0  0  0  0  0  0  0  0  0  0  0  0
  151.6937  140.4044  157.5566 C   0  0  0  0  0  0  0  0  0  0  0  0
  152.4266  140.7537  158.7116 C   0  0  0  0  0  0  0  0  0  0  0  0
  152.4332  142.0826  159.1915 C   0  0  0  0  0  0  0  0  0  0  0  0
  153.2293  142.4118  160.4420 C   0  0  0  0  0  0  0  0  0  0  0  0
  151.7040  143.0885  158.5078 C   0  0  0  0  0  0  0  0  0  0  0  0
  151.6995  144.5243  159.0022 C   0  0  0  0  0  0  0  0  0  0  0  0
  150.9671  142.7569  157.3518 C   0  0  0  0  0  0  0  0  0  0  0  0
  150.9618  141.4292  156.8886 C   0  0  0  0  0  0  0  0  0  0  0  0
  145.7896  139.4957  154.8683 C   0  0  0  0  0  0  0  0  0  0  0  0
  144.8697  138.3219  154.4902 C   0  0  0  0  0  0  0  0  0  0  0  0
  147.2569  134.4241  156.5329 H   0  0  0  0  0  0  0  0  0  0  0  0
  148.2888  135.7984  156.1649 H   0  0  0  0  0  0  0  0  0  0  0  0
  148.0232  134.5460  154.9520 H   0  0  0  0  0  0  0  0  0  0  0  0
  145.5860  135.1553  154.8572 H   0  0  0  0  0  0  0  0  0  0  0  0
  145.8320  136.4429  156.0110 H   0  0  0  0  0  0  0  0  0  0  0  0
  144.8173  136.6371  153.1421 H   0  0  0  0  0  0  0  0  0  0  0  0
  146.6186  137.4997  151.6138 H   0  0  0  0  0  0  0  0  0  0  0  0
  145.2179  138.5368  151.7085 H   0  0  0  0  0  0  0  0  0  0  0  0
  147.8720  138.9786  153.1732 H   0  0  0  0  0  0  0  0  0  0  0  0
  147.2460  139.9036  151.8232 H   0  0  0  0  0  0  0  0  0  0  0  0
  147.5875  141.7588  153.0918 H   0  0  0  0  0  0  0  0  0  0  0  0
  146.3347  142.2791  154.1890 H   0  0  0  0  0  0  0  0  0  0  0  0
  147.7966  140.3019  155.6514 H   0  0  0  0  0  0  0  0  0  0  0  0
  148.3156  142.9440  156.0971 H   0  0  0  0  0  0  0  0  0  0  0  0
  149.6477  140.8619  153.8670 H   0  0  0  0  0  0  0  0  0  0  0  0
  149.7436  142.4048  154.6731 H   0  0  0  0  0  0  0  0  0  0  0  0
  150.4126  138.7569  155.2026 H   0  0  0  0  0  0  0  0  0  0  0  0
  152.9849  139.9877  159.2299 H   0  0  0  0  0  0  0  0  0  0  0  0
  154.0313  143.1125  160.2092 H   0  0  0  0  0  0  0  0  0  0  0  0
  153.6799  141.5180  160.8740 H   0  0  0  0  0  0  0  0  0  0  0  0
  152.5857  142.8597  161.1995 H   0  0  0  0  0  0  0  0  0  0  0  0
  151.1606  145.1792  158.3172 H   0  0  0  0  0  0  0  0  0  0  0  0
  152.7177  144.9029  159.0925 H   0  0  0  0  0  0  0  0  0  0  0  0
  151.2181  144.5888  159.9781 H   0  0  0  0  0  0  0  0  0  0  0  0
  150.4071  143.5142  156.8238 H   0  0  0  0  0  0  0  0  0  0  0  0
  146.6590  139.1300  155.4169 H   0  0  0  0  0  0  0  0  0  0  0  0
  145.2511  140.1584  155.5445 H   0  0  0  0  0  0  0  0  0  0  0  0
  143.9520  138.7128  154.0487 H   0  0  0  0  0  0  0  0  0  0  0  0
  144.5702  137.7799  155.3874 H   0  0  0  0  0  0  0  0  0  0  0  0
  145.4098  140.5518  153.1774 H   0  0  0  0  0  0  0  0  0  0  0  0
  1  2  1  0  0  0  0
  1 25  1  0  0  0  0
  1 26  1  0  0  0  0
  1 27  1  0  0  0  0
  2  3  1  0  0  0  0
  2 28  1  0  0  0  0
  2 29  1  0  0  0  0
  3  4  1  0  0  0  0
  4 24  1  0  0  0  0
  4  5  1  0  0  0  0
  4 30  1  0  0  0  0
  5  6  1  0  0  0  0
  5 31  1  0  0  0  0
  5 32  1  0  0  0  0
  6  7  1  0  0  0  0
  6 33  1  0  0  0  0
  6 34  1  0  0  0  0
  7  8  1  0  0  0  0
  7 23  1  0  0  0  0
  7 54  1  0  0  0  0
  8  9  1  0  0  0  0
  8 35  1  0  0  0  0
  8 36  1  0  0  0  0
  9 10  1  0  0  0  0
  9 11  1  0  0  0  0
  9 37  1  0  0  0  0
 10 38  1  0  0  0  0
 11 12  1  0  0  0  0
 11 39  1  0  0  0  0
 11 40  1  0  0  0  0
 12 22  1  0  0  0  0
 12 13  1  0  0  0  0
 13 14  2  0  0  0  0
 13 41  1  0  0  0  0
 14 15  1  0  0  0  0
 15 22  2  0  0  0  0
 15 16  1  0  0  0  0
 16 17  2  0  0  0  0
 16 42  1  0  0  0  0
 17 18  1  0  0  0  0
 17 19  1  0  0  0  0
 18 43  1  0  0  0  0
 18 44  1  0  0  0  0
 18 45  1  0  0  0  0
 19 20  1  0  0  0  0
 19 21  2  0  0  0  0
 20 46  1  0  0  0  0
 20 47  1  0  0  0  0
 20 48  1  0  0  0  0
 21 22  1  0  0  0  0
 21 49  1  0  0  0  0
 23 24  1  0  0  0  0
 23 50  1  0  0  0  0
 23 51  1  0  0  0  0
 24 52  1  0  0  0  0
 24 53  1  0  0  0  0
M  CHG  1   7   1
M  END
> <s_m_source_file>
AV-unprocessed.smi

> <i_m_source_file_index>
1697

> <i_lp_mmshare_version>
43012

> <i_f3d_flags>
0

> <s_epik_input>
W0NIM11bQ0gyXU9bQ0hdMVtDSDJdW0NIMl1OKFtDSDJdW0NIMl0xKVtDSDJdW0NASF0oW09IXSlbQ0gyXW4oW2NIXW4yKWMoYzIzKVtjSF1jKFtDSDNdKWMoW2NIXTMpW0NIM10=

> <s_epik_cmdline>
J2VwaWtfcHl0aG9uJywgJy1waCcsICc3LjAnLCAnLXRuJywgJzgnLCAnLW1hJywgJzIwMCcsICctbWV0YWxfYmluZGluZycsICctaW1hZScsICc8aW5maWxlLm1hZT4nLCAnLW9tYWUnLCAnPG91dGZpbGUubWFlPic=

> <r_epik_Ionization_Penalty>
0.112476

> <r_epik_Ionization_Penalty_Charging>
0.0244612

> <r_epik_Ionization_Penalty_Neutral>
0.0880147

> <r_epik_State_Penalty>
0.0961447

> <r_epik_Charging_Adjusted_Penalty>
0.120606

> <i_epik_Tot_Q>
1

> <i_epik_Tot_abs_Q>
1

> <r_epik_Metal_State_Penalty>
0.0206204

> <b_epik_Metal_Only>
0

> <s_lp_Force_Field>
OPLS_2005

> <r_lp_Energy>
22.8908

> <b_lp_Chiralities_Consistent>
1

> <s_lp_Variant>
AV-unprocessed.smi:1697-3

> <Gold.Version>
5.8.1

> <Gold.Id.Protein>
6NUR|6NUR_protein|mol2

> <Gold.PLP.Fitness>
49.9866

> <Gold.PLP.PLP>
-43.9532

> <Gold.PLP.part.hbond>
-2.0000

> <Gold.PLP.part.metal>
0.0000

> <Gold.PLP.part.buried>
-2.5174

> <Gold.PLP.part.nonpolar>
-40.3166

> <Gold.PLP.part.repulsive>
0.1960

> <Gold.PLP.ligand.clash>
0.0000

> <Gold.PLP.ligand.torsion>
1.5668

> <Gold.PLP.Chemscore.Hbond>
3.0000

> <Gold.PLP.Chemscore.CHOScore>
0.0000

> <Gold.PLP.Chemscore.Metal>
0.0000

> <Gold.Chemscore.Hbonds>
donor molecule, donor type, donor heavy atom, donor atom, acceptor molecule, acceptor atom, score
      L1  H     7    54       P1 10175  2.00
      L1  H    10    38       P1  8028  1.00

> <Gold.PLP.Chemscore.Internal.Correction>
0.1670

> <Gold.Rescore>
     Score         DG    S(hbond)    S(metal)    S(lipo)     H(rot)  DE(clash)    DE(int)     intcor
     18.64     -20.46       1.89        0.00     123.79       2.27       0.10       1.72       ----

> <Gold.Chemscore.Fitness>
18.6421

> <Gold.Chemscore.DG>
-20.4631

> <Gold.Chemscore.ZeroCoef>
-5.4800

> <Gold.Chemscore.Hbond>
1.8902

> <Gold.Chemscore.Metal>
0.0000

> <Gold.Chemscore.Lipo>
123.7895

> <Gold.Chemscore.Internal_Hbond>
0.0000

> <Gold.Chemscore.DEClash>
0.0999

> <Gold.Chemscore.DEInternal>
1.7210

> <Gold.Chemscore.Rot>
2.2710

> <Gold.Chemscore.Internal.Correction>
   9.000000E+99

> <Gold.Chemscore.Hbonds>
donor molecule, donor type, donor heavy atom, donor atom, acceptor molecule, acceptor atom, score
      L1  H     7    54       P1 10175  0.90
      L1  H    10    38       P1  8028  0.84

> <Gold.Chemscore.Hbond.Weighted>
-6.3134

> <Gold.Chemscore.Metal.Weighted>
-0.0000

> <Gold.Chemscore.Lipo.Weighted>
-14.4834

> <Gold.Chemscore.Internal_Hbond.Weighted>
0.0000

> <Gold.Chemscore.DEClash.Weighted>
0.0999

> <Gold.Chemscore.DEInternal.Weighted>
1.7210

> <Gold.Chemscore.Rot.Weighted>
5.8137

> <Gold.Chemscore.Internal.Correction.Weighted>
   9.000000E+99

> <Gold.Protein.RotatedTorsions>
[ 6907 6896 6895 6894 ] final -107.32 input  -60.11 | X-H torsion
[ 7974 7965 7964 7962 ] final   -9.27 input  175.53 | X-H torsion
[ 8008 7997 7996 7995 ] final  168.16 input   59.86 | X-H torsion
[ 10167 10162 10161 10158 ] final  -17.42 input  -65.29 | X-H torsion
[ 10718 10713 10712 10709 ] final  -66.23 input   66.30 | X-H torsion
[ 10763 10752 10751 10750 ] final  158.14 input  -60.55 | X-H torsion
[ 11005 11000 10999 10996 ] final  164.66 input  -57.11 | X-H torsion

> <Gold.Protein.ActiveResidues>
 VAL166  LYS551  ARG553  GLY616  TRP617  ASP618  TYR619  PRO620  LYS621  CYS622 
 ASP623  PHE694  ASN695  SER759  ASP760  ASP761  ALA762  ILE779  LEU786  VAL792 
 PHE793  MET794  SER795  GLU796  ALA797  LYS798  CYS799  TRP800  GLU811  SER814 

> <Gold.Protein.RotatedAtoms>
  150.7438  133.9844  159.3586 H   0  0  0  0  0  0  0  0  0  0  0  0  # atno 6907 bound_to 6896
  151.7787  135.0765  160.0380 H   0  0  0  0  0  0  0  0  0  0  0  0  # atno 6908 bound_to 6896
  152.3289  133.5899  159.5832 H   0  0  0  0  0  0  0  0  0  0  0  0  # atno 6909 bound_to 6896
  146.2256  140.2592  142.8351 H   0  0  0  0  0  0  0  0  0  0  0  0  # atno 7974 bound_to 7965
  156.1571  140.1598  156.8674 H   0  0  0  0  0  0  0  0  0  0  0  0  # atno 8008 bound_to 7997
  154.5125  140.0797  156.8054 H   0  0  0  0  0  0  0  0  0  0  0  0  # atno 8009 bound_to 7997
  155.3781  140.3404  155.4248 H   0  0  0  0  0  0  0  0  0  0  0  0  # atno 8010 bound_to 7997
  140.7247  143.5018  150.9860 H   0  0  0  0  0  0  0  0  0  0  0  0  # atno 10167 bound_to 10162
  156.0624  130.4259  150.1678 H   0  0  0  0  0  0  0  0  0  0  0  0  # atno 10718 bound_to 10713
  154.2114  135.2786  155.2957 H   0  0  0  0  0  0  0  0  0  0  0  0  # atno 10763 bound_to 10752
  154.5775  135.5599  153.7157 H   0  0  0  0  0  0  0  0  0  0  0  0  # atno 10764 bound_to 10752
  153.0063  135.6336  154.2253 H   0  0  0  0  0  0  0  0  0  0  0  0  # atno 10765 bound_to 10752
  140.2481  134.7998  157.3476 H   0  0  0  0  0  0  0  0  0  0  0  0  # atno 11005 bound_to 11000
  144.9353  140.8019  143.5664 LP  0  0  0  0  0  0  0  0  0  0  0  0  # atno 17320 bound_to 7965
  145.2539  139.2020  143.4928 LP  0  0  0  0  0  0  0  0  0  0  0  0  # atno 17321 bound_to 7965
  139.8727  143.7171  152.3165 LP  0  0  0  0  0  0  0  0  0  0  0  0  # atno 17342 bound_to 10162
  139.7426  144.7555  151.0629 LP  0  0  0  0  0  0  0  0  0  0  0  0  # atno 17343 bound_to 10162
  156.9744  130.9845  151.3451 LP  0  0  0  0  0  0  0  0  0  0  0  0  # atno 17370 bound_to 10713
  157.5643  130.8267  149.8306 LP  0  0  0  0  0  0  0  0  0  0  0  0  # atno 17371 bound_to 10713
  140.1585  134.4759  155.7911 LP  0  0  0  0  0  0  0  0  0  0  0  0  # atno 17394 bound_to 11000
  141.2204  133.6891  156.7503 LP  0  0  0  0  0  0  0  0  0  0  0  0  # atno 17395 bound_to 11000

$$$$
