AV-unprocessed.smi:404|AV-procd|sdf|2497|dock1
  -GOLD-   2262022443D 1   1.00000     0.00000
 Structure written by MMmdl.
 44 45  0  0  0  0  0  0  0  0  1 V2000
  153.3104  141.0004  159.7982 C   0  0  0  0  0  0  0  0  0  0  0  0
  152.8089  142.2930  160.3760 C   0  0  0  0  0  0  0  0  0  0  0  0
  152.9685  142.5316  161.6673 N   0  0  0  0  0  0  0  0  0  0  0  0
  152.4158  143.7453  161.8640 N   0  0  0  0  0  0  0  0  0  0  0  0
  152.4158  144.3200  163.1953 C   0  0  0  0  0  0  0  0  0  0  0  0
  151.9033  144.2734  160.6953 C   0  0  0  0  0  0  0  0  0  0  0  0
  151.2301  145.6072  160.6528 C   0  0  0  0  0  0  0  0  0  0  0  0
  152.1413  143.3588  159.7039 C   0  0  0  0  0  0  0  0  0  0  0  0
  151.7825  143.4404  158.2420 C   0  0  0  0  0  0  0  0  0  0  0  0
  150.9059  142.2473  157.8626 C   0  0  0  0  0  0  0  0  0  0  0  0
  150.8391  141.2718  158.6102 O   0  0  0  0  0  0  0  0  0  0  0  0
  150.2429  142.3385  156.6990 N   0  0  0  0  0  0  0  0  0  0  0  0
  149.3784  141.3093  156.1291 C   0  0  0  0  0  0  0  0  0  0  0  0
  150.0823  139.9407  156.0130 C   0  0  0  0  0  0  0  0  0  0  0  0
  151.6177  140.0621  155.8802 C   0  0  0  0  0  0  0  0  0  0  0  0
  152.2915  138.6878  155.7338 C   0  0  0  0  0  0  0  0  0  0  0  0
  151.7056  137.8986  154.5540 C   0  0  0  0  0  0  0  0  0  0  0  0
  150.1821  137.7619  154.6875 C   0  0  0  0  0  0  0  0  0  0  0  0
  149.5117  139.1381  154.8253 C   0  0  0  0  0  0  0  0  0  0  0  0
  152.4796  140.3535  159.5167 H   0  0  0  0  0  0  0  0  0  0  0  0
  153.9310  140.4527  160.5088 H   0  0  0  0  0  0  0  0  0  0  0  0
  153.9107  141.1782  158.9060 H   0  0  0  0  0  0  0  0  0  0  0  0
  152.8321  145.3272  163.1616 H   0  0  0  0  0  0  0  0  0  0  0  0
  153.0155  143.7145  163.8767 H   0  0  0  0  0  0  0  0  0  0  0  0
  151.3935  144.3688  163.5717 H   0  0  0  0  0  0  0  0  0  0  0  0
  150.8005  145.8030  159.6705 H   0  0  0  0  0  0  0  0  0  0  0  0
  151.9388  146.4055  160.8743 H   0  0  0  0  0  0  0  0  0  0  0  0
  150.4227  145.6573  161.3837 H   0  0  0  0  0  0  0  0  0  0  0  0
  151.2424  144.3599  158.0143 H   0  0  0  0  0  0  0  0  0  0  0  0
  152.6729  143.4552  157.6123 H   0  0  0  0  0  0  0  0  0  0  0  0
  150.3612  143.1814  156.1557 H   0  0  0  0  0  0  0  0  0  0  0  0
  148.5137  141.2193  156.7873 H   0  0  0  0  0  0  0  0  0  0  0  0
  148.9855  141.6192  155.1590 H   0  0  0  0  0  0  0  0  0  0  0  0
  149.8683  139.3786  156.9236 H   0  0  0  0  0  0  0  0  0  0  0  0
  151.8635  140.6820  155.0170 H   0  0  0  0  0  0  0  0  0  0  0  0
  152.0374  140.5662  156.7505 H   0  0  0  0  0  0  0  0  0  0  0  0
  153.3660  138.8143  155.5984 H   0  0  0  0  0  0  0  0  0  0  0  0
  152.1612  138.1180  156.6546 H   0  0  0  0  0  0  0  0  0  0  0  0
  151.9477  138.4045  153.6184 H   0  0  0  0  0  0  0  0  0  0  0  0
  152.1653  136.9113  154.5008 H   0  0  0  0  0  0  0  0  0  0  0  0
  149.7790  137.2370  153.8210 H   0  0  0  0  0  0  0  0  0  0  0  0
  149.9441  137.1497  155.5583 H   0  0  0  0  0  0  0  0  0  0  0  0
  148.4363  139.0048  154.9476 H   0  0  0  0  0  0  0  0  0  0  0  0
  149.6483  139.7013  153.9010 H   0  0  0  0  0  0  0  0  0  0  0  0
  1  2  1  0  0  0  0
  1 20  1  0  0  0  0
  1 21  1  0  0  0  0
  1 22  1  0  0  0  0
  2  8  1  0  0  0  0
  2  3  2  0  0  0  0
  3  4  1  0  0  0  0
  4  5  1  0  0  0  0
  4  6  1  0  0  0  0
  5 23  1  0  0  0  0
  5 24  1  0  0  0  0
  5 25  1  0  0  0  0
  6  7  1  0  0  0  0
  6  8  2  0  0  0  0
  7 26  1  0  0  0  0
  7 27  1  0  0  0  0
  7 28  1  0  0  0  0
  8  9  1  0  0  0  0
  9 10  1  0  0  0  0
  9 29  1  0  0  0  0
  9 30  1  0  0  0  0
 10 11  2  0  0  0  0
 10 12  1  0  0  0  0
 12 13  1  0  0  0  0
 12 31  1  0  0  0  0
 13 14  1  0  0  0  0
 13 32  1  0  0  0  0
 13 33  1  0  0  0  0
 14 19  1  0  0  0  0
 14 15  1  0  0  0  0
 14 34  1  0  0  0  0
 15 16  1  0  0  0  0
 15 35  1  0  0  0  0
 15 36  1  0  0  0  0
 16 17  1  0  0  0  0
 16 37  1  0  0  0  0
 16 38  1  0  0  0  0
 17 18  1  0  0  0  0
 17 39  1  0  0  0  0
 17 40  1  0  0  0  0
 18 19  1  0  0  0  0
 18 41  1  0  0  0  0
 18 42  1  0  0  0  0
 19 43  1  0  0  0  0
 19 44  1  0  0  0  0
M  END
> <s_m_source_file>
AV-unprocessed.smi

> <i_m_source_file_index>
404

> <i_lp_mmshare_version>
43012

> <i_f3d_flags>
0

> <s_epik_input>
W0NIM11jMW5uKFtDSDNdKWMoW0NIM10pYzFbQ0gyXUMoPU8pW05IXVtDSDJdW0NIXTJbQ0gyXVtDSDJdW0NIMl1bQ0gyXVtDSDJdMg==

> <s_epik_cmdline>
J2VwaWtfcHl0aG9uJywgJy1waCcsICc3LjAnLCAnLXRuJywgJzgnLCAnLW1hJywgJzIwMCcsICctbWV0YWxfYmluZGluZycsICctaW1hZScsICc8aW5maWxlLm1hZT4nLCAnLW9tYWUnLCAnPG91dGZpbGUubWFlPic=

> <r_lp_tautomer_probability>
1

> <r_epik_Ionization_Penalty>
0.00317479

> <r_epik_Ionization_Penalty_Charging>
0

> <r_epik_Ionization_Penalty_Neutral>
0.00317479

> <r_epik_State_Penalty>
0.00223767

> <r_epik_Charging_Adjusted_Penalty>
0.00223767

> <i_epik_Tot_Q>
0

> <i_epik_Tot_abs_Q>
0

> <r_epik_Metal_State_Penalty>
-0

> <b_epik_Metal_Only>
0

> <s_lp_Force_Field>
OPLS_2005

> <r_lp_Energy>
5.4513

> <b_lp_Chiralities_Consistent>
1

> <s_lp_Variant>
AV-unprocessed.smi:404-1

> <Gold.Version>
5.8.1

> <Gold.Id.Protein>
6NUR|6NUR_protein|mol2

> <Gold.PLP.Fitness>
44.1739

> <Gold.PLP.PLP>
-43.8010

> <Gold.PLP.part.hbond>
-1.0000

> <Gold.PLP.part.metal>
0.0000

> <Gold.PLP.part.buried>
-1.7335

> <Gold.PLP.part.nonpolar>
-41.2224

> <Gold.PLP.part.repulsive>
0.0664

> <Gold.PLP.ligand.clash>
0.0000

> <Gold.PLP.ligand.torsion>
0.6259

> <Gold.PLP.Chemscore.Hbond>
0.5382

> <Gold.PLP.Chemscore.CHOScore>
0.0000

> <Gold.PLP.Chemscore.Metal>
0.0000

> <Gold.Chemscore.Hbonds>
donor molecule, donor type, donor heavy atom, donor atom, acceptor molecule, acceptor atom, score
      L1  H    12    31       P1  8028  0.37

> <Gold.PLP.Chemscore.Internal.Correction>
0.0102

> <Gold.Rescore>
     Score         DG    S(hbond)    S(metal)    S(lipo)     H(rot)  DE(clash)    DE(int)     intcor
     12.46     -17.75       0.47        0.00     121.66       1.38       0.87       4.42       ----

> <Gold.Chemscore.Fitness>
12.4567

> <Gold.Chemscore.DG>
-17.7478

> <Gold.Chemscore.ZeroCoef>
-5.4800

> <Gold.Chemscore.Hbond>
0.4666

> <Gold.Chemscore.Metal>
0.0000

> <Gold.Chemscore.Lipo>
121.6560

> <Gold.Chemscore.Internal_Hbond>
0.0000

> <Gold.Chemscore.DEClash>
0.8726

> <Gold.Chemscore.DEInternal>
4.4184

> <Gold.Chemscore.Rot>
1.3768

> <Gold.Chemscore.Internal.Correction>
   9.000000E+99

> <Gold.Chemscore.Hbonds>
donor molecule, donor type, donor heavy atom, donor atom, acceptor molecule, acceptor atom, score
      L1  H    12    31       P1  8028  0.38

> <Gold.Chemscore.Hbond.Weighted>
-1.5585

> <Gold.Chemscore.Metal.Weighted>
-0.0000

> <Gold.Chemscore.Lipo.Weighted>
-14.2338

> <Gold.Chemscore.Internal_Hbond.Weighted>
0.0000

> <Gold.Chemscore.DEClash.Weighted>
0.8726

> <Gold.Chemscore.DEInternal.Weighted>
4.4184

> <Gold.Chemscore.Rot.Weighted>
3.5245

> <Gold.Chemscore.Internal.Correction.Weighted>
   9.000000E+99

> <Gold.Protein.RotatedTorsions>
[ 6907 6896 6895 6894 ] final  -54.43 input  -60.11 | X-H torsion
[ 7974 7965 7964 7962 ] final   36.03 input  175.53 | X-H torsion
[ 8008 7997 7996 7995 ] final  168.33 input   59.86 | X-H torsion
[ 10167 10162 10161 10158 ] final  153.32 input  -65.29 | X-H torsion
[ 10718 10713 10712 10709 ] final  -74.81 input   66.30 | X-H torsion
[ 10763 10752 10751 10750 ] final  -95.29 input  -60.55 | X-H torsion
[ 11005 11000 10999 10996 ] final  -52.48 input  -57.11 | X-H torsion

> <Gold.Protein.ActiveResidues>
 VAL166  LYS551  ARG553  GLY616  TRP617  ASP618  TYR619  PRO620  LYS621  CYS622 
 ASP623  PHE694  ASN695  SER759  ASP760  ASP761  ALA762  ILE779  LEU786  VAL792 
 PHE793  MET794  SER795  GLU796  ALA797  LYS798  CYS799  TRP800  GLU811  SER814 

> <Gold.Protein.RotatedAtoms>
  150.8338  134.7603  159.6875 H   0  0  0  0  0  0  0  0  0  0  0  0  # atno 6907 bound_to 6896
  152.4438  134.5533  159.9883 H   0  0  0  0  0  0  0  0  0  0  0  0  # atno 6908 bound_to 6896
  151.5687  133.3355  159.3021 H   0  0  0  0  0  0  0  0  0  0  0  0  # atno 6909 bound_to 6896
  146.1241  139.6068  142.9270 H   0  0  0  0  0  0  0  0  0  0  0  0  # atno 7974 bound_to 7965
  156.1556  140.1593  156.8697 H   0  0  0  0  0  0  0  0  0  0  0  0  # atno 8008 bound_to 7997
  154.5112  140.0800  156.8030 H   0  0  0  0  0  0  0  0  0  0  0  0  # atno 8009 bound_to 7997
  155.3809  140.3405  155.4249 H   0  0  0  0  0  0  0  0  0  0  0  0  # atno 8010 bound_to 7997
  139.4828  144.5283  151.7764 H   0  0  0  0  0  0  0  0  0  0  0  0  # atno 10167 bound_to 10162
  156.0229  130.4426  150.2949 H   0  0  0  0  0  0  0  0  0  0  0  0  # atno 10718 bound_to 10713
  154.7135  135.5126  153.8702 H   0  0  0  0  0  0  0  0  0  0  0  0  # atno 10763 bound_to 10752
  153.0800  135.6628  154.0073 H   0  0  0  0  0  0  0  0  0  0  0  0  # atno 10764 bound_to 10752
  153.9910  135.3020  155.3391 H   0  0  0  0  0  0  0  0  0  0  0  0  # atno 10765 bound_to 10752
  141.0927  133.6630  156.4031 H   0  0  0  0  0  0  0  0  0  0  0  0  # atno 11005 bound_to 11000
  145.5404  141.0421  143.2334 LP  0  0  0  0  0  0  0  0  0  0  0  0  # atno 17320 bound_to 7965
  144.7625  139.6923  143.7228 LP  0  0  0  0  0  0  0  0  0  0  0  0  # atno 17321 bound_to 7965
  140.4806  144.1455  150.5932 LP  0  0  0  0  0  0  0  0  0  0  0  0  # atno 17342 bound_to 10162
  140.4282  143.2580  151.9629 LP  0  0  0  0  0  0  0  0  0  0  0  0  # atno 17343 bound_to 10162
  157.1052  131.0206  151.3070 LP  0  0  0  0  0  0  0  0  0  0  0  0  # atno 17370 bound_to 10713
  157.4748  130.7730  149.7358 LP  0  0  0  0  0  0  0  0  0  0  0  0  # atno 17371 bound_to 10713
  140.5215  134.6300  157.5319 LP  0  0  0  0  0  0  0  0  0  0  0  0  # atno 17394 bound_to 11000
  139.9756  134.7221  155.9957 LP  0  0  0  0  0  0  0  0  0  0  0  0  # atno 17395 bound_to 11000

$$$$
