AV-unprocessed.smi:2373|AV-procd|sdf|9439|dock1
  -GOLD-   2272013 63D 1   1.00000     0.00000
 Structure written by MMmdl.
 47 48  0  0  0  0  0  0  0  0  2 V2000
  144.8349  131.4381  151.4876 C   0  0  0  0  0  0  0  0  0  0  0  0
  144.3679  132.6008  150.7408 N   0  0  0  0  0  0  0  0  0  0  0  0
  143.7916  132.4385  149.4123 C   0  0  0  0  0  0  0  0  0  0  0  0
  144.5593  133.8959  151.2688 C   0  0  0  0  0  0  0  0  0  0  0  0
  145.7602  134.3083  151.8961 C   0  0  0  0  0  0  0  0  0  0  0  0
  145.8744  135.6206  152.3987 C   0  0  0  0  0  0  0  0  0  0  0  0
  144.7903  136.5154  152.2825 C   0  0  0  0  0  0  0  0  0  0  0  0
  144.9616  137.8311  152.7935 N   0  0  0  0  0  0  0  0  0  0  0  0
  145.9909  138.3335  153.4973 C   0  0  0  0  0  0  0  0  0  0  0  0
  147.0111  137.7155  153.7979 O   0  0  0  0  0  0  0  0  0  0  0  0
  145.7700  139.6195  153.8195 N   0  0  0  0  0  0  0  0  0  0  0  0
  146.6388  140.5304  154.5807 C   0  0  0  0  0  0  0  0  0  0  0  0
  145.9733  141.9313  154.7420 C   0  0  0  0  0  0  0  0  0  0  0  0
  144.7955  142.0066  155.7334 C   0  0  0  0  0  0  0  0  0  0  0  0
  143.7578  141.1546  155.2998 O   0  0  0  0  0  0  0  0  0  0  0  0
  146.8911  139.8499  155.9497 C   0  0  0  0  0  0  0  0  0  0  0  0
  148.0400  140.4971  156.7431 C   0  0  0  0  0  0  0  0  0  0  0  0
  149.2291  140.4876  155.9658 O   0  0  0  0  0  0  0  0  0  0  0  0
  149.1061  141.2477  154.7718 C   0  0  0  0  0  0  0  0  0  0  0  0
  148.0134  140.6472  153.8695 C   0  0  0  0  0  0  0  0  0  0  0  0
  143.6153  136.0596  151.6385 C   0  0  0  0  0  0  0  0  0  0  0  0
  143.5497  134.7948  151.1699 N   0  3  0  0  0  0  0  0  0  0  0  0
  144.3557  131.3928  152.4662 H   0  0  0  0  0  0  0  0  0  0  0  0
  145.9151  131.4838  151.6313 H   0  0  0  0  0  0  0  0  0  0  0  0
  144.6063  130.5105  150.9624 H   0  0  0  0  0  0  0  0  0  0  0  0
  144.3926  132.9593  148.6663 H   0  0  0  0  0  0  0  0  0  0  0  0
  142.7771  132.8370  149.3839 H   0  0  0  0  0  0  0  0  0  0  0  0
  143.7442  131.3878  149.1256 H   0  0  0  0  0  0  0  0  0  0  0  0
  146.6013  133.6391  151.9990 H   0  0  0  0  0  0  0  0  0  0  0  0
  146.7926  135.9336  152.8740 H   0  0  0  0  0  0  0  0  0  0  0  0
  144.2236  138.4818  152.5669 H   0  0  0  0  0  0  0  0  0  0  0  0
  144.8951  140.0185  153.5117 H   0  0  0  0  0  0  0  0  0  0  0  0
  146.7215  142.6645  155.0411 H   0  0  0  0  0  0  0  0  0  0  0  0
  145.6215  142.2751  153.7687 H   0  0  0  0  0  0  0  0  0  0  0  0
  145.0970  141.7000  156.7346 H   0  0  0  0  0  0  0  0  0  0  0  0
  144.4001  143.0192  155.8043 H   0  0  0  0  0  0  0  0  0  0  0  0
  143.8222  141.0533  154.3623 H   0  0  0  0  0  0  0  0  0  0  0  0
  145.9861  139.8294  156.5557 H   0  0  0  0  0  0  0  0  0  0  0  0
  147.1558  138.8037  155.7870 H   0  0  0  0  0  0  0  0  0  0  0  0
  147.7937  141.5148  157.0481 H   0  0  0  0  0  0  0  0  0  0  0  0
  148.2207  139.9332  157.6583 H   0  0  0  0  0  0  0  0  0  0  0  0
  148.8960  142.2913  155.0092 H   0  0  0  0  0  0  0  0  0  0  0  0
  150.0638  141.2339  154.2514 H   0  0  0  0  0  0  0  0  0  0  0  0
  148.3449  139.6563  153.5545 H   0  0  0  0  0  0  0  0  0  0  0  0
  147.9338  141.2415  152.9589 H   0  0  0  0  0  0  0  0  0  0  0  0
  142.7278  136.6493  151.4657 H   0  0  0  0  0  0  0  0  0  0  0  0
  142.6872  134.5001  150.7114 H   0  0  0  0  0  0  0  0  0  0  0  0
  1  2  1  0  0  0  0
  1 23  1  0  0  0  0
  1 24  1  0  0  0  0
  1 25  1  0  0  0  0
  2  3  1  0  0  0  0
  2  4  1  0  0  0  0
  3 26  1  0  0  0  0
  3 27  1  0  0  0  0
  3 28  1  0  0  0  0
  4 22  1  0  0  0  0
  4  5  2  0  0  0  0
  5  6  1  0  0  0  0
  5 29  1  0  0  0  0
  6  7  2  0  0  0  0
  6 30  1  0  0  0  0
  7  8  1  0  0  0  0
  7 21  1  0  0  0  0
  8  9  1  0  0  0  0
  8 31  1  0  0  0  0
  9 10  2  0  0  0  0
  9 11  1  0  0  0  0
 11 12  1  0  0  0  0
 11 32  1  0  0  0  0
 12 20  1  0  0  0  0
 12 13  1  0  0  0  0
 12 16  1  0  0  0  0
 13 14  1  0  0  0  0
 13 33  1  0  0  0  0
 13 34  1  0  0  0  0
 14 15  1  0  0  0  0
 14 35  1  0  0  0  0
 14 36  1  0  0  0  0
 15 37  1  0  0  0  0
 16 17  1  0  0  0  0
 16 38  1  0  0  0  0
 16 39  1  0  0  0  0
 17 18  1  0  0  0  0
 17 40  1  0  0  0  0
 17 41  1  0  0  0  0
 18 19  1  0  0  0  0
 19 20  1  0  0  0  0
 19 42  1  0  0  0  0
 19 43  1  0  0  0  0
 20 44  1  0  0  0  0
 20 45  1  0  0  0  0
 21 22  2  0  0  0  0
 21 46  1  0  0  0  0
 22 47  1  0  0  0  0
M  CHG  1  22   1
M  END
> <s_m_source_file>
AV-unprocessed.smi

> <i_m_source_file_index>
2373

> <i_lp_mmshare_version>
43012

> <i_f3d_flags>
0

> <s_epik_input>
W0NIM11OKFtDSDNdKWMxW2NIXVtjSF1jKFtjSF1uMSlbTkhdQyg9TylbTkhdQzIoW0NIMl1bQ0gyXVtPSF0pW0NIMl1bQ0gyXU9bQ0gyXVtDSDJdMg==

> <s_epik_cmdline>
J2VwaWtfcHl0aG9uJywgJy1waCcsICc3LjAnLCAnLXRuJywgJzgnLCAnLW1hJywgJzIwMCcsICctbWV0YWxfYmluZGluZycsICctaW1hZScsICc8aW5maWxlLm1hZT4nLCAnLW9tYWUnLCAnPG91dGZpbGUubWFlPic=

> <r_lp_tautomer_probability>
0.999994

> <r_epik_Ionization_Penalty>
0.250535

> <r_epik_Ionization_Penalty_Charging>
0.250515

> <r_epik_Ionization_Penalty_Neutral>
1.96065e-05

> <r_epik_State_Penalty>
0.241842

> <r_epik_Charging_Adjusted_Penalty>
0.492357

> <i_epik_Tot_Q>
1

> <i_epik_Tot_abs_Q>
1

> <r_epik_Metal_State_Penalty>
0.533268

> <b_epik_Metal_Only>
0

> <s_lp_Force_Field>
OPLS_2005

> <r_lp_Energy>
24.7544

> <b_lp_Chiralities_Consistent>
1

> <s_lp_Variant>
AV-unprocessed.smi:2373-1

> <Gold.Version>
5.8.1

> <Gold.Id.Protein>
6NUR|6NUR_protein|mol2

> <Gold.PLP.Fitness>
45.1653

> <Gold.PLP.PLP>
-32.1796

> <Gold.PLP.part.hbond>
-4.3165

> <Gold.PLP.part.metal>
0.0000

> <Gold.PLP.part.buried>
-3.9245

> <Gold.PLP.part.nonpolar>
-25.5648

> <Gold.PLP.part.repulsive>
0.4472

> <Gold.PLP.ligand.clash>
0.0000

> <Gold.PLP.ligand.torsion>
0.8937

> <Gold.PLP.Chemscore.Hbond>
4.9105

> <Gold.PLP.Chemscore.CHOScore>
0.0000

> <Gold.PLP.Chemscore.Metal>
0.0000

> <Gold.Chemscore.Hbonds>
donor molecule, donor type, donor heavy atom, donor atom, acceptor molecule, acceptor atom, score
      L1  H     8    31       P1 10175  0.92
      L1  H    11    32       P1 10175  1.00
      L1  H    15    37       P1 10175  1.00
      L1  H    22    47       P1 10186  1.98

> <Gold.PLP.Chemscore.Internal.Correction>
0.0417

> <Gold.Rescore>
     Score         DG    S(hbond)    S(metal)    S(lipo)     H(rot)  DE(clash)    DE(int)     intcor
     13.92     -18.30       3.17        0.00      65.21       2.12       0.09       4.29       ----

> <Gold.Chemscore.Fitness>
13.9198

> <Gold.Chemscore.DG>
-18.2961

> <Gold.Chemscore.ZeroCoef>
-5.4800

> <Gold.Chemscore.Hbond>
3.1742

> <Gold.Chemscore.Metal>
0.0000

> <Gold.Chemscore.Lipo>
65.2141

> <Gold.Chemscore.Internal_Hbond>
0.0000

> <Gold.Chemscore.DEClash>
0.0874

> <Gold.Chemscore.DEInternal>
4.2889

> <Gold.Chemscore.Rot>
2.1155

> <Gold.Chemscore.Internal.Correction>
   9.000000E+99

> <Gold.Chemscore.Hbonds>
donor molecule, donor type, donor heavy atom, donor atom, acceptor molecule, acceptor atom, score
      L1  H     8    31       P1 10175  0.83
      L1  H    11    32       P1 10175  0.99
      L1  H    15    37       P1 10175  0.78
      L1  H    22    47       P1 10186  0.24

> <Gold.Chemscore.Hbond.Weighted>
-10.6019

> <Gold.Chemscore.Metal.Weighted>
-0.0000

> <Gold.Chemscore.Lipo.Weighted>
-7.6301

> <Gold.Chemscore.Internal_Hbond.Weighted>
0.0000

> <Gold.Chemscore.DEClash.Weighted>
0.0874

> <Gold.Chemscore.DEInternal.Weighted>
4.2889

> <Gold.Chemscore.Rot.Weighted>
5.4158

> <Gold.Chemscore.Internal.Correction.Weighted>
   9.000000E+99

> <Gold.Protein.RotatedTorsions>
[ 6907 6896 6895 6894 ] final  -31.75 input  -60.11 | X-H torsion
[ 7974 7965 7964 7962 ] final   47.21 input  175.53 | X-H torsion
[ 8008 7997 7996 7995 ] final  152.21 input   59.86 | X-H torsion
[ 10167 10162 10161 10158 ] final  112.92 input  -65.29 | X-H torsion
[ 10718 10713 10712 10709 ] final   13.85 input   66.30 | X-H torsion
[ 10763 10752 10751 10750 ] final  -40.02 input  -60.55 | X-H torsion
[ 11005 11000 10999 10996 ] final -105.28 input  -57.11 | X-H torsion

> <Gold.Protein.ActiveResidues>
 VAL166  LYS551  ARG553  GLY616  TRP617  ASP618  TYR619  PRO620  LYS621  CYS622 
 ASP623  PHE694  ASN695  SER759  ASP760  ASP761  ALA762  ILE779  LEU786  VAL792 
 PHE793  MET794  SER795  GLU796  ALA797  LYS798  CYS799  TRP800  GLU811  SER814 

> <Gold.Protein.RotatedAtoms>
  151.0879  134.9898  159.8388 H   0  0  0  0  0  0  0  0  0  0  0  0  # atno 6907 bound_to 6896
  152.5426  134.2101  159.8756 H   0  0  0  0  0  0  0  0  0  0  0  0  # atno 6908 bound_to 6896
  151.2135  133.4498  159.2632 H   0  0  0  0  0  0  0  0  0  0  0  0  # atno 6909 bound_to 6896
  146.0319  139.4773  142.9832 H   0  0  0  0  0  0  0  0  0  0  0  0  # atno 7974 bound_to 7965
  156.2639  140.2027  156.6298 H   0  0  0  0  0  0  0  0  0  0  0  0  # atno 8008 bound_to 7997
  154.6692  140.0552  157.0171 H   0  0  0  0  0  0  0  0  0  0  0  0  # atno 8009 bound_to 7997
  155.1162  140.3220  155.4511 H   0  0  0  0  0  0  0  0  0  0  0  0  # atno 8010 bound_to 7997
  139.6499  144.7128  151.2068 H   0  0  0  0  0  0  0  0  0  0  0  0  # atno 10167 bound_to 10162
  157.0306  130.6191  149.5735 H   0  0  0  0  0  0  0  0  0  0  0  0  # atno 10718 bound_to 10713
  153.9390  135.6763  153.4744 H   0  0  0  0  0  0  0  0  0  0  0  0  # atno 10763 bound_to 10752
  153.0941  135.4860  154.8742 H   0  0  0  0  0  0  0  0  0  0  0  0  # atno 10764 bound_to 10752
  154.7387  135.3155  154.8724 H   0  0  0  0  0  0  0  0  0  0  0  0  # atno 10765 bound_to 10752
  141.1061  133.8794  157.1715 H   0  0  0  0  0  0  0  0  0  0  0  0  # atno 11005 bound_to 11000
  145.7027  141.0131  143.1495 LP  0  0  0  0  0  0  0  0  0  0  0  0  # atno 17320 bound_to 7965
  144.7034  139.8664  143.7437 LP  0  0  0  0  0  0  0  0  0  0  0  0  # atno 17321 bound_to 7965
  140.7533  143.6167  150.8552 LP  0  0  0  0  0  0  0  0  0  0  0  0  # atno 17342 bound_to 10162
  139.9814  143.5947  152.2941 LP  0  0  0  0  0  0  0  0  0  0  0  0  # atno 17343 bound_to 10162
  156.0071  130.5158  150.7865 LP  0  0  0  0  0  0  0  0  0  0  0  0  # atno 17370 bound_to 10713
  157.5180  131.0930  151.0114 LP  0  0  0  0  0  0  0  0  0  0  0  0  # atno 17371 bound_to 10713
  139.9932  135.0057  157.0022 LP  0  0  0  0  0  0  0  0  0  0  0  0  # atno 17394 bound_to 11000
  140.4899  134.1204  155.7231 LP  0  0  0  0  0  0  0  0  0  0  0  0  # atno 17395 bound_to 11000

$$$$
