AV-unprocessed.smi:243|AV-procd|sdf|1850|dock1
  -GOLD-   2262020473D 1   1.00000     0.00000
 Structure written by MMmdl.
 58 61  0  0  0  0  0  0  0  0  2 V2000
  156.4277  138.4085  153.1406 C   0  0  0  0  0  0  0  0  0  0  0  0
  157.7888  137.9335  152.6131 C   0  0  0  0  0  0  0  0  0  0  0  0
  157.6640  136.8630  151.5876 N   0  3  2  0  0  0  0  0  0  0  0  0
  156.7117  135.7900  151.9658 C   0  0  0  0  0  0  0  0  0  0  0  0
  157.2959  134.8758  153.0536 C   0  0  0  0  0  0  0  0  0  0  0  0
  158.6428  134.2575  152.6130 C   0  0  2  0  0  0  0  0  0  0  0  0
  159.1972  133.3468  153.6267 N   0  0  0  0  0  0  0  0  0  0  0  0
  159.9634  133.9532  154.7095 C   0  0  0  0  0  0  0  0  0  0  0  0
  159.6906  132.1570  153.2001 C   0  0  0  0  0  0  0  0  0  0  0  0
  159.9991  131.2300  154.1411 N   0  0  0  0  0  0  0  0  0  0  0  0
  160.4936  130.0424  153.7805 C   0  0  0  0  0  0  0  0  0  0  0  0
  160.7574  129.5864  152.5548 N   0  0  0  0  0  0  0  0  0  0  0  0
  160.4594  130.5174  151.6040 C   0  0  0  0  0  0  0  0  0  0  0  0
  159.9251  131.8166  151.8359 C   0  0  0  0  0  0  0  0  0  0  0  0
  159.7367  132.4711  150.6241 N   0  0  0  0  0  0  0  0  0  0  0  0
  160.1424  131.6122  149.7297 C   0  0  0  0  0  0  0  0  0  0  0  0
  160.6037  130.4160  150.2310 N   0  0  0  0  0  0  0  0  0  0  0  0
  161.1171  129.2889  149.4669 C   0  0  0  0  0  0  0  0  0  0  0  0
  160.0510  128.6084  148.5754 C   0  0  1  0  0  0  0  0  0  0  0  0
  160.6157  127.4536  147.9786 O   0  0  0  0  0  0  0  0  0  0  0  0
  158.8088  128.1896  149.3505 C   0  0  0  0  0  0  0  0  0  0  0  0
  157.7196  128.2342  148.2869 C   0  0  0  0  0  0  0  0  0  0  0  0
  158.0542  129.3874  147.5330 O   0  0  0  0  0  0  0  0  0  0  0  0
  159.4729  129.5018  147.4588 C   0  0  0  0  0  0  0  0  0  0  0  0
  159.6264  135.3670  152.1501 C   0  0  1  0  0  0  0  0  0  0  0  0
  160.9149  134.7792  151.5463 C   0  0  0  0  0  0  0  0  0  0  0  0
  158.9525  136.2937  151.1110 C   0  0  0  0  0  0  0  0  0  0  0  0
  156.5618  139.1064  153.9672 H   0  0  0  0  0  0  0  0  0  0  0  0
  155.8325  137.5722  153.5086 H   0  0  0  0  0  0  0  0  0  0  0  0
  155.8494  138.9256  152.3754 H   0  0  0  0  0  0  0  0  0  0  0  0
  158.3631  138.7780  152.2326 H   0  0  0  0  0  0  0  0  0  0  0  0
  158.3523  137.5419  153.4608 H   0  0  0  0  0  0  0  0  0  0  0  0
  155.7666  136.2224  152.2965 H   0  0  0  0  0  0  0  0  0  0  0  0
  156.4812  135.1997  151.0780 H   0  0  0  0  0  0  0  0  0  0  0  0
  157.4206  135.4501  153.9716 H   0  0  0  0  0  0  0  0  0  0  0  0
  156.5753  134.0901  153.2816 H   0  0  0  0  0  0  0  0  0  0  0  0
  158.4347  133.6394  151.7382 H   0  0  0  0  0  0  0  0  0  0  0  0
  160.3396  133.1967  155.4000 H   0  0  0  0  0  0  0  0  0  0  0  0
  159.3281  134.6320  155.2787 H   0  0  0  0  0  0  0  0  0  0  0  0
  160.8107  134.5244  154.3308 H   0  0  0  0  0  0  0  0  0  0  0  0
  160.7113  129.3609  154.5898 H   0  0  0  0  0  0  0  0  0  0  0  0
  160.1172  131.8315  148.6722 H   0  0  0  0  0  0  0  0  0  0  0  0
  161.9509  129.6383  148.8563 H   0  0  0  0  0  0  0  0  0  0  0  0
  161.5353  128.5669  150.1694 H   0  0  0  0  0  0  0  0  0  0  0  0
  161.4237  127.2497  148.4240 H   0  0  0  0  0  0  0  0  0  0  0  0
  158.8990  127.2155  149.8331 H   0  0  0  0  0  0  0  0  0  0  0  0
  158.5804  128.9239  150.1244 H   0  0  0  0  0  0  0  0  0  0  0  0
  157.7618  127.3522  147.6458 H   0  0  0  0  0  0  0  0  0  0  0  0
  156.7174  128.3069  148.7096 H   0  0  0  0  0  0  0  0  0  0  0  0
  159.7254  130.5519  147.6019 H   0  0  0  0  0  0  0  0  0  0  0  0
  159.8284  129.2123  146.4686 H   0  0  0  0  0  0  0  0  0  0  0  0
  159.9100  135.9786  153.0060 H   0  0  0  0  0  0  0  0  0  0  0  0
  160.6974  134.1615  150.6745 H   0  0  0  0  0  0  0  0  0  0  0  0
  161.4538  134.1583  152.2611 H   0  0  0  0  0  0  0  0  0  0  0  0
  161.5953  135.5704  151.2304 H   0  0  0  0  0  0  0  0  0  0  0  0
  158.7475  135.7266  150.2017 H   0  0  0  0  0  0  0  0  0  0  0  0
  159.6328  137.0901  150.8118 H   0  0  0  0  0  0  0  0  0  0  0  0
  157.2485  137.3190  150.7878 H   0  0  0  0  0  0  0  0  0  0  0  0
  1  2  1  0  0  0  0
  1 28  1  0  0  0  0
  1 29  1  0  0  0  0
  1 30  1  0  0  0  0
  2  3  1  0  0  0  0
  2 31  1  0  0  0  0
  2 32  1  0  0  0  0
  3 27  1  0  0  0  0
  3  4  1  0  0  0  0
  3 58  1  0  0  0  0
  4  5  1  0  0  0  0
  4 33  1  0  0  0  0
  4 34  1  0  0  0  0
  5  6  1  0  0  0  0
  5 35  1  0  0  0  0
  5 36  1  0  0  0  0
  6  7  1  0  0  0  0
  6 25  1  0  0  0  0
  6 37  1  0  0  0  0
  7  8  1  0  0  0  0
  7  9  1  0  0  0  0
  8 38  1  0  0  0  0
  8 39  1  0  0  0  0
  8 40  1  0  0  0  0
  9 14  1  0  0  0  0
  9 10  2  0  0  0  0
 10 11  1  0  0  0  0
 11 12  2  0  0  0  0
 11 41  1  0  0  0  0
 12 13  1  0  0  0  0
 13 17  1  0  0  0  0
 13 14  2  0  0  0  0
 14 15  1  0  0  0  0
 15 16  2  0  0  0  0
 16 17  1  0  0  0  0
 16 42  1  0  0  0  0
 17 18  1  0  0  0  0
 18 19  1  0  0  0  0
 18 43  1  0  0  0  0
 18 44  1  0  0  0  0
 19 24  1  0  0  0  0
 19 20  1  0  0  0  0
 19 21  1  0  0  0  0
 20 45  1  0  0  0  0
 21 22  1  0  0  0  0
 21 46  1  0  0  0  0
 21 47  1  0  0  0  0
 22 23  1  0  0  0  0
 22 48  1  0  0  0  0
 22 49  1  0  0  0  0
 23 24  1  0  0  0  0
 24 50  1  0  0  0  0
 24 51  1  0  0  0  0
 25 26  1  0  0  0  0
 25 27  1  0  0  0  0
 25 52  1  0  0  0  0
 26 53  1  0  0  0  0
 26 54  1  0  0  0  0
 26 55  1  0  0  0  0
 27 56  1  0  0  0  0
 27 57  1  0  0  0  0
M  CHG  1   3   1
M  END
> <s_m_source_file>
AV-unprocessed.smi

> <i_m_source_file_index>
243

> <i_lp_mmshare_version>
43012

> <i_f3d_flags>
0

> <s_epik_input>
W0NIM11bQ0gyXU4xW0NIMl1bQ0gyXVtDQEhdKFtDQEBIXShbQ0gzXSlbQ0gyXTEpTihbQ0gzXSljKG5bY0hdbjIpYyhjMjMpbltjSF1uM1tDSDJdW0NAQF00KFtPSF0pW0NIMl1bQ0gyXU9bQ0gyXTQ=

> <s_epik_cmdline>
J2VwaWtfcHl0aG9uJywgJy1waCcsICc3LjAnLCAnLXRuJywgJzgnLCAnLW1hJywgJzIwMCcsICctbWV0YWxfYmluZGluZycsICctaW1hZScsICc8aW5maWxlLm1hZT4nLCAnLW9tYWUnLCAnPG91dGZpbGUubWFlPic=

> <r_lp_tautomer_probability>
1

> <r_epik_Ionization_Penalty>
0.00253099

> <r_epik_Ionization_Penalty_Charging>
0.00137877

> <r_epik_Ionization_Penalty_Neutral>
0.00115221

> <r_epik_State_Penalty>
-0

> <r_epik_Charging_Adjusted_Penalty>
0.00137877

> <i_epik_Tot_Q>
1

> <i_epik_Tot_abs_Q>
1

> <r_epik_Metal_State_Penalty>
-0

> <b_epik_Metal_Only>
0

> <s_lp_Force_Field>
OPLS_2005

> <r_lp_Energy>
49.0604

> <b_lp_Chiralities_Consistent>
1

> <s_lp_Variant>
AV-unprocessed.smi:243-3

> <Gold.Version>
5.8.1

> <Gold.Id.Protein>
6NUR|6NUR_protein|mol2

> <Gold.PLP.Fitness>
47.6683

> <Gold.PLP.PLP>
-42.8527

> <Gold.PLP.part.hbond>
-2.0000

> <Gold.PLP.part.metal>
0.0000

> <Gold.PLP.part.buried>
-5.7522

> <Gold.PLP.part.nonpolar>
-35.2364

> <Gold.PLP.part.repulsive>
0.2305

> <Gold.PLP.ligand.clash>
0.0000

> <Gold.PLP.ligand.torsion>
1.1166

> <Gold.PLP.Chemscore.Hbond>
2.0000

> <Gold.PLP.Chemscore.CHOScore>
0.0000

> <Gold.PLP.Chemscore.Metal>
0.0000

> <Gold.Chemscore.Hbonds>
donor molecule, donor type, donor heavy atom, donor atom, acceptor molecule, acceptor atom, score
      L1  H     3    58       P1 10674  1.00
      P1  H 10719 10728       L1    23  0.88

> <Gold.PLP.Chemscore.Internal.Correction>
1.0488

> <Gold.Rescore>
     Score         DG    S(hbond)    S(metal)    S(lipo)     H(rot)  DE(clash)    DE(int)     intcor
     16.17     -20.24       1.74        0.00     131.79       2.53       0.23       3.85       ----

> <Gold.Chemscore.Fitness>
16.1703

> <Gold.Chemscore.DG>
-20.2447

> <Gold.Chemscore.ZeroCoef>
-5.4800

> <Gold.Chemscore.Hbond>
1.7436

> <Gold.Chemscore.Metal>
0.0000

> <Gold.Chemscore.Lipo>
131.7857

> <Gold.Chemscore.Internal_Hbond>
0.0000

> <Gold.Chemscore.DEClash>
0.2256

> <Gold.Chemscore.DEInternal>
3.8488

> <Gold.Chemscore.Rot>
2.5305

> <Gold.Chemscore.Internal.Correction>
   9.000000E+99

> <Gold.Chemscore.Hbonds>
donor molecule, donor type, donor heavy atom, donor atom, acceptor molecule, acceptor atom, score
      L1  H     3    58       P1 10674  0.96
      P1  H 10719 10728       L1    23  0.59

> <Gold.Chemscore.Hbond.Weighted>
-5.8237

> <Gold.Chemscore.Metal.Weighted>
-0.0000

> <Gold.Chemscore.Lipo.Weighted>
-15.4189

> <Gold.Chemscore.Internal_Hbond.Weighted>
0.0000

> <Gold.Chemscore.DEClash.Weighted>
0.2256

> <Gold.Chemscore.DEInternal.Weighted>
3.8488

> <Gold.Chemscore.Rot.Weighted>
6.4780

> <Gold.Chemscore.Internal.Correction.Weighted>
   9.000000E+99

> <Gold.Protein.RotatedTorsions>
[ 6907 6896 6895 6894 ] final    5.09 input  -60.11 | X-H torsion
[ 7974 7965 7964 7962 ] final  130.99 input  175.53 | X-H torsion
[ 8008 7997 7996 7995 ] final   -7.58 input   59.86 | X-H torsion
[ 10167 10162 10161 10158 ] final  149.65 input  -65.29 | X-H torsion
[ 10718 10713 10712 10709 ] final   77.34 input   66.30 | X-H torsion
[ 10763 10752 10751 10750 ] final   67.09 input  -60.55 | X-H torsion
[ 11005 11000 10999 10996 ] final -107.85 input  -57.11 | X-H torsion

> <Gold.Protein.ActiveResidues>
 VAL166  LYS551  ARG553  GLY616  TRP617  ASP618  TYR619  PRO620  LYS621  CYS622 
 ASP623  PHE694  ASN695  SER759  ASP760  ASP761  ALA762  ILE779  LEU786  VAL792 
 PHE793  MET794  SER795  GLU796  ALA797  LYS798  CYS799  TRP800  GLU811  SER814 

> <Gold.Protein.RotatedAtoms>
  151.6519  135.1000  160.0162 H   0  0  0  0  0  0  0  0  0  0  0  0  # atno 6907 bound_to 6896
  152.3996  133.6794  159.6314 H   0  0  0  0  0  0  0  0  0  0  0  0  # atno 6908 bound_to 6896
  150.7898  133.8731  159.3305 H   0  0  0  0  0  0  0  0  0  0  0  0  # atno 6909 bound_to 6896
  145.0120  139.4211  143.5240 H   0  0  0  0  0  0  0  0  0  0  0  0  # atno 7974 bound_to 7965
  154.5824  140.2403  155.8035 H   0  0  0  0  0  0  0  0  0  0  0  0  # atno 8008 bound_to 7997
  156.2189  140.3004  155.9860 H   0  0  0  0  0  0  0  0  0  0  0  0  # atno 8009 bound_to 7997
  155.2517  140.0411  157.2978 H   0  0  0  0  0  0  0  0  0  0  0  0  # atno 8010 bound_to 7997
  139.4859  144.5585  151.7274 H   0  0  0  0  0  0  0  0  0  0  0  0  # atno 10167 bound_to 10162
  157.6707  130.9817  150.1627 H   0  0  0  0  0  0  0  0  0  0  0  0  # atno 10718 bound_to 10713
  153.0170  135.5296  154.6926 H   0  0  0  0  0  0  0  0  0  0  0  0  # atno 10763 bound_to 10752
  154.6056  135.2873  155.0490 H   0  0  0  0  0  0  0  0  0  0  0  0  # atno 10764 bound_to 10752
  154.1531  135.6560  153.5020 H   0  0  0  0  0  0  0  0  0  0  0  0  # atno 10765 bound_to 10752
  141.0932  133.9017  157.2025 H   0  0  0  0  0  0  0  0  0  0  0  0  # atno 11005 bound_to 11000
  146.3471  139.9570  142.8722 LP  0  0  0  0  0  0  0  0  0  0  0  0  # atno 17320 bound_to 7965
  145.2010  140.9854  143.4156 LP  0  0  0  0  0  0  0  0  0  0  0  0  # atno 17321 bound_to 7965
  140.5151  144.0966  150.6006 LP  0  0  0  0  0  0  0  0  0  0  0  0  # atno 17342 bound_to 10162
  140.3905  143.2755  152.0066 LP  0  0  0  0  0  0  0  0  0  0  0  0  # atno 17343 bound_to 10162
  156.2399  130.3690  149.8349 LP  0  0  0  0  0  0  0  0  0  0  0  0  # atno 17370 bound_to 10713
  156.6151  130.8603  151.3463 LP  0  0  0  0  0  0  0  0  0  0  0  0  # atno 17371 bound_to 10713
  139.9763  135.0113  156.9639 LP  0  0  0  0  0  0  0  0  0  0  0  0  # atno 17394 bound_to 11000
  140.5201  134.0916  155.7290 LP  0  0  0  0  0  0  0  0  0  0  0  0  # atno 17395 bound_to 11000

$$$$
