#       Name:                AV-unprocessed.smi:2923
#       Creating user name   scv26
#       Creation time:       Fri Mar 27 16:10:28 2020


#       File generated by GOLD software.
#

@<TRIPOS>MOLECULE
AV-unprocessed.smi:2923
    52    54     1
SMALL
NO_CHARGES


@<TRIPOS>ATOM
      1 ****        -6.6762   0.8185  -1.0680 C.3            1 S1                 0.0000
      2 ****        -6.0114   1.1908   0.1710 N.3            1 S1                 0.0000
      3 ****        -6.6574   0.7610   1.4017 C.3            1 S1                 0.0000
      4 ****        -4.6360   0.9247   0.1493 C.ar           1 S1                 0.0000
      5 ****        -4.1430  -0.3997   0.1713 C.ar           1 S1                 0.0000
      6 ****        -2.7506  -0.6059   0.1447 C.ar           1 S1                 0.0000
      7 ****        -1.8939   0.5193   0.0895 C.ar           1 S1                 0.0000
      8 ****        -0.4749   0.4471   0.0754 N.am           1 S1                 0.0000
      9 ****         0.3089  -0.5846  -0.2813 C.2            1 S1                 0.0000
     10 ****        -0.0894  -1.6811  -0.6733 O.2            1 S1                 0.0000
     11 ****         1.6040  -0.2623  -0.1724 N.am           1 S1                 0.0000
     12 ****         2.7272  -1.1487  -0.4842 C.3            1 S1                 0.0000
     13 ****         3.8031  -0.4702  -1.3619 C.3            1 S1                 0.0000
     14 ****         3.5859   0.8566  -2.0480 C.3            1 S1                 0.0000
     15 ****         4.2367   1.8489  -1.0798 C.3            1 S1                 0.0000
     16 ****         4.2733   1.1665   0.1720 O.3            1 S1                 0.0000
     17 ****         4.5850  -0.2008  -0.0864 C.3            1 S1                 0.0000
     18 ****         3.7519  -1.2529   0.6759 C.3            1 S1                 0.0000
     19 ****         3.3043  -0.8727   2.0940 C.3            1 S1                 0.0000
     20 ****         4.4291  -2.6218   0.7919 C.3            1 S1                 0.0000
     21 ****        -2.4897   1.7976   0.0851 C.ar           1 S1                 0.0000
     22 ****        -3.8236   2.0025   0.1082 N.ar           1 S1                 0.0000
     23 ****        -6.1238   1.1893  -1.9324 H              1 S1                 0.0000
     24 ****        -7.6782   1.2469  -1.1005 H              1 S1                 0.0000
     25 ****        -6.7646  -0.2651  -1.1532 H              1 S1                 0.0000
     26 ****        -6.0947   1.0994   2.2728 H              1 S1                 0.0000
     27 ****        -6.7397  -0.3257   1.4437 H              1 S1                 0.0000
     28 ****        -7.6610   1.1819   1.4657 H              1 S1                 0.0000
     29 ****        -4.8154  -1.2442   0.2107 H              1 S1                 0.0000
     30 ****        -2.3731  -1.6157   0.1806 H              1 S1                 0.0000
     31 ****         0.0027   1.3056   0.3080 H              1 S1                 0.0000
     32 ****         1.8387   0.6637   0.1545 H              1 S1                 0.0000
     33 ****         2.4340  -2.1243  -0.8762 H              1 S1                 0.0000
     34 ****         4.3144  -1.2060  -1.9847 H              1 S1                 0.0000
     35 ****         4.0613   0.8961  -3.0285 H              1 S1                 0.0000
     36 ****         2.5283   1.0774  -2.1918 H              1 S1                 0.0000
     37 ****         5.2582   2.0726  -1.3907 H              1 S1                 0.0000
     38 ****         3.6885   2.7883  -1.0081 H              1 S1                 0.0000
     39 ****         5.6549  -0.3979  -0.1687 H              1 S1                 0.0000
     40 ****         4.1374  -0.9007   2.7969 H              1 S1                 0.0000
     41 ****         2.5375  -1.5533   2.4652 H              1 S1                 0.0000
     42 ****         2.8911   0.1350   2.1409 H              1 S1                 0.0000
     43 ****         5.3021  -2.5831   1.4441 H              1 S1                 0.0000
     44 ****         4.7697  -2.9866  -0.1776 H              1 S1                 0.0000
     45 ****         3.7481  -3.3716   1.1960 H              1 S1                 0.0000
     46 ****        -1.8777   2.6874   0.0570 H              1 S1                 0.0000
     47 ****        -6.1195   2.1845   0.1997 LP             1 S1                 0.0000
     48 ****        -1.0706  -1.8597  -0.7467 LP             1 S1                 0.0000
     49 ****         0.5681  -2.3936  -0.9184 LP             1 S1                 0.0000
     50 ****         3.3828   1.2333   0.6222 LP             1 S1                 0.0000
     51 ****         4.9747   1.5702   0.7593 LP             1 S1                 0.0000
     52 ****        -4.2006   2.9286   0.0952 LP             1 S1                 0.0000
@<TRIPOS>BOND
    1    1    2 1     
    2    1   23 1     
    3    1   24 1     
    4    1   25 1     
    5    2    3 1     
    6    2    4 1     
    7    3   26 1     
    8    3   27 1     
    9    3   28 1     
   10    4   22 ar    
   11    4    5 ar    
   12    5    6 ar    
   13    5   29 1     
   14    6    7 ar    
   15    6   30 1     
   16    7    8 1     
   17    7   21 ar    
   18    8    9 am    
   19    8   31 1     
   20    9   10 2     
   21    9   11 am    
   22   11   12 1     
   23   11   32 1     
   24   12   18 1     
   25   12   13 1     
   26   12   33 1     
   27   13   17 1     
   28   13   14 1     
   29   13   34 1     
   30   14   15 1     
   31   14   35 1     
   32   14   36 1     
   33   15   16 1     
   34   15   37 1     
   35   15   38 1     
   36   16   17 1     
   37   17   18 1     
   38   17   39 1     
   39   18   19 1     
   40   18   20 1     
   41   19   40 1     
   42   19   41 1     
   43   19   42 1     
   44   20   43 1     
   45   20   44 1     
   46   20   45 1     
   47   21   22 ar    
   48   21   46 1     
   49    2   47 1     
   50   10   48 1     
   51   10   49 1     
   52   16   50 1     
   53   16   51 1     
   54   22   52 1     
@<TRIPOS>SUBSTRUCTURE
      1 S1             1
@<TRIPOS>SET
LONE_PAIRS      STATIC     ATOMS    <user>   **** ""
6 47 48 49 50 51 52
DONOR_HYDROGENS      STATIC     ATOMS    <user>   **** ""
2 31 32
ATOM$BLUE        STATIC     ATOMS    COLORGROUP SYSTEM
6 47 48 49 50 51 52
ATOM$RED        STATIC     ATOMS    COLORGROUP SYSTEM
2 31 32
