#       Name:                AV-unprocessed.smi:299
#       Creating user name   scv26
#       Creation time:       Thu Mar 26 22:15:36 2020


#       File generated by GOLD software.
#

@<TRIPOS>MOLECULE
AV-unprocessed.smi:299
    47    48     1
SMALL
NO_CHARGES


@<TRIPOS>ATOM
      1 ****        -2.0452   2.6001   0.4744 C.3            1 S1                 0.0000
      2 ****        -2.3523   1.4187   1.4207 C.3            1 S1                 0.0000
      3 ****        -3.8659   1.2355   1.6585 C.3            1 S1                 0.0000
      4 ****        -4.5758   0.6518   0.4283 C.3            1 S1                 0.0000
      5 ****        -3.8918  -0.6503  -0.0051 C.3            1 S1                 0.0000
      6 ****        -2.3850  -0.4416  -0.2299 C.3            1 S1                 0.0000
      7 ****        -1.7354   0.1309   0.9817 N.4            1 S1                 1.0000
      8 ****        -0.2527   0.1804   0.8971 C.3            1 S1                 0.0000
      9 ****         0.3937  -1.2016   1.1084 C.3            1 S1                 0.0000
     10 ****         1.9321  -1.1567   1.1766 C.3            1 S1                 0.0000
     11 ****         2.5391  -0.5949  -0.0260 N.am           1 S1                 0.0000
     12 ****         2.6320  -1.2190  -1.2109 C.2            1 S1                 0.0000
     13 ****         2.1791  -2.3433  -1.4226 O.2            1 S1                 0.0000
     14 ****         3.3429  -0.4588  -2.3307 C.3            1 S1                 0.0000
     15 ****         4.7784  -0.4491  -2.1226 N.pl3          1 S1                 0.0000
     16 ****         5.7107  -1.3638  -2.3976 C.2            1 S1                 0.0000
     17 ****         6.9164  -0.9578  -2.0302 N.2            1 S1                 0.0000
     18 ****         6.6770   0.2975  -1.4957 N.2            1 S1                 0.0000
     19 ****         5.4100   0.6048  -1.5476 N.2            1 S1                 0.0000
     20 ****        -2.5018   3.5178   0.8457 H              1 S1                 0.0000
     21 ****        -2.4258   2.4360  -0.5332 H              1 S1                 0.0000
     22 ****        -0.9748   2.7895   0.3971 H              1 S1                 0.0000
     23 ****        -1.9141   1.6673   2.3882 H              1 S1                 0.0000
     24 ****        -4.0166   0.5655   2.5061 H              1 S1                 0.0000
     25 ****        -4.3235   2.1847   1.9397 H              1 S1                 0.0000
     26 ****        -5.6263   0.4665   0.6544 H              1 S1                 0.0000
     27 ****        -4.5595   1.3703  -0.3915 H              1 S1                 0.0000
     28 ****        -4.0445  -1.4145   0.7582 H              1 S1                 0.0000
     29 ****        -4.3556  -1.0283  -0.9168 H              1 S1                 0.0000
     30 ****        -1.9370  -1.4027  -0.4788 H              1 S1                 0.0000
     31 ****        -2.2157   0.2068  -1.0898 H              1 S1                 0.0000
     32 ****         0.0475   0.6091  -0.0602 H              1 S1                 0.0000
     33 ****         0.1273   0.8494   1.6703 H              1 S1                 0.0000
     34 ****         0.0196  -1.6331   2.0374 H              1 S1                 0.0000
     35 ****         0.0922  -1.8876   0.3174 H              1 S1                 0.0000
     36 ****         2.2458  -0.5513   2.0273 H              1 S1                 0.0000
     37 ****         2.3293  -2.1578   1.3514 H              1 S1                 0.0000
     38 ****         2.9495   0.3244   0.0568 H              1 S1                 0.0000
     39 ****         3.1325  -0.9271  -3.2931 H              1 S1                 0.0000
     40 ****         2.9743   0.5670  -2.3837 H              1 S1                 0.0000
     41 ****         5.5070  -2.3191  -2.8583 H              1 S1                 0.0000
     42 ****        -1.9370  -0.5172   1.7298 H              1 S1                 0.0000
     43 ****         1.7127  -2.8403  -0.6910 LP             1 S1                 0.0000
     44 ****         2.2775  -2.7599  -2.3264 LP             1 S1                 0.0000
     45 ****         7.7880  -1.4402  -2.1175 LP             1 S1                 0.0000
     46 ****         7.3858   0.8931  -1.1178 LP             1 S1                 0.0000
     47 ****         4.9870   1.4521  -1.2262 LP             1 S1                 0.0000
@<TRIPOS>BOND
    1    1    2 1     
    2    1   20 1     
    3    1   21 1     
    4    1   22 1     
    5    2    7 1     
    6    2    3 1     
    7    2   23 1     
    8    3    4 1     
    9    3   24 1     
   10    3   25 1     
   11    4    5 1     
   12    4   26 1     
   13    4   27 1     
   14    5    6 1     
   15    5   28 1     
   16    5   29 1     
   17    6    7 1     
   18    6   30 1     
   19    6   31 1     
   20    7    8 1     
   21    7   42 1     
   22    8    9 1     
   23    8   32 1     
   24    8   33 1     
   25    9   10 1     
   26    9   34 1     
   27    9   35 1     
   28   10   11 1     
   29   10   36 1     
   30   10   37 1     
   31   11   12 am    
   32   11   38 1     
   33   12   13 2     
   34   12   14 1     
   35   14   15 1     
   36   14   39 1     
   37   14   40 1     
   38   15   19 1     
   39   15   16 1     
   40   16   17 2     
   41   16   41 1     
   42   17   18 1     
   43   18   19 2     
   44   13   43 1     
   45   13   44 1     
   46   17   45 1     
   47   18   46 1     
   48   19   47 1     
@<TRIPOS>SUBSTRUCTURE
      1 S1             1
@<TRIPOS>SET
LONE_PAIRS      STATIC     ATOMS    <user>   **** ""
5 43 44 45 46 47
DONOR_HYDROGENS      STATIC     ATOMS    <user>   **** ""
2 42 38
ATOM$BLUE        STATIC     ATOMS    COLORGROUP SYSTEM
5 43 44 45 46 47
ATOM$RED        STATIC     ATOMS    COLORGROUP SYSTEM
2 42 38
