AV-unprocessed.smi:3340|AV-procd|sdf|12881|dock9
  -GOLD-   2272019283D 1   1.00000     0.00000
 Structure written by MMmdl.
 41 42  0  0  0  0  0  0  0  0  1 V2000
  145.9111  131.7854  149.2660 C   0  0  0  0  0  0  0  0  0  0  0  0
  144.6796  132.3297  149.9938 C   0  0  0  0  0  0  0  0  0  0  0  0
  143.5765  131.8910  149.6674 O   0  0  0  0  0  0  0  0  0  0  0  0
  144.8392  133.2631  150.9627 N   0  0  0  0  0  0  0  0  0  0  0  0
  146.1511  133.8272  151.3158 C   0  0  0  0  0  0  0  0  0  0  0  0
  146.1499  135.3377  151.0052 C   0  0  0  0  0  0  0  0  0  0  0  0
  145.0626  135.9807  151.7679 N   0  0  0  0  0  0  0  0  0  0  0  0
  145.2128  136.8185  152.8243 C   0  0  0  0  0  0  0  0  0  0  0  0
  144.2632  137.3193  153.4287 O   0  0  0  0  0  0  0  0  0  0  0  0
  146.4887  137.1062  153.1349 N   0  0  0  0  0  0  0  0  0  0  0  0
  146.9231  138.0002  154.2044 C   0  0  2  0  0  0  0  0  0  0  0  0
  147.2008  139.3927  153.6151 C   0  0  0  0  0  0  0  0  0  0  0  0
  148.1413  137.3978  154.9369 C   0  0  0  0  0  0  0  0  0  0  0  0
  149.2617  138.3164  155.0088 N   0  0  0  0  0  0  0  0  0  0  0  0
  149.7116  138.9982  156.1318 C   0  0  0  0  0  0  0  0  0  0  0  0
  150.7953  139.7459  155.7299 C   0  0  0  0  0  0  0  0  0  0  0  0
  151.0320  139.5366  154.3731 N   0  0  0  0  0  0  0  0  0  0  0  0
  150.0868  138.6765  154.0160 C   0  0  0  0  0  0  0  0  0  0  0  0
  143.7547  135.4177  151.3994 C   0  0  0  0  0  0  0  0  0  0  0  0
  143.7505  133.9085  151.7137 C   0  0  0  0  0  0  0  0  0  0  0  0
  146.5921  131.3017  149.9670 H   0  0  0  0  0  0  0  0  0  0  0  0
  146.4411  132.5863  148.7499 H   0  0  0  0  0  0  0  0  0  0  0  0
  145.6210  131.0450  148.5197 H   0  0  0  0  0  0  0  0  0  0  0  0
  146.3409  133.6591  152.3770 H   0  0  0  0  0  0  0  0  0  0  0  0
  146.9743  133.3480  150.7849 H   0  0  0  0  0  0  0  0  0  0  0  0
  147.1388  135.7468  151.2113 H   0  0  0  0  0  0  0  0  0  0  0  0
  145.9827  135.5005  149.9395 H   0  0  0  0  0  0  0  0  0  0  0  0
  147.2146  136.6736  152.5824 H   0  0  0  0  0  0  0  0  0  0  0  0
  146.1046  138.1084  154.9187 H   0  0  0  0  0  0  0  0  0  0  0  0
  147.4404  140.1162  154.3947 H   0  0  0  0  0  0  0  0  0  0  0  0
  146.3297  139.7722  153.0798 H   0  0  0  0  0  0  0  0  0  0  0  0
  148.0369  139.3676  152.9153 H   0  0  0  0  0  0  0  0  0  0  0  0
  147.8739  137.1158  155.9562 H   0  0  0  0  0  0  0  0  0  0  0  0
  148.4704  136.4853  154.4374 H   0  0  0  0  0  0  0  0  0  0  0  0
  149.2343  138.8992  157.0957 H   0  0  0  0  0  0  0  0  0  0  0  0
  151.4184  140.4118  156.3084 H   0  0  0  0  0  0  0  0  0  0  0  0
  149.9903  138.3029  153.0071 H   0  0  0  0  0  0  0  0  0  0  0  0
  142.9259  135.9049  151.9147 H   0  0  0  0  0  0  0  0  0  0  0  0
  143.5787  135.5817  150.3353 H   0  0  0  0  0  0  0  0  0  0  0  0
  142.7655  133.4986  151.4976 H   0  0  0  0  0  0  0  0  0  0  0  0
  143.9093  133.7467  152.7809 H   0  0  0  0  0  0  0  0  0  0  0  0
  1  2  1  0  0  0  0
  1 21  1  0  0  0  0
  1 22  1  0  0  0  0
  1 23  1  0  0  0  0
  2  3  2  0  0  0  0
  2  4  1  0  0  0  0
  4 20  1  0  0  0  0
  4  5  1  0  0  0  0
  5  6  1  0  0  0  0
  5 24  1  0  0  0  0
  5 25  1  0  0  0  0
  6  7  1  0  0  0  0
  6 26  1  0  0  0  0
  6 27  1  0  0  0  0
  7  8  1  0  0  0  0
  7 19  1  0  0  0  0
  8  9  2  0  0  0  0
  8 10  1  0  0  0  0
 10 11  1  0  0  0  0
 10 28  1  0  0  0  0
 11 12  1  0  0  0  0
 11 13  1  0  0  0  0
 11 29  1  0  0  0  0
 12 30  1  0  0  0  0
 12 31  1  0  0  0  0
 12 32  1  0  0  0  0
 13 14  1  0  0  0  0
 13 33  1  0  0  0  0
 13 34  1  0  0  0  0
 14 18  1  0  0  0  0
 14 15  1  0  0  0  0
 15 16  2  0  0  0  0
 15 35  1  0  0  0  0
 16 17  1  0  0  0  0
 16 36  1  0  0  0  0
 17 18  2  0  0  0  0
 18 37  1  0  0  0  0
 19 20  1  0  0  0  0
 19 38  1  0  0  0  0
 19 39  1  0  0  0  0
 20 40  1  0  0  0  0
 20 41  1  0  0  0  0
M  END
> <s_m_source_file>
AV-unprocessed.smi

> <i_m_source_file_index>
3340

> <i_lp_mmshare_version>
43012

> <i_f3d_flags>
0

> <s_epik_input>
W0NIM11DKD1PKU4xW0NIMl1bQ0gyXU4oW0NIMl1bQ0gyXTEpQyg9TylbTkhdW0NASF0oW0NIM10pW0NIMl1uMltjSF1bY0hdbltjSF0y

> <s_epik_cmdline>
J2VwaWtfcHl0aG9uJywgJy1waCcsICc3LjAnLCAnLXRuJywgJzgnLCAnLW1hJywgJzIwMCcsICctbWV0YWxfYmluZGluZycsICctaW1hZScsICc8aW5maWxlLm1hZT4nLCAnLW9tYWUnLCAnPG91dGZpbGUubWFlPic=

> <r_lp_tautomer_probability>
1

> <r_epik_Ionization_Penalty>
0.622948

> <r_epik_Ionization_Penalty_Charging>
0.622904

> <r_epik_Ionization_Penalty_Neutral>
4.39259e-05

> <r_epik_State_Penalty>
0.639086

> <r_epik_Charging_Adjusted_Penalty>
1.26199

> <i_epik_Tot_Q>
0

> <i_epik_Tot_abs_Q>
0

> <r_epik_Metal_State_Penalty>
0.307185

> <b_epik_Metal_Only>
0

> <s_lp_Force_Field>
OPLS_2005

> <r_lp_Energy>
49.2595

> <b_lp_Chiralities_Consistent>
1

> <s_lp_Variant>
AV-unprocessed.smi:3340-3

> <Gold.Version>
5.8.1

> <Gold.Id.Protein>
6NUR|6NUR_protein|mol2

> <Gold.PLP.Fitness>
42.7712

> <Gold.PLP.PLP>
-31.0212

> <Gold.PLP.part.hbond>
-3.0000

> <Gold.PLP.part.metal>
0.0000

> <Gold.PLP.part.buried>
-5.2559

> <Gold.PLP.part.nonpolar>
-24.2896

> <Gold.PLP.part.repulsive>
0.5121

> <Gold.PLP.ligand.clash>
0.0000

> <Gold.PLP.ligand.torsion>
1.2095

> <Gold.PLP.Chemscore.Hbond>
2.9920

> <Gold.PLP.Chemscore.CHOScore>
1.7142

> <Gold.PLP.Chemscore.Metal>
0.0000

> <Gold.Chemscore.Hbonds>
donor molecule, donor type, donor heavy atom, donor atom, acceptor molecule, acceptor atom, score
      L1  H    10    28       P1  7948  1.00
      P1  H  7989  7998       L1    17  1.00
      P1  H 10785 10796       L1     3  0.98
      L1  C    18    37       P1  7948  0.99
      L1  C    18    37       P1  7957  0.73

> <Gold.PLP.Chemscore.Internal.Correction>
0.0502

> <Gold.Rescore>
     Score         DG    S(hbond)    S(metal)    S(lipo)     H(rot)  DE(clash)    DE(int)     intcor
     14.72     -17.01       2.86        0.00      52.85       1.65       0.02       2.27       ----

> <Gold.Chemscore.Fitness>
14.7240

> <Gold.Chemscore.DG>
-17.0089

> <Gold.Chemscore.ZeroCoef>
-5.4800

> <Gold.Chemscore.Hbond>
2.8629

> <Gold.Chemscore.Metal>
0.0000

> <Gold.Chemscore.Lipo>
52.8494

> <Gold.Chemscore.Internal_Hbond>
0.0000

> <Gold.Chemscore.DEClash>
0.0190

> <Gold.Chemscore.DEInternal>
2.2659

> <Gold.Chemscore.Rot>
1.6471

> <Gold.Chemscore.Internal.Correction>
   9.000000E+99

> <Gold.Chemscore.Hbonds>
donor molecule, donor type, donor heavy atom, donor atom, acceptor molecule, acceptor atom, score
      L1  H    10    28       P1  7948  0.99
      P1  H  7989  7998       L1    17  0.94
      P1  H 10785 10796       L1     3  0.89

> <Gold.Chemscore.Hbond.Weighted>
-9.5622

> <Gold.Chemscore.Metal.Weighted>
-0.0000

> <Gold.Chemscore.Lipo.Weighted>
-6.1834

> <Gold.Chemscore.Internal_Hbond.Weighted>
0.0000

> <Gold.Chemscore.DEClash.Weighted>
0.0190

> <Gold.Chemscore.DEInternal.Weighted>
2.2659

> <Gold.Chemscore.Rot.Weighted>
4.2166

> <Gold.Chemscore.Internal.Correction.Weighted>
   9.000000E+99

> <Gold.Protein.RotatedTorsions>
[ 6907 6896 6895 6894 ] final  -35.59 input  -60.11 | X-H torsion
[ 7974 7965 7964 7962 ] final -150.90 input  175.53 | X-H torsion
[ 8008 7997 7996 7995 ] final   86.03 input   59.86 | X-H torsion
[ 10167 10162 10161 10158 ] final  177.82 input  -65.29 | X-H torsion
[ 10718 10713 10712 10709 ] final    3.66 input   66.30 | X-H torsion
[ 10763 10752 10751 10750 ] final -124.29 input  -60.55 | X-H torsion
[ 11005 11000 10999 10996 ] final  -98.86 input  -57.11 | X-H torsion

> <Gold.Protein.ActiveResidues>
 VAL166  LYS551  ARG553  GLY616  TRP617  ASP618  TYR619  PRO620  LYS621  CYS622 
 ASP623  PHE694  ASN695  SER759  ASP760  ASP761  ALA762  ILE779  LEU786  VAL792 
 PHE793  MET794  SER795  GLU796  ALA797  LYS798  CYS799  TRP800  GLU811  SER814 

> <Gold.Protein.RotatedAtoms>
  151.0379  134.9586  159.8145 H   0  0  0  0  0  0  0  0  0  0  0  0  # atno 6907 bound_to 6896
  152.5358  134.2696  159.8976 H   0  0  0  0  0  0  0  0  0  0  0  0  # atno 6908 bound_to 6896
  151.2707  133.4214  159.2655 H   0  0  0  0  0  0  0  0  0  0  0  0  # atno 6909 bound_to 6896
  144.7881  140.4870  143.5792 H   0  0  0  0  0  0  0  0  0  0  0  0  # atno 7974 bound_to 7965
  155.9576  140.3396  155.6462 H   0  0  0  0  0  0  0  0  0  0  0  0  # atno 8008 bound_to 7997
  155.6839  140.0741  157.2492 H   0  0  0  0  0  0  0  0  0  0  0  0  # atno 8009 bound_to 7997
  154.4136  140.1669  156.2000 H   0  0  0  0  0  0  0  0  0  0  0  0  # atno 8010 bound_to 7997
  139.5269  144.2753  152.0593 H   0  0  0  0  0  0  0  0  0  0  0  0  # atno 10167 bound_to 10162
  156.8812  130.5654  149.5653 H   0  0  0  0  0  0  0  0  0  0  0  0  # atno 10718 bound_to 10713
  154.8721  135.4069  154.3082 H   0  0  0  0  0  0  0  0  0  0  0  0  # atno 10763 bound_to 10752
  153.3930  135.7015  153.6487 H   0  0  0  0  0  0  0  0  0  0  0  0  # atno 10764 bound_to 10752
  153.5261  135.3677  155.2626 H   0  0  0  0  0  0  0  0  0  0  0  0  # atno 10765 bound_to 10752
  141.1330  133.8277  157.0895 H   0  0  0  0  0  0  0  0  0  0  0  0  # atno 11005 bound_to 11000
  145.5868  139.1492  143.3204 LP  0  0  0  0  0  0  0  0  0  0  0  0  # atno 17320 bound_to 7965
  146.2121  140.5995  142.9055 LP  0  0  0  0  0  0  0  0  0  0  0  0  # atno 17321 bound_to 7965
  140.2210  144.4466  150.6342 LP  0  0  0  0  0  0  0  0  0  0  0  0  # atno 17342 bound_to 10162
  140.6418  143.2205  151.6273 LP  0  0  0  0  0  0  0  0  0  0  0  0  # atno 17343 bound_to 10162
  156.0676  130.5716  150.9320 LP  0  0  0  0  0  0  0  0  0  0  0  0  # atno 17370 bound_to 10713
  157.6139  131.0934  150.8745 LP  0  0  0  0  0  0  0  0  0  0  0  0  # atno 17371 bound_to 10713
  140.0401  134.9858  157.0946 LP  0  0  0  0  0  0  0  0  0  0  0  0  # atno 17394 bound_to 11000
  140.4148  134.1942  155.7163 LP  0  0  0  0  0  0  0  0  0  0  0  0  # atno 17395 bound_to 11000

$$$$
