AV-unprocessed.smi:2078|AV-procd|sdf|8474|dock10
  -GOLD-   2272011173D 1   1.00000     0.00000
 Structure written by MMmdl.
 41 42  0  0  0  0  0  0  0  0  3 V2000
  147.3576  135.2633  162.4269 C   0  0  0  0  0  0  0  0  0  0  0  0
  147.7494  135.6750  161.0494 C   0  0  0  0  0  0  0  0  0  0  0  0
  148.0318  134.9712  159.9127 C   0  0  0  0  0  0  0  0  0  0  0  0
  148.3268  135.9905  158.9686 C   0  0  0  0  0  0  0  0  0  0  0  0
  148.6838  135.6611  157.6344 N   0  0  0  0  0  0  0  0  0  0  0  0
  149.2156  134.5185  157.1643 C   0  0  0  0  0  0  0  0  0  0  0  0
  149.4980  133.5954  157.9380 O   0  0  0  0  0  0  0  0  0  0  0  0
  149.3670  134.5346  155.8106 N   0  5  0  0  0  0  0  0  0  0  0  0
  148.3212  134.8969  154.8485 C   0  0  0  0  0  0  0  0  0  0  0  0
  147.8812  133.6635  154.0307 C   0  0  0  0  0  0  0  0  0  0  0  0
  147.2276  134.0480  152.7508 N   0  3  2  0  0  0  0  0  0  0  0  0
  146.1413  135.0515  152.9041 C   0  0  0  0  0  0  0  0  0  0  0  0
  145.6639  135.5479  151.5307 C   0  0  0  0  0  0  0  0  0  0  0  0
  145.2114  134.3747  150.6508 C   0  0  0  0  0  0  0  0  0  0  0  0
  146.3339  133.3285  150.5339 C   0  0  2  0  0  0  0  0  0  0  0  0
  145.9001  132.1305  149.6781 C   0  0  0  0  0  0  0  0  0  0  0  0
  146.7980  132.8835  151.9352 C   0  0  0  0  0  0  0  0  0  0  0  0
  148.2369  137.2072  159.4853 N   0  0  0  0  0  0  0  0  0  0  0  0
  147.8650  137.0112  160.8205 O   0  0  0  0  0  0  0  0  0  0  0  0
  147.3441  134.1774  162.5200 H   0  0  0  0  0  0  0  0  0  0  0  0
  146.3634  135.6365  162.6731 H   0  0  0  0  0  0  0  0  0  0  0  0
  148.0596  135.6571  163.1621 H   0  0  0  0  0  0  0  0  0  0  0  0
  148.0260  133.8997  159.7793 H   0  0  0  0  0  0  0  0  0  0  0  0
  148.5009  136.3758  156.9454 H   0  0  0  0  0  0  0  0  0  0  0  0
  147.4475  135.2964  155.3627 H   0  0  0  0  0  0  0  0  0  0  0  0
  148.6373  135.6866  154.1657 H   0  0  0  0  0  0  0  0  0  0  0  0
  148.7578  133.0419  153.8412 H   0  0  0  0  0  0  0  0  0  0  0  0
  147.2054  133.0431  154.6213 H   0  0  0  0  0  0  0  0  0  0  0  0
  145.3107  134.6107  153.4574 H   0  0  0  0  0  0  0  0  0  0  0  0
  146.4981  135.9002  153.4889 H   0  0  0  0  0  0  0  0  0  0  0  0
  144.8472  136.2596  151.6533 H   0  0  0  0  0  0  0  0  0  0  0  0
  146.4737  136.0868  151.0361 H   0  0  0  0  0  0  0  0  0  0  0  0
  144.3189  133.9176  151.0805 H   0  0  0  0  0  0  0  0  0  0  0  0
  144.9300  134.7401  149.6626 H   0  0  0  0  0  0  0  0  0  0  0  0
  147.1828  133.7990  150.0340 H   0  0  0  0  0  0  0  0  0  0  0  0
  145.0536  131.6087  150.1256 H   0  0  0  0  0  0  0  0  0  0  0  0
  146.7135  131.4127  149.5677 H   0  0  0  0  0  0  0  0  0  0  0  0
  145.6047  132.4490  148.6779 H   0  0  0  0  0  0  0  0  0  0  0  0
  147.6345  132.1908  151.8304 H   0  0  0  0  0  0  0  0  0  0  0  0
  146.0017  132.3481  152.4546 H   0  0  0  0  0  0  0  0  0  0  0  0
  147.9597  134.4967  152.2164 H   0  0  0  0  0  0  0  0  0  0  0  0
  1  2  1  0  0  0  0
  1 20  1  0  0  0  0
  1 21  1  0  0  0  0
  1 22  1  0  0  0  0
  2 19  1  0  0  0  0
  2  3  2  0  0  0  0
  3  4  1  0  0  0  0
  3 23  1  0  0  0  0
  4  5  1  0  0  0  0
  4 18  2  0  0  0  0
  5  6  1  0  0  0  0
  5 24  1  0  0  0  0
  6  7  2  0  0  0  0
  6  8  1  0  0  0  0
  8  9  1  0  0  0  0
  9 10  1  0  0  0  0
  9 25  1  0  0  0  0
  9 26  1  0  0  0  0
 10 11  1  0  0  0  0
 10 27  1  0  0  0  0
 10 28  1  0  0  0  0
 11 17  1  0  0  0  0
 11 12  1  0  0  0  0
 11 41  1  0  0  0  0
 12 13  1  0  0  0  0
 12 29  1  0  0  0  0
 12 30  1  0  0  0  0
 13 14  1  0  0  0  0
 13 31  1  0  0  0  0
 13 32  1  0  0  0  0
 14 15  1  0  0  0  0
 14 33  1  0  0  0  0
 14 34  1  0  0  0  0
 15 16  1  0  0  0  0
 15 17  1  0  0  0  0
 15 35  1  0  0  0  0
 16 36  1  0  0  0  0
 16 37  1  0  0  0  0
 16 38  1  0  0  0  0
 17 39  1  0  0  0  0
 17 40  1  0  0  0  0
 18 19  1  0  0  0  0
M  CHG  1   8  -1
M  CHG  1  11   1
M  END
> <s_m_source_file>
AV-unprocessed.smi

> <i_m_source_file_index>
2078

> <i_lp_mmshare_version>
43012

> <i_f3d_flags>
0

> <s_epik_input>
W0NIM11jMVtjSF1jKG5vMSlbTkhdQyg9TylbTkhdW0NIMl1bQ0gyXU4yW0NIMl1bQ0gyXVtDSDJdW0NAQEhdKFtDSDNdKVtDSDJdMg==

> <s_epik_cmdline>
J2VwaWtfcHl0aG9uJywgJy1waCcsICc3LjAnLCAnLXRuJywgJzgnLCAnLW1hJywgJzIwMCcsICctbWV0YWxfYmluZGluZycsICctaW1hZScsICc8aW5maWxlLm1hZT4nLCAnLW9tYWUnLCAnPG91dGZpbGUubWFlPic=

> <r_epik_Ionization_Penalty>
6.76934

> <r_epik_Ionization_Penalty_Charging>
6.76934

> <r_epik_Ionization_Penalty_Neutral>
5.77849e-06

> <r_epik_State_Penalty>
6.79457

> <r_epik_Charging_Adjusted_Penalty>
13.5639

> <i_epik_Tot_Q>
0

> <i_epik_Tot_abs_Q>
2

> <r_epik_Metal_State_Penalty>
2.72837

> <b_epik_Metal_Only>
1

> <s_lp_Force_Field>
OPLS_2005

> <r_lp_Energy>
9.58201

> <b_lp_Chiralities_Consistent>
1

> <s_lp_Variant>
AV-unprocessed.smi:2078-12

> <Gold.Version>
5.8.1

> <Gold.Id.Protein>
6NUR|6NUR_protein|mol2

> <Gold.PLP.Fitness>
43.6503

> <Gold.PLP.PLP>
-32.1135

> <Gold.PLP.part.hbond>
-4.8287

> <Gold.PLP.part.metal>
0.0000

> <Gold.PLP.part.buried>
-3.1975

> <Gold.PLP.part.nonpolar>
-23.9628

> <Gold.PLP.part.repulsive>
0.1020

> <Gold.PLP.ligand.clash>
0.0000

> <Gold.PLP.ligand.torsion>
0.7333

> <Gold.PLP.Chemscore.Hbond>
4.3184

> <Gold.PLP.Chemscore.CHOScore>
0.0000

> <Gold.PLP.Chemscore.Metal>
0.0000

> <Gold.Chemscore.Hbonds>
donor molecule, donor type, donor heavy atom, donor atom, acceptor molecule, acceptor atom, score
      L1  H    11    41       P1  7948  1.89
      P1  H  6896  6907       L1     7  1.00
      P1  H  6931  6943       L1    19  0.94
      P1  H  6934  6947       L1    19  0.32

> <Gold.PLP.Chemscore.Internal.Correction>
0.0481

> <Gold.Rescore>
     Score         DG    S(hbond)    S(metal)    S(lipo)     H(rot)  DE(clash)    DE(int)     intcor
     15.50     -17.67       2.52        0.00      66.06       1.54       0.07       2.11       ----

> <Gold.Chemscore.Fitness>
15.4952

> <Gold.Chemscore.DG>
-17.6706

> <Gold.Chemscore.ZeroCoef>
-5.4800

> <Gold.Chemscore.Hbond>
2.5170

> <Gold.Chemscore.Metal>
0.0000

> <Gold.Chemscore.Lipo>
66.0557

> <Gold.Chemscore.Internal_Hbond>
0.0000

> <Gold.Chemscore.DEClash>
0.0665

> <Gold.Chemscore.DEInternal>
2.1090

> <Gold.Chemscore.Rot>
1.5409

> <Gold.Chemscore.Internal.Correction>
   9.000000E+99

> <Gold.Chemscore.Hbonds>
donor molecule, donor type, donor heavy atom, donor atom, acceptor molecule, acceptor atom, score
      L1  H    11    41       P1  7948  0.27
      P1  H  6896  6907       L1     7  0.96
      P1  H  6931  6943       L1    19  0.43
      P1  H  6934  6947       L1    19  0.01

> <Gold.Chemscore.Hbond.Weighted>
-8.4068

> <Gold.Chemscore.Metal.Weighted>
-0.0000

> <Gold.Chemscore.Lipo.Weighted>
-7.7285

> <Gold.Chemscore.Internal_Hbond.Weighted>
0.0000

> <Gold.Chemscore.DEClash.Weighted>
0.0665

> <Gold.Chemscore.DEInternal.Weighted>
2.1090

> <Gold.Chemscore.Rot.Weighted>
3.9446

> <Gold.Chemscore.Internal.Correction.Weighted>
   9.000000E+99

> <Gold.Protein.RotatedTorsions>
[ 6907 6896 6895 6894 ] final -110.27 input  -60.11 | X-H torsion
[ 7974 7965 7964 7962 ] final -137.40 input  175.53 | X-H torsion
[ 8008 7997 7996 7995 ] final -135.48 input   59.86 | X-H torsion
[ 10167 10162 10161 10158 ] final    9.08 input  -65.29 | X-H torsion
[ 10718 10713 10712 10709 ] final  -25.70 input   66.30 | X-H torsion
[ 10763 10752 10751 10750 ] final   27.35 input  -60.55 | X-H torsion
[ 11005 11000 10999 10996 ] final   33.10 input  -57.11 | X-H torsion

> <Gold.Protein.ActiveResidues>
 VAL166  LYS551  ARG553  GLY616  TRP617  ASP618  TYR619  PRO620  LYS621  CYS622 
 ASP623  PHE694  ASN695  SER759  ASP760  ASP761  ALA762  ILE779  LEU786  VAL792 
 PHE793  MET794  SER795  GLU796  ALA797  LYS798  CYS799  TRP800  GLU811  SER814 

> <Gold.Protein.RotatedAtoms>
  150.7614  133.9406  159.3454 H   0  0  0  0  0  0  0  0  0  0  0  0  # atno 6907 bound_to 6896
  151.7314  135.0872  160.0310 H   0  0  0  0  0  0  0  0  0  0  0  0  # atno 6908 bound_to 6896
  152.3587  133.6232  159.6035 H   0  0  0  0  0  0  0  0  0  0  0  0  # atno 6909 bound_to 6896
  144.8845  140.6555  143.5184 H   0  0  0  0  0  0  0  0  0  0  0  0  # atno 7974 bound_to 7965
  155.3794  140.0493  157.3044 H   0  0  0  0  0  0  0  0  0  0  0  0  # atno 8008 bound_to 7997
  154.5090  140.2184  155.9156 H   0  0  0  0  0  0  0  0  0  0  0  0  # atno 8009 bound_to 7997
  156.1560  140.3126  155.8732 H   0  0  0  0  0  0  0  0  0  0  0  0  # atno 8010 bound_to 7997
  140.6276  143.8066  150.7253 H   0  0  0  0  0  0  0  0  0  0  0  0  # atno 10167 bound_to 10162
  156.4609  130.4504  149.6929 H   0  0  0  0  0  0  0  0  0  0  0  0  # atno 10718 bound_to 10713
  153.0561  135.6539  154.0574 H   0  0  0  0  0  0  0  0  0  0  0  0  # atno 10763 bound_to 10752
  154.0251  135.2916  155.3377 H   0  0  0  0  0  0  0  0  0  0  0  0  # atno 10764 bound_to 10752
  154.6877  135.5295  153.8416 H   0  0  0  0  0  0  0  0  0  0  0  0  # atno 10765 bound_to 10752
  140.2666  134.3130  155.7841 H   0  0  0  0  0  0  0  0  0  0  0  0  # atno 11005 bound_to 11000
  145.3893  139.1620  143.4237 LP  0  0  0  0  0  0  0  0  0  0  0  0  # atno 17320 bound_to 7965
  146.3016  140.3981  142.8702 LP  0  0  0  0  0  0  0  0  0  0  0  0  # atno 17321 bound_to 7965
  140.1670  143.4226  152.2027 LP  0  0  0  0  0  0  0  0  0  0  0  0  # atno 17342 bound_to 10162
  139.5494  144.7325  151.4481 LP  0  0  0  0  0  0  0  0  0  0  0  0  # atno 17343 bound_to 10162
  156.3717  130.7534  151.2518 LP  0  0  0  0  0  0  0  0  0  0  0  0  # atno 17370 bound_to 10713
  157.7498  131.0321  150.4211 LP  0  0  0  0  0  0  0  0  0  0  0  0  # atno 17371 bound_to 10713
  141.2183  133.7441  156.9270 LP  0  0  0  0  0  0  0  0  0  0  0  0  # atno 17394 bound_to 11000
  140.1413  134.9291  157.2470 LP  0  0  0  0  0  0  0  0  0  0  0  0  # atno 17395 bound_to 11000

$$$$
