#       Name:                AV-unprocessed.smi:37
#       Creating user name   scv26
#       Creation time:       Thu Mar 26 16:15:43 2020


#       File generated by GOLD software.
#

@<TRIPOS>MOLECULE
AV-unprocessed.smi:37
    54    55     1
SMALL
NO_CHARGES


@<TRIPOS>ATOM
      1 ****        -3.2737   2.8467  -0.1910 C.3            1 S1                 0.0000
      2 ****        -4.0022   1.5007  -0.0724 C.3            1 S1                 0.0000
      3 ****        -3.4486   0.4591  -1.0421 C.2            1 S1                 0.0000
      4 ****        -4.1196   0.0347  -1.9831 O.2            1 S1                 0.0000
      5 ****        -2.1966   0.0896  -0.7384 O.3            1 S1                 0.0000
      6 ****        -1.5107  -0.8406  -1.5600 C.3            1 S1                 0.0000
      7 ****        -0.0408  -0.9295  -1.1288 C.3            1 S1                 0.0000
      8 ****         0.5739   0.3439  -1.2895 O.3            1 S1                 0.0000
      9 ****         1.4985   0.5161  -0.2667 C.3            1 S1                 0.0000
     10 ****         1.7630   1.9881  -0.0533 N.am           1 S1                 0.0000
     11 ****         0.9212   2.9546  -0.5799 C.2            1 S1                 0.0000
     12 ****         1.1543   4.2673  -0.3780 C.2            1 S1                 0.0000
     13 ****         0.3171   5.1826  -0.8958 F              1 S1                 0.0000
     14 ****         2.3153   4.6835   0.4066 C.2            1 S1                 0.0000
     15 ****         2.5244   5.8825   0.5840 O.2            1 S1                 0.0000
     16 ****         3.1255   3.7095   0.9141 N.pl3          1 S1                -1.0000
     17 ****         2.8913   2.3791   0.7159 C.2            1 S1                 0.0000
     18 ****         3.6103   1.4908   1.1741 O.2            1 S1                 0.0000
     19 ****         0.8942  -0.1646   0.9663 C.3            1 S1                 0.0000
     20 ****        -0.4533   0.9838   1.8906 Br             1 S1                 0.0000
     21 ****         0.1759  -1.3528   0.3378 C.3            1 S1                 0.0000
     22 ****         1.0130  -2.5034   0.3646 O.3            1 S1                 0.0000
     23 ****         0.9958  -3.3338   1.4238 C.2            1 S1                 0.0000
     24 ****         0.3133  -3.1960   2.4390 O.2            1 S1                 0.0000
     25 ****         1.9552  -4.5110   1.2646 C.3            1 S1                 0.0000
     26 ****         1.5741  -5.4184   0.0868 C.3            1 S1                 0.0000
     27 ****        -3.7016   3.5767   0.4962 H              1 S1                 0.0000
     28 ****        -3.3559   3.2542  -1.1991 H              1 S1                 0.0000
     29 ****        -2.2141   2.7538   0.0485 H              1 S1                 0.0000
     30 ****        -3.9131   1.1167   0.9440 H              1 S1                 0.0000
     31 ****        -5.0662   1.6362  -0.2678 H              1 S1                 0.0000
     32 ****        -1.9865  -1.8187  -1.4808 H              1 S1                 0.0000
     33 ****        -1.5693  -0.5305  -2.6043 H              1 S1                 0.0000
     34 ****         0.4734  -1.6247  -1.7945 H              1 S1                 0.0000
     35 ****         2.4468   0.0751  -0.5807 H              1 S1                 0.0000
     36 ****         0.0536   2.6674  -1.1548 H              1 S1                 0.0000
     37 ****         1.6652  -0.4316   1.6899 H              1 S1                 0.0000
     38 ****        -0.7712  -1.5608   0.8382 H              1 S1                 0.0000
     39 ****         2.9656  -4.1253   1.1285 H              1 S1                 0.0000
     40 ****         1.9593  -5.0887   2.1893 H              1 S1                 0.0000
     41 ****         2.2475  -6.2737   0.0285 H              1 S1                 0.0000
     42 ****         1.6343  -4.8871  -0.8637 H              1 S1                 0.0000
     43 ****         0.5596  -5.8035   0.1946 H              1 S1                 0.0000
     44 ****        -5.0499   0.3723  -2.1261 LP             1 S1                 0.0000
     45 ****        -3.7342  -0.6475  -2.6044 LP             1 S1                 0.0000
     46 ****        -0.1200   1.0624  -1.2422 LP             1 S1                 0.0000
     47 ****         1.0375   0.3861  -2.1746 LP             1 S1                 0.0000
     48 ****         1.9031   6.5616   0.1931 LP             1 S1                 0.0000
     49 ****         3.3157   6.1783   1.1191 LP             1 S1                 0.0000
     50 ****         3.9229   3.9813   1.4529 LP             1 S1                 0.0000
     51 ****         3.3914   0.5308   1.0000 LP             1 S1                 0.0000
     52 ****         4.4133   1.7295   1.7203 LP             1 S1                 0.0000
     53 ****        -0.2983  -2.4098   2.5274 LP             1 S1                 0.0000
     54 ****         0.3706  -3.8702   3.1753 LP             1 S1                 0.0000
@<TRIPOS>BOND
    1    1    2 1     
    2    1   27 1     
    3    1   28 1     
    4    1   29 1     
    5    2    3 1     
    6    2   30 1     
    7    2   31 1     
    8    3    4 2     
    9    3    5 1     
   10    5    6 1     
   11    6    7 1     
   12    6   32 1     
   13    6   33 1     
   14    7   21 1     
   15    7    8 1     
   16    7   34 1     
   17    8    9 1     
   18    9   10 1     
   19    9   19 1     
   20    9   35 1     
   21   10   17 am    
   22   10   11 1     
   23   11   12 2     
   24   11   36 1     
   25   12   13 1     
   26   12   14 1     
   27   14   15 2     
   28   14   16 1     
   29   16   17 1     
   30   17   18 2     
   31   19   20 1     
   32   19   21 1     
   33   19   37 1     
   34   21   22 1     
   35   21   38 1     
   36   22   23 1     
   37   23   24 2     
   38   23   25 1     
   39   25   26 1     
   40   25   39 1     
   41   25   40 1     
   42   26   41 1     
   43   26   42 1     
   44   26   43 1     
   45    4   44 1     
   46    4   45 1     
   47    8   46 1     
   48    8   47 1     
   49   15   48 1     
   50   15   49 1     
   51   16   50 1     
   52   18   51 1     
   53   18   52 1     
   54   24   53 1     
   55   24   54 1     
@<TRIPOS>SUBSTRUCTURE
      1 S1             1
@<TRIPOS>SET
LONE_PAIRS      STATIC     ATOMS    <user>   **** ""
11 44 45 46 47 48 49 50 51 52 53 54
ATOM$BLUE        STATIC     ATOMS    COLORGROUP SYSTEM
11 44 45 46 47 48 49 50 51 52 53 54
