AV-unprocessed.smi:1916|AV-procd|sdf|7767|dock5
  -GOLD-   22720 9513D 1   1.00000     0.00000
 Structure written by MMmdl.
 46 48  0  0  0  0  0  0  0  0  2 V2000
  152.1180  136.8020  156.1964 O   0  0  0  0  0  0  0  0  0  0  0  0
  151.3722  137.5751  155.5951 C   0  0  0  0  0  0  0  0  0  0  0  0
  150.1539  137.2263  155.1548 N   0  0  0  0  0  0  0  0  0  0  0  0
  149.5443  135.9098  155.3205 C   0  0  0  0  0  0  0  0  0  0  0  0
  150.3489  134.7680  154.6639 C   0  0  0  0  0  0  0  0  0  0  0  0
  149.4925  133.6147  154.1692 C   0  0  0  0  0  0  0  0  0  0  0  0
  149.5945  132.3175  154.7167 C   0  0  0  0  0  0  0  0  0  0  0  0
  148.7588  131.2938  154.2229 C   0  0  0  0  0  0  0  0  0  0  0  0
  147.8388  131.5885  153.1953 C   0  0  0  0  0  0  0  0  0  0  0  0
  147.7782  132.9014  152.6853 C   0  0  0  0  0  0  0  0  0  0  0  0
  148.5965  133.8537  153.1833 N   0  3  0  0  0  0  0  0  0  0  0  0
  151.8266  139.0105  155.2884 C   0  0  1  0  0  0  0  0  0  0  0  0
  150.7108  139.8271  154.6108 C   0  0  0  0  0  0  0  0  0  0  0  0
  150.3207  140.8577  155.6568 C   0  0  0  0  0  0  0  0  0  0  0  0
  149.3861  141.6399  155.4929 O   0  0  0  0  0  0  0  0  0  0  0  0
  151.1146  140.7799  156.7358 N   0  0  0  0  0  0  0  0  0  0  0  0
  151.0776  141.5993  157.9556 C   0  0  0  0  0  0  0  0  0  0  0  0
  151.1368  143.1176  157.6752 C   0  0  0  0  0  0  0  0  0  0  0  0
  152.4539  143.6129  158.2772 C   0  0  0  0  0  0  0  0  0  0  0  0
  152.7311  142.6502  159.4281 C   0  0  0  0  0  0  0  0  0  0  0  0
  152.2474  141.2931  158.9148 C   0  0  0  0  0  0  0  0  0  0  0  0
  152.1756  139.7986  156.5685 C   0  0  0  0  0  0  0  0  0  0  0  0
  149.6065  137.9253  154.6730 H   0  0  0  0  0  0  0  0  0  0  0  0
  149.3882  135.7023  156.3803 H   0  0  0  0  0  0  0  0  0  0  0  0
  148.5531  135.9558  154.8686 H   0  0  0  0  0  0  0  0  0  0  0  0
  150.9259  135.1584  153.8244 H   0  0  0  0  0  0  0  0  0  0  0  0
  151.0828  134.3849  155.3738 H   0  0  0  0  0  0  0  0  0  0  0  0
  150.3016  132.1086  155.5064 H   0  0  0  0  0  0  0  0  0  0  0  0
  148.8218  130.2948  154.6292 H   0  0  0  0  0  0  0  0  0  0  0  0
  147.1897  130.8184  152.8044 H   0  0  0  0  0  0  0  0  0  0  0  0
  147.1054  133.2165  151.9010 H   0  0  0  0  0  0  0  0  0  0  0  0
  152.7014  138.9743  154.6366 H   0  0  0  0  0  0  0  0  0  0  0  0
  151.0827  140.3363  153.7213 H   0  0  0  0  0  0  0  0  0  0  0  0
  149.8440  139.2313  154.3200 H   0  0  0  0  0  0  0  0  0  0  0  0
  150.1419  141.3960  158.4792 H   0  0  0  0  0  0  0  0  0  0  0  0
  151.0494  143.3732  156.6184 H   0  0  0  0  0  0  0  0  0  0  0  0
  150.3053  143.6066  158.1843 H   0  0  0  0  0  0  0  0  0  0  0  0
  153.2517  143.5378  157.5374 H   0  0  0  0  0  0  0  0  0  0  0  0
  152.4014  144.6522  158.6024 H   0  0  0  0  0  0  0  0  0  0  0  0
  153.7808  142.6373  159.7223 H   0  0  0  0  0  0  0  0  0  0  0  0
  152.1446  142.9434  160.2998 H   0  0  0  0  0  0  0  0  0  0  0  0
  151.9489  140.6317  159.7285 H   0  0  0  0  0  0  0  0  0  0  0  0
  153.0688  140.8026  158.3912 H   0  0  0  0  0  0  0  0  0  0  0  0
  152.2537  139.1618  157.4517 H   0  0  0  0  0  0  0  0  0  0  0  0
  153.1284  140.3172  156.4538 H   0  0  0  0  0  0  0  0  0  0  0  0
  148.5358  134.7980  152.8010 H   0  0  0  0  0  0  0  0  0  0  0  0
  1  2  2  0  0  0  0
  2  3  1  0  0  0  0
  2 12  1  0  0  0  0
  3  4  1  0  0  0  0
  3 23  1  0  0  0  0
  4  5  1  0  0  0  0
  4 24  1  0  0  0  0
  4 25  1  0  0  0  0
  5  6  1  0  0  0  0
  5 26  1  0  0  0  0
  5 27  1  0  0  0  0
  6 11  1  0  0  0  0
  6  7  2  0  0  0  0
  7  8  1  0  0  0  0
  7 28  1  0  0  0  0
  8  9  2  0  0  0  0
  8 29  1  0  0  0  0
  9 10  1  0  0  0  0
  9 30  1  0  0  0  0
 10 11  2  0  0  0  0
 10 31  1  0  0  0  0
 11 46  1  0  0  0  0
 12 22  1  0  0  0  0
 12 13  1  0  0  0  0
 12 32  1  0  0  0  0
 13 14  1  0  0  0  0
 13 33  1  0  0  0  0
 13 34  1  0  0  0  0
 14 15  2  0  0  0  0
 14 16  1  0  0  0  0
 16 17  1  0  0  0  0
 16 22  1  0  0  0  0
 17 21  1  0  0  0  0
 17 18  1  0  0  0  0
 17 35  1  0  0  0  0
 18 19  1  0  0  0  0
 18 36  1  0  0  0  0
 18 37  1  0  0  0  0
 19 20  1  0  0  0  0
 19 38  1  0  0  0  0
 19 39  1  0  0  0  0
 20 21  1  0  0  0  0
 20 40  1  0  0  0  0
 20 41  1  0  0  0  0
 21 42  1  0  0  0  0
 21 43  1  0  0  0  0
 22 44  1  0  0  0  0
 22 45  1  0  0  0  0
M  CHG  1  11   1
M  END
> <s_m_source_file>
AV-unprocessed.smi

> <i_m_source_file_index>
1916

> <i_lp_mmshare_version>
43012

> <i_f3d_flags>
0

> <s_epik_input>
W0NIMl0xW0NIMl1bQ0gyXVtDSDJdW0NIXTFOKFtDSDJdMilDKD1PKVtDSDJdW0NASF0yQyg9TylbTkhdW0NIMl1bQ0gyXWMzW2NIXVtjSF1bY0hdW2NIXW4z

> <s_epik_cmdline>
J2VwaWtfcHl0aG9uJywgJy1waCcsICc3LjAnLCAnLXRuJywgJzgnLCAnLW1hJywgJzIwMCcsICctbWV0YWxfYmluZGluZycsICctaW1hZScsICc8aW5maWxlLm1hZT4nLCAnLW9tYWUnLCAnPG91dGZpbGUubWFlPic=

> <r_epik_Ionization_Penalty>
1.88249

> <r_epik_Ionization_Penalty_Charging>
1.88249

> <r_epik_Ionization_Penalty_Neutral>
3.64574e-08

> <r_epik_State_Penalty>
2.00238

> <r_epik_Charging_Adjusted_Penalty>
3.88487

> <i_epik_Tot_Q>
1

> <i_epik_Tot_abs_Q>
1

> <r_epik_Metal_State_Penalty>
2.02676

> <b_epik_Metal_Only>
0

> <s_lp_Force_Field>
OPLS_2005

> <r_lp_Energy>
36.1777

> <b_lp_Chiralities_Consistent>
1

> <s_lp_Variant>
AV-unprocessed.smi:1916-4

> <Gold.Version>
5.8.1

> <Gold.Id.Protein>
6NUR|6NUR_protein|mol2

> <Gold.PLP.Fitness>
50.5293

> <Gold.PLP.PLP>
-43.2609

> <Gold.PLP.part.hbond>
-2.0000

> <Gold.PLP.part.metal>
0.0000

> <Gold.PLP.part.buried>
-2.2557

> <Gold.PLP.part.nonpolar>
-39.4818

> <Gold.PLP.part.repulsive>
0.2467

> <Gold.PLP.ligand.clash>
1.2720

> <Gold.PLP.ligand.torsion>
0.2643

> <Gold.PLP.Chemscore.Hbond>
3.0000

> <Gold.PLP.Chemscore.CHOScore>
0.0000

> <Gold.PLP.Chemscore.Metal>
0.0000

> <Gold.Chemscore.Hbonds>
donor molecule, donor type, donor heavy atom, donor atom, acceptor molecule, acceptor atom, score
      L1  H    11    46       P1  7948  2.00
      P1  H 10752 10765       L1     1  1.00

> <Gold.PLP.Chemscore.Internal.Correction>
0.0690

> <Gold.Rescore>
     Score         DG    S(hbond)    S(metal)    S(lipo)     H(rot)  DE(clash)    DE(int)     intcor
     18.35     -19.03       1.76        0.00     103.21       1.72       0.12       0.56       ----

> <Gold.Chemscore.Fitness>
18.3465

> <Gold.Chemscore.DG>
-19.0319

> <Gold.Chemscore.ZeroCoef>
-5.4800

> <Gold.Chemscore.Hbond>
1.7570

> <Gold.Chemscore.Metal>
0.0000

> <Gold.Chemscore.Lipo>
103.2126

> <Gold.Chemscore.Internal_Hbond>
0.0000

> <Gold.Chemscore.DEClash>
0.1228

> <Gold.Chemscore.DEInternal>
0.5626

> <Gold.Chemscore.Rot>
1.7158

> <Gold.Chemscore.Internal.Correction>
   9.000000E+99

> <Gold.Chemscore.Hbonds>
donor molecule, donor type, donor heavy atom, donor atom, acceptor molecule, acceptor atom, score
      L1  H    11    46       P1  7948  0.30
      P1  H 10752 10765       L1     1  0.88

> <Gold.Chemscore.Hbond.Weighted>
-5.8684

> <Gold.Chemscore.Metal.Weighted>
-0.0000

> <Gold.Chemscore.Lipo.Weighted>
-12.0759

> <Gold.Chemscore.Internal_Hbond.Weighted>
0.0000

> <Gold.Chemscore.DEClash.Weighted>
0.1228

> <Gold.Chemscore.DEInternal.Weighted>
0.5626

> <Gold.Chemscore.Rot.Weighted>
4.3924

> <Gold.Chemscore.Internal.Correction.Weighted>
   9.000000E+99

> <Gold.Protein.RotatedTorsions>
[ 6907 6896 6895 6894 ] final  124.09 input  -60.11 | X-H torsion
[ 7974 7965 7964 7962 ] final   76.13 input  175.53 | X-H torsion
[ 8008 7997 7996 7995 ] final  -99.09 input   59.86 | X-H torsion
[ 10167 10162 10161 10158 ] final -101.89 input  -65.29 | X-H torsion
[ 10718 10713 10712 10709 ] final  141.82 input   66.30 | X-H torsion
[ 10763 10752 10751 10750 ] final -145.33 input  -60.55 | X-H torsion
[ 11005 11000 10999 10996 ] final  165.80 input  -57.11 | X-H torsion

> <Gold.Protein.ActiveResidues>
 VAL166  LYS551  ARG553  GLY616  TRP617  ASP618  TYR619  PRO620  LYS621  CYS622 
 ASP623  PHE694  ASN695  SER759  ASP760  ASP761  ALA762  ILE779  LEU786  VAL792 
 PHE793  MET794  SER795  GLU796  ALA797  LYS798  CYS799  TRP800  GLU811  SER814 

> <Gold.Protein.RotatedAtoms>
  152.4107  133.6959  159.6394 H   0  0  0  0  0  0  0  0  0  0  0  0  # atno 6907 bound_to 6896
  150.7987  133.8629  159.3246 H   0  0  0  0  0  0  0  0  0  0  0  0  # atno 6908 bound_to 6896
  151.6372  135.1018  160.0185 H   0  0  0  0  0  0  0  0  0  0  0  0  # atno 6909 bound_to 6896
  145.7068  139.2601  143.1674 H   0  0  0  0  0  0  0  0  0  0  0  0  # atno 7974 bound_to 7965
  154.8100  140.0450  157.1336 H   0  0  0  0  0  0  0  0  0  0  0  0  # atno 8008 bound_to 7997
  154.9379  140.3048  155.5115 H   0  0  0  0  0  0  0  0  0  0  0  0  # atno 8009 bound_to 7997
  156.2971  140.2311  156.4445 H   0  0  0  0  0  0  0  0  0  0  0  0  # atno 8010 bound_to 7997
  140.2365  143.3569  152.0840 H   0  0  0  0  0  0  0  0  0  0  0  0  # atno 10167 bound_to 10162
  157.3876  131.1000  151.0678 H   0  0  0  0  0  0  0  0  0  0  0  0  # atno 10718 bound_to 10713
  154.8388  135.3416  154.6487 H   0  0  0  0  0  0  0  0  0  0  0  0  # atno 10763 bound_to 10752
  153.7100  135.6964  153.5044 H   0  0  0  0  0  0  0  0  0  0  0  0  # atno 10764 bound_to 10752
  153.2459  135.4369  155.0700 H   0  0  0  0  0  0  0  0  0  0  0  0  # atno 10765 bound_to 10752
  140.2598  134.7911  157.3580 H   0  0  0  0  0  0  0  0  0  0  0  0  # atno 11005 bound_to 11000
  146.0749  140.7829  142.9670 LP  0  0  0  0  0  0  0  0  0  0  0  0  # atno 17320 bound_to 7965
  144.6953  140.3398  143.7201 LP  0  0  0  0  0  0  0  0  0  0  0  0  # atno 17321 bound_to 7965
  139.5092  144.6863  151.5879 LP  0  0  0  0  0  0  0  0  0  0  0  0  # atno 17342 bound_to 10162
  140.6146  143.9372  150.6479 LP  0  0  0  0  0  0  0  0  0  0  0  0  # atno 17343 bound_to 10162
  157.1723  130.6273  149.5644 LP  0  0  0  0  0  0  0  0  0  0  0  0  # atno 17370 bound_to 10713
  155.9790  130.4781  150.6692 LP  0  0  0  0  0  0  0  0  0  0  0  0  # atno 17371 bound_to 10713
  140.1475  134.4892  155.7985 LP  0  0  0  0  0  0  0  0  0  0  0  0  # atno 17394 bound_to 11000
  141.2191  133.6849  156.7320 LP  0  0  0  0  0  0  0  0  0  0  0  0  # atno 17395 bound_to 11000

$$$$
