AV-unprocessed.smi:1047|AV-procd|sdf|4585|dock1
  -GOLD-   22720 3 53D 1   1.00000     0.00000
 Structure written by MMmdl.
 58 60  0  0  0  0  0  0  0  0  4 V2000
  146.5341  143.1016  153.5776 C   0  0  0  0  0  0  0  0  0  0  0  0
  147.2969  141.7690  153.5799 C   0  0  0  0  0  0  0  0  0  0  0  0
  146.3889  140.5932  153.6529 N   0  3  2  0  0  0  0  0  0  0  0  0
  145.4821  140.6178  154.8262 C   0  0  0  0  0  0  0  0  0  0  0  0
  146.2185  140.1883  156.1076 C   0  0  0  0  0  0  0  0  0  0  0  0
  146.7873  138.8980  155.9175 O   0  0  0  0  0  0  0  0  0  0  0  0
  147.7540  138.8735  154.8717 C   0  0  1  0  0  0  0  0  0  0  0  0
  148.3398  137.4549  154.7992 C   0  0  0  0  0  0  0  0  0  0  0  0
  149.5092  137.3982  153.8988 N   0  3  0  0  0  0  0  0  0  0  0  0
  150.5613  138.3849  154.2171 C   0  0  0  0  0  0  0  0  0  0  0  0
  151.1335  138.1625  155.6272 C   0  0  1  0  0  0  0  0  0  0  0  0
  151.7342  136.8831  155.6750 O   0  0  0  0  0  0  0  0  0  0  0  0
  152.1747  139.2374  155.9968 C   0  0  0  0  0  0  0  0  0  0  0  0
  151.5654  140.4975  156.4480 N   0  0  0  0  0  0  0  0  0  0  0  0
  150.7116  141.3312  155.7933 C   0  0  0  0  0  0  0  0  0  0  0  0
  150.4419  142.3778  156.6215 N   0  3  0  0  0  0  0  0  0  0  0  0
  151.1350  142.2127  157.8222 C   0  0  0  0  0  0  0  0  0  0  0  0
  151.1827  143.0079  158.9607 C   0  0  0  0  0  0  0  0  0  0  0  0
  151.9917  142.5582  160.0283 C   0  0  0  0  0  0  0  0  0  0  0  0
  152.0679  143.4057  161.2870 C   0  0  0  0  0  0  0  0  0  0  0  0
  152.7181  141.3432  159.9319 C   0  0  0  0  0  0  0  0  0  0  0  0
  153.5823  140.8679  161.0876 C   0  0  0  0  0  0  0  0  0  0  0  0
  152.6571  140.5489  158.7643 C   0  0  0  0  0  0  0  0  0  0  0  0
  151.8574  141.0075  157.7196 C   0  0  0  0  0  0  0  0  0  0  0  0
  147.0629  139.2729  153.5482 C   0  0  0  0  0  0  0  0  0  0  0  0
  147.2289  143.9400  153.6298 H   0  0  0  0  0  0  0  0  0  0  0  0
  145.8659  143.1752  154.4362 H   0  0  0  0  0  0  0  0  0  0  0  0
  145.9394  143.2342  152.6744 H   0  0  0  0  0  0  0  0  0  0  0  0
  147.9529  141.7045  152.7121 H   0  0  0  0  0  0  0  0  0  0  0  0
  147.9488  141.7658  154.4543 H   0  0  0  0  0  0  0  0  0  0  0  0
  145.0320  141.6037  154.9478 H   0  0  0  0  0  0  0  0  0  0  0  0
  144.6583  139.9283  154.6367 H   0  0  0  0  0  0  0  0  0  0  0  0
  146.9916  140.9072  156.3824 H   0  0  0  0  0  0  0  0  0  0  0  0
  145.5188  140.1432  156.9424 H   0  0  0  0  0  0  0  0  0  0  0  0
  148.5590  139.5739  155.1001 H   0  0  0  0  0  0  0  0  0  0  0  0
  148.6254  137.1131  155.7950 H   0  0  0  0  0  0  0  0  0  0  0  0
  147.5833  136.7627  154.4269 H   0  0  0  0  0  0  0  0  0  0  0  0
  149.9118  136.4730  153.9419 H   0  0  0  0  0  0  0  0  0  0  0  0
  151.3559  138.3320  153.4709 H   0  0  0  0  0  0  0  0  0  0  0  0
  150.1273  139.3834  154.1497 H   0  0  0  0  0  0  0  0  0  0  0  0
  150.3234  138.1880  156.3576 H   0  0  0  0  0  0  0  0  0  0  0  0
  151.0755  136.2506  155.9200 H   0  0  0  0  0  0  0  0  0  0  0  0
  152.8656  138.8763  156.7590 H   0  0  0  0  0  0  0  0  0  0  0  0
  152.7850  139.4754  155.1247 H   0  0  0  0  0  0  0  0  0  0  0  0
  150.3213  141.1916  154.7952 H   0  0  0  0  0  0  0  0  0  0  0  0
  150.6260  143.9315  159.0278 H   0  0  0  0  0  0  0  0  0  0  0  0
  153.0963  143.7120  161.4807 H   0  0  0  0  0  0  0  0  0  0  0  0
  151.7042  142.8460  162.1490 H   0  0  0  0  0  0  0  0  0  0  0  0
  151.4635  144.3089  161.1973 H   0  0  0  0  0  0  0  0  0  0  0  0
  154.0560  139.9113  160.8652 H   0  0  0  0  0  0  0  0  0  0  0  0
  152.9817  140.7398  161.9885 H   0  0  0  0  0  0  0  0  0  0  0  0
  154.3718  141.5898  161.2970 H   0  0  0  0  0  0  0  0  0  0  0  0
  153.2096  139.6235  158.6956 H   0  0  0  0  0  0  0  0  0  0  0  0
  146.3027  138.5303  153.3013 H   0  0  0  0  0  0  0  0  0  0  0  0
  147.7725  139.2600  152.7218 H   0  0  0  0  0  0  0  0  0  0  0  0
  149.1954  137.5698  152.9536 H   0  0  0  0  0  0  0  0  0  0  0  0
  145.7906  140.6757  152.8428 H   0  0  0  0  0  0  0  0  0  0  0  0
  149.8326  143.1494  156.3806 H   0  0  0  0  0  0  0  0  0  0  0  0
  1  2  1  0  0  0  0
  1 26  1  0  0  0  0
  1 27  1  0  0  0  0
  1 28  1  0  0  0  0
  2  3  1  0  0  0  0
  2 29  1  0  0  0  0
  2 30  1  0  0  0  0
  3 25  1  0  0  0  0
  3  4  1  0  0  0  0
  3 57  1  0  0  0  0
  4  5  1  0  0  0  0
  4 31  1  0  0  0  0
  4 32  1  0  0  0  0
  5  6  1  0  0  0  0
  5 33  1  0  0  0  0
  5 34  1  0  0  0  0
  6  7  1  0  0  0  0
  7  8  1  0  0  0  0
  7 25  1  0  0  0  0
  7 35  1  0  0  0  0
  8  9  1  0  0  0  0
  8 36  1  0  0  0  0
  8 37  1  0  0  0  0
  9 10  1  0  0  0  0
  9 38  1  0  0  0  0
  9 56  1  0  0  0  0
 10 11  1  0  0  0  0
 10 39  1  0  0  0  0
 10 40  1  0  0  0  0
 11 12  1  0  0  0  0
 11 13  1  0  0  0  0
 11 41  1  0  0  0  0
 12 42  1  0  0  0  0
 13 14  1  0  0  0  0
 13 43  1  0  0  0  0
 13 44  1  0  0  0  0
 14 24  1  0  0  0  0
 14 15  1  0  0  0  0
 15 16  2  0  0  0  0
 15 45  1  0  0  0  0
 16 17  1  0  0  0  0
 16 58  1  0  0  0  0
 17 24  2  0  0  0  0
 17 18  1  0  0  0  0
 18 19  2  0  0  0  0
 18 46  1  0  0  0  0
 19 20  1  0  0  0  0
 19 21  1  0  0  0  0
 20 47  1  0  0  0  0
 20 48  1  0  0  0  0
 20 49  1  0  0  0  0
 21 22  1  0  0  0  0
 21 23  2  0  0  0  0
 22 50  1  0  0  0  0
 22 51  1  0  0  0  0
 22 52  1  0  0  0  0
 23 24  1  0  0  0  0
 23 53  1  0  0  0  0
 25 54  1  0  0  0  0
 25 55  1  0  0  0  0
M  CHG  1   3   1
M  CHG  1   9   1
M  CHG  1  16   1
M  END
> <s_m_source_file>
AV-unprocessed.smi

> <i_m_source_file_index>
1047

> <i_lp_mmshare_version>
43012

> <i_f3d_flags>
0

> <s_epik_input>
W0NIM11bQ0gyXU4xW0NIMl1bQ0gyXU9bQ0BIXShbQ0gyXTEpW0NIMl1bTkhdW0NIMl1bQ0BIXShbT0hdKVtDSDJdbihbY0hdbjIpYyhjMjMpW2NIXWMoW0NIM10pYyhbY0hdMylbQ0gzXQ==

> <s_epik_cmdline>
J2VwaWtfcHl0aG9uJywgJy1waCcsICc3LjAnLCAnLXRuJywgJzgnLCAnLW1hJywgJzIwMCcsICctbWV0YWxfYmluZGluZycsICctaW1hZScsICc8aW5maWxlLm1hZT4nLCAnLW9tYWUnLCAnPG91dGZpbGUubWFlPic=

> <r_epik_Ionization_Penalty>
1.6114

> <r_epik_Ionization_Penalty_Charging>
1.61139

> <r_epik_Ionization_Penalty_Neutral>
5.04732e-06

> <r_epik_State_Penalty>
1.63724

> <r_epik_Charging_Adjusted_Penalty>
3.24864

> <i_epik_Tot_Q>
3

> <i_epik_Tot_abs_Q>
3

> <r_epik_Metal_State_Penalty>
5.64594

> <b_epik_Metal_Only>
0

> <s_lp_Force_Field>
OPLS_2005

> <r_lp_Energy>
39.6477

> <b_lp_Chiralities_Consistent>
1

> <s_lp_Variant>
AV-unprocessed.smi:1047-26

> <Gold.Version>
5.8.1

> <Gold.Id.Protein>
6NUR|6NUR_protein|mol2

> <Gold.PLP.Fitness>
64.1572

> <Gold.PLP.PLP>
-45.9007

> <Gold.PLP.part.hbond>
-4.0000

> <Gold.PLP.part.metal>
0.0000

> <Gold.PLP.part.buried>
-6.8922

> <Gold.PLP.part.nonpolar>
-36.4741

> <Gold.PLP.part.repulsive>
0.0692

> <Gold.PLP.ligand.clash>
0.0000

> <Gold.PLP.ligand.torsion>
0.2748

> <Gold.PLP.Chemscore.Hbond>
6.2010

> <Gold.PLP.Chemscore.CHOScore>
0.0000

> <Gold.PLP.Chemscore.Metal>
0.0000

> <Gold.Chemscore.Hbonds>
donor molecule, donor type, donor heavy atom, donor atom, acceptor molecule, acceptor atom, score
      L1  H     3    57       P1 10175  1.05
      L1  H     9    56       P1  7948  0.80
      L1  H    16    58       P1  8028  2.00
      P1  H 10752 10763       L1    12  0.79

> <Gold.PLP.Chemscore.Internal.Correction>
0.2031

> <Gold.Rescore>
     Score         DG    S(hbond)    S(metal)    S(lipo)     H(rot)  DE(clash)    DE(int)     intcor
     21.67     -22.17       3.19        0.00     112.37       2.78       0.24       0.26       ----

> <Gold.Chemscore.Fitness>
21.6720

> <Gold.Chemscore.DG>
-22.1680

> <Gold.Chemscore.ZeroCoef>
-5.4800

> <Gold.Chemscore.Hbond>
3.1944

> <Gold.Chemscore.Metal>
0.0000

> <Gold.Chemscore.Lipo>
112.3739

> <Gold.Chemscore.Internal_Hbond>
0.0000

> <Gold.Chemscore.DEClash>
0.2402

> <Gold.Chemscore.DEInternal>
0.2558

> <Gold.Chemscore.Rot>
2.7848

> <Gold.Chemscore.Internal.Correction>
   9.000000E+99

> <Gold.Chemscore.Hbonds>
donor molecule, donor type, donor heavy atom, donor atom, acceptor molecule, acceptor atom, score
      L1  H     3    57       P1 10175  0.29
      L1  H     9    56       P1  7948  0.39
      L1  H    16    58       P1  8028  0.98
      P1  H 10752 10763       L1    12  0.11

> <Gold.Chemscore.Hbond.Weighted>
-10.6693

> <Gold.Chemscore.Metal.Weighted>
-0.0000

> <Gold.Chemscore.Lipo.Weighted>
-13.1477

> <Gold.Chemscore.Internal_Hbond.Weighted>
0.0000

> <Gold.Chemscore.DEClash.Weighted>
0.2402

> <Gold.Chemscore.DEInternal.Weighted>
0.2558

> <Gold.Chemscore.Rot.Weighted>
7.1291

> <Gold.Chemscore.Internal.Correction.Weighted>
   9.000000E+99

> <Gold.Protein.RotatedTorsions>
[ 6907 6896 6895 6894 ] final  -63.50 input  -60.11 | X-H torsion
[ 7974 7965 7964 7962 ] final   85.07 input  175.53 | X-H torsion
[ 8008 7997 7996 7995 ] final  -99.23 input   59.86 | X-H torsion
[ 10167 10162 10161 10158 ] final   94.59 input  -65.29 | X-H torsion
[ 10718 10713 10712 10709 ] final   33.41 input   66.30 | X-H torsion
[ 10763 10752 10751 10750 ] final   73.55 input  -60.55 | X-H torsion
[ 11005 11000 10999 10996 ] final -175.55 input  -57.11 | X-H torsion

> <Gold.Protein.ActiveResidues>
 VAL166  LYS551  ARG553  GLY616  TRP617  ASP618  TYR619  PRO620  LYS621  CYS622 
 ASP623  PHE694  ASN695  SER759  ASP760  ASP761  ALA762  ILE779  LEU786  VAL792 
 PHE793  MET794  SER795  GLU796  ALA797  LYS798  CYS799  TRP800  GLU811  SER814 

> <Gold.Protein.RotatedAtoms>
  150.7645  134.6427  159.6245 H   0  0  0  0  0  0  0  0  0  0  0  0  # atno 6907 bound_to 6896
  152.3670  134.6787  160.0197 H   0  0  0  0  0  0  0  0  0  0  0  0  # atno 6908 bound_to 6896
  151.7159  133.3277  159.3339 H   0  0  0  0  0  0  0  0  0  0  0  0  # atno 6909 bound_to 6896
  145.5904  139.2337  143.2302 H   0  0  0  0  0  0  0  0  0  0  0  0  # atno 7974 bound_to 7965
  154.8120  140.0449  157.1349 H   0  0  0  0  0  0  0  0  0  0  0  0  # atno 8008 bound_to 7997
  154.9357  140.3046  155.5125 H   0  0  0  0  0  0  0  0  0  0  0  0  # atno 8009 bound_to 7997
  156.2972  140.2315  156.4422 H   0  0  0  0  0  0  0  0  0  0  0  0  # atno 8010 bound_to 7997
  139.8069  144.6790  150.9691 H   0  0  0  0  0  0  0  0  0  0  0  0  # atno 10167 bound_to 10162
  157.2974  130.7333  149.6647 H   0  0  0  0  0  0  0  0  0  0  0  0  # atno 10718 bound_to 10713
  153.0529  135.5058  154.7911 H   0  0  0  0  0  0  0  0  0  0  0  0  # atno 10763 bound_to 10752
  154.6759  135.2960  154.9681 H   0  0  0  0  0  0  0  0  0  0  0  0  # atno 10764 bound_to 10752
  154.0484  135.6707  153.4850 H   0  0  0  0  0  0  0  0  0  0  0  0  # atno 10765 bound_to 10752
  140.4620  134.6246  157.4846 H   0  0  0  0  0  0  0  0  0  0  0  0  # atno 11005 bound_to 11000
  146.1651  140.6731  142.9259 LP  0  0  0  0  0  0  0  0  0  0  0  0  # atno 17320 bound_to 7965
  144.7354  140.4792  143.6908 LP  0  0  0  0  0  0  0  0  0  0  0  0  # atno 17321 bound_to 7965
  140.7819  143.4224  151.0821 LP  0  0  0  0  0  0  0  0  0  0  0  0  # atno 17342 bound_to 10162
  139.7893  143.8242  152.3149 LP  0  0  0  0  0  0  0  0  0  0  0  0  # atno 17343 bound_to 10162
  155.9670  130.4290  150.4814 LP  0  0  0  0  0  0  0  0  0  0  0  0  # atno 17370 bound_to 10713
  157.2788  131.0602  151.2211 LP  0  0  0  0  0  0  0  0  0  0  0  0  # atno 17371 bound_to 10713
  139.9939  134.6941  155.9642 LP  0  0  0  0  0  0  0  0  0  0  0  0  # atno 17394 bound_to 11000
  141.1617  133.6538  156.4341 LP  0  0  0  0  0  0  0  0  0  0  0  0  # atno 17395 bound_to 11000

$$$$
