#       Name:                AV-unprocessed.smi:69
#       Creating user name   scv26
#       Creation time:       Thu Mar 26 16:56:03 2020


#       File generated by GOLD software.
#

@<TRIPOS>MOLECULE
AV-unprocessed.smi:69
    43    45     1
SMALL
NO_CHARGES


@<TRIPOS>ATOM
      1 ****        -5.1279   0.3446  -0.1239 N.pl3          1 S1                 0.0000
      2 ****        -3.8046   0.5499  -0.0700 C.ar           1 S1                 0.0000
      3 ****        -3.3570   1.8158   0.1023 N.ar           1 S1                 0.0000
      4 ****        -2.0413   2.0471   0.1575 C.ar           1 S1                 0.0000
      5 ****        -1.0349   1.1738   0.0653 N.ar           1 S1                 0.0000
      6 ****        -1.4880  -0.1026  -0.1072 C.ar           1 S1                 0.0000
      7 ****        -2.8530  -0.4950  -0.1856 C.ar           1 S1                 0.0000
      8 ****        -2.9408  -1.8687  -0.3654 N.2            1 S1                 0.0000
      9 ****        -1.6954  -2.2619  -0.3921 C.2            1 S1                 0.0000
     10 ****        -0.7557  -1.2652  -0.2401 N.pl3          1 S1                 0.0000
     11 ****         0.7328  -1.4063  -0.2309 C.3            1 S1                 0.0000
     12 ****         1.2615  -0.4370  -1.0821 O.3            1 S1                 0.0000
     13 ****         2.4208   0.1393  -0.4930 C.3            1 S1                 0.0000
     14 ****         2.6563   1.5405  -1.0774 C.3            1 S1                 0.0000
     15 ****         3.3460   1.4440  -2.3053 O.3            1 S1                 0.0000
     16 ****         2.0664   0.1488   0.9951 C.3            1 S1                 0.0000
     17 ****         3.2057   0.2585   1.8286 O.3            1 S1                 0.0000
     18 ****         1.3018  -1.1615   1.1779 C.3            1 S1                 0.0000
     19 ****         2.1495  -2.2250   1.5742 O.3            1 S1                 0.0000
     20 ****         0.9242  -2.4082  -0.6195 H              1 S1                 0.0000
     21 ****         3.2780  -0.5152  -0.6643 H              1 S1                 0.0000
     22 ****         1.4012   0.9856   1.2085 H              1 S1                 0.0000
     23 ****         0.5027  -1.0613   1.9140 H              1 S1                 0.0000
     24 ****        -5.4866  -0.5908  -0.2524 H              1 S1                 0.0000
     25 ****        -5.7630   1.1248  -0.0390 H              1 S1                 0.0000
     26 ****        -1.7534   3.0787   0.2962 H              1 S1                 0.0000
     27 ****        -1.4265  -3.3002  -0.5223 H              1 S1                 0.0000
     28 ****         1.7166   2.0787  -1.2083 H              1 S1                 0.0000
     29 ****         3.2754   2.1303  -0.4010 H              1 S1                 0.0000
     30 ****         3.4866   2.3163  -2.6404 H              1 S1                 0.0000
     31 ****         2.9253   0.1906   2.7287 H              1 S1                 0.0000
     32 ****         2.8759  -2.2680   0.9710 H              1 S1                 0.0000
     33 ****        -4.0055   2.5722   0.1877 LP             1 S1                 0.0000
     34 ****        -0.0680   1.4241   0.1164 LP             1 S1                 0.0000
     35 ****        -3.7655  -2.4273  -0.4539 LP             1 S1                 0.0000
     36 ****         0.5785   0.2765  -1.2379 LP             1 S1                 0.0000
     37 ****         1.5073  -0.8594  -1.9545 LP             1 S1                 0.0000
     38 ****         2.8016   0.9161  -2.9572 LP             1 S1                 0.0000
     39 ****         4.2264   0.9916  -2.1628 LP             1 S1                 0.0000
     40 ****         3.6496   1.1420   1.6791 LP             1 S1                 0.0000
     41 ****         3.8494  -0.4776   1.6191 LP             1 S1                 0.0000
     42 ****         1.6424  -3.0866   1.5542 LP             1 S1                 0.0000
     43 ****         2.4888  -2.0594   2.5002 LP             1 S1                 0.0000
@<TRIPOS>BOND
    1    1    2 1     
    2    1   24 1     
    3    1   25 1     
    4    2    7 ar    
    5    2    3 ar    
    6    3    4 ar    
    7    4    5 ar    
    8    4   26 1     
    9    5    6 ar    
   10    6   10 1     
   11    6    7 ar    
   12    7    8 1     
   13    8    9 2     
   14    9   10 1     
   15    9   27 1     
   16   10   11 1     
   17   11   20 1     
   18   11   18 1     
   19   11   12 1     
   20   12   13 1     
   21   13   21 1     
   22   13   14 1     
   23   13   16 1     
   24   14   15 1     
   25   14   28 1     
   26   14   29 1     
   27   15   30 1     
   28   16   22 1     
   29   16   17 1     
   30   16   18 1     
   31   17   31 1     
   32   18   23 1     
   33   18   19 1     
   34   19   32 1     
   35    3   33 1     
   36    5   34 1     
   37    8   35 1     
   38   12   36 1     
   39   12   37 1     
   40   15   38 1     
   41   15   39 1     
   42   17   40 1     
   43   17   41 1     
   44   19   42 1     
   45   19   43 1     
@<TRIPOS>SUBSTRUCTURE
      1 S1             1
@<TRIPOS>SET
LONE_PAIRS      STATIC     ATOMS    <user>   **** ""
11 33 34 35 36 37 38 39 40 41 42 43
DONOR_HYDROGENS      STATIC     ATOMS    <user>   **** ""
5 24 25 30 31 32
ATOM$BLUE        STATIC     ATOMS    COLORGROUP SYSTEM
11 33 34 35 36 37 38 39 40 41 42 43
ATOM$RED        STATIC     ATOMS    COLORGROUP SYSTEM
5 24 25 30 31 32
