AV-unprocessed.smi:3290|AV-procd|sdf|12611|dock4
  -GOLD-   2272018543D 1   1.00000     0.00000
 Structure written by MMmdl.
 43 44  0  0  0  0  0  0  0  0  2 V2000
  152.5600  141.1255  159.7815 C   0  0  0  0  0  0  0  0  0  0  0  0
  152.4004  142.6156  159.4287 C   0  0  2  0  0  0  0  0  0  0  0  0
  152.3724  143.4500  160.7272 C   0  0  0  0  0  0  0  0  0  0  0  0
  152.2648  144.9545  160.4452 C   0  0  0  0  0  0  0  0  0  0  0  0
  151.0326  145.2596  159.5872 C   0  0  0  0  0  0  0  0  0  0  0  0
  151.0597  144.4459  158.2862 C   0  0  0  0  0  0  0  0  0  0  0  0
  151.1539  142.9253  158.5464 C   0  0  1  0  0  0  0  0  0  0  0  0
  151.1510  142.1775  157.1937 C   0  0  0  0  0  0  0  0  0  0  0  0
  149.8251  142.1990  156.5440 N   0  3  0  0  0  0  0  0  0  0  0  0
  149.6379  141.1469  155.5249 C   0  0  0  0  0  0  0  0  0  0  0  0
  148.5826  141.5506  154.4810 C   0  0  2  0  0  0  0  0  0  0  0  0
  147.6385  142.4067  155.0954 O   0  0  0  0  0  0  0  0  0  0  0  0
  147.9210  140.3246  153.8714 C   0  0  0  0  0  0  0  0  0  0  0  0
  148.2848  139.0295  154.2964 C   0  0  0  0  0  0  0  0  0  0  0  0
  147.6384  137.9216  153.7121 C   0  0  0  0  0  0  0  0  0  0  0  0
  146.6833  138.0354  152.7649 N   0  0  0  0  0  0  0  0  0  0  0  0
  146.3372  139.2768  152.3622 C   0  0  0  0  0  0  0  0  0  0  0  0
  146.9213  140.4492  152.8818 C   0  0  0  0  0  0  0  0  0  0  0  0
  151.6628  140.7306  160.2594 H   0  0  0  0  0  0  0  0  0  0  0  0
  153.3926  140.9744  160.4691 H   0  0  0  0  0  0  0  0  0  0  0  0
  152.7730  140.5207  158.9008 H   0  0  0  0  0  0  0  0  0  0  0  0
  153.2903  142.9115  158.8706 H   0  0  0  0  0  0  0  0  0  0  0  0
  151.5319  143.1373  161.3487 H   0  0  0  0  0  0  0  0  0  0  0  0
  153.2730  143.2609  161.3126 H   0  0  0  0  0  0  0  0  0  0  0  0
  152.2115  145.5070  161.3838 H   0  0  0  0  0  0  0  0  0  0  0  0
  153.1647  145.2981  159.9334 H   0  0  0  0  0  0  0  0  0  0  0  0
  150.1263  145.0279  160.1480 H   0  0  0  0  0  0  0  0  0  0  0  0
  150.9927  146.3254  159.3598 H   0  0  0  0  0  0  0  0  0  0  0  0
  150.1620  144.6724  157.7096 H   0  0  0  0  0  0  0  0  0  0  0  0
  151.9047  144.7680  157.6757 H   0  0  0  0  0  0  0  0  0  0  0  0
  150.2566  142.6393  159.0984 H   0  0  0  0  0  0  0  0  0  0  0  0
  151.8522  142.6481  156.5029 H   0  0  0  0  0  0  0  0  0  0  0  0
  151.4885  141.1490  157.3290 H   0  0  0  0  0  0  0  0  0  0  0  0
  149.1198  142.0720  157.2561 H   0  0  0  0  0  0  0  0  0  0  0  0
  150.5949  140.9685  155.0320 H   0  0  0  0  0  0  0  0  0  0  0  0
  149.3503  140.2142  156.0130 H   0  0  0  0  0  0  0  0  0  0  0  0
  149.0635  142.1167  153.6818 H   0  0  0  0  0  0  0  0  0  0  0  0
  148.0830  143.1950  155.3696 H   0  0  0  0  0  0  0  0  0  0  0  0
  149.0407  138.8813  155.0536 H   0  0  0  0  0  0  0  0  0  0  0  0
  147.8945  136.9173  154.0160 H   0  0  0  0  0  0  0  0  0  0  0  0
  145.5697  139.3383  151.6052 H   0  0  0  0  0  0  0  0  0  0  0  0
  146.6043  141.4190  152.5268 H   0  0  0  0  0  0  0  0  0  0  0  0
  149.6878  143.1013  156.1119 H   0  0  0  0  0  0  0  0  0  0  0  0
  1  2  1  0  0  0  0
  1 19  1  0  0  0  0
  1 20  1  0  0  0  0
  1 21  1  0  0  0  0
  2  7  1  0  0  0  0
  2  3  1  0  0  0  0
  2 22  1  0  0  0  0
  3  4  1  0  0  0  0
  3 23  1  0  0  0  0
  3 24  1  0  0  0  0
  4  5  1  0  0  0  0
  4 25  1  0  0  0  0
  4 26  1  0  0  0  0
  5  6  1  0  0  0  0
  5 27  1  0  0  0  0
  5 28  1  0  0  0  0
  6  7  1  0  0  0  0
  6 29  1  0  0  0  0
  6 30  1  0  0  0  0
  7  8  1  0  0  0  0
  7 31  1  0  0  0  0
  8  9  1  0  0  0  0
  8 32  1  0  0  0  0
  8 33  1  0  0  0  0
  9 10  1  0  0  0  0
  9 34  1  0  0  0  0
  9 43  1  0  0  0  0
 10 11  1  0  0  0  0
 10 35  1  0  0  0  0
 10 36  1  0  0  0  0
 11 12  1  0  0  0  0
 11 13  1  0  0  0  0
 11 37  1  0  0  0  0
 12 38  1  0  0  0  0
 13 18  1  0  0  0  0
 13 14  2  0  0  0  0
 14 15  1  0  0  0  0
 14 39  1  0  0  0  0
 15 16  2  0  0  0  0
 15 40  1  0  0  0  0
 16 17  1  0  0  0  0
 17 18  2  0  0  0  0
 17 41  1  0  0  0  0
 18 42  1  0  0  0  0
M  CHG  1   9   1
M  END
> <s_m_source_file>
AV-unprocessed.smi

> <i_m_source_file_index>
3290

> <i_lp_mmshare_version>
43012

> <i_f3d_flags>
0

> <s_epik_input>
W0NIM11bQ0BASF0xW0NIMl1bQ0gyXVtDSDJdW0NIMl1bQ0BIXTFbQ0gyXVtOSF1bQ0gyXVtDQEhdKFtPSF0pYzJbY0hdW2NIXW5bY0hdW2NIXTI=

> <s_epik_cmdline>
J2VwaWtfcHl0aG9uJywgJy1waCcsICc3LjAnLCAnLXRuJywgJzgnLCAnLW1hJywgJzIwMCcsICctbWV0YWxfYmluZGluZycsICctaW1hZScsICc8aW5maWxlLm1hZT4nLCAnLW9tYWUnLCAnPG91dGZpbGUubWFlPic=

> <r_lp_tautomer_probability>
1

> <r_epik_Ionization_Penalty>
0.00420552

> <r_epik_Ionization_Penalty_Charging>
0.00207255

> <r_epik_Ionization_Penalty_Neutral>
0.00213297

> <r_epik_State_Penalty>
-0

> <r_epik_Charging_Adjusted_Penalty>
0.00207255

> <i_epik_Tot_Q>
1

> <i_epik_Tot_abs_Q>
1

> <r_epik_Metal_State_Penalty>
-0

> <b_epik_Metal_Only>
0

> <s_lp_Force_Field>
OPLS_2005

> <r_lp_Energy>
17.3626

> <b_lp_Chiralities_Consistent>
1

> <s_lp_Variant>
AV-unprocessed.smi:3290-1

> <Gold.Version>
5.8.1

> <Gold.Id.Protein>
6NUR|6NUR_protein|mol2

> <Gold.PLP.Fitness>
50.4384

> <Gold.PLP.PLP>
-36.7060

> <Gold.PLP.part.hbond>
-2.0000

> <Gold.PLP.part.metal>
0.0000

> <Gold.PLP.part.buried>
2.7310

> <Gold.PLP.part.nonpolar>
-38.4704

> <Gold.PLP.part.repulsive>
1.5638

> <Gold.PLP.ligand.clash>
0.0000

> <Gold.PLP.ligand.torsion>
0.6735

> <Gold.PLP.Chemscore.Hbond>
3.0000

> <Gold.PLP.Chemscore.CHOScore>
2.0042

> <Gold.PLP.Chemscore.Metal>
0.0000

> <Gold.Chemscore.Hbonds>
donor molecule, donor type, donor heavy atom, donor atom, acceptor molecule, acceptor atom, score
      L1  H     9    43       P1  8028  2.00
      L1  H    12    38       P1  8028  1.00
      L1  C    15    40       P1  7948  0.33
      L1  C    17    41       P1 10171  0.93
      L1  C    17    41       P1 10175  0.62

> <Gold.PLP.Chemscore.Internal.Correction>
0.0667

> <Gold.Rescore>
     Score         DG    S(hbond)    S(metal)    S(lipo)     H(rot)  DE(clash)    DE(int)     intcor
     20.08     -21.48       1.96        0.00     125.69       2.05       0.50       0.91       ----

> <Gold.Chemscore.Fitness>
20.0785

> <Gold.Chemscore.DG>
-21.4818

> <Gold.Chemscore.ZeroCoef>
-5.4800

> <Gold.Chemscore.Hbond>
1.9593

> <Gold.Chemscore.Metal>
0.0000

> <Gold.Chemscore.Lipo>
125.6861

> <Gold.Chemscore.Internal_Hbond>
0.0000

> <Gold.Chemscore.DEClash>
0.4962

> <Gold.Chemscore.DEInternal>
0.9071

> <Gold.Chemscore.Rot>
2.0498

> <Gold.Chemscore.Internal.Correction>
   9.000000E+99

> <Gold.Chemscore.Hbonds>
donor molecule, donor type, donor heavy atom, donor atom, acceptor molecule, acceptor atom, score
      L1  H     9    43       P1  8028  1.00
      L1  H    12    38       P1  8028  0.85

> <Gold.Chemscore.Hbond.Weighted>
-6.5440

> <Gold.Chemscore.Metal.Weighted>
-0.0000

> <Gold.Chemscore.Lipo.Weighted>
-14.7053

> <Gold.Chemscore.Internal_Hbond.Weighted>
0.0000

> <Gold.Chemscore.DEClash.Weighted>
0.4962

> <Gold.Chemscore.DEInternal.Weighted>
0.9071

> <Gold.Chemscore.Rot.Weighted>
5.2475

> <Gold.Chemscore.Internal.Correction.Weighted>
   9.000000E+99

> <Gold.Protein.RotatedTorsions>
[ 6907 6896 6895 6894 ] final   40.81 input  -60.11 | X-H torsion
[ 7974 7965 7964 7962 ] final  119.44 input  175.53 | X-H torsion
[ 8008 7997 7996 7995 ] final    1.26 input   59.86 | X-H torsion
[ 10167 10162 10161 10158 ] final   90.69 input  -65.29 | X-H torsion
[ 10718 10713 10712 10709 ] final  -75.25 input   66.30 | X-H torsion
[ 10763 10752 10751 10750 ] final -165.53 input  -60.55 | X-H torsion
[ 11005 11000 10999 10996 ] final  -95.07 input  -57.11 | X-H torsion

> <Gold.Protein.ActiveResidues>
 VAL166  LYS551  ARG553  GLY616  TRP617  ASP618  TYR619  PRO620  LYS621  CYS622 
 ASP623  PHE694  ASN695  SER759  ASP760  ASP761  ALA762  ILE779  LEU786  VAL792 
 PHE793  MET794  SER795  GLU796  ALA797  LYS798  CYS799  TRP800  GLU811  SER814 

> <Gold.Protein.RotatedAtoms>
  152.1873  134.8703  160.0520 H   0  0  0  0  0  0  0  0  0  0  0  0  # atno 6907 bound_to 6896
  151.9605  133.3689  159.4041 H   0  0  0  0  0  0  0  0  0  0  0  0  # atno 6908 bound_to 6896
  150.6928  134.4169  159.5231 H   0  0  0  0  0  0  0  0  0  0  0  0  # atno 6909 bound_to 6896
  145.1431  139.3256  143.4605 H   0  0  0  0  0  0  0  0  0  0  0  0  # atno 7974 bound_to 7965
  154.6777  140.2626  155.6941 H   0  0  0  0  0  0  0  0  0  0  0  0  # atno 8008 bound_to 7997
  156.2684  140.2816  156.1232 H   0  0  0  0  0  0  0  0  0  0  0  0  # atno 8009 bound_to 7997
  155.1077  140.0375  157.2705 H   0  0  0  0  0  0  0  0  0  0  0  0  # atno 8010 bound_to 7997
  139.8448  144.6623  150.9239 H   0  0  0  0  0  0  0  0  0  0  0  0  # atno 10167 bound_to 10162
  156.0214  130.4436  150.3015 H   0  0  0  0  0  0  0  0  0  0  0  0  # atno 10718 bound_to 10713
  154.6923  135.2973  154.9462 H   0  0  0  0  0  0  0  0  0  0  0  0  # atno 10763 bound_to 10752
  154.0421  135.6656  153.4795 H   0  0  0  0  0  0  0  0  0  0  0  0  # atno 10764 bound_to 10752
  153.0621  135.5110  154.8022 H   0  0  0  0  0  0  0  0  0  0  0  0  # atno 10765 bound_to 10752
  141.1452  133.8000  157.0385 H   0  0  0  0  0  0  0  0  0  0  0  0  # atno 11005 bound_to 11000
  146.3503  140.1476  142.8593 LP  0  0  0  0  0  0  0  0  0  0  0  0  # atno 17320 bound_to 7965
  145.0511  140.9018  143.4995 LP  0  0  0  0  0  0  0  0  0  0  0  0  # atno 17321 bound_to 7965
  140.7794  143.3880  151.1360 LP  0  0  0  0  0  0  0  0  0  0  0  0  # atno 17342 bound_to 10162
  139.7523  143.8760  152.3080 LP  0  0  0  0  0  0  0  0  0  0  0  0  # atno 17343 bound_to 10162
  157.1118  131.0223  151.3045 LP  0  0  0  0  0  0  0  0  0  0  0  0  # atno 17370 bound_to 10713
  157.4698  130.7702  149.7313 LP  0  0  0  0  0  0  0  0  0  0  0  0  # atno 17371 bound_to 10713
  140.0708  134.9703  157.1463 LP  0  0  0  0  0  0  0  0  0  0  0  0  # atno 17394 bound_to 11000
  140.3714  134.2386  155.7177 LP  0  0  0  0  0  0  0  0  0  0  0  0  # atno 17395 bound_to 11000

$$$$
