#       Name:                AV-unprocessed.smi:1815
#       Creating user name   scv26
#       Creation time:       Fri Mar 27 09:02:06 2020


#       File generated by GOLD software.
#

@<TRIPOS>MOLECULE
AV-unprocessed.smi:1815
    45    46     1
SMALL
NO_CHARGES


@<TRIPOS>ATOM
      1 ****        -2.0260  -0.2521  -0.1931 C.3            1 S1                 0.0000
      2 ****        -1.3611   0.7562  -1.1459 C.3            1 S1                 0.0000
      3 ****         0.1521   0.9060  -0.9044 C.3            1 S1                 0.0000
      4 ****         0.9093  -0.2587  -1.3617 N.3            1 S1                 0.0000
      5 ****         2.3438  -0.1366  -1.0904 C.3            1 S1                 0.0000
      6 ****         2.8043  -0.6825   0.2776 C.3            1 S1                 0.0000
      7 ****         2.3734   0.1341   1.4088 N.am           1 S1                 0.0000
      8 ****         1.3627  -0.1499   2.2446 C.2            1 S1                 0.0000
      9 ****         0.7225  -1.1954   2.1081 O.2            1 S1                 0.0000
     10 ****         1.1371   0.8090   3.1713 N.pl3          1 S1                -1.0000
     11 ****         0.0812   0.7052   3.9944 C.2            1 S1                 0.0000
     12 ****        -1.0828   1.3242   3.7651 N.2            1 S1                 0.0000
     13 ****        -2.0454   1.0776   4.7454 C.2            1 S1                 0.0000
     14 ****        -1.6013   0.2581   5.7488 C.2            1 S1                 0.0000
     15 ****         0.0496  -0.2303   5.4914 S.3            1 S1                 0.0000
     16 ****         0.6326  -0.4462  -2.7794 C.3            1 S1                 0.0000
     17 ****        -0.8712  -0.6600  -3.0377 C.3            1 S1                 0.0000
     18 ****        -1.1890  -0.7863  -4.5312 C.3            1 S1                 0.0000
     19 ****        -1.6103   0.4450  -2.5187 O.3            1 S1                 0.0000
     20 ****        -1.9017   0.0584   0.8451 H              1 S1                 0.0000
     21 ****        -1.5950  -1.2490  -0.2847 H              1 S1                 0.0000
     22 ****        -3.0951  -0.3287  -0.3903 H              1 S1                 0.0000
     23 ****        -1.8274   1.7242  -0.9610 H              1 S1                 0.0000
     24 ****         0.5046   1.7942  -1.4306 H              1 S1                 0.0000
     25 ****         0.3216   1.1026   0.1500 H              1 S1                 0.0000
     26 ****         2.8923  -0.7100  -1.8388 H              1 S1                 0.0000
     27 ****         2.6713   0.8956  -1.2235 H              1 S1                 0.0000
     28 ****         2.4946  -1.7226   0.3899 H              1 S1                 0.0000
     29 ****         3.8940  -0.6972   0.2983 H              1 S1                 0.0000
     30 ****         2.8656   1.0026   1.5574 H              1 S1                 0.0000
     31 ****        -3.0221   1.5277   4.6483 H              1 S1                 0.0000
     32 ****        -2.1398  -0.0858   6.6188 H              1 S1                 0.0000
     33 ****         0.9884   0.4170  -3.3443 H              1 S1                 0.0000
     34 ****         1.1823  -1.3116  -3.1514 H              1 S1                 0.0000
     35 ****        -1.1974  -1.5737  -2.5397 H              1 S1                 0.0000
     36 ****        -0.6595  -1.6296  -4.9750 H              1 S1                 0.0000
     37 ****        -0.9006   0.1144  -5.0738 H              1 S1                 0.0000
     38 ****        -2.2560  -0.9441  -4.6893 H              1 S1                 0.0000
     39 ****         0.6172  -1.0668  -0.8501 LP             1 S1                 0.0000
     40 ****         0.9564  -1.8327   1.3739 LP             1 S1                 0.0000
     41 ****        -0.0305  -1.4057   2.7318 LP             1 S1                 0.0000
     42 ****         1.7543   1.5924   3.2433 LP             1 S1                 0.0000
     43 ****        -1.2471   1.9066   2.9691 LP             1 S1                 0.0000
     44 ****        -1.3838   1.2517  -3.0643 LP             1 S1                 0.0000
     45 ****        -2.5839   0.2388  -2.6169 LP             1 S1                 0.0000
@<TRIPOS>BOND
    1    1    2 1     
    2    1   20 1     
    3    1   21 1     
    4    1   22 1     
    5    2   19 1     
    6    2    3 1     
    7    2   23 1     
    8    3    4 1     
    9    3   24 1     
   10    3   25 1     
   11    4    5 1     
   12    4   16 1     
   13    5    6 1     
   14    5   26 1     
   15    5   27 1     
   16    6    7 1     
   17    6   28 1     
   18    6   29 1     
   19    7    8 am    
   20    7   30 1     
   21    8    9 2     
   22    8   10 1     
   23   10   11 1     
   24   11   15 1     
   25   11   12 2     
   26   12   13 1     
   27   13   14 2     
   28   13   31 1     
   29   14   15 1     
   30   14   32 1     
   31   16   17 1     
   32   16   33 1     
   33   16   34 1     
   34   17   18 1     
   35   17   19 1     
   36   17   35 1     
   37   18   36 1     
   38   18   37 1     
   39   18   38 1     
   40    4   39 1     
   41    9   40 1     
   42    9   41 1     
   43   10   42 1     
   44   12   43 1     
   45   19   44 1     
   46   19   45 1     
@<TRIPOS>SUBSTRUCTURE
      1 S1             1
@<TRIPOS>SET
LONE_PAIRS      STATIC     ATOMS    <user>   **** ""
7 39 40 41 42 43 44 45
DONOR_HYDROGENS      STATIC     ATOMS    <user>   **** ""
1 30
ATOM$BLUE        STATIC     ATOMS    COLORGROUP SYSTEM
7 39 40 41 42 43 44 45
ATOM$RED        STATIC     ATOMS    COLORGROUP SYSTEM
1 30
