AV-unprocessed.smi:3282|AV-procd|sdf|12563|dock1
  -GOLD-   2272018483D 1   1.00000     0.00000
 Structure written by MMmdl.
 34 35  0  0  0  0  0  0  0  0  1 V2000
  154.2982  141.7046  160.4034 C   0  0  0  0  0  0  0  0  0  0  0  0
  153.3540  140.4926  160.3480 C   0  0  0  0  0  0  0  0  0  0  0  0
  152.8800  140.1416  158.9276 C   0  0  0  0  0  0  0  0  0  0  0  0
  153.1687  139.0489  158.4371 O   0  0  0  0  0  0  0  0  0  0  0  0
  152.1529  141.0574  158.2542 N   0  0  0  0  0  0  0  0  0  0  0  0
  151.7779  142.3546  158.8104 C   0  0  0  0  0  0  0  0  0  0  0  0
  150.7723  142.9575  157.8298 C   0  0  0  0  0  0  0  0  0  0  0  0
  151.0783  142.2789  156.4978 C   0  0  2  0  0  0  0  0  0  0  0  0
  149.8860  142.1714  155.6628 N   0  0  0  0  0  0  0  0  0  0  0  0
  149.6932  141.2553  154.7025 C   0  0  0  0  0  0  0  0  0  0  0  0
  150.5464  140.4030  154.4357 O   0  0  0  0  0  0  0  0  0  0  0  0
  148.4711  141.4571  154.0806 N   0  0  0  0  0  0  0  0  0  0  0  0
  147.9248  140.4757  153.4303 C   0  0  0  0  0  0  0  0  0  0  0  0
  148.3305  139.1684  153.1739 N   0  0  0  0  0  0  0  0  0  0  0  0
  147.3648  138.5639  152.4187 C   0  0  0  0  0  0  0  0  0  0  0  0
  146.3938  139.4472  152.2071 C   0  0  0  0  0  0  0  0  0  0  0  0
  146.7086  140.6262  152.8135 O   0  0  0  0  0  0  0  0  0  0  0  0
  151.6366  140.9055  156.8952 C   0  0  0  0  0  0  0  0  0  0  0  0
  154.5911  141.9172  161.4317 H   0  0  0  0  0  0  0  0  0  0  0  0
  153.8203  142.6009  160.0061 H   0  0  0  0  0  0  0  0  0  0  0  0
  155.2104  141.5260  159.8329 H   0  0  0  0  0  0  0  0  0  0  0  0
  153.8598  139.6255  160.7736 H   0  0  0  0  0  0  0  0  0  0  0  0
  152.4840  140.6935  160.9737 H   0  0  0  0  0  0  0  0  0  0  0  0
  151.3505  142.2650  159.8103 H   0  0  0  0  0  0  0  0  0  0  0  0
  152.6683  142.9814  158.8774 H   0  0  0  0  0  0  0  0  0  0  0  0
  149.7627  142.7049  158.1586 H   0  0  0  0  0  0  0  0  0  0  0  0
  150.8388  144.0444  157.7739 H   0  0  0  0  0  0  0  0  0  0  0  0
  151.8538  142.8517  155.9856 H   0  0  0  0  0  0  0  0  0  0  0  0
  149.1543  142.8490  155.8219 H   0  0  0  0  0  0  0  0  0  0  0  0
  149.1771  138.7058  153.4726 H   0  0  0  0  0  0  0  0  0  0  0  0
  147.4793  137.5369  152.1047 H   0  0  0  0  0  0  0  0  0  0  0  0
  145.4579  139.3940  151.6707 H   0  0  0  0  0  0  0  0  0  0  0  0
  152.4085  140.5837  156.1947 H   0  0  0  0  0  0  0  0  0  0  0  0
  150.8501  140.1489  156.9040 H   0  0  0  0  0  0  0  0  0  0  0  0
  1  2  1  0  0  0  0
  1 19  1  0  0  0  0
  1 20  1  0  0  0  0
  1 21  1  0  0  0  0
  2  3  1  0  0  0  0
  2 22  1  0  0  0  0
  2 23  1  0  0  0  0
  3  4  2  0  0  0  0
  3  5  1  0  0  0  0
  5 18  1  0  0  0  0
  5  6  1  0  0  0  0
  6  7  1  0  0  0  0
  6 24  1  0  0  0  0
  6 25  1  0  0  0  0
  7  8  1  0  0  0  0
  7 26  1  0  0  0  0
  7 27  1  0  0  0  0
  8  9  1  0  0  0  0
  8 18  1  0  0  0  0
  8 28  1  0  0  0  0
  9 29  1  0  0  0  0
  9 10  1  0  0  0  0
 10 12  1  0  0  0  0
 10 11  2  0  0  0  0
 12 13  2  0  0  0  0
 13 17  1  0  0  0  0
 13 14  1  0  0  0  0
 14 30  1  0  0  0  0
 14 15  1  0  0  0  0
 15 31  1  0  0  0  0
 15 16  2  0  0  0  0
 16 32  1  0  0  0  0
 16 17  1  0  0  0  0
 18 33  1  0  0  0  0
 18 34  1  0  0  0  0
M  END
> <s_m_source_file>
AV-unprocessed.smi

> <i_m_source_file_index>
3282

> <i_lp_mmshare_version>
43012

> <i_f3d_flags>
0

> <s_epik_input>
W0NIM11bQ0gyXUMoPU8pTjFbQ0gyXVtDSDJdW0NASF0oW0NIMl0xKVtOSF1DKD1PKVtOSF1jMm5bY0hdW2NIXW8y

> <s_epik_cmdline>
J2VwaWtfcHl0aG9uJywgJy1waCcsICc3LjAnLCAnLXRuJywgJzgnLCAnLW1hJywgJzIwMCcsICctbWV0YWxfYmluZGluZycsICctaW1hZScsICc8aW5maWxlLm1hZT4nLCAnLW9tYWUnLCAnPG91dGZpbGUubWFlPic=

> <r_lp_tautomer_probability>
0.107061

> <r_epik_Ionization_Penalty>
0.434703

> <r_epik_Ionization_Penalty_Charging>
0.434345

> <r_epik_Ionization_Penalty_Neutral>
0.000358141

> <r_epik_State_Penalty>
2.49584

> <r_epik_Charging_Adjusted_Penalty>
2.93019

> <i_epik_Tot_Q>
0

> <i_epik_Tot_abs_Q>
0

> <r_epik_Metal_State_Penalty>
4.06361

> <b_epik_Metal_Only>
0

> <s_lp_Force_Field>
OPLS_2005

> <r_lp_Energy>
50.3275

> <b_lp_Chiralities_Consistent>
1

> <s_lp_Variant>
AV-unprocessed.smi:3282-4

> <Gold.Version>
5.8.1

> <Gold.Id.Protein>
6NUR|6NUR_protein|mol2

> <Gold.PLP.Fitness>
40.0450

> <Gold.PLP.PLP>
-26.9007

> <Gold.PLP.part.hbond>
-3.7486

> <Gold.PLP.part.metal>
0.0000

> <Gold.PLP.part.buried>
3.6925

> <Gold.PLP.part.nonpolar>
-27.1951

> <Gold.PLP.part.repulsive>
2.0209

> <Gold.PLP.ligand.clash>
0.4790

> <Gold.PLP.ligand.torsion>
0.4370

> <Gold.PLP.Chemscore.Hbond>
2.0149

> <Gold.PLP.Chemscore.CHOScore>
2.8113

> <Gold.PLP.Chemscore.Metal>
0.0000

> <Gold.Chemscore.Hbonds>
donor molecule, donor type, donor heavy atom, donor atom, acceptor molecule, acceptor atom, score
      L1  H     9    29       P1  8028  0.78
      P1  H  7989  7998       L1    11  0.94
      P1  H  7997  8010       L1     4  0.28
      P1  H  8011  8017       L1    12  0.02
      L1  C    15    31       P1  7948  0.83
      L1  C    16    32       P1 10171  0.95
      L1  C    16    32       P1 10175  0.81

> <Gold.PLP.Chemscore.Internal.Correction>
0.0187

> <Gold.Rescore>
     Score         DG    S(hbond)    S(metal)    S(lipo)     H(rot)  DE(clash)    DE(int)     intcor
     11.35     -15.92       1.73        0.00      68.65       1.32       2.64       1.93       ----

> <Gold.Chemscore.Fitness>
11.3511

> <Gold.Chemscore.DG>
-15.9235

> <Gold.Chemscore.ZeroCoef>
-5.4800

> <Gold.Chemscore.Hbond>
1.7338

> <Gold.Chemscore.Metal>
0.0000

> <Gold.Chemscore.Lipo>
68.6458

> <Gold.Chemscore.Internal_Hbond>
0.0000

> <Gold.Chemscore.DEClash>
2.6407

> <Gold.Chemscore.DEInternal>
1.9318

> <Gold.Chemscore.Rot>
1.3199

> <Gold.Chemscore.Internal.Correction>
   9.000000E+99

> <Gold.Chemscore.Hbonds>
donor molecule, donor type, donor heavy atom, donor atom, acceptor molecule, acceptor atom, score
      L1  H     9    29       P1  8028  0.78
      P1  H  7989  7998       L1    11  0.77
      P1  H  7997  8010       L1     4  0.02

> <Gold.Chemscore.Hbond.Weighted>
-5.7909

> <Gold.Chemscore.Metal.Weighted>
-0.0000

> <Gold.Chemscore.Lipo.Weighted>
-8.0316

> <Gold.Chemscore.Internal_Hbond.Weighted>
0.0000

> <Gold.Chemscore.DEClash.Weighted>
2.6407

> <Gold.Chemscore.DEInternal.Weighted>
1.9318

> <Gold.Chemscore.Rot.Weighted>
3.3789

> <Gold.Chemscore.Internal.Correction.Weighted>
   9.000000E+99

> <Gold.Protein.RotatedTorsions>
[ 6907 6896 6895 6894 ] final  114.16 input  -60.11 | X-H torsion
[ 7974 7965 7964 7962 ] final -113.36 input  175.53 | X-H torsion
[ 8008 7997 7996 7995 ] final   32.98 input   59.86 | X-H torsion
[ 10167 10162 10161 10158 ] final  -99.04 input  -65.29 | X-H torsion
[ 10718 10713 10712 10709 ] final  114.12 input   66.30 | X-H torsion
[ 10763 10752 10751 10750 ] final  -77.85 input  -60.55 | X-H torsion
[ 11005 11000 10999 10996 ] final   44.30 input  -57.11 | X-H torsion

> <Gold.Protein.ActiveResidues>
 VAL166  LYS551  ARG553  GLY616  TRP617  ASP618  TYR619  PRO620  LYS621  CYS622 
 ASP623  PHE694  ASN695  SER759  ASP760  ASP761  ALA762  ILE779  LEU786  VAL792 
 PHE793  MET794  SER795  GLU796  ALA797  LYS798  CYS799  TRP800  GLU811  SER814 

> <Gold.Protein.RotatedAtoms>
  152.4819  133.8275  159.7085 H   0  0  0  0  0  0  0  0  0  0  0  0  # atno 6907 bound_to 6896
  150.8875  133.7278  159.2920 H   0  0  0  0  0  0  0  0  0  0  0  0  # atno 6908 bound_to 6896
  151.4762  135.1053  159.9817 H   0  0  0  0  0  0  0  0  0  0  0  0  # atno 6909 bound_to 6896
  145.1329  140.8735  143.3747 H   0  0  0  0  0  0  0  0  0  0  0  0  # atno 7974 bound_to 7965
  155.1312  140.3257  155.4474 H   0  0  0  0  0  0  0  0  0  0  0  0  # atno 8008 bound_to 7997
  156.2634  140.2010  156.6380 H   0  0  0  0  0  0  0  0  0  0  0  0  # atno 8009 bound_to 7997
  154.6611  140.0547  157.0050 H   0  0  0  0  0  0  0  0  0  0  0  0  # atno 8010 bound_to 7997
  140.2666  143.3372  152.0575 H   0  0  0  0  0  0  0  0  0  0  0  0  # atno 10167 bound_to 10162
  157.6299  131.0994  150.7140 H   0  0  0  0  0  0  0  0  0  0  0  0  # atno 10718 bound_to 10713
  154.5183  135.5750  153.6660 H   0  0  0  0  0  0  0  0  0  0  0  0  # atno 10763 bound_to 10752
  152.9911  135.6175  154.2788 H   0  0  0  0  0  0  0  0  0  0  0  0  # atno 10764 bound_to 10752
  154.2707  135.2853  155.2719 H   0  0  0  0  0  0  0  0  0  0  0  0  # atno 10765 bound_to 10752
  140.1565  134.4395  155.8346 H   0  0  0  0  0  0  0  0  0  0  0  0  # atno 11005 bound_to 11000
  145.0615  139.3101  143.5878 LP  0  0  0  0  0  0  0  0  0  0  0  0  # atno 17320 bound_to 7965
  146.3512  140.0059  142.8671 LP  0  0  0  0  0  0  0  0  0  0  0  0  # atno 17321 bound_to 7965
  139.5001  144.6684  151.6302 LP  0  0  0  0  0  0  0  0  0  0  0  0  # atno 17342 bound_to 10162
  140.5923  143.9757  150.6332 LP  0  0  0  0  0  0  0  0  0  0  0  0  # atno 17343 bound_to 10162
  156.7481  130.4760  149.5462 LP  0  0  0  0  0  0  0  0  0  0  0  0  # atno 17370 bound_to 10713
  156.1496  130.6301  151.0578 LP  0  0  0  0  0  0  0  0  0  0  0  0  # atno 17371 bound_to 10713
  141.2205  133.6894  156.7516 LP  0  0  0  0  0  0  0  0  0  0  0  0  # atno 17394 bound_to 11000
  140.2541  134.8517  157.3696 LP  0  0  0  0  0  0  0  0  0  0  0  0  # atno 17395 bound_to 11000

$$$$
