AV-unprocessed.smi:655|AV-procd|sdf|3217|dock10
  -GOLD-   22720 0153D 1   1.00000     0.00000
 Structure written by MMmdl.
 34 35  0  0  0  0  0  0  0  0  2 V2000
  151.8937  145.9135  160.0243 C   0  0  0  0  0  0  0  0  0  0  0  0
  151.4532  144.4435  159.9745 C   0  0  2  0  0  0  0  0  0  0  0  0
  152.6638  143.4931  159.9716 C   0  0  0  0  0  0  0  0  0  0  0  0
  152.2338  142.0153  159.9111 C   0  0  0  0  0  0  0  0  0  0  0  0
  151.3153  141.7079  158.7031 C   0  0  2  0  0  0  0  0  0  0  0  0
  150.7404  140.4322  158.9144 O   0  0  0  0  0  0  0  0  0  0  0  0
  152.0281  141.6759  157.3168 C   0  0  0  0  0  0  0  0  0  0  0  0
  151.2930  140.9580  156.2557 N   0  0  0  0  0  0  0  0  0  0  0  0
  150.1637  141.5991  155.7145 C   0  0  0  0  0  0  0  0  0  0  0  0
  149.4176  141.0444  154.7401 C   0  0  0  0  0  0  0  0  0  0  0  0
  148.0339  141.8598  154.1033 Cl  0  0  0  0  0  0  0  0  0  0  0  0
  149.8162  139.7329  154.2358 C   0  0  0  0  0  0  0  0  0  0  0  0
  149.1477  139.1882  153.3585 O   0  0  0  0  0  0  0  0  0  0  0  0
  150.9353  139.1635  154.7701 N   0  5  0  0  0  0  0  0  0  0  0  0
  151.6882  139.7493  155.7516 C   0  0  0  0  0  0  0  0  0  0  0  0
  152.7077  139.2200  156.1910 O   0  0  0  0  0  0  0  0  0  0  0  0
  150.1211  142.6922  158.6989 C   0  0  0  0  0  0  0  0  0  0  0  0
  150.5567  144.1667  158.7545 C   0  0  0  0  0  0  0  0  0  0  0  0
  152.4902  146.1780  159.1504 H   0  0  0  0  0  0  0  0  0  0  0  0
  152.4959  146.1134  160.9109 H   0  0  0  0  0  0  0  0  0  0  0  0
  151.0322  146.5809  160.0536 H   0  0  0  0  0  0  0  0  0  0  0  0
  150.8698  144.2440  160.8745 H   0  0  0  0  0  0  0  0  0  0  0  0
  153.3048  143.7328  159.1253 H   0  0  0  0  0  0  0  0  0  0  0  0
  153.2672  143.6571  160.8648 H   0  0  0  0  0  0  0  0  0  0  0  0
  153.1104  141.3678  159.9131 H   0  0  0  0  0  0  0  0  0  0  0  0
  151.6998  141.7843  160.8343 H   0  0  0  0  0  0  0  0  0  0  0  0
  150.8929  140.1842  159.8135 H   0  0  0  0  0  0  0  0  0  0  0  0
  152.2114  142.6982  156.9814 H   0  0  0  0  0  0  0  0  0  0  0  0
  153.0270  141.2536  157.4264 H   0  0  0  0  0  0  0  0  0  0  0  0
  149.9429  142.5679  156.1382 H   0  0  0  0  0  0  0  0  0  0  0  0
  149.4945  142.5252  157.8217 H   0  0  0  0  0  0  0  0  0  0  0  0
  149.4833  142.4962  159.5628 H   0  0  0  0  0  0  0  0  0  0  0  0
  149.6718  144.8027  158.7944 H   0  0  0  0  0  0  0  0  0  0  0  0
  151.0816  144.4364  157.8379 H   0  0  0  0  0  0  0  0  0  0  0  0
  1  2  1  0  0  0  0
  1 19  1  0  0  0  0
  1 20  1  0  0  0  0
  1 21  1  0  0  0  0
  2 18  1  0  0  0  0
  2  3  1  0  0  0  0
  2 22  1  0  0  0  0
  3  4  1  0  0  0  0
  3 23  1  0  0  0  0
  3 24  1  0  0  0  0
  4  5  1  0  0  0  0
  4 25  1  0  0  0  0
  4 26  1  0  0  0  0
  5  6  1  0  0  0  0
  5  7  1  0  0  0  0
  5 17  1  0  0  0  0
  6 27  1  0  0  0  0
  7  8  1  0  0  0  0
  7 28  1  0  0  0  0
  7 29  1  0  0  0  0
  8 15  1  0  0  0  0
  8  9  1  0  0  0  0
  9 10  2  0  0  0  0
  9 30  1  0  0  0  0
 10 11  1  0  0  0  0
 10 12  1  0  0  0  0
 12 13  2  0  0  0  0
 12 14  1  0  0  0  0
 14 15  1  0  0  0  0
 15 16  2  0  0  0  0
 17 18  1  0  0  0  0
 17 31  1  0  0  0  0
 17 32  1  0  0  0  0
 18 33  1  0  0  0  0
 18 34  1  0  0  0  0
M  CHG  1  14  -1
M  END
> <s_m_source_file>
AV-unprocessed.smi

> <i_m_source_file_index>
655

> <i_lp_mmshare_version>
43012

> <i_f3d_flags>
0

> <s_epik_input>
W0NIMl0xW0NIMl1bQ0BIXShbQ0gzXSlbQ0gyXVtDSDJdW0NAQF0xKFtPSF0pW0NIMl1uMltjSF1jKENsKWMoPU8pW25IXWMyPU8=

> <s_epik_cmdline>
J2VwaWtfcHl0aG9uJywgJy1waCcsICc3LjAnLCAnLXRuJywgJzgnLCAnLW1hJywgJzIwMCcsICctbWV0YWxfYmluZGluZycsICctaW1hZScsICc8aW5maWxlLm1hZT4nLCAnLW9tYWUnLCAnPG91dGZpbGUubWFlPic=

> <r_epik_Ionization_Penalty>
2.34257

> <r_epik_Ionization_Penalty_Charging>
1.00552e-07

> <r_epik_Ionization_Penalty_Neutral>
2.34257

> <r_epik_State_Penalty>
2.4963

> <r_epik_Charging_Adjusted_Penalty>
2.4963

> <i_epik_Tot_Q>
-1

> <i_epik_Tot_abs_Q>
1

> <r_epik_Metal_State_Penalty>
0.0381881

> <b_epik_Metal_Only>
0

> <s_lp_Force_Field>
OPLS_2005

> <r_lp_Energy>
26.7084

> <b_lp_Chiralities_Consistent>
1

> <s_lp_Variant>
AV-unprocessed.smi:655-4

> <Gold.Version>
5.8.1

> <Gold.Id.Protein>
6NUR|6NUR_protein|mol2

> <Gold.PLP.Fitness>
39.9014

> <Gold.PLP.PLP>
-34.5610

> <Gold.PLP.part.hbond>
-1.0000

> <Gold.PLP.part.metal>
0.0000

> <Gold.PLP.part.buried>
-5.1322

> <Gold.PLP.part.nonpolar>
-32.2636

> <Gold.PLP.part.repulsive>
3.5745

> <Gold.PLP.ligand.clash>
0.0000

> <Gold.PLP.ligand.torsion>
0.3694

> <Gold.PLP.Chemscore.Hbond>
1.0000

> <Gold.PLP.Chemscore.CHOScore>
1.0000

> <Gold.PLP.Chemscore.Metal>
0.0000

> <Gold.Chemscore.Hbonds>
donor molecule, donor type, donor heavy atom, donor atom, acceptor molecule, acceptor atom, score
      P1  H  7997  8010       L1    16  1.00
      L1  C     9    30       P1  8028  1.00

> <Gold.PLP.Chemscore.Internal.Correction>
0.0791

> <Gold.Rescore>
     Score         DG    S(hbond)    S(metal)    S(lipo)     H(rot)  DE(clash)    DE(int)     intcor
     12.51     -15.56       0.94        0.00      98.87       1.81       2.79       0.26       ----

> <Gold.Chemscore.Fitness>
12.5099

> <Gold.Chemscore.DG>
-15.5632

> <Gold.Chemscore.ZeroCoef>
-5.4800

> <Gold.Chemscore.Hbond>
0.9424

> <Gold.Chemscore.Metal>
0.0000

> <Gold.Chemscore.Lipo>
98.8652

> <Gold.Chemscore.Internal_Hbond>
0.0000

> <Gold.Chemscore.DEClash>
2.7930

> <Gold.Chemscore.DEInternal>
0.2603

> <Gold.Chemscore.Rot>
1.8092

> <Gold.Chemscore.Internal.Correction>
   9.000000E+99

> <Gold.Chemscore.Hbonds>
donor molecule, donor type, donor heavy atom, donor atom, acceptor molecule, acceptor atom, score
      P1  H  7997  8010       L1    16  0.96

> <Gold.Chemscore.Hbond.Weighted>
-3.1475

> <Gold.Chemscore.Metal.Weighted>
-0.0000

> <Gold.Chemscore.Lipo.Weighted>
-11.5672

> <Gold.Chemscore.Internal_Hbond.Weighted>
0.0000

> <Gold.Chemscore.DEClash.Weighted>
2.7930

> <Gold.Chemscore.DEInternal.Weighted>
0.2603

> <Gold.Chemscore.Rot.Weighted>
4.6316

> <Gold.Chemscore.Internal.Correction.Weighted>
   9.000000E+99

> <Gold.Protein.RotatedTorsions>
[ 6907 6896 6895 6894 ] final -118.95 input  -60.11 | X-H torsion
[ 7974 7965 7964 7962 ] final  -73.93 input  175.53 | X-H torsion
[ 8008 7997 7996 7995 ] final   93.67 input   59.86 | X-H torsion
[ 10167 10162 10161 10158 ] final   68.78 input  -65.29 | X-H torsion
[ 10718 10713 10712 10709 ] final  105.95 input   66.30 | X-H torsion
[ 10763 10752 10751 10750 ] final  167.99 input  -60.55 | X-H torsion
[ 11005 11000 10999 10996 ] final   -0.02 input  -57.11 | X-H torsion

> <Gold.Protein.ActiveResidues>
 VAL166  LYS551  ARG553  GLY616  TRP617  ASP618  TYR619  PRO620  LYS621  CYS622 
 ASP623  PHE694  ASN695  SER759  ASP760  ASP761  ALA762  ILE779  LEU786  VAL792 
 PHE793  MET794  SER795  GLU796  ALA797  LYS798  CYS799  TRP800  GLU811  SER814 

> <Gold.Protein.RotatedAtoms>
  150.8263  133.8166  159.3117 H   0  0  0  0  0  0  0  0  0  0  0  0  # atno 6907 bound_to 6896
  151.5910  135.1051  160.0048 H   0  0  0  0  0  0  0  0  0  0  0  0  # atno 6908 bound_to 6896
  152.4348  133.7299  159.6638 H   0  0  0  0  0  0  0  0  0  0  0  0  # atno 6909 bound_to 6896
  145.6458  140.9297  143.1011 H   0  0  0  0  0  0  0  0  0  0  0  0  # atno 7974 bound_to 7965
  156.0493  140.3310  155.7333 H   0  0  0  0  0  0  0  0  0  0  0  0  # atno 8008 bound_to 7997
  155.5625  140.0620  157.2843 H   0  0  0  0  0  0  0  0  0  0  0  0  # atno 8009 bound_to 7997
  154.4428  140.1875  156.0785 H   0  0  0  0  0  0  0  0  0  0  0  0  # atno 8010 bound_to 7997
  140.0749  144.5121  150.7201 H   0  0  0  0  0  0  0  0  0  0  0  0  # atno 10167 bound_to 10162
  157.6686  131.0839  150.5934 H   0  0  0  0  0  0  0  0  0  0  0  0  # atno 10718 bound_to 10713
  154.3620  135.2753  155.2314 H   0  0  0  0  0  0  0  0  0  0  0  0  # atno 10763 bound_to 10752
  154.4498  135.5933  153.6188 H   0  0  0  0  0  0  0  0  0  0  0  0  # atno 10764 bound_to 10752
  152.9843  135.6039  154.3842 H   0  0  0  0  0  0  0  0  0  0  0  0  # atno 10765 bound_to 10752
  140.6317  133.9569  155.8278 H   0  0  0  0  0  0  0  0  0  0  0  0  # atno 11005 bound_to 11000
  144.7140  139.8263  143.7405 LP  0  0  0  0  0  0  0  0  0  0  0  0  # atno 17320 bound_to 7965
  146.1244  139.4267  143.0208 LP  0  0  0  0  0  0  0  0  0  0  0  0  # atno 17321 bound_to 7965
  140.7107  143.2503  151.4590 LP  0  0  0  0  0  0  0  0  0  0  0  0  # atno 17342 bound_to 10162
  139.5814  144.1702  152.1972 LP  0  0  0  0  0  0  0  0  0  0  0  0  # atno 17343 bound_to 10162
  156.6235  130.4412  149.5813 LP  0  0  0  0  0  0  0  0  0  0  0  0  # atno 17370 bound_to 10713
  156.2337  130.6810  151.1489 LP  0  0  0  0  0  0  0  0  0  0  0  0  # atno 17371 bound_to 10713
  141.0671  134.0261  157.3579 LP  0  0  0  0  0  0  0  0  0  0  0  0  # atno 17394 bound_to 11000
  139.9114  135.0190  156.7705 LP  0  0  0  0  0  0  0  0  0  0  0  0  # atno 17395 bound_to 11000

$$$$
