AV-unprocessed.smi:1313|AV-procd|sdf|5450|dock6
  -GOLD-   22720 5 23D 1   1.00000     0.00000
 Structure written by MMmdl.
 37 38  0  0  0  0  0  0  0  0  1 V2000
  146.6634  138.3853  151.8125 C   0  0  0  0  0  0  0  0  0  0  0  0
  147.4180  139.4474  152.5837 C   0  0  0  0  0  0  0  0  0  0  0  0
  146.9703  140.6417  152.7921 N   0  0  0  0  0  0  0  0  0  0  0  0
  147.7578  141.5380  153.5282 C   0  0  0  0  0  0  0  0  0  0  0  0
  147.1560  142.9169  153.7387 C   0  0  0  0  0  0  0  0  0  0  0  0
  148.9797  141.1793  154.0214 C   0  0  0  0  0  0  0  0  0  0  0  0
  149.8554  142.1272  154.8386 C   0  0  0  0  0  0  0  0  0  0  0  0
  149.9767  141.7781  156.3229 C   0  0  0  0  0  0  0  0  0  0  0  0
  149.3638  140.8132  156.7791 O   0  0  0  0  0  0  0  0  0  0  0  0
  150.7608  142.5737  157.0665 N   0  0  0  0  0  0  0  0  0  0  0  0
  150.9784  142.4322  158.5034 C   0  0  0  0  0  0  0  0  0  0  0  0
  150.8105  143.7866  159.2181 C   0  0  0  0  0  0  0  0  0  0  0  0
  152.0149  143.9244  160.1507 C   0  0  0  0  0  0  0  0  0  0  0  0
  153.1262  143.1516  159.4475 C   0  0  0  0  0  0  0  0  0  0  0  0
  152.4111  141.9555  158.8182 C   0  0  0  0  0  0  0  0  0  0  0  0
  149.4835  139.8146  153.7719 C   0  0  0  0  0  0  0  0  0  0  0  0
  150.5671  139.3872  154.1672 O   0  0  0  0  0  0  0  0  0  0  0  0
  148.6563  139.0185  153.0582 N   0  0  0  0  0  0  0  0  0  0  0  0
  148.9544  138.0736  152.8647 H   0  0  0  0  0  0  0  0  0  0  0  0
  145.7011  138.1910  152.2869 H   0  0  0  0  0  0  0  0  0  0  0  0
  147.2184  137.4469  151.7695 H   0  0  0  0  0  0  0  0  0  0  0  0
  146.4811  138.7213  150.7915 H   0  0  0  0  0  0  0  0  0  0  0  0
  147.8045  143.6891  153.3246 H   0  0  0  0  0  0  0  0  0  0  0  0
  147.0122  143.1149  154.8007 H   0  0  0  0  0  0  0  0  0  0  0  0
  146.1847  143.0035  153.2504 H   0  0  0  0  0  0  0  0  0  0  0  0
  150.8607  142.1774  154.4189 H   0  0  0  0  0  0  0  0  0  0  0  0
  149.4674  143.1410  154.7359 H   0  0  0  0  0  0  0  0  0  0  0  0
  151.2265  143.3439  156.6086 H   0  0  0  0  0  0  0  0  0  0  0  0
  150.2607  141.7177  158.9112 H   0  0  0  0  0  0  0  0  0  0  0  0
  150.8264  144.6064  158.4979 H   0  0  0  0  0  0  0  0  0  0  0  0
  149.8662  143.8529  159.7592 H   0  0  0  0  0  0  0  0  0  0  0  0
  152.2812  144.9642  160.3423 H   0  0  0  0  0  0  0  0  0  0  0  0
  151.7924  143.4548  161.1097 H   0  0  0  0  0  0  0  0  0  0  0  0
  153.5661  143.7709  158.6646 H   0  0  0  0  0  0  0  0  0  0  0  0
  153.9261  142.8526  160.1257 H   0  0  0  0  0  0  0  0  0  0  0  0
  152.3657  141.1420  159.5433 H   0  0  0  0  0  0  0  0  0  0  0  0
  152.9457  141.5749  157.9467 H   0  0  0  0  0  0  0  0  0  0  0  0
  1  2  1  0  0  0  0
  1 20  1  0  0  0  0
  1 21  1  0  0  0  0
  1 22  1  0  0  0  0
  2 18  1  0  0  0  0
  2  3  2  0  0  0  0
  3  4  1  0  0  0  0
  4  5  1  0  0  0  0
  4  6  2  0  0  0  0
  5 23  1  0  0  0  0
  5 24  1  0  0  0  0
  5 25  1  0  0  0  0
  6  7  1  0  0  0  0
  6 16  1  0  0  0  0
  7  8  1  0  0  0  0
  7 26  1  0  0  0  0
  7 27  1  0  0  0  0
  8  9  2  0  0  0  0
  8 10  1  0  0  0  0
 10 11  1  0  0  0  0
 10 28  1  0  0  0  0
 11 15  1  0  0  0  0
 11 12  1  0  0  0  0
 11 29  1  0  0  0  0
 12 13  1  0  0  0  0
 12 30  1  0  0  0  0
 12 31  1  0  0  0  0
 13 14  1  0  0  0  0
 13 32  1  0  0  0  0
 13 33  1  0  0  0  0
 14 15  1  0  0  0  0
 14 34  1  0  0  0  0
 14 35  1  0  0  0  0
 15 36  1  0  0  0  0
 15 37  1  0  0  0  0
 16 17  2  0  0  0  0
 16 18  1  0  0  0  0
 18 19  1  0  0  0  0
M  END
> <s_m_source_file>
AV-unprocessed.smi

> <i_m_source_file_index>
1313

> <i_lp_mmshare_version>
43012

> <i_f3d_flags>
0

> <s_epik_input>
W0NIM11jMW5jKFtDSDNdKWMoYyg9TylbbkhdMSlbQ0gyXUMoPU8pW05IXVtDSF0yW0NIMl1bQ0gyXVtDSDJdW0NIMl0y

> <s_epik_cmdline>
J2VwaWtfcHl0aG9uJywgJy1waCcsICc3LjAnLCAnLXRuJywgJzgnLCAnLW1hJywgJzIwMCcsICctbWV0YWxfYmluZGluZycsICctaW1hZScsICc8aW5maWxlLm1hZT4nLCAnLW9tYWUnLCAnPG91dGZpbGUubWFlPic=

> <r_lp_tautomer_probability>
0.839158

> <r_epik_Ionization_Penalty>
0.000387683

> <r_epik_Ionization_Penalty_Charging>
0.000355009

> <r_epik_Ionization_Penalty_Neutral>
3.26746e-05

> <r_epik_State_Penalty>
0.046959

> <r_epik_Charging_Adjusted_Penalty>
0.047314

> <i_epik_Tot_Q>
0

> <i_epik_Tot_abs_Q>
0

> <r_epik_Metal_State_Penalty>
0.222879

> <b_epik_Metal_Only>
0

> <s_lp_Force_Field>
OPLS_2005

> <r_lp_Energy>
20.1617

> <b_lp_Chiralities_Consistent>
1

> <s_lp_Variant>
AV-unprocessed.smi:1313-1

> <Gold.Version>
5.8.1

> <Gold.Id.Protein>
6NUR|6NUR_protein|mol2

> <Gold.PLP.Fitness>
40.0758

> <Gold.PLP.PLP>
-34.5773

> <Gold.PLP.part.hbond>
-3.5372

> <Gold.PLP.part.metal>
0.0000

> <Gold.PLP.part.buried>
2.2972

> <Gold.PLP.part.nonpolar>
-34.0574

> <Gold.PLP.part.repulsive>
0.9001

> <Gold.PLP.ligand.clash>
0.0000

> <Gold.PLP.ligand.torsion>
0.2145

> <Gold.PLP.Chemscore.Hbond>
1.9750

> <Gold.PLP.Chemscore.CHOScore>
0.0000

> <Gold.PLP.Chemscore.Metal>
0.0000

> <Gold.Chemscore.Hbonds>
donor molecule, donor type, donor heavy atom, donor atom, acceptor molecule, acceptor atom, score
      L1  H    18    19       P1  7948  0.91
      P1  H  7989  7998       L1    17  0.80

> <Gold.PLP.Chemscore.Internal.Correction>
0.0024

> <Gold.Rescore>
     Score         DG    S(hbond)    S(metal)    S(lipo)     H(rot)  DE(clash)    DE(int)     intcor
     15.17     -18.18       1.96        0.00      85.60       1.51       2.71       0.30       ----

> <Gold.Chemscore.Fitness>
15.1655

> <Gold.Chemscore.DG>
-18.1776

> <Gold.Chemscore.ZeroCoef>
-5.4800

> <Gold.Chemscore.Hbond>
1.9625

> <Gold.Chemscore.Metal>
0.0000

> <Gold.Chemscore.Lipo>
85.6025

> <Gold.Chemscore.Internal_Hbond>
0.0000

> <Gold.Chemscore.DEClash>
2.7128

> <Gold.Chemscore.DEInternal>
0.2993

> <Gold.Chemscore.Rot>
1.5128

> <Gold.Chemscore.Internal.Correction>
   9.000000E+99

> <Gold.Chemscore.Hbonds>
donor molecule, donor type, donor heavy atom, donor atom, acceptor molecule, acceptor atom, score
      L1  H    18    19       P1  7948  0.86
      P1  H  7989  7998       L1    17  0.12

> <Gold.Chemscore.Hbond.Weighted>
-6.5548

> <Gold.Chemscore.Metal.Weighted>
-0.0000

> <Gold.Chemscore.Lipo.Weighted>
-10.0155

> <Gold.Chemscore.Internal_Hbond.Weighted>
0.0000

> <Gold.Chemscore.DEClash.Weighted>
2.7128

> <Gold.Chemscore.DEInternal.Weighted>
0.2993

> <Gold.Chemscore.Rot.Weighted>
3.8727

> <Gold.Chemscore.Internal.Correction.Weighted>
   9.000000E+99

> <Gold.Protein.RotatedTorsions>
[ 6907 6896 6895 6894 ] final  -23.22 input  -60.11 | X-H torsion
[ 7974 7965 7964 7962 ] final  -49.80 input  175.53 | X-H torsion
[ 8008 7997 7996 7995 ] final  167.69 input   59.86 | X-H torsion
[ 10167 10162 10161 10158 ] final -117.10 input  -65.29 | X-H torsion
[ 10718 10713 10712 10709 ] final   93.54 input   66.30 | X-H torsion
[ 10763 10752 10751 10750 ] final   75.96 input  -60.55 | X-H torsion
[ 11005 11000 10999 10996 ] final -163.96 input  -57.11 | X-H torsion

> <Gold.Protein.ActiveResidues>
 VAL166  LYS551  ARG553  GLY616  TRP617  ASP618  TYR619  PRO620  LYS621  CYS622 
 ASP623  PHE694  ASN695  SER759  ASP760  ASP761  ALA762  ILE779  LEU786  VAL792 
 PHE793  MET794  SER795  GLU796  ALA797  LYS798  CYS799  TRP800  GLU811  SER814 

> <Gold.Protein.RotatedAtoms>
  151.2072  135.0466  159.8896 H   0  0  0  0  0  0  0  0  0  0  0  0  # atno 6907 bound_to 6896
  152.5428  134.0785  159.8235 H   0  0  0  0  0  0  0  0  0  0  0  0  # atno 6908 bound_to 6896
  151.0933  133.5251  159.2645 H   0  0  0  0  0  0  0  0  0  0  0  0  # atno 6909 bound_to 6896
  145.9367  140.7700  142.9572 H   0  0  0  0  0  0  0  0  0  0  0  0  # atno 7974 bound_to 7965
  156.1612  140.1610  156.8609 H   0  0  0  0  0  0  0  0  0  0  0  0  # atno 8008 bound_to 7997
  154.5162  140.0789  156.8122 H   0  0  0  0  0  0  0  0  0  0  0  0  # atno 8009 bound_to 7997
  155.3704  140.3400  155.4245 H   0  0  0  0  0  0  0  0  0  0  0  0  # atno 8010 bound_to 7997
  140.0720  143.4868  152.1974 H   0  0  0  0  0  0  0  0  0  0  0  0  # atno 10167 bound_to 10162
  157.6954  131.0482  150.4050 H   0  0  0  0  0  0  0  0  0  0  0  0  # atno 10718 bound_to 10713
  153.0691  135.4969  154.8266 H   0  0  0  0  0  0  0  0  0  0  0  0  # atno 10763 bound_to 10752
  154.6997  135.2999  154.9362 H   0  0  0  0  0  0  0  0  0  0  0  0  # atno 10764 bound_to 10752
  154.0090  135.6757  153.4817 H   0  0  0  0  0  0  0  0  0  0  0  0  # atno 10765 bound_to 10752
  140.5923  134.5032  157.5194 H   0  0  0  0  0  0  0  0  0  0  0  0  # atno 11005 bound_to 11000
  144.6773  140.2215  143.7366 LP  0  0  0  0  0  0  0  0  0  0  0  0  # atno 17320 bound_to 7965
  145.8354  139.2105  143.1858 LP  0  0  0  0  0  0  0  0  0  0  0  0  # atno 17321 bound_to 7965
  139.5830  144.7519  151.3591 LP  0  0  0  0  0  0  0  0  0  0  0  0  # atno 17342 bound_to 10162
  140.7121  143.7363  150.7586 LP  0  0  0  0  0  0  0  0  0  0  0  0  # atno 17343 bound_to 10162
  156.4440  130.3997  149.6679 LP  0  0  0  0  0  0  0  0  0  0  0  0  # atno 17370 bound_to 10713
  156.3852  130.7599  151.2596 LP  0  0  0  0  0  0  0  0  0  0  0  0  # atno 17371 bound_to 10713
  139.9269  134.8039  156.1044 LP  0  0  0  0  0  0  0  0  0  0  0  0  # atno 17394 bound_to 11000
  141.0927  133.6708  156.2576 LP  0  0  0  0  0  0  0  0  0  0  0  0  # atno 17395 bound_to 11000

$$$$
