AV-unprocessed.smi:2359|AV-procd|sdf|9407|dock9
  -GOLD-   2272013 43D 1   1.00000     0.00000
 Structure written by MMmdl.
 40 41  0  0  0  0  0  0  0  0  1 V2000
  152.0550  145.5506  159.4262 C   0  0  0  0  0  0  0  0  0  0  0  0
  152.0317  144.1211  158.9273 C   0  0  0  0  0  0  0  0  0  0  0  0
  152.6496  143.0846  159.6523 C   0  0  0  0  0  0  0  0  0  0  0  0
  152.5988  141.7743  159.1393 C   0  0  0  0  0  0  0  0  0  0  0  0
  151.9342  141.5308  157.9163 C   0  0  0  0  0  0  0  0  0  0  0  0
  151.9482  140.1776  157.4851 N   0  0  0  0  0  0  0  0  0  0  0  0
  151.5655  139.6783  156.2967 C   0  0  0  0  0  0  0  0  0  0  0  0
  151.0984  140.3337  155.3645 O   0  0  0  0  0  0  0  0  0  0  0  0
  151.7542  138.3516  156.2459 N   0  0  0  0  0  0  0  0  0  0  0  0
  151.4457  137.5045  155.0999 C   0  0  0  0  0  0  0  0  0  0  0  0
  149.9891  137.0120  155.1369 C   0  0  0  0  0  0  0  0  0  0  0  0
  149.8693  135.5400  155.5618 C   0  0  2  0  0  0  0  0  0  0  0  0
  151.1127  135.0595  156.3355 C   0  0  0  0  0  0  0  0  0  0  0  0
  150.9953  133.5689  156.6736 C   0  0  0  0  0  0  0  0  0  0  0  0
  150.6990  132.7705  155.3997 C   0  0  0  0  0  0  0  0  0  0  0  0
  149.4851  133.3639  154.6680 C   0  0  0  0  0  0  0  0  0  0  0  0
  149.7135  134.7418  154.3895 O   0  0  0  0  0  0  0  0  0  0  0  0
  151.3407  142.5361  157.2257 N   0  0  0  0  0  0  0  0  0  0  0  0
  151.3897  143.7917  157.7180 C   0  0  0  0  0  0  0  0  0  0  0  0
  152.5269  145.6203  160.4066 H   0  0  0  0  0  0  0  0  0  0  0  0
  151.0399  145.9396  159.5082 H   0  0  0  0  0  0  0  0  0  0  0  0
  152.6108  146.1825  158.7333 H   0  0  0  0  0  0  0  0  0  0  0  0
  153.1561  143.2854  160.5849 H   0  0  0  0  0  0  0  0  0  0  0  0
  153.0690  140.9673  159.6823 H   0  0  0  0  0  0  0  0  0  0  0  0
  152.3032  139.5129  158.1563 H   0  0  0  0  0  0  0  0  0  0  0  0
  152.1424  137.8935  157.0573 H   0  0  0  0  0  0  0  0  0  0  0  0
  151.6456  138.0400  154.1703 H   0  0  0  0  0  0  0  0  0  0  0  0
  152.1285  136.6546  155.1194 H   0  0  0  0  0  0  0  0  0  0  0  0
  149.4047  137.6373  155.8131 H   0  0  0  0  0  0  0  0  0  0  0  0
  149.5462  137.1327  154.1472 H   0  0  0  0  0  0  0  0  0  0  0  0
  148.9859  135.4277  156.1934 H   0  0  0  0  0  0  0  0  0  0  0  0
  152.0078  135.2274  155.7351 H   0  0  0  0  0  0  0  0  0  0  0  0
  151.2371  135.6392  157.2508 H   0  0  0  0  0  0  0  0  0  0  0  0
  151.9122  133.2108  157.1423 H   0  0  0  0  0  0  0  0  0  0  0  0
  150.1924  133.4183  157.3964 H   0  0  0  0  0  0  0  0  0  0  0  0
  151.5676  132.7949  154.7408 H   0  0  0  0  0  0  0  0  0  0  0  0
  150.5196  131.7231  155.6433 H   0  0  0  0  0  0  0  0  0  0  0  0
  149.3207  132.8375  153.7275 H   0  0  0  0  0  0  0  0  0  0  0  0
  148.5766  133.2475  155.2609 H   0  0  0  0  0  0  0  0  0  0  0  0
  150.9034  144.5547  157.1279 H   0  0  0  0  0  0  0  0  0  0  0  0
  1  2  1  0  0  0  0
  1 20  1  0  0  0  0
  1 21  1  0  0  0  0
  1 22  1  0  0  0  0
  2 19  1  0  0  0  0
  2  3  2  0  0  0  0
  3  4  1  0  0  0  0
  3 23  1  0  0  0  0
  4  5  2  0  0  0  0
  4 24  1  0  0  0  0
  5  6  1  0  0  0  0
  5 18  1  0  0  0  0
  6  7  1  0  0  0  0
  6 25  1  0  0  0  0
  7  8  2  0  0  0  0
  7  9  1  0  0  0  0
  9 10  1  0  0  0  0
  9 26  1  0  0  0  0
 10 11  1  0  0  0  0
 10 27  1  0  0  0  0
 10 28  1  0  0  0  0
 11 12  1  0  0  0  0
 11 29  1  0  0  0  0
 11 30  1  0  0  0  0
 12 17  1  0  0  0  0
 12 13  1  0  0  0  0
 12 31  1  0  0  0  0
 13 14  1  0  0  0  0
 13 32  1  0  0  0  0
 13 33  1  0  0  0  0
 14 15  1  0  0  0  0
 14 34  1  0  0  0  0
 14 35  1  0  0  0  0
 15 16  1  0  0  0  0
 15 36  1  0  0  0  0
 15 37  1  0  0  0  0
 16 17  1  0  0  0  0
 16 38  1  0  0  0  0
 16 39  1  0  0  0  0
 18 19  2  0  0  0  0
 19 40  1  0  0  0  0
M  END
> <s_m_source_file>
AV-unprocessed.smi

> <i_m_source_file_index>
2359

> <i_lp_mmshare_version>
43012

> <i_f3d_flags>
0

> <s_epik_input>
W0NIM11jMVtjSF1bY0hdYyhuW2NIXTEpW05IXUMoPU8pW05IXVtDSDJdW0NIMl1bQ0BASF0yW0NIMl1bQ0gyXVtDSDJdW0NIMl1PMg==

> <s_epik_cmdline>
J2VwaWtfcHl0aG9uJywgJy1waCcsICc3LjAnLCAnLXRuJywgJzgnLCAnLW1hJywgJzIwMCcsICctbWV0YWxfYmluZGluZycsICctaW1hZScsICc8aW5maWxlLm1hZT4nLCAnLW9tYWUnLCAnPG91dGZpbGUubWFlPic=

> <r_lp_tautomer_probability>
1

> <r_epik_Ionization_Penalty>
5.73679e-05

> <r_epik_Ionization_Penalty_Charging>
0

> <r_epik_Ionization_Penalty_Neutral>
5.73679e-05

> <r_epik_State_Penalty>
-0

> <r_epik_Charging_Adjusted_Penalty>
0

> <i_epik_Tot_Q>
0

> <i_epik_Tot_abs_Q>
0

> <r_epik_Metal_State_Penalty>
-0

> <b_epik_Metal_Only>
0

> <s_lp_Force_Field>
OPLS_2005

> <r_lp_Energy>
10.9797

> <b_lp_Chiralities_Consistent>
1

> <s_lp_Variant>
AV-unprocessed.smi:2359-1

> <Gold.Version>
5.8.1

> <Gold.Id.Protein>
6NUR|6NUR_protein|mol2

> <Gold.PLP.Fitness>
39.1187

> <Gold.PLP.PLP>
-35.2799

> <Gold.PLP.part.hbond>
-1.0000

> <Gold.PLP.part.metal>
0.0000

> <Gold.PLP.part.buried>
-4.9861

> <Gold.PLP.part.nonpolar>
-30.9253

> <Gold.PLP.part.repulsive>
1.3465

> <Gold.PLP.ligand.clash>
0.0000

> <Gold.PLP.ligand.torsion>
1.0699

> <Gold.PLP.Chemscore.Hbond>
0.9913

> <Gold.PLP.Chemscore.CHOScore>
1.0000

> <Gold.PLP.Chemscore.Metal>
0.0000

> <Gold.Chemscore.Hbonds>
donor molecule, donor type, donor heavy atom, donor atom, acceptor molecule, acceptor atom, score
      P1  H  7989  7998       L1     8  1.00
      L1  C    19    40       P1  8028  1.00

> <Gold.PLP.Chemscore.Internal.Correction>
0.0050

> <Gold.Rescore>
     Score         DG    S(hbond)    S(metal)    S(lipo)     H(rot)  DE(clash)    DE(int)     intcor
     13.53     -16.06       0.95        0.00      94.53       1.42       0.32       2.22       ----

> <Gold.Chemscore.Fitness>
13.5273

> <Gold.Chemscore.DG>
-16.0619

> <Gold.Chemscore.ZeroCoef>
-5.4800

> <Gold.Chemscore.Hbond>
0.9488

> <Gold.Chemscore.Metal>
0.0000

> <Gold.Chemscore.Lipo>
94.5337

> <Gold.Chemscore.Internal_Hbond>
0.0000

> <Gold.Chemscore.DEClash>
0.3187

> <Gold.Chemscore.DEInternal>
2.2159

> <Gold.Chemscore.Rot>
1.4248

> <Gold.Chemscore.Internal.Correction>
   9.000000E+99

> <Gold.Chemscore.Hbonds>
donor molecule, donor type, donor heavy atom, donor atom, acceptor molecule, acceptor atom, score
      P1  H  7989  7998       L1     8  0.91

> <Gold.Chemscore.Hbond.Weighted>
-3.1691

> <Gold.Chemscore.Metal.Weighted>
-0.0000

> <Gold.Chemscore.Lipo.Weighted>
-11.0604

> <Gold.Chemscore.Internal_Hbond.Weighted>
0.0000

> <Gold.Chemscore.DEClash.Weighted>
0.3187

> <Gold.Chemscore.DEInternal.Weighted>
2.2159

> <Gold.Chemscore.Rot.Weighted>
3.6476

> <Gold.Chemscore.Internal.Correction.Weighted>
   9.000000E+99

> <Gold.Protein.RotatedTorsions>
[ 6907 6896 6895 6894 ] final -123.54 input  -60.11 | X-H torsion
[ 7974 7965 7964 7962 ] final  128.53 input  175.53 | X-H torsion
[ 8008 7997 7996 7995 ] final  -28.39 input   59.86 | X-H torsion
[ 10167 10162 10161 10158 ] final -108.81 input  -65.29 | X-H torsion
[ 10718 10713 10712 10709 ] final  112.58 input   66.30 | X-H torsion
[ 10763 10752 10751 10750 ] final   48.26 input  -60.55 | X-H torsion
[ 11005 11000 10999 10996 ] final   55.88 input  -57.11 | X-H torsion

> <Gold.Protein.ActiveResidues>
 VAL166  LYS551  ARG553  GLY616  TRP617  ASP618  TYR619  PRO620  LYS621  CYS622 
 ASP623  PHE694  ASN695  SER759  ASP760  ASP761  ALA762  ILE779  LEU786  VAL792 
 PHE793  MET794  SER795  GLU796  ALA797  LYS798  CYS799  TRP800  GLU811  SER814 

> <Gold.Protein.RotatedAtoms>
  150.8681  133.7545  159.2970 H   0  0  0  0  0  0  0  0  0  0  0  0  # atno 6907 bound_to 6896
  151.5166  135.1065  159.9877 H   0  0  0  0  0  0  0  0  0  0  0  0  # atno 6908 bound_to 6896
  152.4675  133.7911  159.6958 H   0  0  0  0  0  0  0  0  0  0  0  0  # atno 6909 bound_to 6896
  145.0386  139.3983  143.5113 H   0  0  0  0  0  0  0  0  0  0  0  0  # atno 7974 bound_to 7965
  154.4334  140.1846  156.1082 H   0  0  0  0  0  0  0  0  0  0  0  0  # atno 8008 bound_to 7997
  156.0238  140.3338  155.7041 H   0  0  0  0  0  0  0  0  0  0  0  0  # atno 8009 bound_to 7997
  155.5938  140.0633  157.2742 H   0  0  0  0  0  0  0  0  0  0  0  0  # atno 8010 bound_to 7997
  140.1621  143.4112  152.1418 H   0  0  0  0  0  0  0  0  0  0  0  0  # atno 10167 bound_to 10162
  157.6385  131.0970  150.6915 H   0  0  0  0  0  0  0  0  0  0  0  0  # atno 10718 bound_to 10713
  152.9793  135.5950  154.3898 H   0  0  0  0  0  0  0  0  0  0  0  0  # atno 10763 bound_to 10752
  154.3554  135.2767  155.2351 H   0  0  0  0  0  0  0  0  0  0  0  0  # atno 10764 bound_to 10752
  154.4372  135.6022  153.6161 H   0  0  0  0  0  0  0  0  0  0  0  0  # atno 10765 bound_to 10752
  140.0572  134.5653  155.9194 H   0  0  0  0  0  0  0  0  0  0  0  0  # atno 11005 bound_to 11000
  146.3507  139.9974  142.8679 LP  0  0  0  0  0  0  0  0  0  0  0  0  # atno 17320 bound_to 7965
  145.1678  140.9705  143.4340 LP  0  0  0  0  0  0  0  0  0  0  0  0  # atno 17321 bound_to 7965
  139.5376  144.7225  151.4840 LP  0  0  0  0  0  0  0  0  0  0  0  0  # atno 17342 bound_to 10162
  140.6636  143.8445  150.6916 LP  0  0  0  0  0  0  0  0  0  0  0  0  # atno 17343 bound_to 10162
  156.7243  130.4690  149.5515 LP  0  0  0  0  0  0  0  0  0  0  0  0  # atno 17370 bound_to 10713
  156.1645  130.6396  151.0760 LP  0  0  0  0  0  0  0  0  0  0  0  0  # atno 17371 bound_to 10713
  141.1957  133.6588  156.5657 LP  0  0  0  0  0  0  0  0  0  0  0  0  # atno 17394 bound_to 11000
  140.3826  134.7510  157.4670 LP  0  0  0  0  0  0  0  0  0  0  0  0  # atno 17395 bound_to 11000

$$$$
