AV-unprocessed.smi:2892|AV-procd|sdf|11120|dock3
  -GOLD-   2272015593D 1   1.00000     0.00000
 Structure written by MMmdl.
 42 42  0  0  0  0  0  0  0  0  2 V2000
  145.2168  135.0847  162.5897 C   0  0  0  0  0  0  0  0  0  0  0  0
  146.3379  134.0990  162.2283 C   0  0  0  0  0  0  0  0  0  0  0  0
  146.6858  134.0493  160.7166 C   0  0  2  0  0  0  0  0  0  0  0  0
  147.0777  132.6111  160.3039 C   0  0  0  0  0  0  0  0  0  0  0  0
  147.8029  135.0677  160.3273 C   0  0  1  0  0  0  0  0  0  0  0  0
  147.7269  135.3354  158.8921 N   0  0  0  0  0  0  0  0  0  0  0  0
  148.4049  134.6928  157.9268 C   0  0  0  0  0  0  0  0  0  0  0  0
  149.2192  133.7974  158.1503 O   0  0  0  0  0  0  0  0  0  0  0  0
  148.1250  135.1248  156.4826 C   0  0  0  0  0  0  0  0  0  0  0  0
  149.4056  135.4001  155.7347 C   0  0  0  0  0  0  0  0  0  0  0  0
  150.3872  134.4624  155.3045 C   0  0  0  0  0  0  0  0  0  0  0  0
  151.3487  135.2352  154.7199 C   0  0  0  0  0  0  0  0  0  0  0  0
  150.9313  136.5466  154.8036 N   0  0  0  0  0  0  0  0  0  0  0  0
  151.6252  137.7428  154.3505 C   0  0  0  0  0  0  0  0  0  0  0  0
  152.9722  137.9031  155.0735 C   0  0  0  0  0  0  0  0  0  0  0  0
  150.7428  138.9936  154.4960 C   0  0  0  0  0  0  0  0  0  0  0  0
  149.7332  136.6458  155.4209 N   0  0  0  0  0  0  0  0  0  0  0  0
  147.6087  136.4091  161.0583 C   0  0  0  0  0  0  0  0  0  0  0  0
  146.6930  137.1636  160.6589 O   0  0  0  0  0  0  0  0  0  0  0  0
  148.3828  136.6543  162.0092 O   0  5  0  0  0  0  0  0  0  0  0  0
  145.0992  135.1497  163.6714 H   0  0  0  0  0  0  0  0  0  0  0  0
  144.2549  134.7785  162.1800 H   0  0  0  0  0  0  0  0  0  0  0  0
  145.4399  136.0865  162.2217 H   0  0  0  0  0  0  0  0  0  0  0  0
  147.2109  134.3944  162.8094 H   0  0  0  0  0  0  0  0  0  0  0  0
  146.0741  133.1006  162.5790 H   0  0  0  0  0  0  0  0  0  0  0  0
  145.7827  134.3072  160.1607 H   0  0  0  0  0  0  0  0  0  0  0  0
  147.9801  132.2844  160.8214 H   0  0  0  0  0  0  0  0  0  0  0  0
  147.2640  132.5272  159.2332 H   0  0  0  0  0  0  0  0  0  0  0  0
  146.2881  131.8950  160.5268 H   0  0  0  0  0  0  0  0  0  0  0  0
  148.7776  134.6488  160.5856 H   0  0  0  0  0  0  0  0  0  0  0  0
  147.0958  136.0711  158.6110 H   0  0  0  0  0  0  0  0  0  0  0  0
  147.5575  134.3354  155.9889 H   0  0  0  0  0  0  0  0  0  0  0  0
  147.4890  136.0110  156.4852 H   0  0  0  0  0  0  0  0  0  0  0  0
  150.3909  133.3889  155.4225 H   0  0  0  0  0  0  0  0  0  0  0  0
  152.2880  134.9634  154.2616 H   0  0  0  0  0  0  0  0  0  0  0  0
  151.8332  137.6087  153.2881 H   0  0  0  0  0  0  0  0  0  0  0  0
  153.5224  138.7620  154.6890 H   0  0  0  0  0  0  0  0  0  0  0  0
  153.5993  137.0218  154.9353 H   0  0  0  0  0  0  0  0  0  0  0  0
  152.8369  138.0495  156.1457 H   0  0  0  0  0  0  0  0  0  0  0  0
  151.2391  139.8704  154.0796 H   0  0  0  0  0  0  0  0  0  0  0  0
  150.5176  139.2081  155.5413 H   0  0  0  0  0  0  0  0  0  0  0  0
  149.7965  138.8691  153.9688 H   0  0  0  0  0  0  0  0  0  0  0  0
  1  2  1  0  0  0  0
  1 21  1  0  0  0  0
  1 22  1  0  0  0  0
  1 23  1  0  0  0  0
  2  3  1  0  0  0  0
  2 24  1  0  0  0  0
  2 25  1  0  0  0  0
  3  4  1  0  0  0  0
  3  5  1  0  0  0  0
  3 26  1  0  0  0  0
  4 27  1  0  0  0  0
  4 28  1  0  0  0  0
  4 29  1  0  0  0  0
  5  6  1  0  0  0  0
  5 18  1  0  0  0  0
  5 30  1  0  0  0  0
  6  7  1  0  0  0  0
  6 31  1  0  0  0  0
  7  8  2  0  0  0  0
  7  9  1  0  0  0  0
  9 10  1  0  0  0  0
  9 32  1  0  0  0  0
  9 33  1  0  0  0  0
 10 17  2  0  0  0  0
 10 11  1  0  0  0  0
 11 12  2  0  0  0  0
 11 34  1  0  0  0  0
 12 13  1  0  0  0  0
 12 35  1  0  0  0  0
 13 14  1  0  0  0  0
 13 17  1  0  0  0  0
 14 15  1  0  0  0  0
 14 16  1  0  0  0  0
 14 36  1  0  0  0  0
 15 37  1  0  0  0  0
 15 38  1  0  0  0  0
 15 39  1  0  0  0  0
 16 40  1  0  0  0  0
 16 41  1  0  0  0  0
 16 42  1  0  0  0  0
 18 19  2  0  0  0  0
 18 20  1  0  0  0  0
M  CHG  1  20  -1
M  END
> <s_m_source_file>
AV-unprocessed.smi

> <i_m_source_file_index>
2892

> <i_lp_mmshare_version>
43012

> <i_f3d_flags>
0

> <s_epik_input>
W0NIM11bQ0gyXVtDQEhdKFtDSDNdKVtDQEBIXShDKD1PKVtPSF0pW05IXUMoPU8pW0NIMl1jMVtjSF1bY0hdbihuMSlbQ0hdKFtDSDNdKVtDSDNd

> <s_epik_cmdline>
J2VwaWtfcHl0aG9uJywgJy1waCcsICc3LjAnLCAnLXRuJywgJzgnLCAnLW1hJywgJzIwMCcsICctbWV0YWxfYmluZGluZycsICctaW1hZScsICc8aW5maWxlLm1hZT4nLCAnLW9tYWUnLCAnPG91dGZpbGUubWFlPic=

> <r_lp_tautomer_probability>
1

> <r_epik_Ionization_Penalty>
0.000286846

> <r_epik_Ionization_Penalty_Charging>
0.000224481

> <r_epik_Ionization_Penalty_Neutral>
6.23655e-05

> <r_epik_State_Penalty>
-0

> <r_epik_Charging_Adjusted_Penalty>
0.000224481

> <i_epik_Tot_Q>
-1

> <i_epik_Tot_abs_Q>
1

> <r_epik_Metal_State_Penalty>
-0

> <b_epik_Metal_Only>
0

> <s_lp_Force_Field>
OPLS_2005

> <r_lp_Energy>
13.0415

> <b_lp_Chiralities_Consistent>
1

> <s_lp_Variant>
AV-unprocessed.smi:2892-3

> <Gold.Version>
5.8.1

> <Gold.Id.Protein>
6NUR|6NUR_protein|mol2

> <Gold.PLP.Fitness>
44.3387

> <Gold.PLP.PLP>
-31.9301

> <Gold.PLP.part.hbond>
-3.0000

> <Gold.PLP.part.metal>
0.0000

> <Gold.PLP.part.buried>
-0.7720

> <Gold.PLP.part.nonpolar>
-27.2572

> <Gold.PLP.part.repulsive>
0.1186

> <Gold.PLP.ligand.clash>
0.0000

> <Gold.PLP.ligand.torsion>
1.7449

> <Gold.PLP.Chemscore.Hbond>
5.0000

> <Gold.PLP.Chemscore.CHOScore>
0.2432

> <Gold.PLP.Chemscore.Metal>
0.0000

> <Gold.Chemscore.Hbonds>
donor molecule, donor type, donor heavy atom, donor atom, acceptor molecule, acceptor atom, score
      P1  H  6896  6908       L1     8  1.00
      P1  H  6931  6943       L1    20  2.00
      P1  H  6934  6947       L1    19  2.00

> <Gold.PLP.Chemscore.Internal.Correction>
0.1687

> <Gold.Rescore>
     Score         DG    S(hbond)    S(metal)    S(lipo)     H(rot)  DE(clash)    DE(int)     intcor
     13.77     -15.56       2.39        0.00      70.32       2.39       0.07       1.73       ----

> <Gold.Chemscore.Fitness>
13.7669

> <Gold.Chemscore.DG>
-15.5645

> <Gold.Chemscore.ZeroCoef>
-5.4800

> <Gold.Chemscore.Hbond>
2.3852

> <Gold.Chemscore.Metal>
0.0000

> <Gold.Chemscore.Lipo>
70.3190

> <Gold.Chemscore.Internal_Hbond>
0.0000

> <Gold.Chemscore.DEClash>
0.0701

> <Gold.Chemscore.DEInternal>
1.7274

> <Gold.Chemscore.Rot>
2.3865

> <Gold.Chemscore.Internal.Correction>
   9.000000E+99

> <Gold.Chemscore.Hbonds>
donor molecule, donor type, donor heavy atom, donor atom, acceptor molecule, acceptor atom, score
      P1  H  6896  6908       L1     8  0.99
      P1  H  6931  6943       L1    20  0.85
      P1  H  6934  6947       L1    19  0.78

> <Gold.Chemscore.Hbond.Weighted>
-7.9665

> <Gold.Chemscore.Metal.Weighted>
-0.0000

> <Gold.Chemscore.Lipo.Weighted>
-8.2273

> <Gold.Chemscore.Internal_Hbond.Weighted>
0.0000

> <Gold.Chemscore.DEClash.Weighted>
0.0701

> <Gold.Chemscore.DEInternal.Weighted>
1.7274

> <Gold.Chemscore.Rot.Weighted>
6.1093

> <Gold.Chemscore.Internal.Correction.Weighted>
   9.000000E+99

> <Gold.Protein.RotatedTorsions>
[ 6907 6896 6895 6894 ] final  134.35 input  -60.11 | X-H torsion
[ 7974 7965 7964 7962 ] final  153.48 input  175.53 | X-H torsion
[ 8008 7997 7996 7995 ] final  128.98 input   59.86 | X-H torsion
[ 10167 10162 10161 10158 ] final  105.10 input  -65.29 | X-H torsion
[ 10718 10713 10712 10709 ] final  101.67 input   66.30 | X-H torsion
[ 10763 10752 10751 10750 ] final  158.06 input  -60.55 | X-H torsion
[ 11005 11000 10999 10996 ] final  -16.77 input  -57.11 | X-H torsion

> <Gold.Protein.ActiveResidues>
 VAL166  LYS551  ARG553  GLY616  TRP617  ASP618  TYR619  PRO620  LYS621  CYS622 
 ASP623  PHE694  ASN695  SER759  ASP760  ASP761  ALA762  ILE779  LEU786  VAL792 
 PHE793  MET794  SER795  GLU796  ALA797  LYS798  CYS799  TRP800  GLU811  SER814 

> <Gold.Protein.RotatedAtoms>
  152.3122  133.5765  159.5688 H   0  0  0  0  0  0  0  0  0  0  0  0  # atno 6907 bound_to 6896
  150.7329  134.0135  159.3686 H   0  0  0  0  0  0  0  0  0  0  0  0  # atno 6908 bound_to 6896
  151.8026  135.0705  160.0453 H   0  0  0  0  0  0  0  0  0  0  0  0  # atno 6909 bound_to 6896
  144.8151  139.6807  143.6124 H   0  0  0  0  0  0  0  0  0  0  0  0  # atno 7974 bound_to 7965
  156.2926  140.2631  156.2524 H   0  0  0  0  0  0  0  0  0  0  0  0  # atno 8008 bound_to 7997
  154.9870  140.0389  157.2321 H   0  0  0  0  0  0  0  0  0  0  0  0  # atno 8009 bound_to 7997
  154.7720  140.2780  155.6135 H   0  0  0  0  0  0  0  0  0  0  0  0  # atno 8010 bound_to 7997
  139.7121  144.7075  151.1010 H   0  0  0  0  0  0  0  0  0  0  0  0  # atno 10167 bound_to 10162
  157.6823  131.0732  150.5287 H   0  0  0  0  0  0  0  0  0  0  0  0  # atno 10718 bound_to 10713
  154.2101  135.2786  155.2961 H   0  0  0  0  0  0  0  0  0  0  0  0  # atno 10763 bound_to 10752
  154.5785  135.5596  153.7166 H   0  0  0  0  0  0  0  0  0  0  0  0  # atno 10764 bound_to 10752
  153.0066  135.6339  154.2240 H   0  0  0  0  0  0  0  0  0  0  0  0  # atno 10765 bound_to 10752
  140.8101  133.8147  155.9555 H   0  0  0  0  0  0  0  0  0  0  0  0  # atno 11005 bound_to 11000
  146.2454  139.6087  142.9463 LP  0  0  0  0  0  0  0  0  0  0  0  0  # atno 17320 bound_to 7965
  145.5232  141.0431  143.2424 LP  0  0  0  0  0  0  0  0  0  0  0  0  # atno 17321 bound_to 7965
  140.7735  143.5279  150.9458 LP  0  0  0  0  0  0  0  0  0  0  0  0  # atno 17342 bound_to 10162
  139.8964  143.6889  152.3138 LP  0  0  0  0  0  0  0  0  0  0  0  0  # atno 17343 bound_to 10162
  156.5598  130.4252  149.6068 LP  0  0  0  0  0  0  0  0  0  0  0  0  # atno 17370 bound_to 10713
  156.2831  130.7082  151.1911 LP  0  0  0  0  0  0  0  0  0  0  0  0  # atno 17371 bound_to 10713
  140.9207  134.2146  157.4928 LP  0  0  0  0  0  0  0  0  0  0  0  0  # atno 17394 bound_to 11000
  139.8715  134.9791  156.5022 LP  0  0  0  0  0  0  0  0  0  0  0  0  # atno 17395 bound_to 11000

$$$$
