#       Name:                AV-unprocessed.smi:2772
#       Creating user name   scv26
#       Creation time:       Fri Mar 27 15:12:20 2020


#       File generated by GOLD software.
#

@<TRIPOS>MOLECULE
AV-unprocessed.smi:2772
    58    60     1
SMALL
NO_CHARGES


@<TRIPOS>ATOM
      1 ****        -7.8849   5.3625   0.0295 C.3            1 S1                 0.0000
      2 ****        -6.7384   4.3738   0.0070 C.ar           1 S1                 0.0000
      3 ****        -6.9059   3.0316  -0.3929 C.ar           1 S1                 0.0000
      4 ****        -5.7917   2.1671  -0.3854 C.ar           1 S1                 0.0000
      5 ****        -4.5273   2.6557   0.0114 C.ar           1 S1                 0.0000
      6 ****        -3.4361   1.7435   0.0146 N.am           1 S1                 0.0000
      7 ****        -2.1193   2.0155   0.0184 C.2            1 S1                 0.0000
      8 ****        -1.6296   3.1442  -0.0002 O.2            1 S1                 0.0000
      9 ****        -1.3894   0.8898   0.0271 N.am           1 S1                 0.0000
     10 ****         0.0707   0.8221   0.0150 C.3            1 S1                 0.0000
     11 ****         0.5580   0.1067  -1.2578 C.3            1 S1                 0.0000
     12 ****         2.0848  -0.1009  -1.2239 C.3            1 S1                 0.0000
     13 ****         2.5187  -0.8607  -0.0156 N.4            1 S1                 1.0000
     14 ****         2.1792  -2.3274  -0.0201 C.3            1 S1                 0.0000
     15 ****         2.7152  -3.0898   1.2162 C.3            1 S1                 0.0000
     16 ****         4.2536  -3.1655   1.2223 C.3            1 S1                 0.0000
     17 ****         4.7625  -3.8168  -0.0110 N.4            1 S1                 1.0000
     18 ****         6.2346  -3.9600  -0.0039 C.3            1 S1                 0.0000
     19 ****         4.2663  -3.1586  -1.2460 C.3            1 S1                 0.0000
     20 ****         2.7278  -3.0819  -1.2556 C.3            1 S1                 0.0000
     21 ****         2.1071  -0.1110   1.2068 C.3            1 S1                 0.0000
     22 ****         0.5807   0.0931   1.2711 C.3            1 S1                 0.0000
     23 ****        -4.4258   4.0116   0.4129 C.ar           1 S1                 0.0000
     24 ****        -5.5179   4.8064   0.3924 N.pl3          1 S1                 1.0000
     25 ****        -8.8104   4.8994  -0.3141 H              1 S1                 0.0000
     26 ****        -7.6680   6.2120  -0.6189 H              1 S1                 0.0000
     27 ****        -8.0455   5.7336   1.0422 H              1 S1                 0.0000
     28 ****        -7.8744   2.6652  -0.7013 H              1 S1                 0.0000
     29 ****        -5.9108   1.1367  -0.6879 H              1 S1                 0.0000
     30 ****        -3.6879   0.7673  -0.0426 H              1 S1                 0.0000
     31 ****        -1.8830   0.0089   0.0387 H              1 S1                 0.0000
     32 ****         0.4984   1.8265   0.0174 H              1 S1                 0.0000
     33 ****         0.0522  -0.8528  -1.3715 H              1 S1                 0.0000
     34 ****         0.2898   0.6960  -2.1357 H              1 S1                 0.0000
     35 ****         2.4364  -0.5547  -2.1474 H              1 S1                 0.0000
     36 ****         2.5703   0.8758  -1.1993 H              1 S1                 0.0000
     37 ****         1.0936  -2.4234  -0.0249 H              1 S1                 0.0000
     38 ****         2.3430  -2.6789   2.1526 H              1 S1                 0.0000
     39 ****         2.3218  -4.1075   1.1960 H              1 S1                 0.0000
     40 ****         4.6830  -2.1669   1.3164 H              1 S1                 0.0000
     41 ****         4.5849  -3.7345   2.0919 H              1 S1                 0.0000
     42 ****         6.7222  -2.9842  -0.0003 H              1 S1                 0.0000
     43 ****         6.5737  -4.5083  -0.8834 H              1 S1                 0.0000
     44 ****         6.5650  -4.5103   0.8776 H              1 S1                 0.0000
     45 ****         4.6971  -2.1597  -1.3304 H              1 S1                 0.0000
     46 ****         4.6064  -3.7230  -2.1152 H              1 S1                 0.0000
     47 ****         2.3335  -4.0993  -1.2468 H              1 S1                 0.0000
     48 ****         2.3673  -2.6640  -2.1933 H              1 S1                 0.0000
     49 ****         2.4785  -0.5708   2.1196 H              1 S1                 0.0000
     50 ****         2.5906   0.8667   1.1805 H              1 S1                 0.0000
     51 ****         0.3281   0.6723   2.1602 H              1 S1                 0.0000
     52 ****         0.0789  -0.8686   1.3832 H              1 S1                 0.0000
     53 ****        -3.5252   4.4942   0.7608 H              1 S1                 0.0000
     54 ****         3.5280  -0.8249  -0.0242 H              1 S1                 0.0000
     55 ****         4.3859  -4.7545  -0.0155 H              1 S1                 0.0000
     56 ****        -5.4157   5.7786   0.6847 H              1 S1                 0.0000
     57 ****        -2.2251   3.9474  -0.0200 LP             1 S1                 0.0000
     58 ****        -0.6362   3.2584   0.0044 LP             1 S1                 0.0000
@<TRIPOS>BOND
    1    1    2 1     
    2    1   25 1     
    3    1   26 1     
    4    1   27 1     
    5    2   24 ar    
    6    2    3 ar    
    7    3    4 ar    
    8    3   28 1     
    9    4    5 ar    
   10    4   29 1     
   11    5    6 1     
   12    5   23 ar    
   13    6    7 am    
   14    6   30 1     
   15    7    8 2     
   16    7    9 am    
   17    9   10 1     
   18    9   31 1     
   19   10   22 1     
   20   10   11 1     
   21   10   32 1     
   22   11   12 1     
   23   11   33 1     
   24   11   34 1     
   25   12   13 1     
   26   12   35 1     
   27   12   36 1     
   28   13   14 1     
   29   13   21 1     
   30   13   54 1     
   31   14   20 1     
   32   14   15 1     
   33   14   37 1     
   34   15   16 1     
   35   15   38 1     
   36   15   39 1     
   37   16   17 1     
   38   16   40 1     
   39   16   41 1     
   40   17   18 1     
   41   17   19 1     
   42   17   55 1     
   43   18   42 1     
   44   18   43 1     
   45   18   44 1     
   46   19   20 1     
   47   19   45 1     
   48   19   46 1     
   49   20   47 1     
   50   20   48 1     
   51   21   22 1     
   52   21   49 1     
   53   21   50 1     
   54   22   51 1     
   55   22   52 1     
   56   23   24 ar    
   57   23   53 1     
   58   24   56 1     
   59    8   57 1     
   60    8   58 1     
@<TRIPOS>SUBSTRUCTURE
      1 S1             1
@<TRIPOS>SET
LONE_PAIRS      STATIC     ATOMS    <user>   **** ""
2 57 58
DONOR_HYDROGENS      STATIC     ATOMS    <user>   **** ""
5 30 31 54 55 56
ATOM$BLUE        STATIC     ATOMS    COLORGROUP SYSTEM
2 57 58
ATOM$RED        STATIC     ATOMS    COLORGROUP SYSTEM
5 30 31 54 55 56
