AV-unprocessed.smi:2083|AV-procd|sdf|8511|dock4
  -GOLD-   2272011223D 1   1.00000     0.00000
 Structure written by MMmdl.
 44 45  0  0  0  0  0  0  0  0  3 V2000
  155.1064  133.9804  163.3811 C   0  0  0  0  0  0  0  0  0  0  0  0
  154.7720  134.7568  162.1539 C   0  0  0  0  0  0  0  0  0  0  0  0
  154.7095  136.0958  161.8893 C   0  0  0  0  0  0  0  0  0  0  0  0
  154.3312  136.1355  160.5206 C   0  0  0  0  0  0  0  0  0  0  0  0
  154.1584  137.3774  159.8544 N   0  0  0  0  0  0  0  0  0  0  0  0
  153.4396  137.6502  158.7500 C   0  0  0  0  0  0  0  0  0  0  0  0
  152.8087  136.7537  158.1770 O   0  0  0  0  0  0  0  0  0  0  0  0
  153.5176  138.9630  158.3997 N   0  5  0  0  0  0  0  0  0  0  0  0
  152.5068  139.9688  158.7219 C   0  0  0  0  0  0  0  0  0  0  0  0
  153.0068  140.8914  159.8800 C   0  0  1  0  0  0  0  0  0  0  0  0
  154.5489  140.9593  159.9896 C   0  0  0  0  0  0  0  0  0  0  0  0
  152.4321  142.2804  159.8981 N   0  3  1  0  0  0  0  0  0  0  0  0
  152.9078  143.2070  160.9685 C   0  0  0  0  0  0  0  0  0  0  0  0
  151.9808  144.4270  161.0791 C   0  0  0  0  0  0  0  0  0  0  0  0
  151.8577  145.1489  159.7291 C   0  0  0  0  0  0  0  0  0  0  0  0
  151.4259  144.1818  158.6099 C   0  0  2  0  0  0  0  0  0  0  0  0
  149.9419  143.7859  158.7050 C   0  0  0  0  0  0  0  0  0  0  0  0
  152.3559  142.9517  158.5680 C   0  0  0  0  0  0  0  0  0  0  0  0
  154.1758  134.9279  159.9981 N   0  0  0  0  0  0  0  0  0  0  0  0
  154.4566  134.0386  161.0421 O   0  0  0  0  0  0  0  0  0  0  0  0
  155.5564  134.6229  164.1381 H   0  0  0  0  0  0  0  0  0  0  0  0
  155.8124  133.1814  163.1537 H   0  0  0  0  0  0  0  0  0  0  0  0
  154.2106  133.5303  163.8087 H   0  0  0  0  0  0  0  0  0  0  0  0
  154.9042  136.9142  162.5664 H   0  0  0  0  0  0  0  0  0  0  0  0
  154.6453  138.1613  160.2628 H   0  0  0  0  0  0  0  0  0  0  0  0
  152.2520  140.5888  157.8616 H   0  0  0  0  0  0  0  0  0  0  0  0
  151.5743  139.4934  159.0277 H   0  0  0  0  0  0  0  0  0  0  0  0
  152.6735  140.4342  160.8133 H   0  0  0  0  0  0  0  0  0  0  0  0
  154.9894  139.9819  160.1951 H   0  0  0  0  0  0  0  0  0  0  0  0
  154.8458  141.6106  160.8123 H   0  0  0  0  0  0  0  0  0  0  0  0
  155.0217  141.3437  159.0849 H   0  0  0  0  0  0  0  0  0  0  0  0
  152.9378  142.6988  161.9315 H   0  0  0  0  0  0  0  0  0  0  0  0
  153.9237  143.5435  160.7558 H   0  0  0  0  0  0  0  0  0  0  0  0
  150.9963  144.1125  161.4269 H   0  0  0  0  0  0  0  0  0  0  0  0
  152.3643  145.1157  161.8326 H   0  0  0  0  0  0  0  0  0  0  0  0
  151.1583  145.9821  159.8066 H   0  0  0  0  0  0  0  0  0  0  0  0
  152.8239  145.5851  159.4717 H   0  0  0  0  0  0  0  0  0  0  0  0
  151.5412  144.7103  157.6627 H   0  0  0  0  0  0  0  0  0  0  0  0
  149.7292  143.2132  159.6080 H   0  0  0  0  0  0  0  0  0  0  0  0
  149.6460  143.1752  157.8515 H   0  0  0  0  0  0  0  0  0  0  0  0
  149.3007  144.6678  158.7128 H   0  0  0  0  0  0  0  0  0  0  0  0
  153.3538  143.2645  158.2578 H   0  0  0  0  0  0  0  0  0  0  0  0
  151.9992  142.2524  157.8107 H   0  0  0  0  0  0  0  0  0  0  0  0
  151.4643  142.1143  160.1321 H   0  0  0  0  0  0  0  0  0  0  0  0
  1  2  1  0  0  0  0
  1 21  1  0  0  0  0
  1 22  1  0  0  0  0
  1 23  1  0  0  0  0
  2 20  1  0  0  0  0
  2  3  2  0  0  0  0
  3  4  1  0  0  0  0
  3 24  1  0  0  0  0
  4  5  1  0  0  0  0
  4 19  2  0  0  0  0
  5  6  1  0  0  0  0
  5 25  1  0  0  0  0
  6  7  2  0  0  0  0
  6  8  1  0  0  0  0
  8  9  1  0  0  0  0
  9 10  1  0  0  0  0
  9 26  1  0  0  0  0
  9 27  1  0  0  0  0
 10 11  1  0  0  0  0
 10 12  1  0  0  0  0
 10 28  1  0  0  0  0
 11 29  1  0  0  0  0
 11 30  1  0  0  0  0
 11 31  1  0  0  0  0
 12 18  1  0  0  0  0
 12 13  1  0  0  0  0
 12 44  1  0  0  0  0
 13 14  1  0  0  0  0
 13 32  1  0  0  0  0
 13 33  1  0  0  0  0
 14 15  1  0  0  0  0
 14 34  1  0  0  0  0
 14 35  1  0  0  0  0
 15 16  1  0  0  0  0
 15 36  1  0  0  0  0
 15 37  1  0  0  0  0
 16 17  1  0  0  0  0
 16 18  1  0  0  0  0
 16 38  1  0  0  0  0
 17 39  1  0  0  0  0
 17 40  1  0  0  0  0
 17 41  1  0  0  0  0
 18 42  1  0  0  0  0
 18 43  1  0  0  0  0
 19 20  1  0  0  0  0
M  CHG  1   8  -1
M  CHG  1  12   1
M  END
> <s_m_source_file>
AV-unprocessed.smi

> <i_m_source_file_index>
2083

> <i_lp_mmshare_version>
43012

> <i_f3d_flags>
0

> <s_epik_input>
W0NIM11jMVtjSF1jKG5vMSlbTkhdQyg9TylbTkhdW0NIMl1bQ0BIXShbQ0gzXSlOMltDSDJdW0NIMl1bQ0gyXVtDQEBIXShbQ0gzXSlbQ0gyXTI=

> <s_epik_cmdline>
J2VwaWtfcHl0aG9uJywgJy1waCcsICc3LjAnLCAnLXRuJywgJzgnLCAnLW1hJywgJzIwMCcsICctbWV0YWxfYmluZGluZycsICctaW1hZScsICc8aW5maWxlLm1hZT4nLCAnLW9tYWUnLCAnPG91dGZpbGUubWFlPic=

> <r_epik_Ionization_Penalty>
6.76934

> <r_epik_Ionization_Penalty_Charging>
6.76934

> <r_epik_Ionization_Penalty_Neutral>
5.77849e-06

> <r_epik_State_Penalty>
6.79457

> <r_epik_Charging_Adjusted_Penalty>
13.5639

> <i_epik_Tot_Q>
0

> <i_epik_Tot_abs_Q>
2

> <r_epik_Metal_State_Penalty>
2.72837

> <b_epik_Metal_Only>
1

> <s_lp_Force_Field>
OPLS_2005

> <r_lp_Energy>
23.3528

> <b_lp_Chiralities_Consistent>
1

> <s_lp_Variant>
AV-unprocessed.smi:2083-22

> <Gold.Version>
5.8.1

> <Gold.Id.Protein>
6NUR|6NUR_protein|mol2

> <Gold.PLP.Fitness>
44.0415

> <Gold.PLP.PLP>
-38.1334

> <Gold.PLP.part.hbond>
-1.9876

> <Gold.PLP.part.metal>
0.0000

> <Gold.PLP.part.buried>
-4.4726

> <Gold.PLP.part.nonpolar>
-31.9606

> <Gold.PLP.part.repulsive>
0.1065

> <Gold.PLP.ligand.clash>
0.0000

> <Gold.PLP.ligand.torsion>
1.5873

> <Gold.PLP.Chemscore.Hbond>
2.9500

> <Gold.PLP.Chemscore.CHOScore>
0.0000

> <Gold.PLP.Chemscore.Metal>
0.0000

> <Gold.Chemscore.Hbonds>
donor molecule, donor type, donor heavy atom, donor atom, acceptor molecule, acceptor atom, score
      P1  H  6896  6909       L1    19  0.75
      P1  H  7997  8009       L1     8  1.82

> <Gold.PLP.Chemscore.Internal.Correction>
0.2326

> <Gold.Rescore>
     Score         DG    S(hbond)    S(metal)    S(lipo)     H(rot)  DE(clash)    DE(int)     intcor
     15.02     -17.83       1.44        0.00      97.76       1.52       0.00       2.80       ----

> <Gold.Chemscore.Fitness>
15.0244

> <Gold.Chemscore.DG>
-17.8312

> <Gold.Chemscore.ZeroCoef>
-5.4800

> <Gold.Chemscore.Hbond>
1.4376

> <Gold.Chemscore.Metal>
0.0000

> <Gold.Chemscore.Lipo>
97.7638

> <Gold.Chemscore.Internal_Hbond>
0.0000

> <Gold.Chemscore.DEClash>
0.0044

> <Gold.Chemscore.DEInternal>
2.8024

> <Gold.Chemscore.Rot>
1.5190

> <Gold.Chemscore.Internal.Correction>
   9.000000E+99

> <Gold.Chemscore.Hbonds>
donor molecule, donor type, donor heavy atom, donor atom, acceptor molecule, acceptor atom, score
      P1  H  6896  6909       L1    19  0.05
      P1  H  7997  8009       L1     8  0.34

> <Gold.Chemscore.Hbond.Weighted>
-4.8014

> <Gold.Chemscore.Metal.Weighted>
-0.0000

> <Gold.Chemscore.Lipo.Weighted>
-11.4384

> <Gold.Chemscore.Internal_Hbond.Weighted>
0.0000

> <Gold.Chemscore.DEClash.Weighted>
0.0044

> <Gold.Chemscore.DEInternal.Weighted>
2.8024

> <Gold.Chemscore.Rot.Weighted>
3.8886

> <Gold.Chemscore.Internal.Correction.Weighted>
   9.000000E+99

> <Gold.Protein.RotatedTorsions>
[ 6907 6896 6895 6894 ] final -179.94 input  -60.11 | X-H torsion
[ 7974 7965 7964 7962 ] final  177.05 input  175.53 | X-H torsion
[ 8008 7997 7996 7995 ] final  133.16 input   59.86 | X-H torsion
[ 10167 10162 10161 10158 ] final  167.06 input  -65.29 | X-H torsion
[ 10718 10713 10712 10709 ] final  131.77 input   66.30 | X-H torsion
[ 10763 10752 10751 10750 ] final   64.30 input  -60.55 | X-H torsion
[ 11005 11000 10999 10996 ] final   18.26 input  -57.11 | X-H torsion

> <Gold.Protein.ActiveResidues>
 VAL166  LYS551  ARG553  GLY616  TRP617  ASP618  TYR619  PRO620  LYS621  CYS622 
 ASP623  PHE694  ASN695  SER759  ASP760  ASP761  ALA762  ILE779  LEU786  VAL792 
 PHE793  MET794  SER795  GLU796  ALA797  LYS798  CYS799  TRP800  GLU811  SER814 

> <Gold.Protein.RotatedAtoms>
  151.6616  133.3317  159.3174 H   0  0  0  0  0  0  0  0  0  0  0  0  # atno 6907 bound_to 6896
  150.7911  134.6939  159.6521 H   0  0  0  0  0  0  0  0  0  0  0  0  # atno 6908 bound_to 6896
  152.3990  134.6321  160.0129 H   0  0  0  0  0  0  0  0  0  0  0  0  # atno 6909 bound_to 6896
  144.7175  140.0189  143.6440 H   0  0  0  0  0  0  0  0  0  0  0  0  # atno 7974 bound_to 7965
  156.2990  140.2528  156.3207 H   0  0  0  0  0  0  0  0  0  0  0  0  # atno 8008 bound_to 7997
  154.9238  140.0400  157.2031 H   0  0  0  0  0  0  0  0  0  0  0  0  # atno 8009 bound_to 7997
  154.8285  140.2872  155.5743 H   0  0  0  0  0  0  0  0  0  0  0  0  # atno 8010 bound_to 7997
  139.4937  144.3962  151.9462 H   0  0  0  0  0  0  0  0  0  0  0  0  # atno 10167 bound_to 10162
  157.4935  131.1091  150.9524 H   0  0  0  0  0  0  0  0  0  0  0  0  # atno 10718 bound_to 10713
  153.0050  135.5398  154.6488 H   0  0  0  0  0  0  0  0  0  0  0  0  # atno 10763 bound_to 10752
  154.5725  135.2843  155.0815 H   0  0  0  0  0  0  0  0  0  0  0  0  # atno 10764 bound_to 10752
  154.1975  135.6489  153.5130 H   0  0  0  0  0  0  0  0  0  0  0  0  # atno 10765 bound_to 10752
  140.4268  134.1461  155.7677 H   0  0  0  0  0  0  0  0  0  0  0  0  # atno 11005 bound_to 11000
  146.0197  139.3240  143.0820 LP  0  0  0  0  0  0  0  0  0  0  0  0  # atno 17320 bound_to 7965
  145.8583  140.9490  143.0713 LP  0  0  0  0  0  0  0  0  0  0  0  0  # atno 17321 bound_to 7965
  140.3400  144.3215  150.5969 LP  0  0  0  0  0  0  0  0  0  0  0  0  # atno 17342 bound_to 10162
  140.5574  143.2197  151.7824 LP  0  0  0  0  0  0  0  0  0  0  0  0  # atno 17343 bound_to 10162
  157.0218  130.5677  149.5332 LP  0  0  0  0  0  0  0  0  0  0  0  0  # atno 17370 bound_to 10713
  156.0187  130.5282  150.8212 LP  0  0  0  0  0  0  0  0  0  0  0  0  # atno 17371 bound_to 10713
  141.1762  133.8509  157.1414 LP  0  0  0  0  0  0  0  0  0  0  0  0  # atno 17394 bound_to 11000
  140.0162  134.9966  157.0497 LP  0  0  0  0  0  0  0  0  0  0  0  0  # atno 17395 bound_to 11000

$$$$
