#       Name:                AV-unprocessed.smi:3269
#       Creating user name   scv26
#       Creation time:       Fri Mar 27 18:41:55 2020


#       File generated by GOLD software.
#

@<TRIPOS>MOLECULE
AV-unprocessed.smi:3269
    44    45     1
SMALL
NO_CHARGES


@<TRIPOS>ATOM
      1 ****        -1.5840   1.7231   1.2591 C.3            1 S1                 0.0000
      2 ****        -2.1238   0.3232   1.2006 C.2            1 S1                 0.0000
      3 ****        -3.4322   0.1313   1.1690 N.2            1 S1                 0.0000
      4 ****        -3.5820  -1.2074   1.1150 N.pl3          1 S1                 0.0000
      5 ****        -4.9164  -1.7729   1.0702 C.3            1 S1                 0.0000
      6 ****        -2.3655  -1.8621   1.1110 C.2            1 S1                 0.0000
      7 ****        -2.2618  -3.3518   1.0474 C.3            1 S1                 0.0000
      8 ****        -1.3927  -0.9004   1.1743 C.2            1 S1                 0.0000
      9 ****         0.1070  -1.0729   1.2090 C.3            1 S1                 0.0000
     10 ****         0.7229  -0.9851  -0.1925 C.2            1 S1                 0.0000
     11 ****         0.0275  -1.0953  -1.2034 O.2            1 S1                 0.0000
     12 ****         2.0490  -0.7863  -0.2319 N.am           1 S1                 0.0000
     13 ****         2.8468  -0.6392  -1.4457 C.3            1 S1                 0.0000
     14 ****         2.9777   0.8284  -1.8968 C.3            1 S1                 0.0000
     15 ****         3.5452   1.7982  -0.8563 C.3            1 S1                 0.0000
     16 ****         2.9968   3.1183  -1.3485 C.3            1 S1                 0.0000
     17 ****         1.6027   2.7167  -1.8214 C.3            1 S1                 0.0000
     18 ****         1.7172   1.3728  -2.2811 O.3            1 S1                 0.0000
     19 ****        -0.7825   1.8603   0.5339 H              1 S1                 0.0000
     20 ****        -1.1793   1.9428   2.2470 H              1 S1                 0.0000
     21 ****        -2.3543   2.4638   1.0419 H              1 S1                 0.0000
     22 ****        -5.0451  -2.4734   1.8958 H              1 S1                 0.0000
     23 ****        -5.0583  -2.3020   0.1277 H              1 S1                 0.0000
     24 ****        -5.6711  -0.9893   1.1527 H              1 S1                 0.0000
     25 ****        -1.2367  -3.6686   0.8564 H              1 S1                 0.0000
     26 ****        -2.8846  -3.7521   0.2473 H              1 S1                 0.0000
     27 ****        -2.5845  -3.8017   1.9863 H              1 S1                 0.0000
     28 ****         0.5662  -0.3112   1.8404 H              1 S1                 0.0000
     29 ****         0.3854  -2.0318   1.6465 H              1 S1                 0.0000
     30 ****         2.5413  -0.7110   0.6463 H              1 S1                 0.0000
     31 ****         3.8386  -1.0423  -1.2399 H              1 S1                 0.0000
     32 ****         2.4352  -1.2461  -2.2539 H              1 S1                 0.0000
     33 ****         3.6137   0.8666  -2.7825 H              1 S1                 0.0000
     34 ****         3.1561   1.5917   0.1411 H              1 S1                 0.0000
     35 ****         4.6342   1.7788  -0.8076 H              1 S1                 0.0000
     36 ****         2.9803   3.8912  -0.5797 H              1 S1                 0.0000
     37 ****         3.5900   3.4815  -2.1887 H              1 S1                 0.0000
     38 ****         0.9001   2.7373  -0.9881 H              1 S1                 0.0000
     39 ****         1.2209   3.3750  -2.6018 H              1 S1                 0.0000
     40 ****        -4.1515   0.8260   1.1823 LP             1 S1                 0.0000
     41 ****        -0.9576  -1.2449  -1.1187 LP             1 S1                 0.0000
     42 ****         0.4481  -1.0351  -2.1086 LP             1 S1                 0.0000
     43 ****         0.9839   0.8230  -1.8812 LP             1 S1                 0.0000
     44 ****         1.6402   1.3567  -3.2780 LP             1 S1                 0.0000
@<TRIPOS>BOND
    1    1    2 1     
    2    1   19 1     
    3    1   20 1     
    4    1   21 1     
    5    2    8 1     
    6    2    3 2     
    7    3    4 1     
    8    4    5 1     
    9    4    6 1     
   10    5   22 1     
   11    5   23 1     
   12    5   24 1     
   13    6    7 1     
   14    6    8 2     
   15    7   25 1     
   16    7   26 1     
   17    7   27 1     
   18    8    9 1     
   19    9   10 1     
   20    9   28 1     
   21    9   29 1     
   22   10   11 2     
   23   10   12 am    
   24   12   13 1     
   25   12   30 1     
   26   13   14 1     
   27   13   31 1     
   28   13   32 1     
   29   14   18 1     
   30   14   15 1     
   31   14   33 1     
   32   15   16 1     
   33   15   34 1     
   34   15   35 1     
   35   16   17 1     
   36   16   36 1     
   37   16   37 1     
   38   17   18 1     
   39   17   38 1     
   40   17   39 1     
   41    3   40 1     
   42   11   41 1     
   43   11   42 1     
   44   18   43 1     
   45   18   44 1     
@<TRIPOS>SUBSTRUCTURE
      1 S1             1
@<TRIPOS>SET
LONE_PAIRS      STATIC     ATOMS    <user>   **** ""
5 40 41 42 43 44
DONOR_HYDROGENS      STATIC     ATOMS    <user>   **** ""
1 30
ATOM$BLUE        STATIC     ATOMS    COLORGROUP SYSTEM
5 40 41 42 43 44
ATOM$RED        STATIC     ATOMS    COLORGROUP SYSTEM
1 30
