#       Name:                AV-unprocessed.smi:3249
#       Creating user name   scv26
#       Creation time:       Fri Mar 27 18:30:40 2020


#       File generated by GOLD software.
#

@<TRIPOS>MOLECULE
AV-unprocessed.smi:3249
    47    48     1
SMALL
NO_CHARGES


@<TRIPOS>ATOM
      1 ****        -2.8260  -2.8682  -5.0555 C.3            1 S1                 0.0000
      2 ****        -2.6279  -2.6220  -3.5875 C.2            1 S1                 0.0000
      3 ****        -3.1399  -3.3788  -2.4957 C.2            1 S1                 0.0000
      4 ****        -2.7787  -2.8927  -1.3196 N.2            1 S1                 0.0000
      5 ****        -2.0289  -1.8090  -1.6142 N.pl3          1 S1                 0.0000
      6 ****        -1.4444  -1.0197  -0.5375 C.3            1 S1                 0.0000
      7 ****        -1.9228   0.4401  -0.6429 C.3            1 S1                 0.0000
      8 ****         0.1013  -1.1529  -0.5005 C.3            1 S1                 0.0000
      9 ****         0.5842  -2.6142  -0.5371 C.3            1 S1                 0.0000
     10 ****         0.6462  -0.5026   0.7122 N.4            1 S1                 1.0000
     11 ****         1.4012   0.7430   0.4649 C.3            1 S1                 0.0000
     12 ****         1.8137   1.4074   1.7851 C.3            1 S1                 0.0000
     13 ****         2.7422   2.6151   1.5528 C.3            1 S1                 0.0000
     14 ****         3.0542   3.3190   2.8781 C.3            1 S1                 0.0000
     15 ****         1.7474   3.6618   3.6011 C.3            1 S1                 0.0000
     16 ****         0.8623   2.4118   3.7269 C.3            1 S1                 0.0000
     17 ****         0.6263   1.8533   2.4377 O.3            1 S1                 0.0000
     18 ****        -1.9195  -1.6258  -2.9783 C.2            1 S1                 0.0000
     19 ****        -3.4513  -3.7421  -5.2401 H              1 S1                 0.0000
     20 ****        -1.8778  -3.0378  -5.5658 H              1 S1                 0.0000
     21 ****        -3.3076  -2.0208  -5.5436 H              1 S1                 0.0000
     22 ****        -3.7596  -4.2630  -2.5237 H              1 S1                 0.0000
     23 ****        -1.8342  -1.4180   0.4017 H              1 S1                 0.0000
     24 ****        -1.6243   1.0226   0.2289 H              1 S1                 0.0000
     25 ****        -3.0105   0.4909  -0.7046 H              1 S1                 0.0000
     26 ****        -1.5168   0.9326  -1.5269 H              1 S1                 0.0000
     27 ****         0.5126  -0.6616  -1.3844 H              1 S1                 0.0000
     28 ****         0.3019  -3.1123  -1.4648 H              1 S1                 0.0000
     29 ****         0.1666  -3.1900   0.2896 H              1 S1                 0.0000
     30 ****         1.6709  -2.6692  -0.4652 H              1 S1                 0.0000
     31 ****        -0.1226  -0.2961   1.3344 H              1 S1                 0.0000
     32 ****         2.2869   0.4986  -0.1231 H              1 S1                 0.0000
     33 ****         0.8016   1.4341  -0.1289 H              1 S1                 0.0000
     34 ****         2.3230   0.6738   2.4131 H              1 S1                 0.0000
     35 ****         3.6687   2.2950   1.0751 H              1 S1                 0.0000
     36 ****         2.2663   3.3202   0.8700 H              1 S1                 0.0000
     37 ****         3.6624   2.6669   3.5065 H              1 S1                 0.0000
     38 ****         3.6400   4.2215   2.7018 H              1 S1                 0.0000
     39 ****         1.9586   4.0770   4.5870 H              1 S1                 0.0000
     40 ****         1.2117   4.4319   3.0447 H              1 S1                 0.0000
     41 ****         1.3260   1.6691   4.3778 H              1 S1                 0.0000
     42 ****        -0.0952   2.6753   4.1766 H              1 S1                 0.0000
     43 ****        -1.3524  -0.8092  -3.4004 H              1 S1                 0.0000
     44 ****         1.2625  -1.1560   1.1743 H              1 S1                 0.0000
     45 ****        -3.0095  -3.2485  -0.4140 LP             1 S1                 0.0000
     46 ****         0.0087   1.0734   2.5388 LP             1 S1                 0.0000
     47 ****         0.1930   2.5496   1.8655 LP             1 S1                 0.0000
@<TRIPOS>BOND
    1    1    2 1     
    2    1   19 1     
    3    1   20 1     
    4    1   21 1     
    5    2   18 2     
    6    2    3 1     
    7    3    4 2     
    8    3   22 1     
    9    4    5 1     
   10    5    6 1     
   11    5   18 1     
   12    6    7 1     
   13    6    8 1     
   14    6   23 1     
   15    7   24 1     
   16    7   25 1     
   17    7   26 1     
   18    8    9 1     
   19    8   10 1     
   20    8   27 1     
   21    9   28 1     
   22    9   29 1     
   23    9   30 1     
   24   10   11 1     
   25   10   31 1     
   26   10   44 1     
   27   11   12 1     
   28   11   32 1     
   29   11   33 1     
   30   12   17 1     
   31   12   13 1     
   32   12   34 1     
   33   13   14 1     
   34   13   35 1     
   35   13   36 1     
   36   14   15 1     
   37   14   37 1     
   38   14   38 1     
   39   15   16 1     
   40   15   39 1     
   41   15   40 1     
   42   16   17 1     
   43   16   41 1     
   44   16   42 1     
   45   18   43 1     
   46    4   45 1     
   47   17   46 1     
   48   17   47 1     
@<TRIPOS>SUBSTRUCTURE
      1 S1             1
@<TRIPOS>SET
LONE_PAIRS      STATIC     ATOMS    <user>   **** ""
3 45 46 47
DONOR_HYDROGENS      STATIC     ATOMS    <user>   **** ""
2 31 44
ATOM$BLUE        STATIC     ATOMS    COLORGROUP SYSTEM
3 45 46 47
ATOM$RED        STATIC     ATOMS    COLORGROUP SYSTEM
2 31 44
