#       Name:                AV-unprocessed.smi:2579
#       Creating user name   scv26
#       Creation time:       Fri Mar 27 14:14:15 2020


#       File generated by GOLD software.
#

@<TRIPOS>MOLECULE
AV-unprocessed.smi:2579
    43    45     1
SMALL
NO_CHARGES


@<TRIPOS>ATOM
      1 ****        -3.7125   1.2360  -2.2642 O.3            1 S1                 0.0000
      2 ****        -3.8458   0.5934  -1.0148 C.3            1 S1                 0.0000
      3 ****        -3.4789  -0.8934  -1.1480 C.3            1 S1                 0.0000
      4 ****        -2.0394  -1.1138  -1.1374 N.pl3          1 S1                 0.0000
      5 ****        -1.3307  -1.0506   0.0684 C.cat          1 S1                 0.0000
      6 ****        -1.8702  -1.0460   1.3169 N.pl3          1 S1                 1.0000
      7 ****        -0.8289  -0.9673   2.2460 C.ar           1 S1                 0.0000
      8 ****        -0.8546  -0.9286   3.6369 C.ar           1 S1                 0.0000
      9 ****         0.3915  -0.8424   4.2917 C.ar           1 S1                 0.0000
     10 ****         1.6009  -0.7954   3.5686 C.ar           1 S1                 0.0000
     11 ****         1.6178  -0.8356   2.1590 C.ar           1 S1                 0.0000
     12 ****         0.3834  -0.9250   1.5160 C.ar           1 S1                 0.0000
     13 ****         0.0223  -0.9857   0.1635 N.pl3          1 S1                 0.0000
     14 ****         1.0590  -0.9573  -0.8774 C.3            1 S1                 0.0000
     15 ****         1.3823   0.4747  -1.3325 C.3            1 S1                 0.0000
     16 ****         2.4933   0.5518  -2.3793 C.3            1 S1                 0.0000
     17 ****         3.0500   1.9357  -2.1365 C.3            1 S1                 0.0000
     18 ****         2.9785   2.0288  -0.6163 C.3            1 S1                 0.0000
     19 ****         1.8269   1.2795  -0.2412 O.3            1 S1                 0.0000
     20 ****        -3.9793   2.1379  -2.1698 H              1 S1                 0.0000
     21 ****        -3.2441   1.1005  -0.2600 H              1 S1                 0.0000
     22 ****        -4.8877   0.6862  -0.7080 H              1 S1                 0.0000
     23 ****        -3.9249  -1.4552  -0.3268 H              1 S1                 0.0000
     24 ****        -3.9018  -1.3116  -2.0620 H              1 S1                 0.0000
     25 ****        -1.5367  -1.0555  -2.0117 H              1 S1                 0.0000
     26 ****        -1.7787  -0.9612   4.1952 H              1 S1                 0.0000
     27 ****         0.4204  -0.8099   5.3712 H              1 S1                 0.0000
     28 ****         2.5357  -0.7261   4.1058 H              1 S1                 0.0000
     29 ****         2.5501  -0.7919   1.6156 H              1 S1                 0.0000
     30 ****         1.9487  -1.4655  -0.5051 H              1 S1                 0.0000
     31 ****         0.6988  -1.5465  -1.7213 H              1 S1                 0.0000
     32 ****         0.4837   0.9457  -1.7342 H              1 S1                 0.0000
     33 ****         3.2633  -0.1960  -2.1830 H              1 S1                 0.0000
     34 ****         2.1291   0.4079  -3.3968 H              1 S1                 0.0000
     35 ****         4.0599   2.0684  -2.5253 H              1 S1                 0.0000
     36 ****         2.4030   2.6862  -2.5925 H              1 S1                 0.0000
     37 ****         3.8556   1.5628  -0.1654 H              1 S1                 0.0000
     38 ****         2.9204   3.0579  -0.2612 H              1 S1                 0.0000
     39 ****        -2.8612  -1.0926   1.5146 H              1 S1                 0.0000
     40 ****        -4.2930   0.7820  -2.9401 LP             1 S1                 0.0000
     41 ****        -2.7591   1.1963  -2.5633 LP             1 S1                 0.0000
     42 ****         2.0554   0.6888   0.5327 LP             1 S1                 0.0000
     43 ****         1.0961   1.9085   0.0240 LP             1 S1                 0.0000
@<TRIPOS>BOND
    1    1    2 1     
    2    1   20 1     
    3    2    3 1     
    4    2   21 1     
    5    2   22 1     
    6    3    4 1     
    7    3   23 1     
    8    3   24 1     
    9    4    5 ar    
   10    4   25 1     
   11    5   13 ar    
   12    5    6 ar    
   13    6    7 1     
   14    6   39 1     
   15    7   12 ar    
   16    7    8 ar    
   17    8    9 ar    
   18    8   26 1     
   19    9   10 ar    
   20    9   27 1     
   21   10   11 ar    
   22   10   28 1     
   23   11   12 ar    
   24   11   29 1     
   25   12   13 1     
   26   13   14 1     
   27   14   15 1     
   28   14   30 1     
   29   14   31 1     
   30   15   19 1     
   31   15   16 1     
   32   15   32 1     
   33   16   17 1     
   34   16   33 1     
   35   16   34 1     
   36   17   18 1     
   37   17   35 1     
   38   17   36 1     
   39   18   19 1     
   40   18   37 1     
   41   18   38 1     
   42    1   40 1     
   43    1   41 1     
   44   19   42 1     
   45   19   43 1     
@<TRIPOS>SUBSTRUCTURE
      1 S1             1
@<TRIPOS>SET
LONE_PAIRS      STATIC     ATOMS    <user>   **** ""
4 40 41 42 43
DONOR_HYDROGENS      STATIC     ATOMS    <user>   **** ""
3 20 25 39
ATOM$BLUE        STATIC     ATOMS    COLORGROUP SYSTEM
4 40 41 42 43
ATOM$RED        STATIC     ATOMS    COLORGROUP SYSTEM
3 20 25 39
