#       Name:                AV-unprocessed.smi:660
#       Creating user name   scv26
#       Creation time:       Fri Mar 27 00:18:54 2020


#       File generated by GOLD software.
#

@<TRIPOS>MOLECULE
AV-unprocessed.smi:660
    34    35     1
SMALL
NO_CHARGES


@<TRIPOS>ATOM
      1 ****        -4.7634   1.8165  -0.1758 O.3            1 S1                 0.0000
      2 ****        -4.3271   0.4756  -0.2302 C.3            1 S1                 0.0000
      3 ****        -2.8179   0.3518  -0.1655 C.ar           1 S1                 0.0000
      4 ****        -2.0086   0.8239  -1.2168 C.ar           1 S1                 0.0000
      5 ****        -0.6109   0.6865  -1.1160 C.ar           1 S1                 0.0000
      6 ****        -0.0577   0.0765   0.0356 C.ar           1 S1                 0.0000
      7 ****         1.3411  -0.0734   0.1577 N.3            1 S1                 0.0000
      8 ****         1.8771  -0.4758   1.4570 C.3            1 S1                 0.0000
      9 ****         3.4050  -0.3032   1.4834 C.3            1 S1                 0.0000
     10 ****         3.9874  -1.0230   0.4020 O.3            1 S1                 0.0000
     11 ****         3.5358  -0.5400  -0.8588 C.3            1 S1                 0.0000
     12 ****         2.0115  -0.7163  -0.9699 C.3            1 S1                 0.0000
     13 ****        -0.8430  -0.3713   1.0473 N.ar           1 S1                 0.0000
     14 ****        -2.1822  -0.2373   0.9455 C.ar           1 S1                 0.0000
     15 ****        -5.7071   1.8277  -0.2267 H              1 S1                 0.0000
     16 ****        -4.7855  -0.0778   0.5900 H              1 S1                 0.0000
     17 ****        -4.6832   0.0246  -1.1568 H              1 S1                 0.0000
     18 ****        -2.4504   1.2881  -2.0863 H              1 S1                 0.0000
     19 ****         0.0158   1.0618  -1.9109 H              1 S1                 0.0000
     20 ****         1.4326   0.1248   2.2516 H              1 S1                 0.0000
     21 ****         1.6158  -1.5173   1.6492 H              1 S1                 0.0000
     22 ****         3.6788   0.7515   1.4222 H              1 S1                 0.0000
     23 ****         3.8093  -0.6829   2.4217 H              1 S1                 0.0000
     24 ****         3.8154   0.5078  -0.9805 H              1 S1                 0.0000
     25 ****         4.0363  -1.0965  -1.6514 H              1 S1                 0.0000
     26 ****         1.7585  -1.7773  -0.9699 H              1 S1                 0.0000
     27 ****         1.6781  -0.3117  -1.9243 H              1 S1                 0.0000
     28 ****        -2.7602  -0.6122   1.7773 H              1 S1                 0.0000
     29 ****        -4.3783   2.3278  -0.9440 LP             1 S1                 0.0000
     30 ****        -4.4672   2.2328   0.6837 LP             1 S1                 0.0000
     31 ****         1.6023   0.8906   0.1096 LP             1 S1                 0.0000
     32 ****         3.7410  -1.9886   0.4858 LP             1 S1                 0.0000
     33 ****         4.9817  -0.9276   0.4479 LP             1 S1                 0.0000
     34 ****        -0.4356  -0.7945   1.8566 LP             1 S1                 0.0000
@<TRIPOS>BOND
    1    1    2 1     
    2    1   15 1     
    3    2    3 1     
    4    2   16 1     
    5    2   17 1     
    6    3   14 ar    
    7    3    4 ar    
    8    4    5 ar    
    9    4   18 1     
   10    5    6 ar    
   11    5   19 1     
   12    6    7 1     
   13    6   13 ar    
   14    7   12 1     
   15    7    8 1     
   16    8    9 1     
   17    8   20 1     
   18    8   21 1     
   19    9   10 1     
   20    9   22 1     
   21    9   23 1     
   22   10   11 1     
   23   11   12 1     
   24   11   24 1     
   25   11   25 1     
   26   12   26 1     
   27   12   27 1     
   28   13   14 ar    
   29   14   28 1     
   30    1   29 1     
   31    1   30 1     
   32    7   31 1     
   33   10   32 1     
   34   10   33 1     
   35   13   34 1     
@<TRIPOS>SUBSTRUCTURE
      1 S1             1
@<TRIPOS>SET
LONE_PAIRS      STATIC     ATOMS    <user>   **** ""
6 29 30 31 32 33 34
DONOR_HYDROGENS      STATIC     ATOMS    <user>   **** ""
1 15
ATOM$BLUE        STATIC     ATOMS    COLORGROUP SYSTEM
6 29 30 31 32 33 34
ATOM$RED        STATIC     ATOMS    COLORGROUP SYSTEM
1 15
