AV-unprocessed.smi:2189|AV-procd|sdf|8884|dock8
  -GOLD-   2272012 83D 1   1.00000     0.00000
 Structure written by MMmdl.
 39 41  0  0  0  0  0  0  0  0  1 V2000
  150.5957  140.6056  154.9667 O   0  0  0  0  0  0  0  0  0  0  0  0
  151.4066  140.4035  155.8722 C   0  0  0  0  0  0  0  0  0  0  0  0
  152.1602  139.2871  155.9052 N   0  0  0  0  0  0  0  0  0  0  0  0
  152.1164  138.1916  154.9396 C   0  0  0  0  0  0  0  0  0  0  0  0
  150.6960  137.6199  154.7670 C   0  0  0  0  0  0  0  0  0  0  0  0
  150.5567  136.1800  155.2312 C   0  0  0  0  0  0  0  0  0  0  0  0
  149.4451  135.3998  154.8453 C   0  0  0  0  0  0  0  0  0  0  0  0
  149.3798  134.0632  155.2837 C   0  0  0  0  0  0  0  0  0  0  0  0
  150.4198  133.5619  156.0898 C   0  0  0  0  0  0  0  0  0  0  0  0
  151.4845  134.4231  156.4223 C   0  0  0  0  0  0  0  0  0  0  0  0
  151.5575  135.7059  156.0069 N   0  0  0  0  0  0  0  0  0  0  0  0
  151.6520  141.3134  157.0055 C   0  0  0  0  0  0  0  0  0  0  0  0
  151.0485  142.5317  157.0163 C   0  0  0  0  0  0  0  0  0  0  0  0
  151.2320  143.4605  158.1040 C   0  0  0  0  0  0  0  0  0  0  0  0
  152.0528  143.1085  159.0993 C   0  0  0  0  0  0  0  0  0  0  0  0
  152.7359  141.8940  159.1322 N   0  0  0  0  0  0  0  0  0  0  0  0
  153.6844  141.6979  160.2233 C   0  0  0  0  0  0  0  0  0  0  0  0
  153.6006  140.2764  160.7484 C   0  0  0  0  0  0  0  0  0  0  0  0
  154.1112  139.2001  159.3612 S   0  0  0  0  0  0  0  0  0  0  0  0
  155.4862  139.5634  158.9842 O   0  0  0  0  0  0  0  0  0  0  0  0
  153.8064  137.8087  159.7271 O   0  0  0  0  0  0  0  0  0  0  0  0
  153.0568  139.7201  158.1679 N   0  0  0  0  0  0  0  0  0  0  0  0
  152.5349  140.9132  158.1204 C   0  0  0  0  0  0  0  0  0  0  0  0
  152.8112  139.1867  156.6703 H   0  0  0  0  0  0  0  0  0  0  0  0
  152.5204  138.5042  153.9752 H   0  0  0  0  0  0  0  0  0  0  0  0
  152.7784  137.4055  155.3029 H   0  0  0  0  0  0  0  0  0  0  0  0
  149.9876  138.2352  155.3233 H   0  0  0  0  0  0  0  0  0  0  0  0
  150.3951  137.6895  153.7208 H   0  0  0  0  0  0  0  0  0  0  0  0
  148.6669  135.8106  154.2189 H   0  0  0  0  0  0  0  0  0  0  0  0
  148.5479  133.4335  155.0050 H   0  0  0  0  0  0  0  0  0  0  0  0
  150.4036  132.5420  156.4443 H   0  0  0  0  0  0  0  0  0  0  0  0
  152.2990  134.0726  157.0389 H   0  0  0  0  0  0  0  0  0  0  0  0
  150.4138  142.8508  156.2018 H   0  0  0  0  0  0  0  0  0  0  0  0
  150.7194  144.4111  158.1159 H   0  0  0  0  0  0  0  0  0  0  0  0
  152.2298  143.7612  159.9420 H   0  0  0  0  0  0  0  0  0  0  0  0
  154.6912  141.9249  159.8713 H   0  0  0  0  0  0  0  0  0  0  0  0
  153.4782  142.3871  161.0428 H   0  0  0  0  0  0  0  0  0  0  0  0
  154.2780  140.1131  161.5864 H   0  0  0  0  0  0  0  0  0  0  0  0
  152.5900  140.0117  161.0614 H   0  0  0  0  0  0  0  0  0  0  0  0
  1  2  2  0  0  0  0
  2  3  1  0  0  0  0
  2 12  1  0  0  0  0
  3  4  1  0  0  0  0
  3 24  1  0  0  0  0
  4  5  1  0  0  0  0
  4 25  1  0  0  0  0
  4 26  1  0  0  0  0
  5  6  1  0  0  0  0
  5 27  1  0  0  0  0
  5 28  1  0  0  0  0
  6 11  1  0  0  0  0
  6  7  2  0  0  0  0
  7  8  1  0  0  0  0
  7 29  1  0  0  0  0
  8  9  2  0  0  0  0
  8 30  1  0  0  0  0
  9 10  1  0  0  0  0
  9 31  1  0  0  0  0
 10 11  2  0  0  0  0
 10 32  1  0  0  0  0
 12 23  1  0  0  0  0
 12 13  2  0  0  0  0
 13 14  1  0  0  0  0
 13 33  1  0  0  0  0
 14 15  2  0  0  0  0
 14 34  1  0  0  0  0
 15 16  1  0  0  0  0
 15 35  1  0  0  0  0
 16 23  1  0  0  0  0
 16 17  1  0  0  0  0
 17 18  1  0  0  0  0
 17 36  1  0  0  0  0
 17 37  1  0  0  0  0
 18 19  1  0  0  0  0
 18 38  1  0  0  0  0
 18 39  1  0  0  0  0
 19 20  2  0  0  0  0
 19 21  2  0  0  0  0
 19 22  1  0  0  0  0
 22 23  2  0  0  0  0
M  END
> <s_m_source_file>
AV-unprocessed.smi

> <i_m_source_file_index>
2189

> <i_lp_mmshare_version>
43012

> <i_f3d_flags>
0

> <s_epik_input>
W0NIMl0xW0NIMl1TKD1PKSg9TylOPUMoTjEyKUMoPVtDSF1bQ0hdPVtDSF0yKUMoPU8pW05IXVtDSDJdW0NIMl1jM1tjSF1bY0hdW2NIXVtjSF1uMw==

> <s_epik_cmdline>
J2VwaWtfcHl0aG9uJywgJy1waCcsICc3LjAnLCAnLXRuJywgJzgnLCAnLW1hJywgJzIwMCcsICctbWV0YWxfYmluZGluZycsICctaW1hZScsICc8aW5maWxlLm1hZT4nLCAnLW9tYWUnLCAnPG91dGZpbGUubWFlPic=

> <r_epik_Ionization_Penalty>
0.0177355

> <r_epik_Ionization_Penalty_Charging>
8.06468e-09

> <r_epik_Ionization_Penalty_Neutral>
0.0177355

> <r_epik_State_Penalty>
0.0140338

> <r_epik_Charging_Adjusted_Penalty>
0.0140338

> <i_epik_Tot_Q>
0

> <i_epik_Tot_abs_Q>
0

> <r_epik_Metal_State_Penalty>
0.0535636

> <b_epik_Metal_Only>
0

> <s_lp_Force_Field>
OPLS_2005

> <r_lp_Energy>
27.3768

> <b_lp_Chiralities_Consistent>
1

> <s_lp_Variant>
AV-unprocessed.smi:2189-1

> <Gold.Version>
5.8.1

> <Gold.Id.Protein>
6NUR|6NUR_protein|mol2

> <Gold.PLP.Fitness>
47.7707

> <Gold.PLP.PLP>
-40.9086

> <Gold.PLP.part.hbond>
-4.0000

> <Gold.PLP.part.metal>
0.0000

> <Gold.PLP.part.buried>
-4.2030

> <Gold.PLP.part.nonpolar>
-31.3406

> <Gold.PLP.part.repulsive>
0.2554

> <Gold.PLP.ligand.clash>
1.1079

> <Gold.PLP.ligand.torsion>
0.6051

> <Gold.PLP.Chemscore.Hbond>
3.0000

> <Gold.PLP.Chemscore.CHOScore>
0.0000

> <Gold.PLP.Chemscore.Metal>
0.0000

> <Gold.Chemscore.Hbonds>
donor molecule, donor type, donor heavy atom, donor atom, acceptor molecule, acceptor atom, score
      P1  H  7989  7998       L1     1  0.96
      P1  H  7997  8010       L1    20  1.00
      P1  H 10752 10764       L1    11  0.95

> <Gold.PLP.Chemscore.Internal.Correction>
0.1803

> <Gold.Rescore>
     Score         DG    S(hbond)    S(metal)    S(lipo)     H(rot)  DE(clash)    DE(int)     intcor
     14.63     -18.42       1.73        0.00      93.35       1.47       0.38       3.41       ----

> <Gold.Chemscore.Fitness>
14.6254

> <Gold.Chemscore.DG>
-18.4202

> <Gold.Chemscore.ZeroCoef>
-5.4800

> <Gold.Chemscore.Hbond>
1.7294

> <Gold.Chemscore.Metal>
0.0000

> <Gold.Chemscore.Lipo>
93.3489

> <Gold.Chemscore.Internal_Hbond>
0.0000

> <Gold.Chemscore.DEClash>
0.3837

> <Gold.Chemscore.DEInternal>
3.4111

> <Gold.Chemscore.Rot>
1.4679

> <Gold.Chemscore.Internal.Correction>
   9.000000E+99

> <Gold.Chemscore.Hbonds>
donor molecule, donor type, donor heavy atom, donor atom, acceptor molecule, acceptor atom, score
      P1  H  7989  7998       L1     1  0.41
      P1  H  7997  8010       L1    20  0.50
      P1  H 10752 10764       L1    11  0.08

> <Gold.Chemscore.Hbond.Weighted>
-5.7762

> <Gold.Chemscore.Metal.Weighted>
-0.0000

> <Gold.Chemscore.Lipo.Weighted>
-10.9218

> <Gold.Chemscore.Internal_Hbond.Weighted>
0.0000

> <Gold.Chemscore.DEClash.Weighted>
0.3837

> <Gold.Chemscore.DEInternal.Weighted>
3.4111

> <Gold.Chemscore.Rot.Weighted>
3.7578

> <Gold.Chemscore.Internal.Correction.Weighted>
   9.000000E+99

> <Gold.Protein.RotatedTorsions>
[ 6907 6896 6895 6894 ] final  -20.60 input  -60.11 | X-H torsion
[ 7974 7965 7964 7962 ] final -122.25 input  175.53 | X-H torsion
[ 8008 7997 7996 7995 ] final  -15.69 input   59.86 | X-H torsion
[ 10167 10162 10161 10158 ] final -162.26 input  -65.29 | X-H torsion
[ 10718 10713 10712 10709 ] final  -81.83 input   66.30 | X-H torsion
[ 10763 10752 10751 10750 ] final  -49.23 input  -60.55 | X-H torsion
[ 11005 11000 10999 10996 ] final  -84.13 input  -57.11 | X-H torsion

> <Gold.Protein.ActiveResidues>
 VAL166  LYS551  ARG553  GLY616  TRP617  ASP618  TYR619  PRO620  LYS621  CYS622 
 ASP623  PHE694  ASN695  SER759  ASP760  ASP761  ALA762  ILE779  LEU786  VAL792 
 PHE793  MET794  SER795  GLU796  ALA797  LYS798  CYS799  TRP800  GLU811  SER814 

> <Gold.Protein.RotatedAtoms>
  151.2458  135.0605  159.9042 H   0  0  0  0  0  0  0  0  0  0  0  0  # atno 6907 bound_to 6896
  152.5387  134.0385  159.8067 H   0  0  0  0  0  0  0  0  0  0  0  0  # atno 6908 bound_to 6896
  151.0586  133.5514  159.2667 H   0  0  0  0  0  0  0  0  0  0  0  0  # atno 6909 bound_to 6896
  145.0315  140.8072  143.4320 H   0  0  0  0  0  0  0  0  0  0  0  0  # atno 7974 bound_to 7965
  154.5111  140.2189  155.9155 H   0  0  0  0  0  0  0  0  0  0  0  0  # atno 8008 bound_to 7997
  156.1553  140.3153  155.8681 H   0  0  0  0  0  0  0  0  0  0  0  0  # atno 8009 bound_to 7997
  155.3859  140.0475  157.3033 H   0  0  0  0  0  0  0  0  0  0  0  0  # atno 8010 bound_to 7997
  139.6405  144.0269  152.2088 H   0  0  0  0  0  0  0  0  0  0  0  0  # atno 10167 bound_to 10162
  156.0043  130.4616  150.4013 H   0  0  0  0  0  0  0  0  0  0  0  0  # atno 10718 bound_to 10713
  154.0907  135.6578  153.4852 H   0  0  0  0  0  0  0  0  0  0  0  0  # atno 10763 bound_to 10752
  153.0323  135.5202  154.7383 H   0  0  0  0  0  0  0  0  0  0  0  0  # atno 10764 bound_to 10752
  154.6506  135.3001  154.9960 H   0  0  0  0  0  0  0  0  0  0  0  0  # atno 10765 bound_to 10752
  141.1653  133.7330  156.8822 H   0  0  0  0  0  0  0  0  0  0  0  0  # atno 11005 bound_to 11000
  145.1764  139.2376  143.5315 LP  0  0  0  0  0  0  0  0  0  0  0  0  # atno 17320 bound_to 7965
  146.3499  140.1527  142.8592 LP  0  0  0  0  0  0  0  0  0  0  0  0  # atno 17321 bound_to 7965
  139.9957  144.6329  150.7774 LP  0  0  0  0  0  0  0  0  0  0  0  0  # atno 17342 bound_to 10162
  140.7488  143.2928  151.3284 LP  0  0  0  0  0  0  0  0  0  0  0  0  # atno 17343 bound_to 10162
  157.2081  131.0454  151.2614 LP  0  0  0  0  0  0  0  0  0  0  0  0  # atno 17370 bound_to 10713
  157.3913  130.7284  149.6700 LP  0  0  0  0  0  0  0  0  0  0  0  0  # atno 17371 bound_to 10713
  140.1707  134.9102  157.2829 LP  0  0  0  0  0  0  0  0  0  0  0  0  # atno 17394 bound_to 11000
  140.2506  134.3688  155.7444 LP  0  0  0  0  0  0  0  0  0  0  0  0  # atno 17395 bound_to 11000

$$$$
