AV-unprocessed.smi:762|AV-procd|sdf|3633|dock10
  -GOLD-   22720 1 23D 1   1.00000     0.00000
 Structure written by MMmdl.
 42 44  0  0  0  0  0  0  0  0  1 V2000
  154.2643  140.0088  158.9712 O   0  0  0  0  0  0  0  0  0  0  0  0
  154.1125  140.3254  160.1510 C   0  0  0  0  0  0  0  0  0  0  0  0
  153.8954  141.7911  160.5272 C   0  0  0  0  0  0  0  0  0  0  0  0
  152.7888  142.4919  159.7586 C   0  0  0  0  0  0  0  0  0  0  0  0
  152.0549  141.8571  158.8239 C   0  0  0  0  0  0  0  0  0  0  0  0
  150.9772  142.5247  157.9891 C   0  0  0  0  0  0  0  0  0  0  0  0
  151.0691  144.0588  158.0402 C   0  0  0  0  0  0  0  0  0  0  0  0
  151.3019  144.5514  159.4738 C   0  0  0  0  0  0  0  0  0  0  0  0
  152.5995  143.9729  160.0673 C   0  0  0  0  0  0  0  0  0  0  0  0
  154.1346  139.4428  161.1614 N   0  0  0  0  0  0  0  0  0  0  0  0
  154.3500  138.0089  161.0131 C   0  0  0  0  0  0  0  0  0  0  0  0
  154.0933  137.2574  162.3302 C   0  0  0  0  0  0  0  0  0  0  0  0
  155.2570  137.2870  163.1969 N   0  0  0  0  0  0  0  0  0  0  0  0
  156.0641  138.3238  163.4690 C   0  0  0  0  0  0  0  0  0  0  0  0
  157.0749  138.0510  164.2928 N   0  0  0  0  0  0  0  0  0  0  0  0
  156.9286  136.7108  164.5899 N   0  0  0  0  0  0  0  0  0  0  0  0
  155.8353  136.3123  163.9285 C   0  0  0  0  0  0  0  0  0  0  0  0
  155.3259  134.9065  163.9443 C   0  0  0  0  0  0  0  0  0  0  0  0
  155.9602  133.8552  164.8280 C   0  0  0  0  0  0  0  0  0  0  0  0
  156.1258  133.7775  163.3328 C   0  0  0  0  0  0  0  0  0  0  0  0
  153.6516  141.8174  161.5902 H   0  0  0  0  0  0  0  0  0  0  0  0
  154.8227  142.3564  160.4240 H   0  0  0  0  0  0  0  0  0  0  0  0
  152.2201  140.8064  158.6348 H   0  0  0  0  0  0  0  0  0  0  0  0
  151.0593  142.1833  156.9570 H   0  0  0  0  0  0  0  0  0  0  0  0
  150.0072  142.1907  158.3585 H   0  0  0  0  0  0  0  0  0  0  0  0
  151.8921  144.3958  157.4083 H   0  0  0  0  0  0  0  0  0  0  0  0
  150.1618  144.5011  157.6277 H   0  0  0  0  0  0  0  0  0  0  0  0
  151.3354  145.6411  159.4997 H   0  0  0  0  0  0  0  0  0  0  0  0
  150.4551  144.2547  160.0940 H   0  0  0  0  0  0  0  0  0  0  0  0
  152.6028  144.1261  161.1469 H   0  0  0  0  0  0  0  0  0  0  0  0
  153.4609  144.5110  159.6703 H   0  0  0  0  0  0  0  0  0  0  0  0
  154.0043  139.7913  162.1003 H   0  0  0  0  0  0  0  0  0  0  0  0
  153.7133  137.6188  160.2170 H   0  0  0  0  0  0  0  0  0  0  0  0
  155.3789  137.8553  160.6884 H   0  0  0  0  0  0  0  0  0  0  0  0
  153.2403  137.6862  162.8569 H   0  0  0  0  0  0  0  0  0  0  0  0
  153.8462  136.2134  162.1342 H   0  0  0  0  0  0  0  0  0  0  0  0
  155.9096  139.3069  163.0489 H   0  0  0  0  0  0  0  0  0  0  0  0
  154.2445  134.8880  163.8234 H   0  0  0  0  0  0  0  0  0  0  0  0
  156.8342  134.1382  165.4106 H   0  0  0  0  0  0  0  0  0  0  0  0
  155.2979  133.1326  165.3005 H   0  0  0  0  0  0  0  0  0  0  0  0
  155.5756  133.0014  162.8049 H   0  0  0  0  0  0  0  0  0  0  0  0
  157.1074  134.0124  162.9255 H   0  0  0  0  0  0  0  0  0  0  0  0
  1  2  2  0  0  0  0
  2  3  1  0  0  0  0
  2 10  1  0  0  0  0
  3  4  1  0  0  0  0
  3 21  1  0  0  0  0
  3 22  1  0  0  0  0
  4  9  1  0  0  0  0
  4  5  2  0  0  0  0
  5  6  1  0  0  0  0
  5 23  1  0  0  0  0
  6  7  1  0  0  0  0
  6 24  1  0  0  0  0
  6 25  1  0  0  0  0
  7  8  1  0  0  0  0
  7 26  1  0  0  0  0
  7 27  1  0  0  0  0
  8  9  1  0  0  0  0
  8 28  1  0  0  0  0
  8 29  1  0  0  0  0
  9 30  1  0  0  0  0
  9 31  1  0  0  0  0
 10 11  1  0  0  0  0
 10 32  1  0  0  0  0
 11 12  1  0  0  0  0
 11 33  1  0  0  0  0
 11 34  1  0  0  0  0
 12 13  1  0  0  0  0
 12 35  1  0  0  0  0
 12 36  1  0  0  0  0
 13 17  1  0  0  0  0
 13 14  1  0  0  0  0
 14 15  2  0  0  0  0
 14 37  1  0  0  0  0
 15 16  1  0  0  0  0
 16 17  2  0  0  0  0
 17 18  1  0  0  0  0
 18 20  1  0  0  0  0
 18 19  1  0  0  0  0
 18 38  1  0  0  0  0
 19 20  1  0  0  0  0
 19 39  1  0  0  0  0
 19 40  1  0  0  0  0
 20 41  1  0  0  0  0
 20 42  1  0  0  0  0
M  END
> <s_m_source_file>
AV-unprocessed.smi

> <i_m_source_file_index>
762

> <i_lp_mmshare_version>
43012

> <i_f3d_flags>
0

> <s_epik_input>
W0NIMl0xW0NIMl1bQ0gyXVtDSDJdW0NIXT1DMVtDSDJdQyg9TylbTkhdW0NIMl1bQ0gyXW4yW2NIXW5uYzJbQ0hdM1tDSDJdW0NIMl0z

> <s_epik_cmdline>
J2VwaWtfcHl0aG9uJywgJy1waCcsICc3LjAnLCAnLXRuJywgJzgnLCAnLW1hJywgJzIwMCcsICctbWV0YWxfYmluZGluZycsICctaW1hZScsICc8aW5maWxlLm1hZT4nLCAnLW9tYWUnLCAnPG91dGZpbGUubWFlPic=

> <r_lp_tautomer_probability>
1

> <r_epik_Ionization_Penalty>
0.000270947

> <r_epik_Ionization_Penalty_Charging>
0

> <r_epik_Ionization_Penalty_Neutral>
0.000270947

> <r_epik_State_Penalty>
-0

> <r_epik_Charging_Adjusted_Penalty>
0

> <i_epik_Tot_Q>
0

> <i_epik_Tot_abs_Q>
0

> <r_epik_Metal_State_Penalty>
-0

> <b_epik_Metal_Only>
0

> <s_lp_Force_Field>
OPLS_2005

> <r_lp_Energy>
11.3747

> <b_lp_Chiralities_Consistent>
1

> <s_lp_Variant>
AV-unprocessed.smi:762-1

> <Gold.Version>
5.8.1

> <Gold.Id.Protein>
6NUR|6NUR_protein|mol2

> <Gold.PLP.Fitness>
45.9501

> <Gold.PLP.PLP>
-43.8183

> <Gold.PLP.part.hbond>
-1.0000

> <Gold.PLP.part.metal>
0.0000

> <Gold.PLP.part.buried>
-3.8696

> <Gold.PLP.part.nonpolar>
-39.1510

> <Gold.PLP.part.repulsive>
0.1694

> <Gold.PLP.ligand.clash>
0.0000

> <Gold.PLP.ligand.torsion>
0.5212

> <Gold.PLP.Chemscore.Hbond>
1.0000

> <Gold.PLP.Chemscore.CHOScore>
0.0000

> <Gold.PLP.Chemscore.Metal>
0.0000

> <Gold.Chemscore.Hbonds>
donor molecule, donor type, donor heavy atom, donor atom, acceptor molecule, acceptor atom, score
      P1  H  7997  8010       L1     1  0.99

> <Gold.PLP.Chemscore.Internal.Correction>
0.1742

> <Gold.Rescore>
     Score         DG    S(hbond)    S(metal)    S(lipo)     H(rot)  DE(clash)    DE(int)     intcor
     15.18     -16.77       0.99        0.00     114.15       2.10       0.00       1.59       ----

> <Gold.Chemscore.Fitness>
15.1770

> <Gold.Chemscore.DG>
-16.7701

> <Gold.Chemscore.ZeroCoef>
-5.4800

> <Gold.Chemscore.Hbond>
0.9937

> <Gold.Chemscore.Metal>
0.0000

> <Gold.Chemscore.Lipo>
114.1466

> <Gold.Chemscore.Internal_Hbond>
0.0000

> <Gold.Chemscore.DEClash>
0.0004

> <Gold.Chemscore.DEInternal>
1.5927

> <Gold.Chemscore.Rot>
2.1031

> <Gold.Chemscore.Internal.Correction>
   9.000000E+99

> <Gold.Chemscore.Hbonds>
donor molecule, donor type, donor heavy atom, donor atom, acceptor molecule, acceptor atom, score
      P1  H  7997  8010       L1     1  0.94

> <Gold.Chemscore.Hbond.Weighted>
-3.3188

> <Gold.Chemscore.Metal.Weighted>
-0.0000

> <Gold.Chemscore.Lipo.Weighted>
-13.3551

> <Gold.Chemscore.Internal_Hbond.Weighted>
0.0000

> <Gold.Chemscore.DEClash.Weighted>
0.0004

> <Gold.Chemscore.DEInternal.Weighted>
1.5927

> <Gold.Chemscore.Rot.Weighted>
5.3838

> <Gold.Chemscore.Internal.Correction.Weighted>
   9.000000E+99

> <Gold.Protein.RotatedTorsions>
[ 6907 6896 6895 6894 ] final  159.06 input  -60.11 | X-H torsion
[ 7974 7965 7964 7962 ] final -166.06 input  175.53 | X-H torsion
[ 8008 7997 7996 7995 ] final   16.40 input   59.86 | X-H torsion
[ 10167 10162 10161 10158 ] final -172.51 input  -65.29 | X-H torsion
[ 10718 10713 10712 10709 ] final  155.95 input   66.30 | X-H torsion
[ 10763 10752 10751 10750 ] final  177.74 input  -60.55 | X-H torsion
[ 11005 11000 10999 10996 ] final   37.45 input  -57.11 | X-H torsion

> <Gold.Protein.ActiveResidues>
 VAL166  LYS551  ARG553  GLY616  TRP617  ASP618  TYR619  PRO620  LYS621  CYS622 
 ASP623  PHE694  ASN695  SER759  ASP760  ASP761  ALA762  ILE779  LEU786  VAL792 
 PHE793  MET794  SER795  GLU796  ALA797  LYS798  CYS799  TRP800  GLU811  SER814 

> <Gold.Protein.RotatedAtoms>
  151.9912  133.3791  159.4144 H   0  0  0  0  0  0  0  0  0  0  0  0  # atno 6907 bound_to 6896
  150.6921  134.3935  159.5096 H   0  0  0  0  0  0  0  0  0  0  0  0  # atno 6908 bound_to 6896
  152.1668  134.8866  160.0588 H   0  0  0  0  0  0  0  0  0  0  0  0  # atno 6909 bound_to 6896
  144.7254  140.2722  143.6249 H   0  0  0  0  0  0  0  0  0  0  0  0  # atno 7974 bound_to 7965
  154.8764  140.2966  155.5451 H   0  0  0  0  0  0  0  0  0  0  0  0  # atno 8008 bound_to 7997
  156.3022  140.2450  156.3694 H   0  0  0  0  0  0  0  0  0  0  0  0  # atno 8009 bound_to 7997
  154.8763  140.0399  157.1744 H   0  0  0  0  0  0  0  0  0  0  0  0  # atno 8010 bound_to 7997
  139.5741  144.1574  152.1425 H   0  0  0  0  0  0  0  0  0  0  0  0  # atno 10167 bound_to 10162
  157.2115  131.0698  151.1966 H   0  0  0  0  0  0  0  0  0  0  0  0  # atno 10718 bound_to 10713
  154.4985  135.2782  155.1440 H   0  0  0  0  0  0  0  0  0  0  0  0  # atno 10763 bound_to 10752
  154.3083  135.6234  153.5458 H   0  0  0  0  0  0  0  0  0  0  0  0  # atno 10764 bound_to 10752
  152.9898  135.5713  154.5422 H   0  0  0  0  0  0  0  0  0  0  0  0  # atno 10765 bound_to 10752
  140.2224  134.3625  155.7999 H   0  0  0  0  0  0  0  0  0  0  0  0  # atno 11005 bound_to 11000
  145.8031  139.1972  143.2036 LP  0  0  0  0  0  0  0  0  0  0  0  0  # atno 17320 bound_to 7965
  146.0659  140.7921  142.9712 LP  0  0  0  0  0  0  0  0  0  0  0  0  # atno 17321 bound_to 7965
  140.1113  144.5454  150.6923 LP  0  0  0  0  0  0  0  0  0  0  0  0  # atno 17342 bound_to 10162
  140.7024  143.2444  151.4825 LP  0  0  0  0  0  0  0  0  0  0  0  0  # atno 17343 bound_to 10162
  157.3667  130.7160  149.6537 LP  0  0  0  0  0  0  0  0  0  0  0  0  # atno 17370 bound_to 10713
  155.9690  130.4210  150.4450 LP  0  0  0  0  0  0  0  0  0  0  0  0  # atno 17371 bound_to 10713
  141.2222  133.7200  156.8597 LP  0  0  0  0  0  0  0  0  0  0  0  0  # atno 17394 bound_to 11000
  140.1836  134.9016  157.2978 LP  0  0  0  0  0  0  0  0  0  0  0  0  # atno 17395 bound_to 11000

$$$$
