#       Name:                AV-unprocessed.smi:308
#       Creating user name   scv26
#       Creation time:       Thu Mar 26 22:18:54 2020


#       File generated by GOLD software.
#

@<TRIPOS>MOLECULE
AV-unprocessed.smi:308
    53    54     1
SMALL
NO_CHARGES


@<TRIPOS>ATOM
      1 ****        -5.8730   2.8828  -0.7709 C.3            1 S1                 0.0000
      2 ****        -5.9335   2.1793   0.5964 C.3            1 S1                 0.0000
      3 ****        -5.0955   2.8943   1.6715 C.3            1 S1                 0.0000
      4 ****        -3.5843   2.6774   1.4730 C.3            1 S1                 0.0000
      5 ****        -3.2460   1.2314   1.4234 N.4            1 S1                 1.0000
      6 ****        -1.7804   1.0034   1.3562 C.3            1 S1                 0.0000
      7 ****        -1.3769  -0.3954   1.8618 C.3            1 S1                 0.0000
      8 ****         0.0690  -0.5832   1.8218 N.am           1 S1                 0.0000
      9 ****         0.7769  -0.8394   0.7124 C.2            1 S1                 0.0000
     10 ****         0.2693  -0.9328  -0.4051 O.2            1 S1                 0.0000
     11 ****         2.0829  -0.9906   0.9913 N.am           1 S1                 0.0000
     12 ****         3.1496  -1.2837   0.0991 C.ar           1 S1                 0.0000
     13 ****         3.1195  -1.0350  -1.2923 C.ar           1 S1                 0.0000
     14 ****         4.2478  -1.3605  -2.0696 C.ar           1 S1                 0.0000
     15 ****         5.3876  -1.9206  -1.4409 C.ar           1 S1                 0.0000
     16 ****         6.5416  -2.2685  -2.1799 N.pl3          1 S1                 0.0000
     17 ****         7.7021  -2.8277  -1.4940 C.3            1 S1                 0.0000
     18 ****         6.5439  -2.1526  -3.6330 C.3            1 S1                 0.0000
     19 ****         5.4154  -2.1394  -0.1034 N.ar           1 S1                 0.0000
     20 ****         4.3325  -1.8263   0.6375 C.ar           1 S1                 0.0000
     21 ****        -3.9959   0.5314   0.3463 C.3            1 S1                 0.0000
     22 ****        -5.5155   0.6996   0.5248 C.3            1 S1                 0.0000
     23 ****        -4.8635   2.9037  -1.1804 H              1 S1                 0.0000
     24 ****        -6.2178   3.9143  -0.6939 H              1 S1                 0.0000
     25 ****        -6.5121   2.3796  -1.4969 H              1 S1                 0.0000
     26 ****        -6.9765   2.2128   0.9141 H              1 S1                 0.0000
     27 ****        -5.3229   3.9608   1.6805 H              1 S1                 0.0000
     28 ****        -5.3803   2.5172   2.6548 H              1 S1                 0.0000
     29 ****        -3.2427   3.1658   0.5593 H              1 S1                 0.0000
     30 ****        -3.0505   3.1500   2.2985 H              1 S1                 0.0000
     31 ****        -1.4338   1.1706   0.3351 H              1 S1                 0.0000
     32 ****        -1.2721   1.7425   1.9772 H              1 S1                 0.0000
     33 ****        -1.7065  -0.5259   2.8929 H              1 S1                 0.0000
     34 ****        -1.8530  -1.1862   1.2817 H              1 S1                 0.0000
     35 ****         0.5629  -0.5290   2.7008 H              1 S1                 0.0000
     36 ****         2.3356  -0.9584   1.9682 H              1 S1                 0.0000
     37 ****         2.2646  -0.5911  -1.7777 H              1 S1                 0.0000
     38 ****         4.2170  -1.1691  -3.1314 H              1 S1                 0.0000
     39 ****         7.4455  -3.7749  -1.0182 H              1 S1                 0.0000
     40 ****         8.0630  -2.1407  -0.7277 H              1 S1                 0.0000
     41 ****         8.5232  -3.0122  -2.1868 H              1 S1                 0.0000
     42 ****         6.4430  -1.1093  -3.9331 H              1 S1                 0.0000
     43 ****         5.7217  -2.7231  -4.0661 H              1 S1                 0.0000
     44 ****         7.4713  -2.5341  -4.0603 H              1 S1                 0.0000
     45 ****         4.4133  -2.0231   1.6967 H              1 S1                 0.0000
     46 ****        -3.6821   0.9118  -0.6267 H              1 S1                 0.0000
     47 ****        -3.7621  -0.5322   0.3512 H              1 S1                 0.0000
     48 ****        -5.8211   0.1972   1.4437 H              1 S1                 0.0000
     49 ****        -6.0454   0.1957  -0.2844 H              1 S1                 0.0000
     50 ****        -3.5578   0.8412   2.3013 H              1 S1                 0.0000
     51 ****        -0.7174  -0.8159  -0.5174 LP             1 S1                 0.0000
     52 ****         0.8437  -1.1255  -1.2006 LP             1 S1                 0.0000
     53 ****         6.2290  -2.5282   0.3289 LP             1 S1                 0.0000
@<TRIPOS>BOND
    1    1    2 1     
    2    1   23 1     
    3    1   24 1     
    4    1   25 1     
    5    2   22 1     
    6    2    3 1     
    7    2   26 1     
    8    3    4 1     
    9    3   27 1     
   10    3   28 1     
   11    4    5 1     
   12    4   29 1     
   13    4   30 1     
   14    5    6 1     
   15    5   21 1     
   16    5   50 1     
   17    6    7 1     
   18    6   31 1     
   19    6   32 1     
   20    7    8 1     
   21    7   33 1     
   22    7   34 1     
   23    8    9 am    
   24    8   35 1     
   25    9   10 2     
   26    9   11 am    
   27   11   12 1     
   28   11   36 1     
   29   12   20 ar    
   30   12   13 ar    
   31   13   14 ar    
   32   13   37 1     
   33   14   15 ar    
   34   14   38 1     
   35   15   16 1     
   36   15   19 ar    
   37   16   17 1     
   38   16   18 1     
   39   17   39 1     
   40   17   40 1     
   41   17   41 1     
   42   18   42 1     
   43   18   43 1     
   44   18   44 1     
   45   19   20 ar    
   46   20   45 1     
   47   21   22 1     
   48   21   46 1     
   49   21   47 1     
   50   22   48 1     
   51   22   49 1     
   52   10   51 1     
   53   10   52 1     
   54   19   53 1     
@<TRIPOS>SUBSTRUCTURE
      1 S1             1
@<TRIPOS>SET
LONE_PAIRS      STATIC     ATOMS    <user>   **** ""
3 51 52 53
DONOR_HYDROGENS      STATIC     ATOMS    <user>   **** ""
3 50 35 36
ATOM$BLUE        STATIC     ATOMS    COLORGROUP SYSTEM
3 51 52 53
ATOM$RED        STATIC     ATOMS    COLORGROUP SYSTEM
3 50 35 36
