AV-unprocessed.smi:626|AV-procd|sdf|3110|dock5
  -GOLD-   22720 0 33D 1   1.00000     0.00000
 Structure written by MMmdl.
 34 36  0  0  0  0  0  0  0  0  1 V2000
  147.7308  139.0726  153.4831 C   0  0  0  0  0  0  0  0  0  0  0  0
  149.1418  139.2813  153.7683 N   0  0  0  0  0  0  0  0  0  0  0  0
  149.7292  138.9802  154.9360 C   0  0  0  0  0  0  0  0  0  0  0  0
  149.1257  138.4875  155.8891 O   0  0  0  0  0  0  0  0  0  0  0  0
  151.2269  139.2731  155.0463 C   0  0  0  0  0  0  0  0  0  0  0  0
  151.4923  140.2771  156.1224 C   0  0  0  0  0  0  0  0  0  0  0  0
  152.2476  139.9801  157.1732 N   0  0  0  0  0  0  0  0  0  0  0  0
  152.2269  141.1601  157.9299 O   0  0  0  0  0  0  0  0  0  0  0  0
  151.4847  142.0466  157.2226 C   0  0  0  0  0  0  0  0  0  0  0  0
  151.1979  143.3833  157.8422 C   0  0  1  0  0  0  0  0  0  0  0  0
  150.3514  143.3458  159.1349 C   0  0  0  0  0  0  0  0  0  0  0  0
  151.1909  144.1943  160.1097 C   0  0  1  0  0  0  0  0  0  0  0  0
  152.4409  143.3981  160.5318 C   0  0  0  0  0  0  0  0  0  0  0  0
  153.3198  143.4456  159.2672 C   0  0  0  0  0  0  0  0  0  0  0  0
  152.4320  144.2138  158.2670 C   0  0  2  0  0  0  0  0  0  0  0  0
  151.7886  145.2491  159.1849 C   0  0  0  0  0  0  0  0  0  0  0  0
  150.9663  141.5323  156.1076 N   0  0  0  0  0  0  0  0  0  0  0  0
  147.5036  139.4020  152.4692 H   0  0  0  0  0  0  0  0  0  0  0  0
  147.1066  139.6408  154.1739 H   0  0  0  0  0  0  0  0  0  0  0  0
  147.4701  138.0166  153.5654 H   0  0  0  0  0  0  0  0  0  0  0  0
  149.7065  139.6866  153.0357 H   0  0  0  0  0  0  0  0  0  0  0  0
  151.7671  138.3512  155.2665 H   0  0  0  0  0  0  0  0  0  0  0  0
  151.6062  139.6411  154.0918 H   0  0  0  0  0  0  0  0  0  0  0  0
  150.6451  143.9612  157.0995 H   0  0  0  0  0  0  0  0  0  0  0  0
  149.3729  143.7957  158.9636 H   0  0  0  0  0  0  0  0  0  0  0  0
  150.1846  142.3403  159.5229 H   0  0  0  0  0  0  0  0  0  0  0  0
  150.6194  144.5876  160.9508 H   0  0  0  0  0  0  0  0  0  0  0  0
  152.9483  143.8799  161.3685 H   0  0  0  0  0  0  0  0  0  0  0  0
  152.1984  142.3776  160.8306 H   0  0  0  0  0  0  0  0  0  0  0  0
  154.2354  144.0040  159.4662 H   0  0  0  0  0  0  0  0  0  0  0  0
  153.6165  142.4575  158.9182 H   0  0  0  0  0  0  0  0  0  0  0  0
  152.9880  144.6273  157.4250 H   0  0  0  0  0  0  0  0  0  0  0  0
  151.0366  145.8648  158.6878 H   0  0  0  0  0  0  0  0  0  0  0  0
  152.5118  145.8997  159.6803 H   0  0  0  0  0  0  0  0  0  0  0  0
  1  2  1  0  0  0  0
  1 18  1  0  0  0  0
  1 19  1  0  0  0  0
  1 20  1  0  0  0  0
  2  3  1  0  0  0  0
  2 21  1  0  0  0  0
  3  4  2  0  0  0  0
  3  5  1  0  0  0  0
  5  6  1  0  0  0  0
  5 22  1  0  0  0  0
  5 23  1  0  0  0  0
  6 17  1  0  0  0  0
  6  7  2  0  0  0  0
  7  8  1  0  0  0  0
  8  9  1  0  0  0  0
  9 10  1  0  0  0  0
  9 17  2  0  0  0  0
 10 15  1  0  0  0  0
 10 11  1  0  0  0  0
 10 24  1  0  0  0  0
 11 12  1  0  0  0  0
 11 25  1  0  0  0  0
 11 26  1  0  0  0  0
 12 16  1  0  0  0  0
 12 13  1  0  0  0  0
 12 27  1  0  0  0  0
 13 14  1  0  0  0  0
 13 28  1  0  0  0  0
 13 29  1  0  0  0  0
 14 15  1  0  0  0  0
 14 30  1  0  0  0  0
 14 31  1  0  0  0  0
 15 16  1  0  0  0  0
 15 32  1  0  0  0  0
 16 33  1  0  0  0  0
 16 34  1  0  0  0  0
M  END
> <s_m_source_file>
AV-unprocessed.smi

> <i_m_source_file_index>
626

> <i_lp_mmshare_version>
43012

> <i_f3d_flags>
0

> <s_epik_input>
W0NIM11bTkhdQyg9TylbQ0gyXWMxbm9jKG4xKVtDQEhdKFtDSDJdW0NAQEhdMjMpW0NAQEhdKFtDSDJdMylbQ0gyXVtDSDJdMg==

> <s_epik_cmdline>
J2VwaWtfcHl0aG9uJywgJy1waCcsICc3LjAnLCAnLXRuJywgJzgnLCAnLW1hJywgJzIwMCcsICctbWV0YWxfYmluZGluZycsICctaW1hZScsICc8aW5maWxlLm1hZT4nLCAnLW9tYWUnLCAnPG91dGZpbGUubWFlPic=

> <r_lp_tautomer_probability>
1

> <r_epik_Ionization_Penalty>
1.02916e-07

> <r_epik_Ionization_Penalty_Charging>
0

> <r_epik_Ionization_Penalty_Neutral>
1.02916e-07

> <r_epik_State_Penalty>
-0

> <r_epik_Charging_Adjusted_Penalty>
0

> <i_epik_Tot_Q>
0

> <i_epik_Tot_abs_Q>
0

> <r_epik_Metal_State_Penalty>
-0

> <b_epik_Metal_Only>
0

> <s_lp_Force_Field>
OPLS_2005

> <r_lp_Energy>
49.0627

> <b_lp_Chiralities_Consistent>
1

> <s_lp_Variant>
AV-unprocessed.smi:626-2

> <Gold.Version>
5.8.1

> <Gold.Id.Protein>
6NUR|6NUR_protein|mol2

> <Gold.PLP.Fitness>
40.6425

> <Gold.PLP.PLP>
-35.9681

> <Gold.PLP.part.hbond>
-1.9913

> <Gold.PLP.part.metal>
0.0000

> <Gold.PLP.part.buried>
-2.0793

> <Gold.PLP.part.nonpolar>
-30.8383

> <Gold.PLP.part.repulsive>
0.1718

> <Gold.PLP.ligand.clash>
0.0000

> <Gold.PLP.ligand.torsion>
0.1555

> <Gold.PLP.Chemscore.Hbond>
1.6342

> <Gold.PLP.Chemscore.CHOScore>
0.0000

> <Gold.PLP.Chemscore.Metal>
0.0000

> <Gold.Chemscore.Hbonds>
donor molecule, donor type, donor heavy atom, donor atom, acceptor molecule, acceptor atom, score
      L1  H     2    21       P1  7957  0.78
      P1  H  7997  8010       L1     7  0.47

> <Gold.PLP.Chemscore.Internal.Correction>
0.0828

> <Gold.Rescore>
     Score         DG    S(hbond)    S(metal)    S(lipo)     H(rot)  DE(clash)    DE(int)     intcor
     14.24     -15.69       0.95        0.00      95.43       1.61       0.06       1.39       ----

> <Gold.Chemscore.Fitness>
14.2432

> <Gold.Chemscore.DG>
-15.6923

> <Gold.Chemscore.ZeroCoef>
-5.4800

> <Gold.Chemscore.Hbond>
0.9503

> <Gold.Chemscore.Metal>
0.0000

> <Gold.Chemscore.Lipo>
95.4252

> <Gold.Chemscore.Internal_Hbond>
0.0000

> <Gold.Chemscore.DEClash>
0.0567

> <Gold.Chemscore.DEInternal>
1.3923

> <Gold.Chemscore.Rot>
1.6119

> <Gold.Chemscore.Internal.Correction>
   9.000000E+99

> <Gold.Chemscore.Hbonds>
donor molecule, donor type, donor heavy atom, donor atom, acceptor molecule, acceptor atom, score
      L1  H     2    21       P1  7957  0.79
      P1  H  7997  8010       L1     7  0.04

> <Gold.Chemscore.Hbond.Weighted>
-3.1741

> <Gold.Chemscore.Metal.Weighted>
-0.0000

> <Gold.Chemscore.Lipo.Weighted>
-11.1648

> <Gold.Chemscore.Internal_Hbond.Weighted>
0.0000

> <Gold.Chemscore.DEClash.Weighted>
0.0567

> <Gold.Chemscore.DEInternal.Weighted>
1.3923

> <Gold.Chemscore.Rot.Weighted>
4.1266

> <Gold.Chemscore.Internal.Correction.Weighted>
   9.000000E+99

> <Gold.Protein.RotatedTorsions>
[ 6907 6896 6895 6894 ] final -156.52 input  -60.11 | X-H torsion
[ 7974 7965 7964 7962 ] final -171.17 input  175.53 | X-H torsion
[ 8008 7997 7996 7995 ] final   70.21 input   59.86 | X-H torsion
[ 10167 10162 10161 10158 ] final -101.32 input  -65.29 | X-H torsion
[ 10718 10713 10712 10709 ] final   60.65 input   66.30 | X-H torsion
[ 10763 10752 10751 10750 ] final  124.82 input  -60.55 | X-H torsion
[ 11005 11000 10999 10996 ] final   74.07 input  -57.11 | X-H torsion

> <Gold.Protein.ActiveResidues>
 VAL166  LYS551  ARG553  GLY616  TRP617  ASP618  TYR619  PRO620  LYS621  CYS622 
 ASP623  PHE694  ASN695  SER759  ASP760  ASP761  ALA762  ILE779  LEU786  VAL792 
 PHE793  MET794  SER795  GLU796  ALA797  LYS798  CYS799  TRP800  GLU811  SER814 

> <Gold.Protein.RotatedAtoms>
  151.2888  133.4175  159.2631 H   0  0  0  0  0  0  0  0  0  0  0  0  # atno 6907 bound_to 6896
  151.0295  134.9529  159.8114 H   0  0  0  0  0  0  0  0  0  0  0  0  # atno 6908 bound_to 6896
  152.5342  134.2849  159.9074 H   0  0  0  0  0  0  0  0  0  0  0  0  # atno 6909 bound_to 6896
  144.7160  140.1962  143.6343 H   0  0  0  0  0  0  0  0  0  0  0  0  # atno 7974 bound_to 7965
  155.7353  140.3491  155.5078 H   0  0  0  0  0  0  0  0  0  0  0  0  # atno 8008 bound_to 7997
  155.9144  140.1056  157.1276 H   0  0  0  0  0  0  0  0  0  0  0  0  # atno 8009 bound_to 7997
  154.4060  140.1261  156.4586 H   0  0  0  0  0  0  0  0  0  0  0  0  # atno 8010 bound_to 7997
  140.2426  143.3528  152.0788 H   0  0  0  0  0  0  0  0  0  0  0  0  # atno 10167 bound_to 10162
  157.5769  130.8951  149.9363 H   0  0  0  0  0  0  0  0  0  0  0  0  # atno 10718 bound_to 10713
  153.6674  135.3336  155.3144 H   0  0  0  0  0  0  0  0  0  0  0  0  # atno 10763 bound_to 10752
  154.8499  135.4378  154.1741 H   0  0  0  0  0  0  0  0  0  0  0  0  # atno 10764 bound_to 10752
  153.2723  135.7001  153.7544 H   0  0  0  0  0  0  0  0  0  0  0  0  # atno 10765 bound_to 10752
  139.9409  134.7401  156.1103 H   0  0  0  0  0  0  0  0  0  0  0  0  # atno 11005 bound_to 11000
  145.8723  139.2278  143.1654 LP  0  0  0  0  0  0  0  0  0  0  0  0  # atno 17320 bound_to 7965
  146.0073  140.8467  142.9988 LP  0  0  0  0  0  0  0  0  0  0  0  0  # atno 17321 bound_to 7965
  139.5072  144.6828  151.5965 LP  0  0  0  0  0  0  0  0  0  0  0  0  # atno 17342 bound_to 10162
  140.6102  143.9450  150.6447 LP  0  0  0  0  0  0  0  0  0  0  0  0  # atno 17343 bound_to 10162
  156.0814  130.3673  150.0573 LP  0  0  0  0  0  0  0  0  0  0  0  0  # atno 17370 bound_to 10713
  156.8718  130.9527  151.3608 LP  0  0  0  0  0  0  0  0  0  0  0  0  # atno 17371 bound_to 10713
  141.1042  133.6666  156.2826 LP  0  0  0  0  0  0  0  0  0  0  0  0  # atno 17394 bound_to 11000
  140.5955  134.5607  157.5508 LP  0  0  0  0  0  0  0  0  0  0  0  0  # atno 17395 bound_to 11000

$$$$
