AV-unprocessed.smi:302|AV-procd|sdf|2272|dock3
  -GOLD-   2262022163D 1   1.00000     0.00000
 Structure written by MMmdl.
 44 45  0  0  0  0  0  0  0  0  1 V2000
  154.3253  132.0430  161.7167 C   0  0  0  0  0  0  0  0  0  0  0  0
  155.3226  133.1683  161.4332 C   0  0  0  0  0  0  0  0  0  0  0  0
  154.5982  134.3421  161.0814 O   0  0  0  0  0  0  0  0  0  0  0  0
  155.2666  135.5775  161.3299 C   0  0  2  0  0  0  0  0  0  0  0  0
  155.4768  135.6797  162.8549 C   0  0  0  0  0  0  0  0  0  0  0  0
  156.3629  136.8566  163.2907 C   0  0  0  0  0  0  0  0  0  0  0  0
  154.4381  136.7469  160.7677 C   0  0  0  0  0  0  0  0  0  0  0  0
  153.3382  136.5269  160.2609 O   0  0  0  0  0  0  0  0  0  0  0  0
  155.0138  137.9608  160.8478 N   0  0  0  0  0  0  0  0  0  0  0  0
  154.5137  139.2094  160.3913 C   0  0  0  0  0  0  0  0  0  0  0  0
  155.1487  140.4527  160.6148 C   0  0  0  0  0  0  0  0  0  0  0  0
  154.5564  141.6225  160.1017 C   0  0  0  0  0  0  0  0  0  0  0  0
  153.3495  141.5253  159.3694 C   0  0  0  0  0  0  0  0  0  0  0  0
  152.7337  142.6871  158.8548 N   0  0  0  0  0  0  0  0  0  0  0  0
  151.3107  142.5749  158.5439 C   0  0  0  0  0  0  0  0  0  0  0  0
  150.8530  143.7754  157.6976 C   0  0  0  0  0  0  0  0  0  0  0  0
  151.1794  144.9902  158.3649 O   0  0  0  0  0  0  0  0  0  0  0  0
  152.5832  145.1276  158.5575 C   0  0  0  0  0  0  0  0  0  0  0  0
  153.1003  143.9769  159.4370 C   0  0  0  0  0  0  0  0  0  0  0  0
  152.7505  140.3294  159.1480 N   0  0  0  0  0  0  0  0  0  0  0  0
  153.3227  139.2106  159.6391 C   0  0  0  0  0  0  0  0  0  0  0  0
  154.8430  131.1245  161.9946 H   0  0  0  0  0  0  0  0  0  0  0  0
  153.7153  131.8302  160.8382 H   0  0  0  0  0  0  0  0  0  0  0  0
  153.6554  132.3104  162.5343 H   0  0  0  0  0  0  0  0  0  0  0  0
  155.9310  133.3539  162.3195 H   0  0  0  0  0  0  0  0  0  0  0  0
  155.9938  132.8629  160.6298 H   0  0  0  0  0  0  0  0  0  0  0  0
  156.2473  135.5525  160.8505 H   0  0  0  0  0  0  0  0  0  0  0  0
  154.5138  135.7427  163.3635 H   0  0  0  0  0  0  0  0  0  0  0  0
  155.9363  134.7551  163.2057 H   0  0  0  0  0  0  0  0  0  0  0  0
  156.5213  136.8403  164.3691 H   0  0  0  0  0  0  0  0  0  0  0  0
  155.9104  137.8165  163.0410 H   0  0  0  0  0  0  0  0  0  0  0  0
  157.3411  136.8110  162.8114 H   0  0  0  0  0  0  0  0  0  0  0  0
  155.9552  137.9783  161.2128 H   0  0  0  0  0  0  0  0  0  0  0  0
  156.0768  140.5328  161.1589 H   0  0  0  0  0  0  0  0  0  0  0  0
  155.0264  142.5763  160.2887 H   0  0  0  0  0  0  0  0  0  0  0  0
  151.0838  141.6558  158.0063 H   0  0  0  0  0  0  0  0  0  0  0  0
  150.7491  142.5422  159.4784 H   0  0  0  0  0  0  0  0  0  0  0  0
  151.3178  143.7545  156.7106 H   0  0  0  0  0  0  0  0  0  0  0  0
  149.7749  143.7347  157.5422 H   0  0  0  0  0  0  0  0  0  0  0  0
  153.0942  145.1401  157.5934 H   0  0  0  0  0  0  0  0  0  0  0  0
  152.7844  146.0859  159.0365 H   0  0  0  0  0  0  0  0  0  0  0  0
  152.6775  144.0536  160.4397 H   0  0  0  0  0  0  0  0  0  0  0  0
  154.1841  144.0556  159.5315 H   0  0  0  0  0  0  0  0  0  0  0  0
  152.8048  138.2856  159.4308 H   0  0  0  0  0  0  0  0  0  0  0  0
  1  2  1  0  0  0  0
  1 22  1  0  0  0  0
  1 23  1  0  0  0  0
  1 24  1  0  0  0  0
  2  3  1  0  0  0  0
  2 25  1  0  0  0  0
  2 26  1  0  0  0  0
  3  4  1  0  0  0  0
  4  5  1  0  0  0  0
  4  7  1  0  0  0  0
  4 27  1  0  0  0  0
  5  6  1  0  0  0  0
  5 28  1  0  0  0  0
  5 29  1  0  0  0  0
  6 30  1  0  0  0  0
  6 31  1  0  0  0  0
  6 32  1  0  0  0  0
  7  8  2  0  0  0  0
  7  9  1  0  0  0  0
  9 10  1  0  0  0  0
  9 33  1  0  0  0  0
 10 21  1  0  0  0  0
 10 11  2  0  0  0  0
 11 12  1  0  0  0  0
 11 34  1  0  0  0  0
 12 13  2  0  0  0  0
 12 35  1  0  0  0  0
 13 14  1  0  0  0  0
 13 20  1  0  0  0  0
 14 19  1  0  0  0  0
 14 15  1  0  0  0  0
 15 16  1  0  0  0  0
 15 36  1  0  0  0  0
 15 37  1  0  0  0  0
 16 17  1  0  0  0  0
 16 38  1  0  0  0  0
 16 39  1  0  0  0  0
 17 18  1  0  0  0  0
 18 19  1  0  0  0  0
 18 40  1  0  0  0  0
 18 41  1  0  0  0  0
 19 42  1  0  0  0  0
 19 43  1  0  0  0  0
 20 21  2  0  0  0  0
 21 44  1  0  0  0  0
M  END
> <s_m_source_file>
AV-unprocessed.smi

> <i_m_source_file_index>
302

> <i_lp_mmshare_version>
43012

> <i_f3d_flags>
0

> <s_epik_input>
W0NIM11bQ0gyXU9bQ0BIXShbQ0gyXVtDSDNdKUMoPU8pW05IXWMxW2NIXVtjSF1jKG5bY0hdMSlOMltDSDJdW0NIMl1PW0NIMl1bQ0gyXTI=

> <s_epik_cmdline>
J2VwaWtfcHl0aG9uJywgJy1waCcsICc3LjAnLCAnLXRuJywgJzgnLCAnLW1hJywgJzIwMCcsICctbWV0YWxfYmluZGluZycsICctaW1hZScsICc8aW5maWxlLm1hZT4nLCAnLW9tYWUnLCAnPG91dGZpbGUubWFlPic=

> <r_lp_tautomer_probability>
1

> <r_epik_Ionization_Penalty>
0.000497413

> <r_epik_Ionization_Penalty_Charging>
0

> <r_epik_Ionization_Penalty_Neutral>
0.000497413

> <r_epik_State_Penalty>
0.000308489

> <r_epik_Charging_Adjusted_Penalty>
0.000308489

> <i_epik_Tot_Q>
0

> <i_epik_Tot_abs_Q>
0

> <r_epik_Metal_State_Penalty>
-0

> <b_epik_Metal_Only>
0

> <s_lp_Force_Field>
OPLS_2005

> <r_lp_Energy>
24.0205

> <b_lp_Chiralities_Consistent>
1

> <s_lp_Variant>
AV-unprocessed.smi:302-1

> <Gold.Version>
5.8.1

> <Gold.Id.Protein>
6NUR|6NUR_protein|mol2

> <Gold.PLP.Fitness>
42.0850

> <Gold.PLP.PLP>
-40.2704

> <Gold.PLP.part.hbond>
-1.0755

> <Gold.PLP.part.metal>
0.0000

> <Gold.PLP.part.buried>
-4.2067

> <Gold.PLP.part.nonpolar>
-35.1672

> <Gold.PLP.part.repulsive>
0.1776

> <Gold.PLP.ligand.clash>
0.0000

> <Gold.PLP.ligand.torsion>
0.8048

> <Gold.PLP.Chemscore.Hbond>
1.0000

> <Gold.PLP.Chemscore.CHOScore>
0.0000

> <Gold.PLP.Chemscore.Metal>
0.0000

> <Gold.Chemscore.Hbonds>
donor molecule, donor type, donor heavy atom, donor atom, acceptor molecule, acceptor atom, score
      P1  H  6896  6907       L1     8  1.00

> <Gold.PLP.Chemscore.Internal.Correction>
0.4242

> <Gold.Rescore>
     Score         DG    S(hbond)    S(metal)    S(lipo)     H(rot)  DE(clash)    DE(int)     intcor
     14.88     -16.98       0.97        0.00     106.24       1.63       0.07       2.03       ----

> <Gold.Chemscore.Fitness>
14.8784

> <Gold.Chemscore.DG>
-16.9780

> <Gold.Chemscore.ZeroCoef>
-5.4800

> <Gold.Chemscore.Hbond>
0.9672

> <Gold.Chemscore.Metal>
0.0000

> <Gold.Chemscore.Lipo>
106.2407

> <Gold.Chemscore.Internal_Hbond>
0.0000

> <Gold.Chemscore.DEClash>
0.0655

> <Gold.Chemscore.DEInternal>
2.0342

> <Gold.Chemscore.Rot>
1.6260

> <Gold.Chemscore.Internal.Correction>
   9.000000E+99

> <Gold.Chemscore.Hbonds>
donor molecule, donor type, donor heavy atom, donor atom, acceptor molecule, acceptor atom, score
      P1  H  6896  6907       L1     8  0.99

> <Gold.Chemscore.Hbond.Weighted>
-3.2305

> <Gold.Chemscore.Metal.Weighted>
-0.0000

> <Gold.Chemscore.Lipo.Weighted>
-12.4302

> <Gold.Chemscore.Internal_Hbond.Weighted>
0.0000

> <Gold.Chemscore.DEClash.Weighted>
0.0655

> <Gold.Chemscore.DEInternal.Weighted>
2.0342

> <Gold.Chemscore.Rot.Weighted>
4.1626

> <Gold.Chemscore.Internal.Correction.Weighted>
   9.000000E+99

> <Gold.Protein.RotatedTorsions>
[ 6907 6896 6895 6894 ] final   39.36 input  -60.11 | X-H torsion
[ 7974 7965 7964 7962 ] final  -23.95 input  175.53 | X-H torsion
[ 8008 7997 7996 7995 ] final  -23.21 input   59.86 | X-H torsion
[ 10167 10162 10161 10158 ] final -136.17 input  -65.29 | X-H torsion
[ 10718 10713 10712 10709 ] final  -13.39 input   66.30 | X-H torsion
[ 10763 10752 10751 10750 ] final   31.90 input  -60.55 | X-H torsion
[ 11005 11000 10999 10996 ] final  107.70 input  -57.11 | X-H torsion

> <Gold.Protein.ActiveResidues>
 VAL166  LYS551  ARG553  GLY616  TRP617  ASP618  TYR619  PRO620  LYS621  CYS622 
 ASP623  PHE694  ASN695  SER759  ASP760  ASP761  ALA762  ILE779  LEU786  VAL792 
 PHE793  MET794  SER795  GLU796  ALA797  LYS798  CYS799  TRP800  GLU811  SER814 

> <Gold.Protein.RotatedAtoms>
  152.1686  134.8853  160.0535 H   0  0  0  0  0  0  0  0  0  0  0  0  # atno 6907 bound_to 6896
  151.9821  133.3756  159.4120 H   0  0  0  0  0  0  0  0  0  0  0  0  # atno 6908 bound_to 6896
  150.6898  134.3950  159.5137 H   0  0  0  0  0  0  0  0  0  0  0  0  # atno 6909 bound_to 6896
  146.1585  140.4686  142.8581 H   0  0  0  0  0  0  0  0  0  0  0  0  # atno 7974 bound_to 7965
  154.4598  140.1987  156.0275 H   0  0  0  0  0  0  0  0  0  0  0  0  # atno 8008 bound_to 7997
  156.0818  140.3270  155.7676 H   0  0  0  0  0  0  0  0  0  0  0  0  # atno 8009 bound_to 7997
  155.5098  140.0561  157.2916 H   0  0  0  0  0  0  0  0  0  0  0  0  # atno 8010 bound_to 7997
  139.8704  143.6964  152.2640 H   0  0  0  0  0  0  0  0  0  0  0  0  # atno 10167 bound_to 10162
  156.6309  130.4901  149.6129 H   0  0  0  0  0  0  0  0  0  0  0  0  # atno 10718 bound_to 10713
  153.0291  135.6427  154.1271 H   0  0  0  0  0  0  0  0  0  0  0  0  # atno 10763 bound_to 10752
  154.0996  135.2860  155.3256 H   0  0  0  0  0  0  0  0  0  0  0  0  # atno 10764 bound_to 10752
  154.6408  135.5460  153.7850 H   0  0  0  0  0  0  0  0  0  0  0  0  # atno 10765 bound_to 10752
  139.8832  134.9408  156.5859 H   0  0  0  0  0  0  0  0  0  0  0  0  # atno 11005 bound_to 11000
  144.7994  140.6185  143.6488 LP  0  0  0  0  0  0  0  0  0  0  0  0  # atno 17320 bound_to 7965
  145.4649  139.1509  143.3846 LP  0  0  0  0  0  0  0  0  0  0  0  0  # atno 17321 bound_to 7965
  139.7289  144.7587  151.0834 LP  0  0  0  0  0  0  0  0  0  0  0  0  # atno 17342 bound_to 10162
  140.7761  143.5113  150.9649 LP  0  0  0  0  0  0  0  0  0  0  0  0  # atno 17343 bound_to 10162
  156.2236  130.6752  151.1393 LP  0  0  0  0  0  0  0  0  0  0  0  0  # atno 17370 bound_to 10713
  157.7200  131.0687  150.6173 LP  0  0  0  0  0  0  0  0  0  0  0  0  # atno 17371 bound_to 10713
  140.7992  133.8519  155.8712 LP  0  0  0  0  0  0  0  0  0  0  0  0  # atno 17394 bound_to 11000
  140.9608  134.1658  157.4655 LP  0  0  0  0  0  0  0  0  0  0  0  0  # atno 17395 bound_to 11000

$$$$
