#       Name:                AV-unprocessed.smi:1667
#       Creating user name   scv26
#       Creation time:       Fri Mar 27 07:39:08 2020


#       File generated by GOLD software.
#

@<TRIPOS>MOLECULE
AV-unprocessed.smi:1667
    50    52     1
SMALL
NO_CHARGES


@<TRIPOS>ATOM
      1 ****        -1.3600   4.4533   1.7511 C.3            1 S1                 0.0000
      2 ****        -1.1643   2.9539   1.9450 C.2            1 S1                 0.0000
      3 ****        -0.8534   2.5143   3.0508 O.2            1 S1                 0.0000
      4 ****        -1.3522   2.1922   0.8541 N.am           1 S1                 0.0000
      5 ****        -1.2234   0.7376   0.7350 C.3            1 S1                 0.0000
      6 ****        -2.1559  -0.0430   1.6815 C.3            1 S1                 0.0000
      7 ****         0.2315   0.3428   0.8320 C.2            1 S1                 0.0000
      8 ****         0.8122   0.0741   2.0038 N.2            1 S1                 0.0000
      9 ****         2.1251  -0.1607   1.6550 C.ar           1 S1                 0.0000
     10 ****         3.2396  -0.4971   2.4560 C.ar           1 S1                 0.0000
     11 ****         4.5094  -0.6797   1.8711 C.ar           1 S1                 0.0000
     12 ****         4.6820  -0.5268   0.4804 C.ar           1 S1                 0.0000
     13 ****         3.5838  -0.1910  -0.3345 C.ar           1 S1                 0.0000
     14 ****         2.3160  -0.0144   0.2531 C.ar           1 S1                 0.0000
     15 ****         1.0582   0.3125  -0.2492 N.pl3          1 S1                 0.0000
     16 ****         0.7439   0.5887  -1.6497 C.3            1 S1                 0.0000
     17 ****         0.4573  -0.6734  -2.4978 C.3            1 S1                 0.0000
     18 ****         1.6062  -1.4944  -2.5661 O.3            1 S1                 0.0000
     19 ****        -0.7817  -1.4320  -2.0400 C.ar           1 S1                 0.0000
     20 ****        -0.6895  -2.4660  -1.0807 C.ar           1 S1                 0.0000
     21 ****        -1.8469  -3.1466  -0.6561 C.ar           1 S1                 0.0000
     22 ****        -3.1042  -2.7960  -1.1837 C.ar           1 S1                 0.0000
     23 ****        -3.2030  -1.7663  -2.1388 C.ar           1 S1                 0.0000
     24 ****        -4.4119  -1.4256  -2.6441 F              1 S1                 0.0000
     25 ****        -2.0452  -1.0883  -2.5672 C.ar           1 S1                 0.0000
     26 ****        -1.5764   0.5023  -0.2655 H              1 S1                 0.0000
     27 ****        -2.3950   4.6699   1.4852 H              1 S1                 0.0000
     28 ****        -0.7129   4.8231   0.9551 H              1 S1                 0.0000
     29 ****        -1.1205   4.9975   2.6652 H              1 S1                 0.0000
     30 ****        -1.6055   2.6760   0.0051 H              1 S1                 0.0000
     31 ****        -2.1013  -1.1131   1.4824 H              1 S1                 0.0000
     32 ****        -3.1936   0.2630   1.5471 H              1 S1                 0.0000
     33 ****        -1.9002   0.1053   2.7305 H              1 S1                 0.0000
     34 ****         3.1175  -0.6114   3.5231 H              1 S1                 0.0000
     35 ****         5.3547  -0.9358   2.4927 H              1 S1                 0.0000
     36 ****         5.6580  -0.6670   0.0394 H              1 S1                 0.0000
     37 ****         3.7149  -0.0733  -1.3997 H              1 S1                 0.0000
     38 ****        -0.0917   1.2857  -1.7062 H              1 S1                 0.0000
     39 ****         1.5904   1.1259  -2.0793 H              1 S1                 0.0000
     40 ****         0.2730  -0.3453  -3.5216 H              1 S1                 0.0000
     41 ****         1.4419  -2.1885  -3.1861 H              1 S1                 0.0000
     42 ****         0.2672  -2.7351  -0.6575 H              1 S1                 0.0000
     43 ****        -1.7708  -3.9336   0.0797 H              1 S1                 0.0000
     44 ****        -3.9921  -3.3154  -0.8547 H              1 S1                 0.0000
     45 ****        -2.1314  -0.2964  -3.2967 H              1 S1                 0.0000
     46 ****        -0.7294   3.1401   3.8209 LP             1 S1                 0.0000
     47 ****        -0.7246   1.5310   3.1799 LP             1 S1                 0.0000
     48 ****         0.3962   0.0492   2.9129 LP             1 S1                 0.0000
     49 ****         1.7961  -1.8847  -1.6652 LP             1 S1                 0.0000
     50 ****         2.3909  -0.9523  -2.8666 LP             1 S1                 0.0000
@<TRIPOS>BOND
    1    1    2 1     
    2    1   27 1     
    3    1   28 1     
    4    1   29 1     
    5    2    3 2     
    6    2    4 am    
    7    4    5 1     
    8    4   30 1     
    9    5   26 1     
   10    5    6 1     
   11    5    7 1     
   12    6   31 1     
   13    6   32 1     
   14    6   33 1     
   15    7   15 1     
   16    7    8 2     
   17    8    9 1     
   18    9   14 ar    
   19    9   10 ar    
   20   10   11 ar    
   21   10   34 1     
   22   11   12 ar    
   23   11   35 1     
   24   12   13 ar    
   25   12   36 1     
   26   13   14 ar    
   27   13   37 1     
   28   14   15 1     
   29   15   16 1     
   30   16   17 1     
   31   16   38 1     
   32   16   39 1     
   33   17   18 1     
   34   17   19 1     
   35   17   40 1     
   36   18   41 1     
   37   19   25 ar    
   38   19   20 ar    
   39   20   21 ar    
   40   20   42 1     
   41   21   22 ar    
   42   21   43 1     
   43   22   23 ar    
   44   22   44 1     
   45   23   24 1     
   46   23   25 ar    
   47   25   45 1     
   48    3   46 1     
   49    3   47 1     
   50    8   48 1     
   51   18   49 1     
   52   18   50 1     
@<TRIPOS>SUBSTRUCTURE
      1 S1             1
@<TRIPOS>SET
LONE_PAIRS      STATIC     ATOMS    <user>   **** ""
5 46 47 48 49 50
DONOR_HYDROGENS      STATIC     ATOMS    <user>   **** ""
2 30 41
ATOM$BLUE        STATIC     ATOMS    COLORGROUP SYSTEM
5 46 47 48 49 50
ATOM$RED        STATIC     ATOMS    COLORGROUP SYSTEM
2 30 41
