AV-unprocessed.smi:2482|AV-procd|sdf|9781|dock2
  -GOLD-   2272013423D 1   1.00000     0.00000
 Structure written by MMmdl.
 34 35  0  0  0  0  0  0  0  0  3 V2000
  153.2182  142.7037  160.5768 C   0  0  0  0  0  0  0  0  0  0  0  0
  152.5087  142.3196  159.2918 C   0  0  0  0  0  0  0  0  0  0  0  0
  151.8328  143.3160  158.6802 N   0  0  0  0  0  0  0  0  0  0  0  0
  151.1819  143.0233  157.5371 C   0  0  0  0  0  0  0  0  0  0  0  0
  151.1765  141.7405  156.9577 C   0  0  0  0  0  0  0  0  0  0  0  0
  151.8857  140.6902  157.5819 C   0  0  0  0  0  0  0  0  0  0  0  0
  151.8853  139.4589  157.0446 N   0  5  0  0  0  0  0  0  0  0  0  0
  151.9550  139.3086  155.6993 C   0  0  0  0  0  0  0  0  0  0  0  0
  152.7207  139.8559  154.9033 O   0  0  0  0  0  0  0  0  0  0  0  0
  150.9083  138.3033  155.1957 C   0  0  2  0  0  0  0  0  0  0  0  0
  149.6529  138.9832  154.6037 C   0  0  0  0  0  0  0  0  0  0  0  0
  148.6637  137.9609  154.1946 N   0  3  2  0  0  0  0  0  0  0  0  0
  147.4611  138.5493  153.5685 C   0  0  0  0  0  0  0  0  0  0  0  0
  148.3387  137.0608  155.3245 C   0  0  0  0  0  0  0  0  0  0  0  0
  149.6244  136.4480  155.9040 C   0  0  0  0  0  0  0  0  0  0  0  0
  150.5141  137.4858  156.2949 O   0  0  0  0  0  0  0  0  0  0  0  0
  152.5647  140.9973  158.7899 C   0  0  0  0  0  0  0  0  0  0  0  0
  153.4520  139.7779  159.6458 Cl  0  0  0  0  0  0  0  0  0  0  0  0
  154.2888  142.5174  160.4892 H   0  0  0  0  0  0  0  0  0  0  0  0
  152.8323  142.1186  161.4119 H   0  0  0  0  0  0  0  0  0  0  0  0
  153.0787  143.7597  160.8124 H   0  0  0  0  0  0  0  0  0  0  0  0
  150.6467  143.8362  157.0690 H   0  0  0  0  0  0  0  0  0  0  0  0
  150.6345  141.5676  156.0393 H   0  0  0  0  0  0  0  0  0  0  0  0
  151.3661  137.6769  154.4259 H   0  0  0  0  0  0  0  0  0  0  0  0
  149.1934  139.6521  155.3341 H   0  0  0  0  0  0  0  0  0  0  0  0
  149.9280  139.5888  153.7388 H   0  0  0  0  0  0  0  0  0  0  0  0
  146.9231  139.1841  154.2738 H   0  0  0  0  0  0  0  0  0  0  0  0
  146.7839  137.7660  153.2266 H   0  0  0  0  0  0  0  0  0  0  0  0
  147.7355  139.1539  152.7035 H   0  0  0  0  0  0  0  0  0  0  0  0
  147.8106  137.6199  156.0985 H   0  0  0  0  0  0  0  0  0  0  0  0
  147.6691  136.2694  154.9858 H   0  0  0  0  0  0  0  0  0  0  0  0
  149.3896  135.8375  156.7762 H   0  0  0  0  0  0  0  0  0  0  0  0
  150.1070  135.7926  155.1774 H   0  0  0  0  0  0  0  0  0  0  0  0
  149.1120  137.3929  153.4897 H   0  0  0  0  0  0  0  0  0  0  0  0
  1  2  1  0  0  0  0
  1 19  1  0  0  0  0
  1 20  1  0  0  0  0
  1 21  1  0  0  0  0
  2 17  1  0  0  0  0
  2  3  2  0  0  0  0
  3  4  1  0  0  0  0
  4  5  2  0  0  0  0
  4 22  1  0  0  0  0
  5  6  1  0  0  0  0
  5 23  1  0  0  0  0
  6  7  1  0  0  0  0
  6 17  2  0  0  0  0
  7  8  1  0  0  0  0
  8  9  2  0  0  0  0
  8 10  1  0  0  0  0
 10 16  1  0  0  0  0
 10 11  1  0  0  0  0
 10 24  1  0  0  0  0
 11 12  1  0  0  0  0
 11 25  1  0  0  0  0
 11 26  1  0  0  0  0
 12 13  1  0  0  0  0
 12 14  1  0  0  0  0
 12 34  1  0  0  0  0
 13 27  1  0  0  0  0
 13 28  1  0  0  0  0
 13 29  1  0  0  0  0
 14 15  1  0  0  0  0
 14 30  1  0  0  0  0
 14 31  1  0  0  0  0
 15 16  1  0  0  0  0
 15 32  1  0  0  0  0
 15 33  1  0  0  0  0
 17 18  1  0  0  0  0
M  CHG  1   7  -1
M  CHG  1  12   1
M  END
> <s_m_source_file>
AV-unprocessed.smi

> <i_m_source_file_index>
2482

> <i_lp_mmshare_version>
43012

> <i_f3d_flags>
0

> <s_epik_input>
W0NIM11jMW5bY0hdW2NIXWMoYzFDbClbTkhdQyg9TylbQ0BASF0yW0NIMl1OKFtDSDNdKVtDSDJdW0NIMl1PMg==

> <s_epik_cmdline>
J2VwaWtfcHl0aG9uJywgJy1waCcsICc3LjAnLCAnLXRuJywgJzgnLCAnLW1hJywgJzIwMCcsICctbWV0YWxfYmluZGluZycsICctaW1hZScsICc8aW5maWxlLm1hZT4nLCAnLW9tYWUnLCAnPG91dGZpbGUubWFlPic=

> <r_epik_Ionization_Penalty>
6.9249

> <r_epik_Ionization_Penalty_Charging>
6.74596

> <r_epik_Ionization_Penalty_Neutral>
0.178941

> <r_epik_State_Penalty>
6.78185

> <r_epik_Charging_Adjusted_Penalty>
13.5278

> <i_epik_Tot_Q>
0

> <i_epik_Tot_abs_Q>
2

> <r_epik_Metal_State_Penalty>
2.70608

> <b_epik_Metal_Only>
1

> <s_lp_Force_Field>
OPLS_2005

> <r_lp_Energy>
14.3473

> <b_lp_Chiralities_Consistent>
1

> <s_lp_Variant>
AV-unprocessed.smi:2482-7

> <Gold.Version>
5.8.1

> <Gold.Id.Protein>
6NUR|6NUR_protein|mol2

> <Gold.PLP.Fitness>
43.6261

> <Gold.PLP.PLP>
-32.2469

> <Gold.PLP.part.hbond>
-3.0000

> <Gold.PLP.part.metal>
0.0000

> <Gold.PLP.part.buried>
-3.5211

> <Gold.PLP.part.nonpolar>
-25.3735

> <Gold.PLP.part.repulsive>
0.0830

> <Gold.PLP.ligand.clash>
0.0000

> <Gold.PLP.ligand.torsion>
1.2746

> <Gold.PLP.Chemscore.Hbond>
3.4800

> <Gold.PLP.Chemscore.CHOScore>
1.0000

> <Gold.PLP.Chemscore.Metal>
0.0000

> <Gold.Chemscore.Hbonds>
donor molecule, donor type, donor heavy atom, donor atom, acceptor molecule, acceptor atom, score
      L1  H    12    34       P1  7948  2.00
      P1  H  7989  7998       L1     9  0.50
      P1  H  7997  8010       L1     9  0.98
      L1  C     4    22       P1  8028  1.00

> <Gold.PLP.Chemscore.Internal.Correction>
0.4885

> <Gold.Rescore>
     Score         DG    S(hbond)    S(metal)    S(lipo)     H(rot)  DE(clash)    DE(int)     intcor
     18.58     -19.66       2.11        0.00      82.70       1.00       0.00       1.08       ----

> <Gold.Chemscore.Fitness>
18.5776

> <Gold.Chemscore.DG>
-19.6568

> <Gold.Chemscore.ZeroCoef>
-5.4800

> <Gold.Chemscore.Hbond>
2.1141

> <Gold.Chemscore.Metal>
0.0000

> <Gold.Chemscore.Lipo>
82.6982

> <Gold.Chemscore.Internal_Hbond>
0.0000

> <Gold.Chemscore.DEClash>
0.0000

> <Gold.Chemscore.DEInternal>
1.0792

> <Gold.Chemscore.Rot>
1.0000

> <Gold.Chemscore.Internal.Correction>
   9.000000E+99

> <Gold.Chemscore.Hbonds>
donor molecule, donor type, donor heavy atom, donor atom, acceptor molecule, acceptor atom, score
      L1  H    12    34       P1  7948  0.92
      P1  H  7989  7998       L1     9  0.37
      P1  H  7997  8010       L1     9  0.75

> <Gold.Chemscore.Hbond.Weighted>
-7.0611

> <Gold.Chemscore.Metal.Weighted>
-0.0000

> <Gold.Chemscore.Lipo.Weighted>
-9.6757

> <Gold.Chemscore.Internal_Hbond.Weighted>
0.0000

> <Gold.Chemscore.DEClash.Weighted>
0.0000

> <Gold.Chemscore.DEInternal.Weighted>
1.0792

> <Gold.Chemscore.Rot.Weighted>
2.5600

> <Gold.Chemscore.Internal.Correction.Weighted>
   9.000000E+99

> <Gold.Protein.RotatedTorsions>
[ 6907 6896 6895 6894 ] final   71.80 input  -60.11 | X-H torsion
[ 7974 7965 7964 7962 ] final   99.76 input  175.53 | X-H torsion
[ 8008 7997 7996 7995 ] final  114.76 input   59.86 | X-H torsion
[ 10167 10162 10161 10158 ] final -115.10 input  -65.29 | X-H torsion
[ 10718 10713 10712 10709 ] final   43.77 input   66.30 | X-H torsion
[ 10763 10752 10751 10750 ] final -139.61 input  -60.55 | X-H torsion
[ 11005 11000 10999 10996 ] final  135.39 input  -57.11 | X-H torsion

> <Gold.Protein.ActiveResidues>
 VAL166  LYS551  ARG553  GLY616  TRP617  ASP618  TYR619  PRO620  LYS621  CYS622 
 ASP623  PHE694  ASN695  SER759  ASP760  ASP761  ALA762  ILE779  LEU786  VAL792 
 PHE793  MET794  SER795  GLU796  ALA797  LYS798  CYS799  TRP800  GLU811  SER814 

> <Gold.Protein.RotatedAtoms>
  152.4831  134.4666  159.9622 H   0  0  0  0  0  0  0  0  0  0  0  0  # atno 6907 bound_to 6896
  151.4668  133.3573  159.2825 H   0  0  0  0  0  0  0  0  0  0  0  0  # atno 6908 bound_to 6896
  150.8919  134.8349  159.7360 H   0  0  0  0  0  0  0  0  0  0  0  0  # atno 6909 bound_to 6896
  145.3946  139.2357  143.3333 H   0  0  0  0  0  0  0  0  0  0  0  0  # atno 7974 bound_to 7965
  156.2341  140.2952  156.0265 H   0  0  0  0  0  0  0  0  0  0  0  0  # atno 8008 bound_to 7997
  155.2142  140.0413  157.2955 H   0  0  0  0  0  0  0  0  0  0  0  0  # atno 8009 bound_to 7997
  154.6047  140.2436  155.7754 H   0  0  0  0  0  0  0  0  0  0  0  0  # atno 8010 bound_to 7997
  140.0937  143.4676  152.1854 H   0  0  0  0  0  0  0  0  0  0  0  0  # atno 10167 bound_to 10162
  157.4195  130.7961  149.7502 H   0  0  0  0  0  0  0  0  0  0  0  0  # atno 10718 bound_to 10713
  154.8604  135.3577  154.5574 H   0  0  0  0  0  0  0  0  0  0  0  0  # atno 10763 bound_to 10752
  153.6191  135.7006  153.5322 H   0  0  0  0  0  0  0  0  0  0  0  0  # atno 10764 bound_to 10752
  153.3144  135.4169  155.1324 H   0  0  0  0  0  0  0  0  0  0  0  0  # atno 10765 bound_to 10752
  139.9976  134.9491  157.0000 H   0  0  0  0  0  0  0  0  0  0  0  0  # atno 11005 bound_to 11000
  146.2781  140.4634  142.8787 LP  0  0  0  0  0  0  0  0  0  0  0  0  # atno 17320 bound_to 7965
  144.8416  140.6866  143.6225 LP  0  0  0  0  0  0  0  0  0  0  0  0  # atno 17321 bound_to 7965
  139.5710  144.7462  151.3891 LP  0  0  0  0  0  0  0  0  0  0  0  0  # atno 17342 bound_to 10162
  140.7015  143.7620  150.7411 LP  0  0  0  0  0  0  0  0  0  0  0  0  # atno 17343 bound_to 10162
  155.9876  130.3965  150.3157 LP  0  0  0  0  0  0  0  0  0  0  0  0  # atno 17370 bound_to 10713
  157.1304  131.0270  151.2971 LP  0  0  0  0  0  0  0  0  0  0  0  0  # atno 17371 bound_to 10713
  140.4788  134.1311  155.7214 LP  0  0  0  0  0  0  0  0  0  0  0  0  # atno 17394 bound_to 11000
  141.1617  133.8781  157.1830 LP  0  0  0  0  0  0  0  0  0  0  0  0  # atno 17395 bound_to 11000

$$$$
