AV-unprocessed.smi:3281|AV-procd|sdf|12557|dock7
  -GOLD-   2272018473D 1   1.00000     0.00000
 Structure written by MMmdl.
 37 38  0  0  0  0  0  0  0  0  2 V2000
  144.8072  142.6418  156.3184 C   0  0  0  0  0  0  0  0  0  0  0  0
  145.3871  142.8385  154.9132 C   0  0  0  0  0  0  0  0  0  0  0  0
  146.7545  142.2591  154.7535 C   0  0  0  0  0  0  0  0  0  0  0  0
  147.4690  142.1070  153.5906 C   0  0  0  0  0  0  0  0  0  0  0  0
  148.7275  141.5290  153.7722 N   0  0  0  0  0  0  0  0  0  0  0  0
  148.9688  141.2253  155.0494 C   0  0  0  0  0  0  0  0  0  0  0  0
  150.2476  140.6215  155.5236 C   0  0  0  0  0  0  0  0  0  0  0  0
  151.1808  141.6551  156.1666 C   0  0  0  0  0  0  0  0  0  0  0  0
  150.4346  142.5490  157.0742 N   0  3  0  0  0  0  0  0  0  0  0  0
  151.2723  143.3053  158.0301 C   0  0  1  0  0  0  0  0  0  0  0  0
  150.3853  144.2489  158.8653 C   0  0  0  0  0  0  0  0  0  0  0  0
  151.1923  145.1093  159.8522 C   0  0  0  0  0  0  0  0  0  0  0  0
  151.9707  144.2628  160.8690 C   0  0  0  0  0  0  0  0  0  0  0  0
  153.1837  143.1998  160.0411 S   0  0  0  0  0  0  0  0  0  0  0  0
  152.0570  142.3259  158.9207 C   0  0  0  0  0  0  0  0  0  0  0  0
  147.6541  141.6730  156.1295 S   0  0  0  0  0  0  0  0  0  0  0  0
  143.8066  143.0691  156.3884 H   0  0  0  0  0  0  0  0  0  0  0  0
  145.4275  143.1243  157.0741 H   0  0  0  0  0  0  0  0  0  0  0  0
  144.7361  141.5831  156.5691 H   0  0  0  0  0  0  0  0  0  0  0  0
  144.7139  142.3894  154.1821 H   0  0  0  0  0  0  0  0  0  0  0  0
  145.4169  143.9033  154.6807 H   0  0  0  0  0  0  0  0  0  0  0  0
  147.1602  142.3834  152.5930 H   0  0  0  0  0  0  0  0  0  0  0  0
  150.0128  139.8305  156.2368 H   0  0  0  0  0  0  0  0  0  0  0  0
  150.7426  140.1425  154.6778 H   0  0  0  0  0  0  0  0  0  0  0  0
  151.9675  141.1495  156.7287 H   0  0  0  0  0  0  0  0  0  0  0  0
  151.6656  142.2525  155.3929 H   0  0  0  0  0  0  0  0  0  0  0  0
  149.9154  143.2108  156.5151 H   0  0  0  0  0  0  0  0  0  0  0  0
  151.9905  143.9118  157.4749 H   0  0  0  0  0  0  0  0  0  0  0  0
  149.8295  144.9087  158.1980 H   0  0  0  0  0  0  0  0  0  0  0  0
  149.6394  143.6708  159.4125 H   0  0  0  0  0  0  0  0  0  0  0  0
  151.8822  145.7523  159.3042 H   0  0  0  0  0  0  0  0  0  0  0  0
  150.5136  145.7756  160.3858 H   0  0  0  0  0  0  0  0  0  0  0  0
  152.4949  144.9074  161.5749 H   0  0  0  0  0  0  0  0  0  0  0  0
  151.2887  143.6409  161.4499 H   0  0  0  0  0  0  0  0  0  0  0  0
  151.3760  141.7136  159.5132 H   0  0  0  0  0  0  0  0  0  0  0  0
  152.6484  141.6444  158.3083 H   0  0  0  0  0  0  0  0  0  0  0  0
  149.7772  141.9913  157.6007 H   0  0  0  0  0  0  0  0  0  0  0  0
  1  2  1  0  0  0  0
  1 17  1  0  0  0  0
  1 18  1  0  0  0  0
  1 19  1  0  0  0  0
  2  3  1  0  0  0  0
  2 20  1  0  0  0  0
  2 21  1  0  0  0  0
  3 16  1  0  0  0  0
  3  4  2  0  0  0  0
  4  5  1  0  0  0  0
  4 22  1  0  0  0  0
  5  6  2  0  0  0  0
  6  7  1  0  0  0  0
  6 16  1  0  0  0  0
  7  8  1  0  0  0  0
  7 23  1  0  0  0  0
  7 24  1  0  0  0  0
  8  9  1  0  0  0  0
  8 25  1  0  0  0  0
  8 26  1  0  0  0  0
  9 10  1  0  0  0  0
  9 27  1  0  0  0  0
  9 37  1  0  0  0  0
 10 15  1  0  0  0  0
 10 11  1  0  0  0  0
 10 28  1  0  0  0  0
 11 12  1  0  0  0  0
 11 29  1  0  0  0  0
 11 30  1  0  0  0  0
 12 13  1  0  0  0  0
 12 31  1  0  0  0  0
 12 32  1  0  0  0  0
 13 14  1  0  0  0  0
 13 33  1  0  0  0  0
 13 34  1  0  0  0  0
 14 15  1  0  0  0  0
 15 35  1  0  0  0  0
 15 36  1  0  0  0  0
M  CHG  1   9   1
M  END
> <s_m_source_file>
AV-unprocessed.smi

> <i_m_source_file_index>
3281

> <i_lp_mmshare_version>
43012

> <i_f3d_flags>
0

> <s_epik_input>
W0NIM11bQ0gyXWMxW2NIXW5jKHMxKVtDSDJdW0NIMl1bTkhdW0NAQEhdMltDSDJdW0NIMl1bQ0gyXVNbQ0gyXTI=

> <s_epik_cmdline>
J2VwaWtfcHl0aG9uJywgJy1waCcsICc3LjAnLCAnLXRuJywgJzgnLCAnLW1hJywgJzIwMCcsICctbWV0YWxfYmluZGluZycsICctaW1hZScsICc8aW5maWxlLm1hZT4nLCAnLW9tYWUnLCAnPG91dGZpbGUubWFlPic=

> <r_epik_Ionization_Penalty>
0.00827702

> <r_epik_Ionization_Penalty_Charging>
0.00826679

> <r_epik_Ionization_Penalty_Neutral>
1.02314e-05

> <r_epik_State_Penalty>
0.00622064

> <r_epik_Charging_Adjusted_Penalty>
0.0144874

> <i_epik_Tot_Q>
1

> <i_epik_Tot_abs_Q>
1

> <r_epik_Metal_State_Penalty>
0.0062521

> <b_epik_Metal_Only>
0

> <s_lp_Force_Field>
OPLS_2005

> <r_lp_Energy>
0.380523

> <b_lp_Chiralities_Consistent>
1

> <s_lp_Variant>
AV-unprocessed.smi:3281-2

> <Gold.Version>
5.8.1

> <Gold.Id.Protein>
6NUR|6NUR_protein|mol2

> <Gold.PLP.Fitness>
44.1326

> <Gold.PLP.PLP>
-36.9230

> <Gold.PLP.part.hbond>
-2.0000

> <Gold.PLP.part.metal>
0.0000

> <Gold.PLP.part.buried>
-6.7003

> <Gold.PLP.part.nonpolar>
-28.7020

> <Gold.PLP.part.repulsive>
0.1958

> <Gold.PLP.ligand.clash>
0.0000

> <Gold.PLP.ligand.torsion>
0.4563

> <Gold.PLP.Chemscore.Hbond>
2.6978

> <Gold.PLP.Chemscore.CHOScore>
0.0000

> <Gold.PLP.Chemscore.Metal>
0.0000

> <Gold.Chemscore.Hbonds>
donor molecule, donor type, donor heavy atom, donor atom, acceptor molecule, acceptor atom, score
      L1  H     9    27       P1  8028  2.00
      P1  H  8011  8017       L1     5  0.70

> <Gold.PLP.Chemscore.Internal.Correction>
0.0287

> <Gold.Rescore>
     Score         DG    S(hbond)    S(metal)    S(lipo)     H(rot)  DE(clash)    DE(int)     intcor
     18.32     -18.95       1.32        0.00     107.71       1.38       0.18       0.46       ----

> <Gold.Chemscore.Fitness>
18.3176

> <Gold.Chemscore.DG>
-18.9519

> <Gold.Chemscore.ZeroCoef>
-5.4800

> <Gold.Chemscore.Hbond>
1.3158

> <Gold.Chemscore.Metal>
0.0000

> <Gold.Chemscore.Lipo>
107.7058

> <Gold.Chemscore.Internal_Hbond>
0.0000

> <Gold.Chemscore.DEClash>
0.1777

> <Gold.Chemscore.DEInternal>
0.4566

> <Gold.Chemscore.Rot>
1.3767

> <Gold.Chemscore.Internal.Correction>
   9.000000E+99

> <Gold.Chemscore.Hbonds>
donor molecule, donor type, donor heavy atom, donor atom, acceptor molecule, acceptor atom, score
      L1  H     9    27       P1  8028  0.94
      P1  H  8011  8017       L1     5  0.20

> <Gold.Chemscore.Hbond.Weighted>
-4.3947

> <Gold.Chemscore.Metal.Weighted>
-0.0000

> <Gold.Chemscore.Lipo.Weighted>
-12.6016

> <Gold.Chemscore.Internal_Hbond.Weighted>
0.0000

> <Gold.Chemscore.DEClash.Weighted>
0.1777

> <Gold.Chemscore.DEInternal.Weighted>
0.4566

> <Gold.Chemscore.Rot.Weighted>
3.5243

> <Gold.Chemscore.Internal.Correction.Weighted>
   9.000000E+99

> <Gold.Protein.RotatedTorsions>
[ 6907 6896 6895 6894 ] final   34.78 input  -60.11 | X-H torsion
[ 7974 7965 7964 7962 ] final   48.09 input  175.53 | X-H torsion
[ 8008 7997 7996 7995 ] final  126.75 input   59.86 | X-H torsion
[ 10167 10162 10161 10158 ] final  -43.45 input  -65.29 | X-H torsion
[ 10718 10713 10712 10709 ] final    8.08 input   66.30 | X-H torsion
[ 10763 10752 10751 10750 ] final  149.02 input  -60.55 | X-H torsion
[ 11005 11000 10999 10996 ] final -163.30 input  -57.11 | X-H torsion

> <Gold.Protein.ActiveResidues>
 VAL166  LYS551  ARG553  GLY616  TRP617  ASP618  TYR619  PRO620  LYS621  CYS622 
 ASP623  PHE694  ASN695  SER759  ASP760  ASP761  ALA762  ILE779  LEU786  VAL792 
 PHE793  MET794  SER795  GLU796  ALA797  LYS798  CYS799  TRP800  GLU811  SER814 

> <Gold.Protein.RotatedAtoms>
  152.1071  134.9300  160.0567 H   0  0  0  0  0  0  0  0  0  0  0  0  # atno 6907 bound_to 6896
  152.0492  133.4006  159.4378 H   0  0  0  0  0  0  0  0  0  0  0  0  # atno 6908 bound_to 6896
  150.6842  134.3247  159.4845 H   0  0  0  0  0  0  0  0  0  0  0  0  # atno 6909 bound_to 6896
  146.0237  139.4681  142.9881 H   0  0  0  0  0  0  0  0  0  0  0  0  # atno 7974 bound_to 7965
  156.2872  140.2685  156.2161 H   0  0  0  0  0  0  0  0  0  0  0  0  # atno 8008 bound_to 7997
  155.0215  140.0386  157.2457 H   0  0  0  0  0  0  0  0  0  0  0  0  # atno 8009 bound_to 7997
  154.7431  140.2729  155.6361 H   0  0  0  0  0  0  0  0  0  0  0  0  # atno 8010 bound_to 7997
  140.6933  143.2982  151.3354 H   0  0  0  0  0  0  0  0  0  0  0  0  # atno 10167 bound_to 10162
  156.9464  130.5880  149.5654 H   0  0  0  0  0  0  0  0  0  0  0  0  # atno 10718 bound_to 10713
  154.0644  135.2871  155.3319 H   0  0  0  0  0  0  0  0  0  0  0  0  # atno 10763 bound_to 10752
  154.6788  135.5271  153.8238 H   0  0  0  0  0  0  0  0  0  0  0  0  # atno 10764 bound_to 10752
  153.0510  135.6576  154.0830 H   0  0  0  0  0  0  0  0  0  0  0  0  # atno 10765 bound_to 10752
  140.5996  134.4961  157.5203 H   0  0  0  0  0  0  0  0  0  0  0  0  # atno 11005 bound_to 11000
  145.7153  141.0093  143.1431 LP  0  0  0  0  0  0  0  0  0  0  0  0  # atno 17320 bound_to 7965
  144.7000  139.8805  143.7447 LP  0  0  0  0  0  0  0  0  0  0  0  0  # atno 17321 bound_to 7965
  139.6360  144.0630  152.2516 LP  0  0  0  0  0  0  0  0  0  0  0  0  # atno 17342 bound_to 10162
  140.0120  144.6217  150.7639 LP  0  0  0  0  0  0  0  0  0  0  0  0  # atno 17343 bound_to 10162
  156.0382  130.5467  150.8705 LP  0  0  0  0  0  0  0  0  0  0  0  0  # atno 17370 bound_to 10713
  157.5751  131.0946  150.9358 LP  0  0  0  0  0  0  0  0  0  0  0  0  # atno 17371 bound_to 10713
  139.9238  134.8096  156.1130 LP  0  0  0  0  0  0  0  0  0  0  0  0  # atno 17394 bound_to 11000
  141.0881  133.6726  156.2480 LP  0  0  0  0  0  0  0  0  0  0  0  0  # atno 17395 bound_to 11000

$$$$
