#       Name:                AV-unprocessed.smi:951
#       Creating user name   scv26
#       Creation time:       Fri Mar 27 02:15:56 2020


#       File generated by GOLD software.
#

@<TRIPOS>MOLECULE
AV-unprocessed.smi:951
    56    58     1
SMALL
NO_CHARGES


@<TRIPOS>ATOM
      1 ****         0.6864   1.0165   1.6177 O.2            1 S1                 0.0000
      2 ****         0.2627  -0.1342   1.5006 C.2            1 S1                 0.0000
      3 ****         1.0624  -1.1977   1.3385 N.am           1 S1                 0.0000
      4 ****         2.5146  -1.1294   1.2593 C.3            1 S1                 0.0000
      5 ****         3.1092  -2.5231   1.0141 C.3            1 S1                 0.0000
      6 ****         4.6230  -2.4938   0.9198 C.ar           1 S1                 0.0000
      7 ****         5.2680  -2.5175  -0.3355 C.ar           1 S1                 0.0000
      8 ****         6.6756  -2.4833  -0.3671 C.ar           1 S1                 0.0000
      9 ****         7.3802  -2.4255   0.8508 C.ar           1 S1                 0.0000
     10 ****         6.6427  -2.4037   2.0515 C.ar           1 S1                 0.0000
     11 ****         5.2932  -2.4372   2.0930 N.ar           1 S1                 0.0000
     12 ****        -1.2508  -0.4208   1.5566 C.3            1 S1                 0.0000
     13 ****        -1.7316  -0.3772   3.0157 C.3            1 S1                 0.0000
     14 ****        -3.1773   0.0683   2.9299 C.3            1 S1                 0.0000
     15 ****        -3.2362   0.9470   1.6819 C.3            1 S1                 0.0000
     16 ****        -2.1007   0.5537   0.8409 N.am           1 S1                 0.0000
     17 ****        -1.9185   0.9623  -0.4423 C.2            1 S1                 0.0000
     18 ****        -1.0316   0.4867  -1.1520 O.2            1 S1                 0.0000
     19 ****        -2.8516   2.0453  -1.0395 C.3            1 S1                 0.0000
     20 ****        -4.0148   1.4253  -1.8488 C.3            1 S1                 0.0000
     21 ****        -3.5877   0.9268  -3.2407 C.3            1 S1                 0.0000
     22 ****        -2.9261   2.0520  -4.0491 C.3            1 S1                 0.0000
     23 ****        -1.7177   2.6345  -3.3025 C.3            1 S1                 0.0000
     24 ****        -2.0992   3.1055  -1.8845 C.3            1 S1                 0.0000
     25 ****         0.6371  -2.1098   1.2565 H              1 S1                 0.0000
     26 ****         2.8019  -0.4543   0.4513 H              1 S1                 0.0000
     27 ****         2.9069  -0.7092   2.1869 H              1 S1                 0.0000
     28 ****         2.8190  -3.2010   1.8185 H              1 S1                 0.0000
     29 ****         2.7015  -2.9458   0.0947 H              1 S1                 0.0000
     30 ****         4.6999  -2.5588  -1.2536 H              1 S1                 0.0000
     31 ****         7.2049  -2.5005  -1.3083 H              1 S1                 0.0000
     32 ****         8.4596  -2.3974   0.8649 H              1 S1                 0.0000
     33 ****         7.1498  -2.3581   3.0039 H              1 S1                 0.0000
     34 ****        -1.4582  -1.4052   1.1326 H              1 S1                 0.0000
     35 ****        -1.6232  -1.3382   3.5197 H              1 S1                 0.0000
     36 ****        -1.1731   0.3612   3.5943 H              1 S1                 0.0000
     37 ****        -3.8130  -0.8064   2.7859 H              1 S1                 0.0000
     38 ****        -3.5198   0.5832   3.8279 H              1 S1                 0.0000
     39 ****        -4.1928   0.8331   1.1701 H              1 S1                 0.0000
     40 ****        -3.1220   1.9937   1.9673 H              1 S1                 0.0000
     41 ****        -3.2909   2.6074  -0.2177 H              1 S1                 0.0000
     42 ****        -4.4696   0.6046  -1.2927 H              1 S1                 0.0000
     43 ****        -4.8004   2.1726  -1.9669 H              1 S1                 0.0000
     44 ****        -2.8997   0.0862  -3.1454 H              1 S1                 0.0000
     45 ****        -4.4576   0.5494  -3.7790 H              1 S1                 0.0000
     46 ****        -2.6145   1.6767  -5.0242 H              1 S1                 0.0000
     47 ****        -3.6538   2.8418  -4.2398 H              1 S1                 0.0000
     48 ****        -0.9224   1.8912  -3.2586 H              1 S1                 0.0000
     49 ****        -1.3083   3.4728  -3.8666 H              1 S1                 0.0000
     50 ****        -2.7331   3.9884  -1.9745 H              1 S1                 0.0000
     51 ****        -1.2042   3.4401  -1.3580 H              1 S1                 0.0000
     52 ****         1.6707   1.1918   1.5940 LP             1 S1                 0.0000
     53 ****         0.0462   1.7754   1.7366 LP             1 S1                 0.0000
     54 ****         4.8043  -2.4206   2.9652 LP             1 S1                 0.0000
     55 ****        -0.4235  -0.2183  -0.7871 LP             1 S1                 0.0000
     56 ****        -0.9194   0.8056  -2.0931 LP             1 S1                 0.0000
@<TRIPOS>BOND
    1    1    2 2     
    2    2    3 am    
    3    2   12 1     
    4    3    4 1     
    5    3   25 1     
    6    4    5 1     
    7    4   26 1     
    8    4   27 1     
    9    5    6 1     
   10    5   28 1     
   11    5   29 1     
   12    6   11 ar    
   13    6    7 ar    
   14    7    8 ar    
   15    7   30 1     
   16    8    9 ar    
   17    8   31 1     
   18    9   10 ar    
   19    9   32 1     
   20   10   11 ar    
   21   10   33 1     
   22   12   16 1     
   23   12   13 1     
   24   12   34 1     
   25   13   14 1     
   26   13   35 1     
   27   13   36 1     
   28   14   15 1     
   29   14   37 1     
   30   14   38 1     
   31   15   16 1     
   32   15   39 1     
   33   15   40 1     
   34   16   17 am    
   35   17   18 2     
   36   17   19 1     
   37   19   24 1     
   38   19   20 1     
   39   19   41 1     
   40   20   21 1     
   41   20   42 1     
   42   20   43 1     
   43   21   22 1     
   44   21   44 1     
   45   21   45 1     
   46   22   23 1     
   47   22   46 1     
   48   22   47 1     
   49   23   24 1     
   50   23   48 1     
   51   23   49 1     
   52   24   50 1     
   53   24   51 1     
   54    1   52 1     
   55    1   53 1     
   56   11   54 1     
   57   18   55 1     
   58   18   56 1     
@<TRIPOS>SUBSTRUCTURE
      1 S1             1
@<TRIPOS>SET
LONE_PAIRS      STATIC     ATOMS    <user>   **** ""
5 52 53 54 55 56
DONOR_HYDROGENS      STATIC     ATOMS    <user>   **** ""
1 25
ATOM$BLUE        STATIC     ATOMS    COLORGROUP SYSTEM
5 52 53 54 55 56
ATOM$RED        STATIC     ATOMS    COLORGROUP SYSTEM
1 25
