AV-unprocessed.smi:1519|AV-procd|sdf|6128|dock1
  -GOLD-   22720 6273D 1   1.00000     0.00000
 Structure written by MMmdl.
 40 41  0  0  0  0  0  0  0  0  1 V2000
  153.2333  143.0267  162.8321 C   0  0  0  0  0  0  0  0  0  0  0  0
  152.9911  142.8256  161.3753 C   0  0  0  0  0  0  0  0  0  0  0  0
  152.1982  143.6115  160.6425 N   0  0  0  0  0  0  0  0  0  0  0  0
  152.1347  143.2149  159.3031 C   0  0  0  0  0  0  0  0  0  0  0  0
  151.2934  143.9895  158.3345 C   0  0  0  0  0  0  0  0  0  0  0  0
  151.4023  143.4384  156.9031 C   0  0  0  0  0  0  0  0  0  0  0  0
  150.1882  142.7367  156.5017 N   0  0  0  0  0  0  0  0  0  0  0  0
  150.1130  141.4300  156.1959 C   0  0  0  0  0  0  0  0  0  0  0  0
  151.0977  140.6910  156.2398 O   0  0  0  0  0  0  0  0  0  0  0  0
  148.8676  140.9901  155.8840 N   0  0  0  0  0  0  0  0  0  0  0  0
  147.7067  141.8305  155.5451 C   0  0  0  0  0  0  0  0  0  0  0  0
  147.4514  141.7384  154.0295 C   0  0  0  0  0  0  0  0  0  0  0  0
  147.2357  140.2761  153.5807 C   0  0  0  0  0  0  0  0  0  0  0  0
  147.0777  140.1813  152.0522 C   0  0  0  0  0  0  0  0  0  0  0  0
  146.1567  139.1689  151.7048 O   0  0  0  0  0  0  0  0  0  0  0  0
  148.3755  139.3747  154.1098 C   0  0  0  0  0  0  0  0  0  0  0  0
  148.5887  139.5729  155.6214 C   0  0  0  0  0  0  0  0  0  0  0  0
  152.8997  142.1081  159.0300 C   0  0  0  0  0  0  0  0  0  0  0  0
  153.7266  141.5239  160.4480 S   0  0  0  0  0  0  0  0  0  0  0  0
  152.6631  143.8789  163.2034 H   0  0  0  0  0  0  0  0  0  0  0  0
  154.2927  143.2102  163.0113 H   0  0  0  0  0  0  0  0  0  0  0  0
  152.9323  142.1375  163.3859 H   0  0  0  0  0  0  0  0  0  0  0  0
  150.2500  143.9714  158.6514 H   0  0  0  0  0  0  0  0  0  0  0  0
  151.5906  145.0388  158.3492 H   0  0  0  0  0  0  0  0  0  0  0  0
  151.6191  144.2425  156.1976 H   0  0  0  0  0  0  0  0  0  0  0  0
  152.2349  142.7374  156.8384 H   0  0  0  0  0  0  0  0  0  0  0  0
  149.3386  143.2803  156.4615 H   0  0  0  0  0  0  0  0  0  0  0  0
  146.8338  141.4709  156.0920 H   0  0  0  0  0  0  0  0  0  0  0  0
  147.8166  142.8754  155.8342 H   0  0  0  0  0  0  0  0  0  0  0  0
  146.5820  142.3411  153.7654 H   0  0  0  0  0  0  0  0  0  0  0  0
  148.2992  142.1684  153.4941 H   0  0  0  0  0  0  0  0  0  0  0  0
  146.3042  139.9352  154.0358 H   0  0  0  0  0  0  0  0  0  0  0  0
  146.7109  141.1257  151.6487 H   0  0  0  0  0  0  0  0  0  0  0  0
  148.0362  139.9778  151.5734 H   0  0  0  0  0  0  0  0  0  0  0  0
  145.2837  139.4783  151.8938 H   0  0  0  0  0  0  0  0  0  0  0  0
  148.1529  138.3266  153.9079 H   0  0  0  0  0  0  0  0  0  0  0  0
  149.3029  139.6005  153.5814 H   0  0  0  0  0  0  0  0  0  0  0  0
  149.3839  138.9152  155.9751 H   0  0  0  0  0  0  0  0  0  0  0  0
  147.6946  139.2725  156.1693 H   0  0  0  0  0  0  0  0  0  0  0  0
  153.0279  141.6038  158.0836 H   0  0  0  0  0  0  0  0  0  0  0  0
  1  2  1  0  0  0  0
  1 20  1  0  0  0  0
  1 21  1  0  0  0  0
  1 22  1  0  0  0  0
  2 19  1  0  0  0  0
  2  3  2  0  0  0  0
  3  4  1  0  0  0  0
  4  5  1  0  0  0  0
  4 18  2  0  0  0  0
  5  6  1  0  0  0  0
  5 23  1  0  0  0  0
  5 24  1  0  0  0  0
  6  7  1  0  0  0  0
  6 25  1  0  0  0  0
  6 26  1  0  0  0  0
  7  8  1  0  0  0  0
  7 27  1  0  0  0  0
  8  9  2  0  0  0  0
  8 10  1  0  0  0  0
 10 17  1  0  0  0  0
 10 11  1  0  0  0  0
 11 12  1  0  0  0  0
 11 28  1  0  0  0  0
 11 29  1  0  0  0  0
 12 13  1  0  0  0  0
 12 30  1  0  0  0  0
 12 31  1  0  0  0  0
 13 14  1  0  0  0  0
 13 16  1  0  0  0  0
 13 32  1  0  0  0  0
 14 15  1  0  0  0  0
 14 33  1  0  0  0  0
 14 34  1  0  0  0  0
 15 35  1  0  0  0  0
 16 17  1  0  0  0  0
 16 36  1  0  0  0  0
 16 37  1  0  0  0  0
 17 38  1  0  0  0  0
 17 39  1  0  0  0  0
 18 19  1  0  0  0  0
 18 40  1  0  0  0  0
M  END
> <s_m_source_file>
AV-unprocessed.smi

> <i_m_source_file_index>
1519

> <i_lp_mmshare_version>
43012

> <i_f3d_flags>
0

> <s_epik_input>
W0NIM11jMW5jKFtjSF1zMSlbQ0gyXVtDSDJdW05IXUMoPU8pTjJbQ0gyXVtDSDJdW0NIXShbQ0gyXVtPSF0pW0NIMl1bQ0gyXTI=

> <s_epik_cmdline>
J2VwaWtfcHl0aG9uJywgJy1waCcsICc3LjAnLCAnLXRuJywgJzgnLCAnLW1hJywgJzIwMCcsICctbWV0YWxfYmluZGluZycsICctaW1hZScsICc8aW5maWxlLm1hZT4nLCAnLW9tYWUnLCAnPG91dGZpbGUubWFlPic=

> <r_epik_Ionization_Penalty>
0.00208048

> <r_epik_Ionization_Penalty_Charging>
0

> <r_epik_Ionization_Penalty_Neutral>
0.00208048

> <r_epik_State_Penalty>
0.00137324

> <r_epik_Charging_Adjusted_Penalty>
0.00137324

> <i_epik_Tot_Q>
0

> <i_epik_Tot_abs_Q>
0

> <r_epik_Metal_State_Penalty>
-0

> <b_epik_Metal_Only>
0

> <s_lp_Force_Field>
OPLS_2005

> <r_lp_Energy>
26.0602

> <b_lp_Chiralities_Consistent>
1

> <s_lp_Variant>
AV-unprocessed.smi:1519-1

> <Gold.Version>
5.8.1

> <Gold.Id.Protein>
6NUR|6NUR_protein|mol2

> <Gold.PLP.Fitness>
44.2929

> <Gold.PLP.PLP>
-40.8231

> <Gold.PLP.part.hbond>
-2.9380

> <Gold.PLP.part.metal>
0.0000

> <Gold.PLP.part.buried>
-1.2778

> <Gold.PLP.part.nonpolar>
-36.4419

> <Gold.PLP.part.repulsive>
0.1687

> <Gold.PLP.ligand.clash>
0.0000

> <Gold.PLP.ligand.torsion>
0.8266

> <Gold.PLP.Chemscore.Hbond>
1.6880

> <Gold.PLP.Chemscore.CHOScore>
0.0000

> <Gold.PLP.Chemscore.Metal>
0.0000

> <Gold.Chemscore.Hbonds>
donor molecule, donor type, donor heavy atom, donor atom, acceptor molecule, acceptor atom, score
      L1  H     7    27       P1  8028  0.69
      L1  H    15    35       P1 10175  1.00

> <Gold.PLP.Chemscore.Internal.Correction>
0.0589

> <Gold.Rescore>
     Score         DG    S(hbond)    S(metal)    S(lipo)     H(rot)  DE(clash)    DE(int)     intcor
     16.44     -19.02       1.61        0.00     115.62       2.10       1.74       0.84       ----

> <Gold.Chemscore.Fitness>
16.4414

> <Gold.Chemscore.DG>
-19.0223

> <Gold.Chemscore.ZeroCoef>
-5.4800

> <Gold.Chemscore.Hbond>
1.6148

> <Gold.Chemscore.Metal>
0.0000

> <Gold.Chemscore.Lipo>
115.6239

> <Gold.Chemscore.Internal_Hbond>
0.0000

> <Gold.Chemscore.DEClash>
1.7427

> <Gold.Chemscore.DEInternal>
0.8382

> <Gold.Chemscore.Rot>
2.1012

> <Gold.Chemscore.Internal.Correction>
   9.000000E+99

> <Gold.Chemscore.Hbonds>
donor molecule, donor type, donor heavy atom, donor atom, acceptor molecule, acceptor atom, score
      L1  H     7    27       P1  8028  0.68
      L1  H    15    35       P1 10175  0.91

> <Gold.Chemscore.Hbond.Weighted>
-5.3934

> <Gold.Chemscore.Metal.Weighted>
-0.0000

> <Gold.Chemscore.Lipo.Weighted>
-13.5280

> <Gold.Chemscore.Internal_Hbond.Weighted>
0.0000

> <Gold.Chemscore.DEClash.Weighted>
1.7427

> <Gold.Chemscore.DEInternal.Weighted>
0.8382

> <Gold.Chemscore.Rot.Weighted>
5.3791

> <Gold.Chemscore.Internal.Correction.Weighted>
   9.000000E+99

> <Gold.Protein.RotatedTorsions>
[ 6907 6896 6895 6894 ] final  168.38 input  -60.11 | X-H torsion
[ 7974 7965 7964 7962 ] final -179.26 input  175.53 | X-H torsion
[ 8008 7997 7996 7995 ] final  -55.54 input   59.86 | X-H torsion
[ 10167 10162 10161 10158 ] final  -28.56 input  -65.29 | X-H torsion
[ 10718 10713 10712 10709 ] final  100.66 input   66.30 | X-H torsion
[ 10763 10752 10751 10750 ] final   69.85 input  -60.55 | X-H torsion
[ 11005 11000 10999 10996 ] final  -82.90 input  -57.11 | X-H torsion

> <Gold.Protein.ActiveResidues>
 VAL166  LYS551  ARG553  GLY616  TRP617  ASP618  TYR619  PRO620  LYS621  CYS622 
 ASP623  PHE694  ASN695  SER759  ASP760  ASP761  ALA762  ILE779  LEU786  VAL792 
 PHE793  MET794  SER795  GLU796  ALA797  LYS798  CYS799  TRP800  GLU811  SER814 

> <Gold.Protein.RotatedAtoms>
  151.8486  133.3436  159.3665 H   0  0  0  0  0  0  0  0  0  0  0  0  # atno 6907 bound_to 6896
  150.7213  134.5321  159.5715 H   0  0  0  0  0  0  0  0  0  0  0  0  # atno 6908 bound_to 6896
  152.2810  134.7829  160.0447 H   0  0  0  0  0  0  0  0  0  0  0  0  # atno 6909 bound_to 6896
  144.7135  140.0744  143.6428 H   0  0  0  0  0  0  0  0  0  0  0  0  # atno 7974 bound_to 7965
  154.4198  140.1150  156.5493 H   0  0  0  0  0  0  0  0  0  0  0  0  # atno 8008 bound_to 7997
  155.6427  140.3496  155.4701 H   0  0  0  0  0  0  0  0  0  0  0  0  # atno 8009 bound_to 7997
  155.9858  140.1169  157.0674 H   0  0  0  0  0  0  0  0  0  0  0  0  # atno 8010 bound_to 7997
  140.7269  143.4000  151.1282 H   0  0  0  0  0  0  0  0  0  0  0  0  # atno 10167 bound_to 10162
  157.6848  131.0704  150.5134 H   0  0  0  0  0  0  0  0  0  0  0  0  # atno 10718 bound_to 10713
  153.0309  135.5195  154.7351 H   0  0  0  0  0  0  0  0  0  0  0  0  # atno 10763 bound_to 10752
  154.6367  135.2907  155.0154 H   0  0  0  0  0  0  0  0  0  0  0  0  # atno 10764 bound_to 10752
  154.1087  135.6625  153.4933 H   0  0  0  0  0  0  0  0  0  0  0  0  # atno 10765 bound_to 10752
  141.1661  133.7267  156.8640 H   0  0  0  0  0  0  0  0  0  0  0  0  # atno 11005 bound_to 11000
  145.9756  139.2902  143.1073 LP  0  0  0  0  0  0  0  0  0  0  0  0  # atno 17320 bound_to 7965
  145.9068  140.9206  143.0474 LP  0  0  0  0  0  0  0  0  0  0  0  0  # atno 17321 bound_to 7965
  139.7618  143.8624  152.3102 LP  0  0  0  0  0  0  0  0  0  0  0  0  # atno 17342 bound_to 10162
  139.8512  144.7163  150.9211 LP  0  0  0  0  0  0  0  0  0  0  0  0  # atno 17343 bound_to 10162
  156.5451  130.4217  149.6135 LP  0  0  0  0  0  0  0  0  0  0  0  0  # atno 17370 bound_to 10713
  156.2951  130.7146  151.2004 LP  0  0  0  0  0  0  0  0  0  0  0  0  # atno 17371 bound_to 10713
  140.1828  134.9021  157.2969 LP  0  0  0  0  0  0  0  0  0  0  0  0  # atno 17394 bound_to 11000
  140.2376  134.3834  155.7494 LP  0  0  0  0  0  0  0  0  0  0  0  0  # atno 17395 bound_to 11000

$$$$
