AV-unprocessed.smi:1601|AV-procd|sdf|6431|dock4
  -GOLD-   22720 7 73D 1   1.00000     0.00000
 Structure written by MMmdl.
 41 42  0  0  0  0  0  0  0  0  1 V2000
  152.6036  138.7394  155.6836 C   0  0  0  0  0  0  0  0  0  0  0  0
  151.8069  140.0553  155.8784 C   0  0  2  0  0  0  0  0  0  0  0  0
  151.3250  140.1371  157.3532 C   0  0  0  0  0  0  0  0  0  0  0  0
  152.2698  140.8469  158.2081 N   0  0  0  0  0  0  0  0  0  0  0  0
  152.8736  140.3186  159.2829 C   0  0  0  0  0  0  0  0  0  0  0  0
  152.6703  139.1676  159.6707 O   0  0  0  0  0  0  0  0  0  0  0  0
  153.8502  141.2338  160.0400 C   0  0  2  0  0  0  0  0  0  0  0  0
  154.4793  140.4734  161.2284 C   0  0  0  0  0  0  0  0  0  0  0  0
  153.2052  142.4917  160.4327 N   0  0  0  0  0  0  0  0  0  0  0  0
  152.8659  142.9333  161.7006 C   0  0  0  0  0  0  0  0  0  0  0  0
  152.2131  144.1251  161.5693 C   0  0  0  0  0  0  0  0  0  0  0  0
  152.1639  144.3272  160.1638 C   0  0  0  0  0  0  0  0  0  0  0  0
  152.7355  143.3438  159.4901 N   0  0  0  0  0  0  0  0  0  0  0  0
  150.7108  140.2088  154.8930 N   0  0  0  0  0  0  0  0  0  0  0  0
  149.9041  138.9921  154.7431 C   0  0  0  0  0  0  0  0  0  0  0  0
  148.7460  139.1612  153.7440 C   0  0  0  0  0  0  0  0  0  0  0  0
  147.9224  140.2474  154.1439 O   0  0  0  0  0  0  0  0  0  0  0  0
  148.6491  141.4657  154.2237 C   0  0  0  0  0  0  0  0  0  0  0  0
  149.8045  141.3136  155.2279 C   0  0  0  0  0  0  0  0  0  0  0  0
  153.3767  138.6011  156.4385 H   0  0  0  0  0  0  0  0  0  0  0  0
  153.1326  138.7129  154.7321 H   0  0  0  0  0  0  0  0  0  0  0  0
  151.9454  137.8711  155.7280 H   0  0  0  0  0  0  0  0  0  0  0  0
  152.5091  140.8771  155.7292 H   0  0  0  0  0  0  0  0  0  0  0  0
  150.3848  140.6802  157.4391 H   0  0  0  0  0  0  0  0  0  0  0  0
  151.1537  139.1324  157.7440 H   0  0  0  0  0  0  0  0  0  0  0  0
  152.4882  141.8001  157.9572 H   0  0  0  0  0  0  0  0  0  0  0  0
  154.6595  141.5003  159.3580 H   0  0  0  0  0  0  0  0  0  0  0  0
  154.8761  139.5069  160.9148 H   0  0  0  0  0  0  0  0  0  0  0  0
  153.7517  140.2906  162.0206 H   0  0  0  0  0  0  0  0  0  0  0  0
  155.3099  141.0321  161.6609 H   0  0  0  0  0  0  0  0  0  0  0  0
  153.1155  142.3720  162.5889 H   0  0  0  0  0  0  0  0  0  0  0  0
  151.8201  144.7504  162.3569 H   0  0  0  0  0  0  0  0  0  0  0  0
  151.7235  145.1472  159.6158 H   0  0  0  0  0  0  0  0  0  0  0  0
  150.5137  138.1670  154.3803 H   0  0  0  0  0  0  0  0  0  0  0  0
  149.5038  138.6917  155.7125 H   0  0  0  0  0  0  0  0  0  0  0  0
  149.1268  139.3340  152.7360 H   0  0  0  0  0  0  0  0  0  0  0  0
  148.1436  138.2537  153.7066 H   0  0  0  0  0  0  0  0  0  0  0  0
  149.0263  141.7402  153.2372 H   0  0  0  0  0  0  0  0  0  0  0  0
  147.9751  142.2612  154.5413 H   0  0  0  0  0  0  0  0  0  0  0  0
  149.3960  141.1659  156.2288 H   0  0  0  0  0  0  0  0  0  0  0  0
  150.3404  142.2608  155.2412 H   0  0  0  0  0  0  0  0  0  0  0  0
  1  2  1  0  0  0  0
  1 20  1  0  0  0  0
  1 21  1  0  0  0  0
  1 22  1  0  0  0  0
  2  3  1  0  0  0  0
  2 14  1  0  0  0  0
  2 23  1  0  0  0  0
  3  4  1  0  0  0  0
  3 24  1  0  0  0  0
  3 25  1  0  0  0  0
  4  5  1  0  0  0  0
  4 26  1  0  0  0  0
  5  6  2  0  0  0  0
  5  7  1  0  0  0  0
  7  8  1  0  0  0  0
  7  9  1  0  0  0  0
  7 27  1  0  0  0  0
  8 28  1  0  0  0  0
  8 29  1  0  0  0  0
  8 30  1  0  0  0  0
  9 13  1  0  0  0  0
  9 10  1  0  0  0  0
 10 11  2  0  0  0  0
 10 31  1  0  0  0  0
 11 12  1  0  0  0  0
 11 32  1  0  0  0  0
 12 13  2  0  0  0  0
 12 33  1  0  0  0  0
 14 19  1  0  0  0  0
 14 15  1  0  0  0  0
 15 16  1  0  0  0  0
 15 34  1  0  0  0  0
 15 35  1  0  0  0  0
 16 17  1  0  0  0  0
 16 36  1  0  0  0  0
 16 37  1  0  0  0  0
 17 18  1  0  0  0  0
 18 19  1  0  0  0  0
 18 38  1  0  0  0  0
 18 39  1  0  0  0  0
 19 40  1  0  0  0  0
 19 41  1  0  0  0  0
M  END
> <s_m_source_file>
AV-unprocessed.smi

> <i_m_source_file_index>
1601

> <i_lp_mmshare_version>
43012

> <i_f3d_flags>
0

> <s_epik_input>
W0NIMl0xW0NIMl1PW0NIMl1bQ0gyXU4xW0NASF0oW0NIM10pW0NIMl1bTkhdQyg9TylbQ0BIXShbQ0gzXSluMltjSF1bY0hdW2NIXW4y

> <s_epik_cmdline>
J2VwaWtfcHl0aG9uJywgJy1waCcsICc3LjAnLCAnLXRuJywgJzgnLCAnLW1hJywgJzIwMCcsICctbWV0YWxfYmluZGluZycsICctaW1hZScsICc8aW5maWxlLm1hZT4nLCAnLW9tYWUnLCAnPG91dGZpbGUubWFlPic=

> <r_lp_tautomer_probability>
1

> <r_epik_Ionization_Penalty>
0.203323

> <r_epik_Ionization_Penalty_Charging>
0

> <r_epik_Ionization_Penalty_Neutral>
0.203323

> <r_epik_State_Penalty>
0.193192

> <r_epik_Charging_Adjusted_Penalty>
0.193192

> <i_epik_Tot_Q>
0

> <i_epik_Tot_abs_Q>
0

> <r_epik_Metal_State_Penalty>
0.193187

> <b_epik_Metal_Only>
0

> <s_lp_Force_Field>
OPLS_2005

> <r_lp_Energy>
34.8704

> <b_lp_Chiralities_Consistent>
1

> <s_lp_Variant>
AV-unprocessed.smi:1601-1

> <Gold.Version>
5.8.1

> <Gold.Id.Protein>
6NUR|6NUR_protein|mol2

> <Gold.PLP.Fitness>
44.7231

> <Gold.PLP.PLP>
-43.2404

> <Gold.PLP.part.hbond>
-1.0000

> <Gold.PLP.part.metal>
0.0000

> <Gold.PLP.part.buried>
-3.1512

> <Gold.PLP.part.nonpolar>
-38.7694

> <Gold.PLP.part.repulsive>
0.2715

> <Gold.PLP.ligand.clash>
0.0000

> <Gold.PLP.ligand.torsion>
0.8584

> <Gold.PLP.Chemscore.Hbond>
1.0000

> <Gold.PLP.Chemscore.CHOScore>
0.0000

> <Gold.PLP.Chemscore.Metal>
0.0000

> <Gold.Chemscore.Hbonds>
donor molecule, donor type, donor heavy atom, donor atom, acceptor molecule, acceptor atom, score
      P1  H  7989  7998       L1    14  1.00

> <Gold.PLP.Chemscore.Internal.Correction>
0.1994

> <Gold.Rescore>
     Score         DG    S(hbond)    S(metal)    S(lipo)     H(rot)  DE(clash)    DE(int)     intcor
     10.66     -13.32       0.22        0.00      99.92       1.79       0.30       2.36       ----

> <Gold.Chemscore.Fitness>
10.6633

> <Gold.Chemscore.DG>
-13.3245

> <Gold.Chemscore.ZeroCoef>
-5.4800

> <Gold.Chemscore.Hbond>
0.2184

> <Gold.Chemscore.Metal>
0.0000

> <Gold.Chemscore.Lipo>
99.9161

> <Gold.Chemscore.Internal_Hbond>
0.0000

> <Gold.Chemscore.DEClash>
0.3007

> <Gold.Chemscore.DEInternal>
2.3606

> <Gold.Chemscore.Rot>
1.7872

> <Gold.Chemscore.Internal.Correction>
   9.000000E+99

> <Gold.Chemscore.Hbonds>
donor molecule, donor type, donor heavy atom, donor atom, acceptor molecule, acceptor atom, score
      P1  H  7989  7998       L1    14  0.09

> <Gold.Chemscore.Hbond.Weighted>
-0.7296

> <Gold.Chemscore.Metal.Weighted>
-0.0000

> <Gold.Chemscore.Lipo.Weighted>
-11.6902

> <Gold.Chemscore.Internal_Hbond.Weighted>
0.0000

> <Gold.Chemscore.DEClash.Weighted>
0.3007

> <Gold.Chemscore.DEInternal.Weighted>
2.3606

> <Gold.Chemscore.Rot.Weighted>
4.5752

> <Gold.Chemscore.Internal.Correction.Weighted>
   9.000000E+99

> <Gold.Protein.RotatedTorsions>
[ 6907 6896 6895 6894 ] final   86.72 input  -60.11 | X-H torsion
[ 7974 7965 7964 7962 ] final -115.38 input  175.53 | X-H torsion
[ 8008 7997 7996 7995 ] final -134.67 input   59.86 | X-H torsion
[ 10167 10162 10161 10158 ] final -110.81 input  -65.29 | X-H torsion
[ 10718 10713 10712 10709 ] final  -81.23 input   66.30 | X-H torsion
[ 10763 10752 10751 10750 ] final -117.26 input  -60.55 | X-H torsion
[ 11005 11000 10999 10996 ] final -158.47 input  -57.11 | X-H torsion

> <Gold.Protein.ActiveResidues>
 VAL166  LYS551  ARG553  GLY616  TRP617  ASP618  TYR619  PRO620  LYS621  CYS622 
 ASP623  PHE694  ASN695  SER759  ASP760  ASP761  ALA762  ILE779  LEU786  VAL792 
 PHE793  MET794  SER795  GLU796  ALA797  LYS798  CYS799  TRP800  GLU811  SER814 

> <Gold.Protein.RotatedAtoms>
  152.5399  134.2387  159.8853 H   0  0  0  0  0  0  0  0  0  0  0  0  # atno 6907 bound_to 6896
  151.2356  133.4420  159.2613 H   0  0  0  0  0  0  0  0  0  0  0  0  # atno 6908 bound_to 6896
  151.0675  134.9790  159.8348 H   0  0  0  0  0  0  0  0  0  0  0  0  # atno 6909 bound_to 6896
  145.1091  140.8600  143.3880 H   0  0  0  0  0  0  0  0  0  0  0  0  # atno 7974 bound_to 7965
  155.3660  140.0485  157.3046 H   0  0  0  0  0  0  0  0  0  0  0  0  # atno 8008 bound_to 7997
  154.5154  140.2206  155.9039 H   0  0  0  0  0  0  0  0  0  0  0  0  # atno 8009 bound_to 7997
  156.1630  140.3112  155.8846 H   0  0  0  0  0  0  0  0  0  0  0  0  # atno 8010 bound_to 7997
  140.1404  143.4284  152.1566 H   0  0  0  0  0  0  0  0  0  0  0  0  # atno 10167 bound_to 10162
  156.0054  130.4598  150.3921 H   0  0  0  0  0  0  0  0  0  0  0  0  # atno 10718 bound_to 10713
  154.8549  135.4316  154.1952 H   0  0  0  0  0  0  0  0  0  0  0  0  # atno 10763 bound_to 10752
  153.3011  135.6969  153.7208 H   0  0  0  0  0  0  0  0  0  0  0  0  # atno 10764 bound_to 10752
  153.6337  135.3480  155.3024 H   0  0  0  0  0  0  0  0  0  0  0  0  # atno 10765 bound_to 10752
  140.6533  134.4428  157.5235 H   0  0  0  0  0  0  0  0  0  0  0  0  # atno 11005 bound_to 11000
  145.0867  139.2920  143.5756 LP  0  0  0  0  0  0  0  0  0  0  0  0  # atno 17320 bound_to 7965
  146.3527  140.0391  142.8644 LP  0  0  0  0  0  0  0  0  0  0  0  0  # atno 17321 bound_to 7965
  139.5475  144.7310  151.4538 LP  0  0  0  0  0  0  0  0  0  0  0  0  # atno 17342 bound_to 10162
  140.6764  143.8181  150.7063 LP  0  0  0  0  0  0  0  0  0  0  0  0  # atno 17343 bound_to 10162
  157.1995  131.0434  151.2658 LP  0  0  0  0  0  0  0  0  0  0  0  0  # atno 17370 bound_to 10713
  157.3988  130.7322  149.6752 LP  0  0  0  0  0  0  0  0  0  0  0  0  # atno 17371 bound_to 10713
  139.9038  134.8495  156.1787 LP  0  0  0  0  0  0  0  0  0  0  0  0  # atno 17394 bound_to 11000
  141.0521  133.6884  156.1790 LP  0  0  0  0  0  0  0  0  0  0  0  0  # atno 17395 bound_to 11000

$$$$
