AV-unprocessed.smi:114|AV-procd|sdf|1119|dock5
  -GOLD-   2262018243D 1   1.00000     0.00000
 Structure written by MMmdl.
 32 34  0  0  0  0  0  0  0  0  1 V2000
  152.5381  140.1103  158.8650 N   0  0  0  0  0  0  0  0  0  0  0  0
  152.0993  139.9922  157.6040 C   0  0  0  0  0  0  0  0  0  0  0  0
  152.7412  139.1354  156.7759 N   0  0  0  0  0  0  0  0  0  0  0  0
  152.3382  138.9912  155.5074 C   0  0  0  0  0  0  0  0  0  0  0  0
  153.0387  138.1155  154.7493 F   0  0  0  0  0  0  0  0  0  0  0  0
  151.3196  139.6142  154.9042 N   0  0  0  0  0  0  0  0  0  0  0  0
  150.6660  140.4738  155.7390 C   0  0  0  0  0  0  0  0  0  0  0  0
  150.9979  140.7237  157.0967 C   0  0  0  0  0  0  0  0  0  0  0  0
  150.1335  141.6707  157.6281 N   0  0  0  0  0  0  0  0  0  0  0  0
  149.3414  141.9662  156.6321 C   0  0  0  0  0  0  0  0  0  0  0  0
  149.5714  141.2668  155.4644 N   0  0  0  0  0  0  0  0  0  0  0  0
  148.8731  141.3787  154.1427 C   0  0  2  0  0  0  0  0  0  0  0  0
  148.2860  142.6457  154.0585 O   0  0  0  0  0  0  0  0  0  0  0  0
  146.8703  142.5734  154.2193 C   0  0  2  0  0  0  0  0  0  0  0  0
  146.4901  142.7204  155.7106 C   0  0  0  0  0  0  0  0  0  0  0  0
  145.0938  142.5828  155.8651 O   0  0  0  0  0  0  0  0  0  0  0  0
  146.5581  141.2061  153.5967 C   0  0  2  0  0  0  0  0  0  0  0  0
  145.3286  140.6620  154.0353 O   0  0  0  0  0  0  0  0  0  0  0  0
  147.7384  140.3434  154.0212 C   0  0  1  0  0  0  0  0  0  0  0  0
  148.0079  139.3824  153.0207 O   0  0  0  0  0  0  0  0  0  0  0  0
  149.6687  141.2723  153.4039 H   0  0  0  0  0  0  0  0  0  0  0  0
  146.3869  143.3633  153.6425 H   0  0  0  0  0  0  0  0  0  0  0  0
  146.5377  141.3137  152.5107 H   0  0  0  0  0  0  0  0  0  0  0  0
  147.5519  139.8680  154.9859 H   0  0  0  0  0  0  0  0  0  0  0  0
  152.0757  140.7452  159.5001 H   0  0  0  0  0  0  0  0  0  0  0  0
  153.3283  139.5648  159.1779 H   0  0  0  0  0  0  0  0  0  0  0  0
  148.5577  142.7035  156.7305 H   0  0  0  0  0  0  0  0  0  0  0  0
  146.9439  141.9249  156.3015 H   0  0  0  0  0  0  0  0  0  0  0  0
  146.8311  143.6612  156.1396 H   0  0  0  0  0  0  0  0  0  0  0  0
  144.7637  142.0564  155.1530 H   0  0  0  0  0  0  0  0  0  0  0  0
  144.7568  140.5789  153.2872 H   0  0  0  0  0  0  0  0  0  0  0  0
  148.5943  139.7689  152.3878 H   0  0  0  0  0  0  0  0  0  0  0  0
  1  2  1  0  0  0  0
  1 25  1  0  0  0  0
  1 26  1  0  0  0  0
  2  8  1  0  0  0  0
  2  3  2  0  0  0  0
  3  4  1  0  0  0  0
  4  5  1  0  0  0  0
  4  6  2  0  0  0  0
  6  7  1  0  0  0  0
  7 11  1  0  0  0  0
  7  8  2  0  0  0  0
  8  9  1  0  0  0  0
  9 10  2  0  0  0  0
 10 11  1  0  0  0  0
 10 27  1  0  0  0  0
 11 12  1  0  0  0  0
 12 21  1  0  0  0  0
 12 19  1  0  0  0  0
 12 13  1  0  0  0  0
 13 14  1  0  0  0  0
 14 22  1  0  0  0  0
 14 15  1  0  0  0  0
 14 17  1  0  0  0  0
 15 16  1  0  0  0  0
 15 28  1  0  0  0  0
 15 29  1  0  0  0  0
 16 30  1  0  0  0  0
 17 23  1  0  0  0  0
 17 18  1  0  0  0  0
 17 19  1  0  0  0  0
 18 31  1  0  0  0  0
 19 24  1  0  0  0  0
 19 20  1  0  0  0  0
 20 32  1  0  0  0  0
M  END
> <s_m_source_file>
AV-unprocessed.smi

> <i_m_source_file_index>
114

> <i_lp_mmshare_version>
43012

> <i_f3d_flags>
0

> <s_epik_input>
RmMobjEpbmMoW05IMl0pYyhjMTIpbltjSF1uMltDQEBIXTNPW0NASF0oW0NIMl1bT0hdKVtDQEBIXShbT0hdKVtDQEBIXTNbT0hd

> <s_epik_cmdline>
J2VwaWtfcHl0aG9uJywgJy1waCcsICc3LjAnLCAnLXRuJywgJzgnLCAnLW1hJywgJzIwMCcsICctbWV0YWxfYmluZGluZycsICctaW1hZScsICc8aW5maWxlLm1hZT4nLCAnLW9tYWUnLCAnPG91dGZpbGUubWFlPic=

> <r_lp_tautomer_probability>
1

> <r_epik_Ionization_Penalty>
1.13199e-05

> <r_epik_Ionization_Penalty_Charging>
0

> <r_epik_Ionization_Penalty_Neutral>
1.13199e-05

> <r_epik_State_Penalty>
-0

> <r_epik_Charging_Adjusted_Penalty>
0

> <i_epik_Tot_Q>
0

> <i_epik_Tot_abs_Q>
0

> <r_epik_Metal_State_Penalty>
-0

> <b_epik_Metal_Only>
0

> <s_epik_Chemistry_Notes>
This compound contains an acetal/aminal-like group ( X-CH(R)-Y where X, Y are N, S, or O) that may be acid/base labile, releasing an aldehyde.

> <s_lp_Force_Field>
OPLS_2005

> <r_lp_Energy>
35.5551

> <b_lp_Chiralities_Consistent>
1

> <s_lp_Variant>
AV-unprocessed.smi:114-13

> <Gold.Version>
5.8.1

> <Gold.Id.Protein>
6NUR|6NUR_protein|mol2

> <Gold.PLP.Fitness>
42.6077

> <Gold.PLP.PLP>
-30.2714

> <Gold.PLP.part.hbond>
-4.8756

> <Gold.PLP.part.metal>
0.0000

> <Gold.PLP.part.buried>
-1.3603

> <Gold.PLP.part.nonpolar>
-26.6616

> <Gold.PLP.part.repulsive>
2.0923

> <Gold.PLP.ligand.clash>
0.0000

> <Gold.PLP.ligand.torsion>
0.7184

> <Gold.PLP.Chemscore.Hbond>
3.9675

> <Gold.PLP.Chemscore.CHOScore>
0.6120

> <Gold.PLP.Chemscore.Metal>
0.0000

> <Gold.Chemscore.Hbonds>
donor molecule, donor type, donor heavy atom, donor atom, acceptor molecule, acceptor atom, score
      L1  H    18    31       P1 10175  0.54
      L1  H    20    32       P1  7957  1.00
      P1  H  7989  7998       L1     6  0.85
      P1  H  7997  8010       L1     3  0.80
      P1  H  8022  8030       L1    13  0.63
      L1  C    10    27       P1  8028  0.75

> <Gold.PLP.Chemscore.Internal.Correction>
0.0348

> <Gold.Rescore>
     Score         DG    S(hbond)    S(metal)    S(lipo)     H(rot)  DE(clash)    DE(int)     intcor
      6.38      -8.66       3.20        0.00      24.07       4.03       1.52       0.76       ----

> <Gold.Chemscore.Fitness>
6.3760

> <Gold.Chemscore.DG>
-8.6593

> <Gold.Chemscore.ZeroCoef>
-5.4800

> <Gold.Chemscore.Hbond>
3.1958

> <Gold.Chemscore.Metal>
0.0000

> <Gold.Chemscore.Lipo>
24.0714

> <Gold.Chemscore.Internal_Hbond>
0.0000

> <Gold.Chemscore.DEClash>
1.5207

> <Gold.Chemscore.DEInternal>
0.7625

> <Gold.Chemscore.Rot>
4.0277

> <Gold.Chemscore.Internal.Correction>
   9.000000E+99

> <Gold.Chemscore.Hbonds>
donor molecule, donor type, donor heavy atom, donor atom, acceptor molecule, acceptor atom, score
      L1  H    18    31       P1 10175  0.53
      L1  H    20    32       P1  7957  0.99
      P1  H  7989  7998       L1     6  0.14
      P1  H  7997  8010       L1     3  0.08
      P1  H  8022  8030       L1    13  0.20

> <Gold.Chemscore.Hbond.Weighted>
-10.6739

> <Gold.Chemscore.Metal.Weighted>
-0.0000

> <Gold.Chemscore.Lipo.Weighted>
-2.8164

> <Gold.Chemscore.Internal_Hbond.Weighted>
0.0000

> <Gold.Chemscore.DEClash.Weighted>
1.5207

> <Gold.Chemscore.DEInternal.Weighted>
0.7625

> <Gold.Chemscore.Rot.Weighted>
10.3110

> <Gold.Chemscore.Internal.Correction.Weighted>
   9.000000E+99

> <Gold.Protein.RotatedTorsions>
[ 6907 6896 6895 6894 ] final  -89.12 input  -60.11 | X-H torsion
[ 7974 7965 7964 7962 ] final  -16.47 input  175.53 | X-H torsion
[ 8008 7997 7996 7995 ] final   46.23 input   59.86 | X-H torsion
[ 10167 10162 10161 10158 ] final   -4.06 input  -65.29 | X-H torsion
[ 10718 10713 10712 10709 ] final  -99.89 input   66.30 | X-H torsion
[ 10763 10752 10751 10750 ] final -115.25 input  -60.55 | X-H torsion
[ 11005 11000 10999 10996 ] final  -38.40 input  -57.11 | X-H torsion

> <Gold.Protein.ActiveResidues>
 VAL166  LYS551  ARG553  GLY616  TRP617  ASP618  TYR619  PRO620  LYS621  CYS622 
 ASP623  PHE694  ASN695  SER759  ASP760  ASP761  ALA762  ILE779  LEU786  VAL792 
 PHE793  MET794  SER795  GLU796  ALA797  LYS798  CYS799  TRP800  GLU811  SER814 

> <Gold.Protein.RotatedAtoms>
  150.6872  134.2637  159.4559 H   0  0  0  0  0  0  0  0  0  0  0  0  # atno 6907 bound_to 6896
  152.0565  134.9619  160.0584 H   0  0  0  0  0  0  0  0  0  0  0  0  # atno 6908 bound_to 6896
  152.1063  133.4241  159.4647 H   0  0  0  0  0  0  0  0  0  0  0  0  # atno 6909 bound_to 6896
  146.1986  140.3641  142.8431 H   0  0  0  0  0  0  0  0  0  0  0  0  # atno 7974 bound_to 7965
  155.3490  140.3412  155.4239 H   0  0  0  0  0  0  0  0  0  0  0  0  # atno 8008 bound_to 7997
  156.1774  140.1652  156.8373 H   0  0  0  0  0  0  0  0  0  0  0  0  # atno 8009 bound_to 7997
  154.5296  140.0748  156.8304 H   0  0  0  0  0  0  0  0  0  0  0  0  # atno 8010 bound_to 7997
  140.6913  143.6468  150.8386 H   0  0  0  0  0  0  0  0  0  0  0  0  # atno 10167 bound_to 10162
  156.0147  130.5303  150.6736 H   0  0  0  0  0  0  0  0  0  0  0  0  # atno 10718 bound_to 10713
  154.8473  135.4388  154.1633 H   0  0  0  0  0  0  0  0  0  0  0  0  # atno 10763 bound_to 10752
  153.2765  135.6950  153.7434 H   0  0  0  0  0  0  0  0  0  0  0  0  # atno 10764 bound_to 10752
  153.6655  135.3428  155.3114 H   0  0  0  0  0  0  0  0  0  0  0  0  # atno 10765 bound_to 10752
  141.0024  133.6948  156.2048 H   0  0  0  0  0  0  0  0  0  0  0  0  # atno 11005 bound_to 11000
  144.8633  140.7171  143.6093 LP  0  0  0  0  0  0  0  0  0  0  0  0  # atno 17320 bound_to 7965
  145.3561  139.1694  143.4408 LP  0  0  0  0  0  0  0  0  0  0  0  0  # atno 17321 bound_to 7965
  140.0181  143.5571  152.2812 LP  0  0  0  0  0  0  0  0  0  0  0  0  # atno 17342 bound_to 10162
  139.6319  144.7645  151.2517 LP  0  0  0  0  0  0  0  0  0  0  0  0  # atno 17343 bound_to 10162
  157.4454  131.0866  151.0901 LP  0  0  0  0  0  0  0  0  0  0  0  0  # atno 17370 bound_to 10713
  157.1433  130.6152  149.5561 LP  0  0  0  0  0  0  0  0  0  0  0  0  # atno 17371 bound_to 10713
  140.6867  134.4709  157.5589 LP  0  0  0  0  0  0  0  0  0  0  0  0  # atno 17394 bound_to 11000
  139.9046  134.8479  156.1758 LP  0  0  0  0  0  0  0  0  0  0  0  0  # atno 17395 bound_to 11000

$$$$
