#       Name:                AV-unprocessed.smi:72
#       Creating user name   scv26
#       Creation time:       Thu Mar 26 17:05:02 2020


#       File generated by GOLD software.
#

@<TRIPOS>MOLECULE
AV-unprocessed.smi:72
    41    42     1
SMALL
NO_CHARGES


@<TRIPOS>ATOM
      1 ****        -3.9554   2.7503   1.9538 N.2            1 S1                 0.0000
      2 ****        -2.9820   2.2487   1.3297 C.2            1 S1                 0.0000
      3 ****        -1.7355   1.9883   2.0151 N.2            1 S1                 0.0000
      4 ****        -0.7749   1.4402   1.3366 C.2            1 S1                 0.0000
      5 ****        -0.9324   1.0737  -0.0673 N.am           1 S1                 0.0000
      6 ****         0.1826   0.4287  -0.8785 C.3            1 S1                 0.0000
      7 ****         1.3527   0.3582  -0.1139 O.3            1 S1                 0.0000
      8 ****         1.4816  -0.9418   0.4547 C.3            1 S1                 0.0000
      9 ****         2.9211  -1.2006   0.9317 C.3            1 S1                 0.0000
     10 ****         3.1125  -0.6329   2.2098 O.3            1 S1                 0.0000
     11 ****         0.9854  -1.8354  -0.6857 C.3            1 S1                 0.0000
     12 ****         2.0170  -2.0476  -1.6361 O.3            1 S1                 0.0000
     13 ****        -0.1807  -1.0257  -1.2530 C.3            1 S1                 0.0000
     14 ****        -0.3506  -1.2231  -2.6444 O.3            1 S1                 0.0000
     15 ****        -2.1531   1.3887  -0.7239 C.2            1 S1                 0.0000
     16 ****        -2.2527   1.1233  -1.9222 O.2            1 S1                 0.0000
     17 ****        -3.1559   1.9678  -0.0067 N.pl3          1 S1                -1.0000
     18 ****         0.3419   1.0934  -1.7294 H              1 S1                 0.0000
     19 ****         0.7878  -1.0451   1.2913 H              1 S1                 0.0000
     20 ****         0.6556  -2.8091  -0.3219 H              1 S1                 0.0000
     21 ****        -1.0983  -1.3136  -0.7372 H              1 S1                 0.0000
     22 ****        -4.7623   2.8822   1.3616 H              1 S1                 0.0000
     23 ****         0.1978   1.2262   1.7789 H              1 S1                 0.0000
     24 ****         3.1010  -2.2724   1.0195 H              1 S1                 0.0000
     25 ****         3.6535  -0.8024   0.2289 H              1 S1                 0.0000
     26 ****         2.9703   0.2993   2.1451 H              1 S1                 0.0000
     27 ****         1.6335  -2.4502  -2.4007 H              1 S1                 0.0000
     28 ****        -1.0597  -0.6690  -2.9356 H              1 S1                 0.0000
     29 ****        -3.9312   2.9902   2.9243 LP             1 S1                 0.0000
     30 ****        -1.6178   2.2229   2.9800 LP             1 S1                 0.0000
     31 ****         1.3120   1.0381   0.6183 LP             1 S1                 0.0000
     32 ****         2.1425   0.5446  -0.6982 LP             1 S1                 0.0000
     33 ****         4.0452  -0.8116   2.5229 LP             1 S1                 0.0000
     34 ****         2.4618  -1.0300   2.8570 LP             1 S1                 0.0000
     35 ****         2.7151  -2.6503  -1.2497 LP             1 S1                 0.0000
     36 ****         2.4328  -1.1731  -1.8860 LP             1 S1                 0.0000
     37 ****        -0.5725  -2.1810  -2.8262 LP             1 S1                 0.0000
     38 ****         0.4906  -0.9785  -3.1266 LP             1 S1                 0.0000
     39 ****        -1.4874   0.6983  -2.4055 LP             1 S1                 0.0000
     40 ****        -3.0989   1.3329  -2.4121 LP             1 S1                 0.0000
     41 ****        -4.0227   2.1900  -0.4532 LP             1 S1                 0.0000
@<TRIPOS>BOND
    1    1    2 2     
    2    1   22 1     
    3    2   17 1     
    4    2    3 1     
    5    3    4 2     
    6    4    5 1     
    7    4   23 1     
    8    5    6 1     
    9    5   15 am    
   10    6   18 1     
   11    6   13 1     
   12    6    7 1     
   13    7    8 1     
   14    8   19 1     
   15    8    9 1     
   16    8   11 1     
   17    9   10 1     
   18    9   24 1     
   19    9   25 1     
   20   10   26 1     
   21   11   20 1     
   22   11   12 1     
   23   11   13 1     
   24   12   27 1     
   25   13   21 1     
   26   13   14 1     
   27   14   28 1     
   28   15   16 2     
   29   15   17 1     
   30    1   29 1     
   31    3   30 1     
   32    7   31 1     
   33    7   32 1     
   34   10   33 1     
   35   10   34 1     
   36   12   35 1     
   37   12   36 1     
   38   14   37 1     
   39   14   38 1     
   40   16   39 1     
   41   16   40 1     
   42   17   41 1     
@<TRIPOS>SUBSTRUCTURE
      1 S1             1
@<TRIPOS>SET
LONE_PAIRS      STATIC     ATOMS    <user>   **** ""
13 29 30 31 32 33 34 35 36 37 38 39 40 41
DONOR_HYDROGENS      STATIC     ATOMS    <user>   **** ""
4 22 26 27 28
ATOM$BLUE        STATIC     ATOMS    COLORGROUP SYSTEM
13 29 30 31 32 33 34 35 36 37 38 39 40 41
ATOM$RED        STATIC     ATOMS    COLORGROUP SYSTEM
4 22 26 27 28
