AV-unprocessed.smi:2830|AV-procd|sdf|10907|dock7
  -GOLD-   2272015353D 1   1.00000     0.00000
 Structure written by MMmdl.
 28 28  0  0  0  0  0  0  0  0  1 V2000
  150.7437  138.9636  154.5420 C   0  0  0  0  0  0  0  0  0  0  0  0
  150.8140  140.3593  154.7748 O   0  0  0  0  0  0  0  0  0  0  0  0
  149.5435  140.9879  154.7115 C   0  0  0  0  0  0  0  0  0  0  0  0
  149.0452  141.2620  156.1421 C   0  0  1  0  0  0  0  0  0  0  0  0
  149.7675  142.4014  156.7050 N   0  0  0  0  0  0  0  0  0  0  0  0
  150.6658  142.2690  157.7749 C   0  0  0  0  0  0  0  0  0  0  0  0
  151.2802  143.4336  158.2820 C   0  0  0  0  0  0  0  0  0  0  0  0
  152.1838  143.3145  159.3560 C   0  0  0  0  0  0  0  0  0  0  0  0
  152.4429  142.0350  159.8852 C   0  0  0  0  0  0  0  0  0  0  0  0
  153.3656  141.8597  160.9934 C   0  0  0  0  0  0  0  0  0  0  0  0
  154.1006  141.7201  161.8761 N   0  0  0  0  0  0  0  0  0  0  0  0
  151.7836  140.9290  159.3116 C   0  0  0  0  0  0  0  0  0  0  0  0
  150.9175  141.0378  158.2813 N   0  0  0  0  0  0  0  0  0  0  0  0
  147.5203  141.4555  156.1292 C   0  0  0  0  0  0  0  0  0  0  0  0
  147.0573  142.5973  155.6139 N   0  0  0  0  0  0  0  0  0  0  0  0
  146.7711  140.5958  156.5902 O   0  0  0  0  0  0  0  0  0  0  0  0
  151.7427  138.5320  154.6040 H   0  0  0  0  0  0  0  0  0  0  0  0
  150.3449  138.7487  153.5498 H   0  0  0  0  0  0  0  0  0  0  0  0
  150.1172  138.4702  155.2865 H   0  0  0  0  0  0  0  0  0  0  0  0
  149.6023  141.9155  154.1385 H   0  0  0  0  0  0  0  0  0  0  0  0
  148.8525  140.3255  154.1859 H   0  0  0  0  0  0  0  0  0  0  0  0
  149.2684  140.3767  156.7405 H   0  0  0  0  0  0  0  0  0  0  0  0
  149.5056  143.3261  156.3959 H   0  0  0  0  0  0  0  0  0  0  0  0
  151.0640  144.4038  157.8591 H   0  0  0  0  0  0  0  0  0  0  0  0
  152.6651  144.1928  159.7618 H   0  0  0  0  0  0  0  0  0  0  0  0
  151.9514  139.9288  159.6845 H   0  0  0  0  0  0  0  0  0  0  0  0
  146.0634  142.7738  155.5914 H   0  0  0  0  0  0  0  0  0  0  0  0
  147.7051  143.2842  155.2563 H   0  0  0  0  0  0  0  0  0  0  0  0
  1  2  1  0  0  0  0
  1 17  1  0  0  0  0
  1 18  1  0  0  0  0
  1 19  1  0  0  0  0
  2  3  1  0  0  0  0
  3  4  1  0  0  0  0
  3 20  1  0  0  0  0
  3 21  1  0  0  0  0
  4  5  1  0  0  0  0
  4 14  1  0  0  0  0
  4 22  1  0  0  0  0
  5  6  1  0  0  0  0
  5 23  1  0  0  0  0
  6 13  1  0  0  0  0
  6  7  2  0  0  0  0
  7  8  1  0  0  0  0
  7 24  1  0  0  0  0
  8  9  2  0  0  0  0
  8 25  1  0  0  0  0
  9 10  1  0  0  0  0
  9 12  1  0  0  0  0
 10 11  3  0  0  0  0
 12 13  2  0  0  0  0
 12 26  1  0  0  0  0
 14 15  1  0  0  0  0
 14 16  2  0  0  0  0
 15 27  1  0  0  0  0
 15 28  1  0  0  0  0
M  END
> <s_m_source_file>
AV-unprocessed.smi

> <i_m_source_file_index>
2830

> <i_lp_mmshare_version>
43012

> <i_f3d_flags>
0

> <s_epik_input>
W0NIM11PW0NIMl1bQ0BASF0oQyg9TylbTkgyXSlbTkhdYzFbY0hdW2NIXWMoQyNOKVtjSF1uMQ==

> <s_epik_cmdline>
J2VwaWtfcHl0aG9uJywgJy1waCcsICc3LjAnLCAnLXRuJywgJzgnLCAnLW1hJywgJzIwMCcsICctbWV0YWxfYmluZGluZycsICctaW1hZScsICc8aW5maWxlLm1hZT4nLCAnLW9tYWUnLCAnPG91dGZpbGUubWFlPic=

> <r_lp_tautomer_probability>
1

> <r_epik_Ionization_Penalty>
4.37908e-06

> <r_epik_Ionization_Penalty_Charging>
0

> <r_epik_Ionization_Penalty_Neutral>
4.37908e-06

> <r_epik_State_Penalty>
-0

> <r_epik_Charging_Adjusted_Penalty>
0

> <i_epik_Tot_Q>
0

> <i_epik_Tot_abs_Q>
0

> <r_epik_Metal_State_Penalty>
-0

> <b_epik_Metal_Only>
0

> <s_lp_Force_Field>
OPLS_2005

> <r_lp_Energy>
3.76959

> <b_lp_Chiralities_Consistent>
1

> <s_lp_Variant>
AV-unprocessed.smi:2830-2

> <Gold.Version>
5.8.1

> <Gold.Id.Protein>
6NUR|6NUR_protein|mol2

> <Gold.PLP.Fitness>
39.0023

> <Gold.PLP.PLP>
-31.5400

> <Gold.PLP.part.hbond>
-4.0000

> <Gold.PLP.part.metal>
0.0000

> <Gold.PLP.part.buried>
-2.2696

> <Gold.PLP.part.nonpolar>
-24.3422

> <Gold.PLP.part.repulsive>
0.1878

> <Gold.PLP.ligand.clash>
0.0000

> <Gold.PLP.ligand.torsion>
0.7248

> <Gold.PLP.Chemscore.Hbond>
2.9600

> <Gold.PLP.Chemscore.CHOScore>
0.0000

> <Gold.PLP.Chemscore.Metal>
0.0000

> <Gold.Chemscore.Hbonds>
donor molecule, donor type, donor heavy atom, donor atom, acceptor molecule, acceptor atom, score
      L1  H     5    23       P1  8028  1.00
      L1  H    15    28       P1  8028  0.94
      P1  H  7989  7998       L1     2  1.00

> <Gold.PLP.Chemscore.Internal.Correction>
0.0319

> <Gold.Rescore>
     Score         DG    S(hbond)    S(metal)    S(lipo)     H(rot)  DE(clash)    DE(int)     intcor
     13.59     -14.09       2.29        0.00      58.97       2.32       0.03       0.47       ----

> <Gold.Chemscore.Fitness>
13.5857

> <Gold.Chemscore.DG>
-14.0918

> <Gold.Chemscore.ZeroCoef>
-5.4800

> <Gold.Chemscore.Hbond>
2.2906

> <Gold.Chemscore.Metal>
0.0000

> <Gold.Chemscore.Lipo>
58.9715

> <Gold.Chemscore.Internal_Hbond>
0.0000

> <Gold.Chemscore.DEClash>
0.0330

> <Gold.Chemscore.DEInternal>
0.4732

> <Gold.Chemscore.Rot>
2.3197

> <Gold.Chemscore.Internal.Correction>
   9.000000E+99

> <Gold.Chemscore.Hbonds>
donor molecule, donor type, donor heavy atom, donor atom, acceptor molecule, acceptor atom, score
      L1  H     5    23       P1  8028  1.00
      L1  H    15    28       P1  8028  0.36
      P1  H  7989  7998       L1     2  0.19

> <Gold.Chemscore.Hbond.Weighted>
-7.6506

> <Gold.Chemscore.Metal.Weighted>
-0.0000

> <Gold.Chemscore.Lipo.Weighted>
-6.8997

> <Gold.Chemscore.Internal_Hbond.Weighted>
0.0000

> <Gold.Chemscore.DEClash.Weighted>
0.0330

> <Gold.Chemscore.DEInternal.Weighted>
0.4732

> <Gold.Chemscore.Rot.Weighted>
5.9384

> <Gold.Chemscore.Internal.Correction.Weighted>
   9.000000E+99

> <Gold.Protein.RotatedTorsions>
[ 6907 6896 6895 6894 ] final -133.57 input  -60.11 | X-H torsion
[ 7974 7965 7964 7962 ] final  -36.43 input  175.53 | X-H torsion
[ 8008 7997 7996 7995 ] final  -60.56 input   59.86 | X-H torsion
[ 10167 10162 10161 10158 ] final   22.49 input  -65.29 | X-H torsion
[ 10718 10713 10712 10709 ] final  -94.39 input   66.30 | X-H torsion
[ 10763 10752 10751 10750 ] final   55.61 input  -60.55 | X-H torsion
[ 11005 11000 10999 10996 ] final  165.17 input  -57.11 | X-H torsion

> <Gold.Protein.ActiveResidues>
 VAL166  LYS551  ARG553  GLY616  TRP617  ASP618  TYR619  PRO620  LYS621  CYS622 
 ASP623  PHE694  ASN695  SER759  ASP760  ASP761  ALA762  ILE779  LEU786  VAL792 
 PHE793  MET794  SER795  GLU796  ALA797  LYS798  CYS799  TRP800  GLU811  SER814 

> <Gold.Protein.RotatedAtoms>
  150.9756  133.6298  159.2730 H   0  0  0  0  0  0  0  0  0  0  0  0  # atno 6907 bound_to 6896
  151.3571  135.0895  159.9432 H   0  0  0  0  0  0  0  0  0  0  0  0  # atno 6908 bound_to 6896
  152.5198  133.9337  159.7647 H   0  0  0  0  0  0  0  0  0  0  0  0  # atno 6909 bound_to 6896
  146.0662  140.6278  142.8974 H   0  0  0  0  0  0  0  0  0  0  0  0  # atno 7974 bound_to 7965
  154.4405  140.1037  156.6293 H   0  0  0  0  0  0  0  0  0  0  0  0  # atno 8008 bound_to 7997
  155.5622  140.3487  155.4475 H   0  0  0  0  0  0  0  0  0  0  0  0  # atno 8009 bound_to 7997
  156.0451  140.1291  157.0101 H   0  0  0  0  0  0  0  0  0  0  0  0  # atno 8010 bound_to 7997
  140.5345  143.9785  150.6483 H   0  0  0  0  0  0  0  0  0  0  0  0  # atno 10167 bound_to 10162
  156.0026  130.5065  150.5919 H   0  0  0  0  0  0  0  0  0  0  0  0  # atno 10718 bound_to 10713
  152.9819  135.5705  154.5095 H   0  0  0  0  0  0  0  0  0  0  0  0  # atno 10763 bound_to 10752
  154.4601  135.2781  155.1721 H   0  0  0  0  0  0  0  0  0  0  0  0  # atno 10764 bound_to 10752
  154.3312  135.6249  153.5606 H   0  0  0  0  0  0  0  0  0  0  0  0  # atno 10765 bound_to 10752
  140.2534  134.7959  157.3523 H   0  0  0  0  0  0  0  0  0  0  0  0  # atno 11005 bound_to 11000
  144.7204  140.4353  143.7013 LP  0  0  0  0  0  0  0  0  0  0  0  0  # atno 17320 bound_to 7965
  145.6473  139.1559  143.2882 LP  0  0  0  0  0  0  0  0  0  0  0  0  # atno 17321 bound_to 7965
  140.3169  143.3162  152.0823 LP  0  0  0  0  0  0  0  0  0  0  0  0  # atno 17342 bound_to 10162
  139.4966  144.6600  151.6487 LP  0  0  0  0  0  0  0  0  0  0  0  0  # atno 17343 bound_to 10162
  157.3782  131.0776  151.1499 LP  0  0  0  0  0  0  0  0  0  0  0  0  # atno 17370 bound_to 10713
  157.2230  130.6490  149.5819 LP  0  0  0  0  0  0  0  0  0  0  0  0  # atno 17371 bound_to 10713
  140.1535  134.4819  155.7944 LP  0  0  0  0  0  0  0  0  0  0  0  0  # atno 17394 bound_to 11000
  141.2199  133.6872  156.7420 LP  0  0  0  0  0  0  0  0  0  0  0  0  # atno 17395 bound_to 11000

$$$$
