AV-unprocessed.smi:1966|AV-procd|sdf|7953|dock10
  -GOLD-   2272010123D 1   1.00000     0.00000
 Structure written by MMmdl.
 53 54  0  0  0  0  0  0  0  0  1 V2000
  152.9506  139.2046  159.4457 C   0  0  0  0  0  0  0  0  0  0  0  0
  152.1197  139.0087  158.1825 C   0  0  0  0  0  0  0  0  0  0  0  0
  152.4413  139.5706  157.1359 O   0  0  0  0  0  0  0  0  0  0  0  0
  151.0497  138.2065  158.2964 N   0  0  0  0  0  0  0  0  0  0  0  0
  150.1225  137.8645  157.2151 C   0  0  1  0  0  0  0  0  0  0  0  0
  149.9037  136.3383  157.2076 C   0  0  0  0  0  0  0  0  0  0  0  0
  149.5609  135.7623  158.2408 O   0  0  0  0  0  0  0  0  0  0  0  0
  150.1118  135.7304  156.0247 N   0  0  0  0  0  0  0  0  0  0  0  0
  149.9802  134.3559  155.6871 C   0  0  0  0  0  0  0  0  0  0  0  0
  150.3369  133.2813  156.5347 C   0  0  0  0  0  0  0  0  0  0  0  0
  150.1359  131.9621  156.0850 C   0  0  0  0  0  0  0  0  0  0  0  0
  149.5763  131.7440  154.8045 C   0  0  0  0  0  0  0  0  0  0  0  0
  149.3640  130.4284  154.3406 N   0  0  0  0  0  0  0  0  0  0  0  0
  148.5992  130.2468  153.1104 C   0  0  0  0  0  0  0  0  0  0  0  0
  148.1740  128.7756  152.9580 C   0  0  1  0  0  0  0  0  0  0  0  0
  147.4787  128.5174  151.6172 C   0  0  0  0  0  0  0  0  0  0  0  0
  149.3259  127.9360  153.0290 O   0  0  0  0  0  0  0  0  0  0  0  0
  150.0871  128.0644  154.2324 C   0  0  2  0  0  0  0  0  0  0  0  0
  149.3623  127.4573  155.4468 C   0  0  0  0  0  0  0  0  0  0  0  0
  150.5115  129.5314  154.4433 C   0  0  0  0  0  0  0  0  0  0  0  0
  149.2207  132.7761  154.0012 N   0  0  0  0  0  0  0  0  0  0  0  0
  149.4180  134.0384  154.4348 C   0  0  0  0  0  0  0  0  0  0  0  0
  148.7719  138.5997  157.4622 C   0  0  0  0  0  0  0  0  0  0  0  0
  147.6425  138.1322  156.5202 C   0  0  0  0  0  0  0  0  0  0  0  0
  148.9242  140.1291  157.3432 C   0  0  0  0  0  0  0  0  0  0  0  0
  153.3009  138.2441  159.8248 H   0  0  0  0  0  0  0  0  0  0  0  0
  152.3544  139.6865  160.2209 H   0  0  0  0  0  0  0  0  0  0  0  0
  153.8209  139.8305  159.2447 H   0  0  0  0  0  0  0  0  0  0  0  0
  150.8691  137.7848  159.1957 H   0  0  0  0  0  0  0  0  0  0  0  0
  150.5404  138.1869  156.2588 H   0  0  0  0  0  0  0  0  0  0  0  0
  150.4555  136.3237  155.2834 H   0  0  0  0  0  0  0  0  0  0  0  0
  150.7419  133.4348  157.5222 H   0  0  0  0  0  0  0  0  0  0  0  0
  150.3928  131.1365  156.7320 H   0  0  0  0  0  0  0  0  0  0  0  0
  147.7108  130.8796  153.1222 H   0  0  0  0  0  0  0  0  0  0  0  0
  149.2090  130.5549  152.2597 H   0  0  0  0  0  0  0  0  0  0  0  0
  147.4778  128.5116  153.7542 H   0  0  0  0  0  0  0  0  0  0  0  0
  146.5819  129.1292  151.5162 H   0  0  0  0  0  0  0  0  0  0  0  0
  147.1796  127.4729  151.5283 H   0  0  0  0  0  0  0  0  0  0  0  0
  148.1378  128.7478  150.7796 H   0  0  0  0  0  0  0  0  0  0  0  0
  150.9928  127.4767  154.0806 H   0  0  0  0  0  0  0  0  0  0  0  0
  150.0195  127.4354  156.3164 H   0  0  0  0  0  0  0  0  0  0  0  0
  149.0522  126.4324  155.2424 H   0  0  0  0  0  0  0  0  0  0  0  0
  148.4764  128.0269  155.7268 H   0  0  0  0  0  0  0  0  0  0  0  0
  151.2329  129.8155  153.6760 H   0  0  0  0  0  0  0  0  0  0  0  0
  151.0223  129.6281  155.4007 H   0  0  0  0  0  0  0  0  0  0  0  0
  149.1160  134.8222  153.7552 H   0  0  0  0  0  0  0  0  0  0  0  0
  148.4467  138.3895  158.4829 H   0  0  0  0  0  0  0  0  0  0  0  0
  147.9228  138.2590  155.4741 H   0  0  0  0  0  0  0  0  0  0  0  0
  146.7302  138.7047  156.6889 H   0  0  0  0  0  0  0  0  0  0  0  0
  147.3858  137.0840  156.6730 H   0  0  0  0  0  0  0  0  0  0  0  0
  149.2790  140.4135  156.3522 H   0  0  0  0  0  0  0  0  0  0  0  0
  149.6263  140.5289  158.0750 H   0  0  0  0  0  0  0  0  0  0  0  0
  147.9719  140.6332  157.5108 H   0  0  0  0  0  0  0  0  0  0  0  0
  1  2  1  0  0  0  0
  1 26  1  0  0  0  0
  1 27  1  0  0  0  0
  1 28  1  0  0  0  0
  2  3  2  0  0  0  0
  2  4  1  0  0  0  0
  4  5  1  0  0  0  0
  4 29  1  0  0  0  0
  5  6  1  0  0  0  0
  5 23  1  0  0  0  0
  5 30  1  0  0  0  0
  6  7  2  0  0  0  0
  6  8  1  0  0  0  0
  8  9  1  0  0  0  0
  8 31  1  0  0  0  0
  9 22  1  0  0  0  0
  9 10  2  0  0  0  0
 10 11  1  0  0  0  0
 10 32  1  0  0  0  0
 11 12  2  0  0  0  0
 11 33  1  0  0  0  0
 12 13  1  0  0  0  0
 12 21  1  0  0  0  0
 13 20  1  0  0  0  0
 13 14  1  0  0  0  0
 14 15  1  0  0  0  0
 14 34  1  0  0  0  0
 14 35  1  0  0  0  0
 15 16  1  0  0  0  0
 15 17  1  0  0  0  0
 15 36  1  0  0  0  0
 16 37  1  0  0  0  0
 16 38  1  0  0  0  0
 16 39  1  0  0  0  0
 17 18  1  0  0  0  0
 18 19  1  0  0  0  0
 18 20  1  0  0  0  0
 18 40  1  0  0  0  0
 19 41  1  0  0  0  0
 19 42  1  0  0  0  0
 19 43  1  0  0  0  0
 20 44  1  0  0  0  0
 20 45  1  0  0  0  0
 21 22  2  0  0  0  0
 22 46  1  0  0  0  0
 23 24  1  0  0  0  0
 23 25  1  0  0  0  0
 23 47  1  0  0  0  0
 24 48  1  0  0  0  0
 24 49  1  0  0  0  0
 24 50  1  0  0  0  0
 25 51  1  0  0  0  0
 25 52  1  0  0  0  0
 25 53  1  0  0  0  0
M  END
> <s_m_source_file>
AV-unprocessed.smi

> <i_m_source_file_index>
1966

> <i_lp_mmshare_version>
43012

> <i_f3d_flags>
0

> <s_epik_input>
W0NIM11DKD1PKVtOSF1bQ0BASF0oW0NIXShbQ0gzXSlbQ0gzXSlDKD1PKVtOSF1jMVtjSF1bY0hdYyhuW2NIXTEpTjJbQ0gyXVtDQEBIXShbQ0gzXSlPW0NAQEhdKFtDSDNdKVtDSDJdMg==

> <s_epik_cmdline>
J2VwaWtfcHl0aG9uJywgJy1waCcsICc3LjAnLCAnLXRuJywgJzgnLCAnLW1hJywgJzIwMCcsICctbWV0YWxfYmluZGluZycsICctaW1hZScsICc8aW5maWxlLm1hZT4nLCAnLW9tYWUnLCAnPG91dGZpbGUubWFlPic=

> <r_lp_tautomer_probability>
1

> <r_epik_Ionization_Penalty>
0.000679699

> <r_epik_Ionization_Penalty_Charging>
0

> <r_epik_Ionization_Penalty_Neutral>
0.000679699

> <r_epik_State_Penalty>
0.000430485

> <r_epik_Charging_Adjusted_Penalty>
0.000430485

> <i_epik_Tot_Q>
0

> <i_epik_Tot_abs_Q>
0

> <r_epik_Metal_State_Penalty>
-0

> <b_epik_Metal_Only>
0

> <s_lp_Force_Field>
OPLS_2005

> <r_lp_Energy>
28.3815

> <b_lp_Chiralities_Consistent>
1

> <s_lp_Variant>
AV-unprocessed.smi:1966-6

> <Gold.Version>
5.8.1

> <Gold.Id.Protein>
6NUR|6NUR_protein|mol2

> <Gold.PLP.Fitness>
35.9776

> <Gold.PLP.PLP>
-28.0922

> <Gold.PLP.part.hbond>
-2.0000

> <Gold.PLP.part.metal>
0.0000

> <Gold.PLP.part.buried>
-3.9366

> <Gold.PLP.part.nonpolar>
-22.1156

> <Gold.PLP.part.repulsive>
0.4486

> <Gold.PLP.ligand.clash>
0.0000

> <Gold.PLP.ligand.torsion>
0.7442

> <Gold.PLP.Chemscore.Hbond>
2.0000

> <Gold.PLP.Chemscore.CHOScore>
1.0000

> <Gold.PLP.Chemscore.Metal>
0.0000

> <Gold.Chemscore.Hbonds>
donor molecule, donor type, donor heavy atom, donor atom, acceptor molecule, acceptor atom, score
      P1  H  6896  6909       L1     7  0.86
      P1  H  7997  8010       L1     3  0.81
      L1  C    22    46       P1  7948  0.99

> <Gold.PLP.Chemscore.Internal.Correction>
0.3738

> <Gold.Rescore>
     Score         DG    S(hbond)    S(metal)    S(lipo)     H(rot)  DE(clash)    DE(int)     intcor
     14.17     -14.99       1.92        0.00      63.19       1.68       0.00       0.82       ----

> <Gold.Chemscore.Fitness>
14.1651

> <Gold.Chemscore.DG>
-14.9898

> <Gold.Chemscore.ZeroCoef>
-5.4800

> <Gold.Chemscore.Hbond>
1.9183

> <Gold.Chemscore.Metal>
0.0000

> <Gold.Chemscore.Lipo>
63.1857

> <Gold.Chemscore.Internal_Hbond>
0.0000

> <Gold.Chemscore.DEClash>
0.0000

> <Gold.Chemscore.DEInternal>
0.8247

> <Gold.Chemscore.Rot>
1.6759

> <Gold.Chemscore.Internal.Correction>
   9.000000E+99

> <Gold.Chemscore.Hbonds>
donor molecule, donor type, donor heavy atom, donor atom, acceptor molecule, acceptor atom, score
      P1  H  6896  6909       L1     7  0.83
      P1  H  7997  8010       L1     3  0.80

> <Gold.Chemscore.Hbond.Weighted>
-6.4073

> <Gold.Chemscore.Metal.Weighted>
-0.0000

> <Gold.Chemscore.Lipo.Weighted>
-7.3927

> <Gold.Chemscore.Internal_Hbond.Weighted>
0.0000

> <Gold.Chemscore.DEClash.Weighted>
0.0000

> <Gold.Chemscore.DEInternal.Weighted>
0.8247

> <Gold.Chemscore.Rot.Weighted>
4.2902

> <Gold.Chemscore.Internal.Correction.Weighted>
   9.000000E+99

> <Gold.Protein.RotatedTorsions>
[ 6907 6896 6895 6894 ] final   60.93 input  -60.11 | X-H torsion
[ 7974 7965 7964 7962 ] final  -69.10 input  175.53 | X-H torsion
[ 8008 7997 7996 7995 ] final   74.86 input   59.86 | X-H torsion
[ 10167 10162 10161 10158 ] final  -16.63 input  -65.29 | X-H torsion
[ 10718 10713 10712 10709 ] final  129.42 input   66.30 | X-H torsion
[ 10763 10752 10751 10750 ] final -132.16 input  -60.55 | X-H torsion
[ 11005 11000 10999 10996 ] final  -32.85 input  -57.11 | X-H torsion

> <Gold.Protein.ActiveResidues>
 VAL166  LYS551  ARG553  GLY616  TRP617  ASP618  TYR619  PRO620  LYS621  CYS622 
 ASP623  PHE694  ASN695  SER759  ASP760  ASP761  ALA762  ILE779  LEU786  VAL792 
 PHE793  MET794  SER795  GLU796  ALA797  LYS798  CYS799  TRP800  GLU811  SER814 

> <Gold.Protein.RotatedAtoms>
  152.4045  134.6230  160.0055 H   0  0  0  0  0  0  0  0  0  0  0  0  # atno 6907 bound_to 6896
  151.6425  133.3319  159.3141 H   0  0  0  0  0  0  0  0  0  0  0  0  # atno 6908 bound_to 6896
  150.7942  134.7030  159.6605 H   0  0  0  0  0  0  0  0  0  0  0  0  # atno 6909 bound_to 6896
  145.7081  140.9089  143.0695 H   0  0  0  0  0  0  0  0  0  0  0  0  # atno 7974 bound_to 7965
  155.8044  140.3475  155.5421 H   0  0  0  0  0  0  0  0  0  0  0  0  # atno 8008 bound_to 7997
  155.8504  140.0955  157.1698 H   0  0  0  0  0  0  0  0  0  0  0  0  # atno 8009 bound_to 7997
  154.4007  140.1377  156.3825 H   0  0  0  0  0  0  0  0  0  0  0  0  # atno 8010 bound_to 7997
  140.7236  143.5097  150.9766 H   0  0  0  0  0  0  0  0  0  0  0  0  # atno 10167 bound_to 10162
  157.5155  131.1097  150.9230 H   0  0  0  0  0  0  0  0  0  0  0  0  # atno 10718 bound_to 10713
  154.8745  135.3807  154.4364 H   0  0  0  0  0  0  0  0  0  0  0  0  # atno 10763 bound_to 10752
  153.5053  135.7030  153.5815 H   0  0  0  0  0  0  0  0  0  0  0  0  # atno 10764 bound_to 10752
  153.4128  135.3920  155.2028 H   0  0  0  0  0  0  0  0  0  0  0  0  # atno 10765 bound_to 10752
  140.9586  133.7178  156.1334 H   0  0  0  0  0  0  0  0  0  0  0  0  # atno 11005 bound_to 11000
  144.6949  139.9037  143.7460 LP  0  0  0  0  0  0  0  0  0  0  0  0  # atno 17320 bound_to 7965
  146.0737  139.3726  143.0507 LP  0  0  0  0  0  0  0  0  0  0  0  0  # atno 17321 bound_to 7965
  139.8810  143.7072  152.3157 LP  0  0  0  0  0  0  0  0  0  0  0  0  # atno 17342 bound_to 10162
  139.7354  144.7572  151.0735 LP  0  0  0  0  0  0  0  0  0  0  0  0  # atno 17343 bound_to 10162
  156.9857  130.5544  149.5299 LP  0  0  0  0  0  0  0  0  0  0  0  0  # atno 17370 bound_to 10713
  156.0318  130.5408  150.8552 LP  0  0  0  0  0  0  0  0  0  0  0  0  # atno 17371 bound_to 10713
  140.7500  134.4056  157.5543 LP  0  0  0  0  0  0  0  0  0  0  0  0  # atno 17394 bound_to 11000
  139.8870  134.8893  156.2550 LP  0  0  0  0  0  0  0  0  0  0  0  0  # atno 17395 bound_to 11000

$$$$
