AV-unprocessed.smi:699|AV-procd|sdf|3400|dock9
  -GOLD-   22720 0383D 1   1.00000     0.00000
 Structure written by MMmdl.
 34 35  0  0  0  0  0  0  0  0  1 V2000
  148.1243  136.9681  154.3080 N   0  0  0  0  0  0  0  0  0  0  0  0
  147.4197  137.7364  155.1425 C   0  0  0  0  0  0  0  0  0  0  0  0
  147.6382  137.7507  156.3527 O   0  0  0  0  0  0  0  0  0  0  0  0
  146.3174  138.6190  154.5175 C   0  0  1  0  0  0  0  0  0  0  0  0
  146.6194  140.1098  154.7301 C   0  0  0  0  0  0  0  0  0  0  0  0
  147.4826  140.5388  153.5393 C   0  0  0  0  0  0  0  0  0  0  0  0
  147.1254  139.5865  152.3901 C   0  0  0  0  0  0  0  0  0  0  0  0
  146.1878  138.5142  152.9753 C   0  0  1  0  0  0  0  0  0  0  0  0
  146.4841  137.1910  152.4231 N   0  0  0  0  0  0  0  0  0  0  0  0
  145.5790  136.3660  151.8772 C   0  0  0  0  0  0  0  0  0  0  0  0
  144.3848  136.6463  151.7774 O   0  0  0  0  0  0  0  0  0  0  0  0
  146.1541  135.2237  151.4621 N   0  0  0  0  0  0  0  0  0  0  0  0
  145.5615  134.0964  150.8289 C   0  0  0  0  0  0  0  0  0  0  0  0
  146.4112  133.0272  150.4767 C   0  0  0  0  0  0  0  0  0  0  0  0
  145.8546  131.8904  149.8575 C   0  0  0  0  0  0  0  0  0  0  0  0
  144.5389  131.7637  149.5858 N   0  0  0  0  0  0  0  0  0  0  0  0
  143.7245  132.7822  149.9336 C   0  0  0  0  0  0  0  0  0  0  0  0
  144.1781  133.9620  150.5571 C   0  0  0  0  0  0  0  0  0  0  0  0
  148.8568  136.3756  154.6710 H   0  0  0  0  0  0  0  0  0  0  0  0
  147.9247  136.9830  153.3184 H   0  0  0  0  0  0  0  0  0  0  0  0
  145.3658  138.3616  154.9861 H   0  0  0  0  0  0  0  0  0  0  0  0
  145.6829  140.6693  154.7210 H   0  0  0  0  0  0  0  0  0  0  0  0
  147.1061  140.3210  155.6835 H   0  0  0  0  0  0  0  0  0  0  0  0
  147.3153  141.5831  153.2746 H   0  0  0  0  0  0  0  0  0  0  0  0
  148.5391  140.4337  153.7885 H   0  0  0  0  0  0  0  0  0  0  0  0
  146.6388  140.1174  151.5714 H   0  0  0  0  0  0  0  0  0  0  0  0
  148.0384  139.1450  151.9880 H   0  0  0  0  0  0  0  0  0  0  0  0
  145.1655  138.7859  152.7040 H   0  0  0  0  0  0  0  0  0  0  0  0
  147.4445  136.8834  152.4706 H   0  0  0  0  0  0  0  0  0  0  0  0
  147.1561  135.1732  151.5730 H   0  0  0  0  0  0  0  0  0  0  0  0
  147.4727  133.0739  150.6718 H   0  0  0  0  0  0  0  0  0  0  0  0
  146.4838  131.0598  149.5742 H   0  0  0  0  0  0  0  0  0  0  0  0
  142.6755  132.6511  149.7135 H   0  0  0  0  0  0  0  0  0  0  0  0
  143.4584  134.7219  150.8174 H   0  0  0  0  0  0  0  0  0  0  0  0
  1  2  1  0  0  0  0
  1 19  1  0  0  0  0
  1 20  1  0  0  0  0
  2  3  2  0  0  0  0
  2  4  1  0  0  0  0
  4  8  1  0  0  0  0
  4  5  1  0  0  0  0
  4 21  1  0  0  0  0
  5  6  1  0  0  0  0
  5 22  1  0  0  0  0
  5 23  1  0  0  0  0
  6  7  1  0  0  0  0
  6 24  1  0  0  0  0
  6 25  1  0  0  0  0
  7  8  1  0  0  0  0
  7 26  1  0  0  0  0
  7 27  1  0  0  0  0
  8  9  1  0  0  0  0
  8 28  1  0  0  0  0
  9 10  1  0  0  0  0
  9 29  1  0  0  0  0
 10 11  2  0  0  0  0
 10 12  1  0  0  0  0
 12 13  1  0  0  0  0
 12 30  1  0  0  0  0
 13 18  1  0  0  0  0
 13 14  2  0  0  0  0
 14 15  1  0  0  0  0
 14 31  1  0  0  0  0
 15 16  2  0  0  0  0
 15 32  1  0  0  0  0
 16 17  1  0  0  0  0
 17 18  2  0  0  0  0
 17 33  1  0  0  0  0
 18 34  1  0  0  0  0
M  END
> <s_m_source_file>
AV-unprocessed.smi

> <i_m_source_file_index>
699

> <i_lp_mmshare_version>
43012

> <i_f3d_flags>
0

> <s_epik_input>
W05IMl1DKD1PKVtDQEBIXTFbQ0gyXVtDSDJdW0NIMl1bQ0BIXTFbTkhdQyg9TylbTkhdYzJbY0hdW2NIXW5bY0hdW2NIXTI=

> <s_epik_cmdline>
J2VwaWtfcHl0aG9uJywgJy1waCcsICc3LjAnLCAnLXRuJywgJzgnLCAnLW1hJywgJzIwMCcsICctbWV0YWxfYmluZGluZycsICctaW1hZScsICc8aW5maWxlLm1hZT4nLCAnLW9tYWUnLCAnPG91dGZpbGUubWFlPic=

> <r_epik_Ionization_Penalty>
0.113907

> <r_epik_Ionization_Penalty_Charging>
0

> <r_epik_Ionization_Penalty_Neutral>
0.113907

> <r_epik_State_Penalty>
0.103543

> <r_epik_Charging_Adjusted_Penalty>
0.103543

> <i_epik_Tot_Q>
0

> <i_epik_Tot_abs_Q>
0

> <r_epik_Metal_State_Penalty>
0.0867106

> <b_epik_Metal_Only>
0

> <s_lp_Force_Field>
OPLS_2005

> <r_lp_Energy>
19.4222

> <b_lp_Chiralities_Consistent>
1

> <s_lp_Variant>
AV-unprocessed.smi:699-2

> <Gold.Version>
5.8.1

> <Gold.Id.Protein>
6NUR|6NUR_protein|mol2

> <Gold.PLP.Fitness>
40.3591

> <Gold.PLP.PLP>
-27.2026

> <Gold.PLP.part.hbond>
-4.0000

> <Gold.PLP.part.metal>
0.0000

> <Gold.PLP.part.buried>
-1.6211

> <Gold.PLP.part.nonpolar>
-23.3573

> <Gold.PLP.part.repulsive>
1.3520

> <Gold.PLP.ligand.clash>
0.0000

> <Gold.PLP.ligand.torsion>
0.0882

> <Gold.PLP.Chemscore.Hbond>
2.6678

> <Gold.PLP.Chemscore.CHOScore>
1.7706

> <Gold.PLP.Chemscore.Metal>
0.0000

> <Gold.Chemscore.Hbonds>
donor molecule, donor type, donor heavy atom, donor atom, acceptor molecule, acceptor atom, score
      L1  H     1    20       P1  7948  0.58
      L1  H     9    29       P1  7948  1.00
      L1  H    12    30       P1  7948  0.89
      P1  H 10785 10796       L1    16  0.21
      L1  C    15    32       P1 10747  0.79
      L1  C    17    33       P1 10186  0.94

> <Gold.PLP.Chemscore.Internal.Correction>
0.0176

> <Gold.Rescore>
     Score         DG    S(hbond)    S(metal)    S(lipo)     H(rot)  DE(clash)    DE(int)     intcor
     14.09     -17.24       2.33        0.00      66.54       1.49       0.16       3.00       ----

> <Gold.Chemscore.Fitness>
14.0878

> <Gold.Chemscore.DG>
-17.2449

> <Gold.Chemscore.ZeroCoef>
-5.4800

> <Gold.Chemscore.Hbond>
2.3331

> <Gold.Chemscore.Metal>
0.0000

> <Gold.Chemscore.Lipo>
66.5355

> <Gold.Chemscore.Internal_Hbond>
0.0000

> <Gold.Chemscore.DEClash>
0.1583

> <Gold.Chemscore.DEInternal>
2.9988

> <Gold.Chemscore.Rot>
1.4892

> <Gold.Chemscore.Internal.Correction>
   9.000000E+99

> <Gold.Chemscore.Hbonds>
donor molecule, donor type, donor heavy atom, donor atom, acceptor molecule, acceptor atom, score
      L1  H     1    20       P1  7948  0.58
      L1  H     9    29       P1  7948  0.98
      L1  H    12    30       P1  7948  0.76
      P1  H 10785 10796       L1    16  0.13

> <Gold.Chemscore.Hbond.Weighted>
-7.7925

> <Gold.Chemscore.Metal.Weighted>
-0.0000

> <Gold.Chemscore.Lipo.Weighted>
-7.7846

> <Gold.Chemscore.Internal_Hbond.Weighted>
0.0000

> <Gold.Chemscore.DEClash.Weighted>
0.1583

> <Gold.Chemscore.DEInternal.Weighted>
2.9988

> <Gold.Chemscore.Rot.Weighted>
3.8123

> <Gold.Chemscore.Internal.Correction.Weighted>
   9.000000E+99

> <Gold.Protein.RotatedTorsions>
[ 6907 6896 6895 6894 ] final -127.10 input  -60.11 | X-H torsion
[ 7974 7965 7964 7962 ] final  -29.57 input  175.53 | X-H torsion
[ 8008 7997 7996 7995 ] final  100.40 input   59.86 | X-H torsion
[ 10167 10162 10161 10158 ] final  -31.78 input  -65.29 | X-H torsion
[ 10718 10713 10712 10709 ] final   -5.96 input   66.30 | X-H torsion
[ 10763 10752 10751 10750 ] final   27.19 input  -60.55 | X-H torsion
[ 11005 11000 10999 10996 ] final -163.92 input  -57.11 | X-H torsion

> <Gold.Protein.ActiveResidues>
 VAL166  LYS551  ARG553  GLY616  TRP617  ASP618  TYR619  PRO620  LYS621  CYS622 
 ASP623  PHE694  ASN695  SER759  ASP760  ASP761  ALA762  ILE779  LEU786  VAL792 
 PHE793  MET794  SER795  GLU796  ALA797  LYS798  CYS799  TRP800  GLU811  SER814 

> <Gold.Protein.RotatedAtoms>
  150.9038  133.7085  159.2871 H   0  0  0  0  0  0  0  0  0  0  0  0  # atno 6907 bound_to 6896
  151.4594  135.1035  159.9730 H   0  0  0  0  0  0  0  0  0  0  0  0  # atno 6908 bound_to 6896
  152.4892  133.8404  159.7205 H   0  0  0  0  0  0  0  0  0  0  0  0  # atno 6909 bound_to 6896
  146.1206  140.5430  142.8737 H   0  0  0  0  0  0  0  0  0  0  0  0  # atno 7974 bound_to 7965
  156.1200  140.3214  155.8194 H   0  0  0  0  0  0  0  0  0  0  0  0  # atno 8008 bound_to 7997
  155.4522  140.0533  157.3017 H   0  0  0  0  0  0  0  0  0  0  0  0  # atno 8009 bound_to 7997
  154.4820  140.2057  155.9755 H   0  0  0  0  0  0  0  0  0  0  0  0  # atno 8010 bound_to 7997
  140.7231  143.3744  151.1717 H   0  0  0  0  0  0  0  0  0  0  0  0  # atno 10167 bound_to 10162
  156.7389  130.5203  149.5828 H   0  0  0  0  0  0  0  0  0  0  0  0  # atno 10718 bound_to 10713
  153.0572  135.6542  154.0549 H   0  0  0  0  0  0  0  0  0  0  0  0  # atno 10763 bound_to 10752
  154.0225  135.2918  155.3380 H   0  0  0  0  0  0  0  0  0  0  0  0  # atno 10764 bound_to 10752
  154.6893  135.5289  153.8437 H   0  0  0  0  0  0  0  0  0  0  0  0  # atno 10765 bound_to 10752
  140.5927  134.5028  157.5195 H   0  0  0  0  0  0  0  0  0  0  0  0  # atno 11005 bound_to 11000
  144.7594  140.5385  143.6746 LP  0  0  0  0  0  0  0  0  0  0  0  0  # atno 17320 bound_to 7965
  145.5473  139.1476  143.3413 LP  0  0  0  0  0  0  0  0  0  0  0  0  # atno 17321 bound_to 7965
  139.7322  143.9055  152.3023 LP  0  0  0  0  0  0  0  0  0  0  0  0  # atno 17342 bound_to 10162
  139.8848  144.6998  150.8837 LP  0  0  0  0  0  0  0  0  0  0  0  0  # atno 17343 bound_to 10162
  156.1478  130.6289  151.0554 LP  0  0  0  0  0  0  0  0  0  0  0  0  # atno 17370 bound_to 10713
  157.6827  131.0833  150.7327 LP  0  0  0  0  0  0  0  0  0  0  0  0  # atno 17371 bound_to 10713
  139.9267  134.8042  156.1048 LP  0  0  0  0  0  0  0  0  0  0  0  0  # atno 17394 bound_to 11000
  141.0924  133.6709  156.2571 LP  0  0  0  0  0  0  0  0  0  0  0  0  # atno 17395 bound_to 11000

$$$$
