AV-unprocessed.smi:901|AV-procd|sdf|4093|dock2
  -GOLD-   22720 1583D 1   1.00000     0.00000
 Structure written by MMmdl.
 43 44  0  0  0  0  0  0  0  0  1 V2000
  154.4407  141.2608  162.0607 C   0  0  0  0  0  0  0  0  0  0  0  0
  153.6382  141.4295  160.7859 C   0  0  0  0  0  0  0  0  0  0  0  0
  153.6936  140.2436  159.8392 C   0  0  0  0  0  0  0  0  0  0  0  0
  152.9395  142.5529  160.5333 C   0  0  0  0  0  0  0  0  0  0  0  0
  152.1202  142.8371  159.3256 C   0  0  1  0  0  0  0  0  0  0  0  0
  150.6337  143.1193  159.4489 C   0  0  2  0  0  0  0  0  0  0  0  0
  149.7021  142.5482  158.4241 C   0  0  0  0  0  0  0  0  0  0  0  0
  148.4762  142.5750  158.5435 O   0  0  0  0  0  0  0  0  0  0  0  0
  150.3445  142.0178  157.3675 N   0  0  0  0  0  0  0  0  0  0  0  0
  149.7765  141.4015  156.2233 C   0  0  0  0  0  0  0  0  0  0  0  0
  150.6018  140.7419  155.2715 C   0  0  0  0  0  0  0  0  0  0  0  0
  149.7096  140.2928  154.3397 C   0  0  0  0  0  0  0  0  0  0  0  0
  148.4491  140.6835  154.7479 N   0  0  0  0  0  0  0  0  0  0  0  0
  147.1735  140.4452  154.0924 C   0  0  0  0  0  0  0  0  0  0  0  0
  146.2490  139.5547  154.9308 C   0  0  0  0  0  0  0  0  0  0  0  0
  145.0373  139.3039  154.4284 N   0  0  0  0  0  0  0  0  0  0  0  0
  146.6150  139.0946  156.0112 O   0  0  0  0  0  0  0  0  0  0  0  0
  148.4874  141.3638  155.9147 N   0  0  0  0  0  0  0  0  0  0  0  0
  151.5915  144.2333  159.0401 C   0  0  0  0  0  0  0  0  0  0  0  0
  151.7974  145.3753  160.0243 C   0  0  0  0  0  0  0  0  0  0  0  0
  151.6840  144.7722  157.6172 C   0  0  0  0  0  0  0  0  0  0  0  0
  154.0742  140.4041  162.6271 H   0  0  0  0  0  0  0  0  0  0  0  0
  154.3728  142.1429  162.6985 H   0  0  0  0  0  0  0  0  0  0  0  0
  155.4920  141.0924  161.8260 H   0  0  0  0  0  0  0  0  0  0  0  0
  154.7201  140.0721  159.5150 H   0  0  0  0  0  0  0  0  0  0  0  0
  153.0810  140.3891  158.9500 H   0  0  0  0  0  0  0  0  0  0  0  0
  153.3409  139.3438  160.3439 H   0  0  0  0  0  0  0  0  0  0  0  0
  152.9551  143.3433  161.2697 H   0  0  0  0  0  0  0  0  0  0  0  0
  152.4476  142.2426  158.4744 H   0  0  0  0  0  0  0  0  0  0  0  0
  150.2278  143.1905  160.4573 H   0  0  0  0  0  0  0  0  0  0  0  0
  151.3529  142.0603  157.3866 H   0  0  0  0  0  0  0  0  0  0  0  0
  151.6747  140.6185  155.2697 H   0  0  0  0  0  0  0  0  0  0  0  0
  149.8645  139.7363  153.4269 H   0  0  0  0  0  0  0  0  0  0  0  0
  146.7009  141.4100  153.9035 H   0  0  0  0  0  0  0  0  0  0  0  0
  147.3436  139.9744  153.1225 H   0  0  0  0  0  0  0  0  0  0  0  0
  144.3863  138.7268  154.9408 H   0  0  0  0  0  0  0  0  0  0  0  0
  144.7753  139.6979  153.5363 H   0  0  0  0  0  0  0  0  0  0  0  0
  151.0582  146.1588  159.8548 H   0  0  0  0  0  0  0  0  0  0  0  0
  152.7928  145.8041  159.9068 H   0  0  0  0  0  0  0  0  0  0  0  0
  151.6952  145.0312  161.0539 H   0  0  0  0  0  0  0  0  0  0  0  0
  150.8076  145.3777  157.3843 H   0  0  0  0  0  0  0  0  0  0  0  0
  151.7551  143.9676  156.8861 H   0  0  0  0  0  0  0  0  0  0  0  0
  152.5733  145.3929  157.5034 H   0  0  0  0  0  0  0  0  0  0  0  0
  1  2  1  0  0  0  0
  1 22  1  0  0  0  0
  1 23  1  0  0  0  0
  1 24  1  0  0  0  0
  2  3  1  0  0  0  0
  2  4  2  0  0  0  0
  3 25  1  0  0  0  0
  3 26  1  0  0  0  0
  3 27  1  0  0  0  0
  4  5  1  0  0  0  0
  4 28  1  0  0  0  0
  5 19  1  0  0  0  0
  5  6  1  0  0  0  0
  5 29  1  0  0  0  0
  6  7  1  0  0  0  0
  6 19  1  0  0  0  0
  6 30  1  0  0  0  0
  7  8  2  0  0  0  0
  7  9  1  0  0  0  0
  9 10  1  0  0  0  0
  9 31  1  0  0  0  0
 10 18  2  0  0  0  0
 10 11  1  0  0  0  0
 11 12  2  0  0  0  0
 11 32  1  0  0  0  0
 12 13  1  0  0  0  0
 12 33  1  0  0  0  0
 13 14  1  0  0  0  0
 13 18  1  0  0  0  0
 14 15  1  0  0  0  0
 14 34  1  0  0  0  0
 14 35  1  0  0  0  0
 15 16  1  0  0  0  0
 15 17  2  0  0  0  0
 16 36  1  0  0  0  0
 16 37  1  0  0  0  0
 19 20  1  0  0  0  0
 19 21  1  0  0  0  0
 20 38  1  0  0  0  0
 20 39  1  0  0  0  0
 20 40  1  0  0  0  0
 21 41  1  0  0  0  0
 21 42  1  0  0  0  0
 21 43  1  0  0  0  0
M  END
> <s_m_source_file>
AV-unprocessed.smi

> <i_m_source_file_index>
901

> <i_lp_mmshare_version>
43012

> <i_f3d_flags>
0

> <s_epik_input>
W0NIM11DKFtDSDNdKT1bQ0hdW0NAQEhdKEMxKFtDSDNdKVtDSDNdKVtDQEhdMUMoPU8pW05IXWMyW2NIXVtjSF1uKG4yKVtDSDJdQyg9TylbTkgyXQ==

> <s_epik_cmdline>
J2VwaWtfcHl0aG9uJywgJy1waCcsICc3LjAnLCAnLXRuJywgJzgnLCAnLW1hJywgJzIwMCcsICctbWV0YWxfYmluZGluZycsICctaW1hZScsICc8aW5maWxlLm1hZT4nLCAnLW9tYWUnLCAnPG91dGZpbGUubWFlPic=

> <r_lp_tautomer_probability>
1

> <r_epik_Ionization_Penalty>
1.01454e-05

> <r_epik_Ionization_Penalty_Charging>
0

> <r_epik_Ionization_Penalty_Neutral>
1.01454e-05

> <r_epik_State_Penalty>
-0

> <r_epik_Charging_Adjusted_Penalty>
0

> <i_epik_Tot_Q>
0

> <i_epik_Tot_abs_Q>
0

> <r_epik_Metal_State_Penalty>
-0

> <b_epik_Metal_Only>
0

> <s_lp_Force_Field>
OPLS_2005

> <r_lp_Energy>
18.0241

> <b_lp_Chiralities_Consistent>
1

> <s_lp_Variant>
AV-unprocessed.smi:901-4

> <Gold.Version>
5.8.1

> <Gold.Id.Protein>
6NUR|6NUR_protein|mol2

> <Gold.PLP.Fitness>
46.5167

> <Gold.PLP.PLP>
-40.7270

> <Gold.PLP.part.hbond>
-0.9613

> <Gold.PLP.part.metal>
0.0000

> <Gold.PLP.part.buried>
-2.0656

> <Gold.PLP.part.nonpolar>
-38.1972

> <Gold.PLP.part.repulsive>
0.3070

> <Gold.PLP.ligand.clash>
0.0000

> <Gold.PLP.ligand.torsion>
0.1958

> <Gold.PLP.Chemscore.Hbond>
1.0000

> <Gold.PLP.Chemscore.CHOScore>
0.9945

> <Gold.PLP.Chemscore.Metal>
0.0000

> <Gold.Chemscore.Hbonds>
donor molecule, donor type, donor heavy atom, donor atom, acceptor molecule, acceptor atom, score
      L1  H    16    37       P1 10175  1.00
      L1  C    12    33       P1  7957  1.00

> <Gold.PLP.Chemscore.Internal.Correction>
0.1977

> <Gold.Rescore>
     Score         DG    S(hbond)    S(metal)    S(lipo)     H(rot)  DE(clash)    DE(int)     intcor
     13.99     -16.74       0.98        0.00     114.98       2.13       0.26       2.48       ----

> <Gold.Chemscore.Fitness>
13.9890

> <Gold.Chemscore.DG>
-16.7353

> <Gold.Chemscore.ZeroCoef>
-5.4800

> <Gold.Chemscore.Hbond>
0.9755

> <Gold.Chemscore.Metal>
0.0000

> <Gold.Chemscore.Lipo>
114.9775

> <Gold.Chemscore.Internal_Hbond>
0.0000

> <Gold.Chemscore.DEClash>
0.2614

> <Gold.Chemscore.DEInternal>
2.4849

> <Gold.Chemscore.Rot>
2.1309

> <Gold.Chemscore.Internal.Correction>
   9.000000E+99

> <Gold.Chemscore.Hbonds>
donor molecule, donor type, donor heavy atom, donor atom, acceptor molecule, acceptor atom, score
      L1  H    16    37       P1 10175  0.97

> <Gold.Chemscore.Hbond.Weighted>
-3.2581

> <Gold.Chemscore.Metal.Weighted>
-0.0000

> <Gold.Chemscore.Lipo.Weighted>
-13.4524

> <Gold.Chemscore.Internal_Hbond.Weighted>
0.0000

> <Gold.Chemscore.DEClash.Weighted>
0.2614

> <Gold.Chemscore.DEInternal.Weighted>
2.4849

> <Gold.Chemscore.Rot.Weighted>
5.4552

> <Gold.Chemscore.Internal.Correction.Weighted>
   9.000000E+99

> <Gold.Protein.RotatedTorsions>
[ 6907 6896 6895 6894 ] final -103.82 input  -60.11 | X-H torsion
[ 7974 7965 7964 7962 ] final   -7.77 input  175.53 | X-H torsion
[ 8008 7997 7996 7995 ] final  -62.35 input   59.86 | X-H torsion
[ 10167 10162 10161 10158 ] final  111.15 input  -65.29 | X-H torsion
[ 10718 10713 10712 10709 ] final -175.14 input   66.30 | X-H torsion
[ 10763 10752 10751 10750 ] final   76.97 input  -60.55 | X-H torsion
[ 11005 11000 10999 10996 ] final  -69.92 input  -57.11 | X-H torsion

> <Gold.Protein.ActiveResidues>
 VAL166  LYS551  ARG553  GLY616  TRP617  ASP618  TYR619  PRO620  LYS621  CYS622 
 ASP623  PHE694  ASN695  SER759  ASP760  ASP761  ALA762  ILE779  LEU786  VAL792 
 PHE793  MET794  SER795  GLU796  ALA797  LYS798  CYS799  TRP800  GLU811  SER814 

> <Gold.Protein.RotatedAtoms>
  150.7258  134.0372  159.3753 H   0  0  0  0  0  0  0  0  0  0  0  0  # atno 6907 bound_to 6896
  151.8344  135.0609  160.0450 H   0  0  0  0  0  0  0  0  0  0  0  0  # atno 6908 bound_to 6896
  152.2910  133.5525  159.5593 H   0  0  0  0  0  0  0  0  0  0  0  0  # atno 6909 bound_to 6896
  146.2298  140.2369  142.8342 H   0  0  0  0  0  0  0  0  0  0  0  0  # atno 7974 bound_to 7965
  154.4495  140.0998  156.6573 H   0  0  0  0  0  0  0  0  0  0  0  0  # atno 8008 bound_to 7997
  155.5332  140.3482  155.4412 H   0  0  0  0  0  0  0  0  0  0  0  0  # atno 8009 bound_to 7997
  156.0650  140.1335  156.9886 H   0  0  0  0  0  0  0  0  0  0  0  0  # atno 8010 bound_to 7997
  139.6633  144.7128  151.1823 H   0  0  0  0  0  0  0  0  0  0  0  0  # atno 10167 bound_to 10162
  156.7954  130.9533  151.3119 H   0  0  0  0  0  0  0  0  0  0  0  0  # atno 10718 bound_to 10713
  153.0764  135.4931  154.8413 H   0  0  0  0  0  0  0  0  0  0  0  0  # atno 10763 bound_to 10752
  154.7093  135.3017  154.9224 H   0  0  0  0  0  0  0  0  0  0  0  0  # atno 10764 bound_to 10752
  153.9923  135.6776  153.4807 H   0  0  0  0  0  0  0  0  0  0  0  0  # atno 10765 bound_to 10752
  141.1564  133.6776  156.6673 H   0  0  0  0  0  0  0  0  0  0  0  0  # atno 11005 bound_to 11000
  144.9515  140.8183  143.5569 LP  0  0  0  0  0  0  0  0  0  0  0  0  # atno 17320 bound_to 7965
  145.2330  139.2106  143.5033 LP  0  0  0  0  0  0  0  0  0  0  0  0  # atno 17321 bound_to 7965
  140.7589  143.5959  150.8749 LP  0  0  0  0  0  0  0  0  0  0  0  0  # atno 17342 bound_to 10162
  139.9618  143.6155  152.3000 LP  0  0  0  0  0  0  0  0  0  0  0  0  # atno 17343 bound_to 10162
  157.6580  130.8941  149.9769 LP  0  0  0  0  0  0  0  0  0  0  0  0  # atno 17370 bound_to 10713
  156.1133  130.3649  150.0011 LP  0  0  0  0  0  0  0  0  0  0  0  0  # atno 17371 bound_to 10713
  140.3202  134.8014  157.4246 LP  0  0  0  0  0  0  0  0  0  0  0  0  # atno 17394 bound_to 11000
  140.1104  134.5353  155.8271 LP  0  0  0  0  0  0  0  0  0  0  0  0  # atno 17395 bound_to 11000

$$$$
