AV-unprocessed.smi:2355|AV-procd|sdf|9391|dock2
  -GOLD-   2272013 23D 1   1.00000     0.00000
 Structure written by MMmdl.
 49 50  0  0  0  0  0  0  0  0  2 V2000
  151.9113  145.8947  160.2320 C   0  0  0  0  0  0  0  0  0  0  0  0
  151.9263  144.5292  159.5776 C   0  0  0  0  0  0  0  0  0  0  0  0
  152.8075  143.5250  160.0217 C   0  0  0  0  0  0  0  0  0  0  0  0
  152.7737  142.2758  159.3717 C   0  0  0  0  0  0  0  0  0  0  0  0
  153.6971  141.1533  159.7951 C   0  0  0  0  0  0  0  0  0  0  0  0
  151.9395  142.0012  158.3461 N   0  0  0  0  0  0  0  0  0  0  0  0
  151.0864  142.9606  157.9096 C   0  0  0  0  0  0  0  0  0  0  0  0
  150.1714  142.7724  156.8394 N   0  0  0  0  0  0  0  0  0  0  0  0
  149.9831  141.6695  156.0934 C   0  0  0  0  0  0  0  0  0  0  0  0
  150.5973  140.6094  156.2180 O   0  0  0  0  0  0  0  0  0  0  0  0
  149.0222  141.8588  155.1767 N   0  0  0  0  0  0  0  0  0  0  0  0
  148.5739  140.8590  154.2080 C   0  0  2  0  0  0  0  0  0  0  0  0
  147.4239  141.4565  153.3782 C   0  0  0  0  0  0  0  0  0  0  0  0
  148.2031  139.5088  154.8985 C   0  0  1  0  0  0  0  0  0  0  0  0
  147.0866  138.7638  154.1230 C   0  0  0  0  0  0  0  0  0  0  0  0
  149.4231  138.6708  155.1497 N   0  3  0  0  0  0  0  0  0  0  0  0
  149.0930  137.2529  155.4623 C   0  0  0  0  0  0  0  0  0  0  0  0
  150.3585  136.4427  155.7863 C   0  0  0  0  0  0  0  0  0  0  0  0
  151.2618  136.5143  154.6936 O   0  0  0  0  0  0  0  0  0  0  0  0
  151.6764  137.8498  154.4507 C   0  0  0  0  0  0  0  0  0  0  0  0
  150.4599  138.7156  154.0813 C   0  0  0  0  0  0  0  0  0  0  0  0
  151.0546  144.2405  158.5081 C   0  0  0  0  0  0  0  0  0  0  0  0
  152.6814  145.9744  160.9999 H   0  0  0  0  0  0  0  0  0  0  0  0
  150.9437  146.0793  160.6988 H   0  0  0  0  0  0  0  0  0  0  0  0
  152.0897  146.6725  159.4891 H   0  0  0  0  0  0  0  0  0  0  0  0
  153.4915  143.7070  160.8379 H   0  0  0  0  0  0  0  0  0  0  0  0
  154.1857  141.3806  160.7431 H   0  0  0  0  0  0  0  0  0  0  0  0
  154.4693  140.9965  159.0413 H   0  0  0  0  0  0  0  0  0  0  0  0
  153.1399  140.2237  159.9158 H   0  0  0  0  0  0  0  0  0  0  0  0
  149.5941  143.5700  156.6184 H   0  0  0  0  0  0  0  0  0  0  0  0
  148.5700  142.7609  155.1421 H   0  0  0  0  0  0  0  0  0  0  0  0
  149.4080  140.7072  153.5241 H   0  0  0  0  0  0  0  0  0  0  0  0
  147.0919  140.7683  152.6007 H   0  0  0  0  0  0  0  0  0  0  0  0
  147.7400  142.3744  152.8813 H   0  0  0  0  0  0  0  0  0  0  0  0
  146.5612  141.7028  153.9975 H   0  0  0  0  0  0  0  0  0  0  0  0
  147.7793  139.7366  155.8778 H   0  0  0  0  0  0  0  0  0  0  0  0
  146.2335  139.4102  153.9184 H   0  0  0  0  0  0  0  0  0  0  0  0
  146.6877  137.9252  154.6937 H   0  0  0  0  0  0  0  0  0  0  0  0
  147.4429  138.3803  153.1668 H   0  0  0  0  0  0  0  0  0  0  0  0
  148.4202  137.1825  156.3142 H   0  0  0  0  0  0  0  0  0  0  0  0
  148.5762  136.8029  154.6130 H   0  0  0  0  0  0  0  0  0  0  0  0
  150.8347  136.8078  156.6976 H   0  0  0  0  0  0  0  0  0  0  0  0
  150.0998  135.3981  155.9599 H   0  0  0  0  0  0  0  0  0  0  0  0
  152.1885  138.2504  155.3272 H   0  0  0  0  0  0  0  0  0  0  0  0
  152.3986  137.8510  153.6339 H   0  0  0  0  0  0  0  0  0  0  0  0
  150.0305  138.3745  153.1379 H   0  0  0  0  0  0  0  0  0  0  0  0
  150.8196  139.7328  153.9298 H   0  0  0  0  0  0  0  0  0  0  0  0
  150.3697  144.9965  158.1515 H   0  0  0  0  0  0  0  0  0  0  0  0
  149.8627  139.0568  155.9730 H   0  0  0  0  0  0  0  0  0  0  0  0
  1  2  1  0  0  0  0
  1 23  1  0  0  0  0
  1 24  1  0  0  0  0
  1 25  1  0  0  0  0
  2 22  1  0  0  0  0
  2  3  2  0  0  0  0
  3  4  1  0  0  0  0
  3 26  1  0  0  0  0
  4  5  1  0  0  0  0
  4  6  2  0  0  0  0
  5 27  1  0  0  0  0
  5 28  1  0  0  0  0
  5 29  1  0  0  0  0
  6  7  1  0  0  0  0
  7  8  1  0  0  0  0
  7 22  2  0  0  0  0
  8  9  1  0  0  0  0
  8 30  1  0  0  0  0
  9 10  2  0  0  0  0
  9 11  1  0  0  0  0
 11 12  1  0  0  0  0
 11 31  1  0  0  0  0
 12 13  1  0  0  0  0
 12 14  1  0  0  0  0
 12 32  1  0  0  0  0
 13 33  1  0  0  0  0
 13 34  1  0  0  0  0
 13 35  1  0  0  0  0
 14 15  1  0  0  0  0
 14 16  1  0  0  0  0
 14 36  1  0  0  0  0
 15 37  1  0  0  0  0
 15 38  1  0  0  0  0
 15 39  1  0  0  0  0
 16 21  1  0  0  0  0
 16 17  1  0  0  0  0
 16 49  1  0  0  0  0
 17 18  1  0  0  0  0
 17 40  1  0  0  0  0
 17 41  1  0  0  0  0
 18 19  1  0  0  0  0
 18 42  1  0  0  0  0
 18 43  1  0  0  0  0
 19 20  1  0  0  0  0
 20 21  1  0  0  0  0
 20 44  1  0  0  0  0
 20 45  1  0  0  0  0
 21 46  1  0  0  0  0
 21 47  1  0  0  0  0
 22 48  1  0  0  0  0
M  CHG  1  16   1
M  END
> <s_m_source_file>
AV-unprocessed.smi

> <i_m_source_file_index>
2355

> <i_lp_mmshare_version>
43012

> <i_f3d_flags>
0

> <s_epik_input>
W0NIM11jMVtjSF1jKFtDSDNdKW5jKFtjSF0xKVtOSF1DKD1PKVtOSF1bQ0BIXShbQ0gzXSlbQ0BIXShbQ0gzXSlOMltDSDJdW0NIMl1PW0NIMl1bQ0gyXTI=

> <s_epik_cmdline>
J2VwaWtfcHl0aG9uJywgJy1waCcsICc3LjAnLCAnLXRuJywgJzgnLCAnLW1hJywgJzIwMCcsICctbWV0YWxfYmluZGluZycsICctaW1hZScsICc8aW5maWxlLm1hZT4nLCAnLW9tYWUnLCAnPG91dGZpbGUubWFlPic=

> <r_epik_Ionization_Penalty>
0.602711

> <r_epik_Ionization_Penalty_Charging>
0.602531

> <r_epik_Ionization_Penalty_Neutral>
0.000180055

> <r_epik_State_Penalty>
0.617039

> <r_epik_Charging_Adjusted_Penalty>
1.21957

> <i_epik_Tot_Q>
1

> <i_epik_Tot_abs_Q>
1

> <r_epik_Metal_State_Penalty>
0.617075

> <b_epik_Metal_Only>
0

> <s_lp_Force_Field>
OPLS_2005

> <r_lp_Energy>
24.3328

> <b_lp_Chiralities_Consistent>
1

> <s_lp_Variant>
AV-unprocessed.smi:2355-7

> <Gold.Version>
5.8.1

> <Gold.Id.Protein>
6NUR|6NUR_protein|mol2

> <Gold.PLP.Fitness>
51.5187

> <Gold.PLP.PLP>
-45.2237

> <Gold.PLP.part.hbond>
-3.0000

> <Gold.PLP.part.metal>
0.0000

> <Gold.PLP.part.buried>
-8.0072

> <Gold.PLP.part.nonpolar>
-36.3535

> <Gold.PLP.part.repulsive>
0.4188

> <Gold.PLP.ligand.clash>
0.0000

> <Gold.PLP.ligand.torsion>
1.1702

> <Gold.PLP.Chemscore.Hbond>
2.8406

> <Gold.PLP.Chemscore.CHOScore>
0.0000

> <Gold.PLP.Chemscore.Metal>
0.0000

> <Gold.Chemscore.Hbonds>
donor molecule, donor type, donor heavy atom, donor atom, acceptor molecule, acceptor atom, score
      L1  H     8    30       P1  8028  1.00
      L1  H    11    31       P1  8028  0.84
      P1  H 10752 10763       L1    19  1.00

> <Gold.PLP.Chemscore.Internal.Correction>
0.1136

> <Gold.Rescore>
     Score         DG    S(hbond)    S(metal)    S(lipo)     H(rot)  DE(clash)    DE(int)     intcor
     18.17     -23.65       2.68        0.00     110.38       1.45       0.02       5.46       ----

> <Gold.Chemscore.Fitness>
18.1734

> <Gold.Chemscore.DG>
-23.6525

> <Gold.Chemscore.ZeroCoef>
-5.4800

> <Gold.Chemscore.Hbond>
2.6826

> <Gold.Chemscore.Metal>
0.0000

> <Gold.Chemscore.Lipo>
110.3830

> <Gold.Chemscore.Internal_Hbond>
0.0000

> <Gold.Chemscore.DEClash>
0.0226

> <Gold.Chemscore.DEInternal>
5.4565

> <Gold.Chemscore.Rot>
1.4462

> <Gold.Chemscore.Internal.Correction>
   9.000000E+99

> <Gold.Chemscore.Hbonds>
donor molecule, donor type, donor heavy atom, donor atom, acceptor molecule, acceptor atom, score
      L1  H     8    30       P1  8028  0.99
      L1  H    11    31       P1  8028  0.77
      P1  H 10752 10763       L1    19  0.30

> <Gold.Chemscore.Hbond.Weighted>
-8.9600

> <Gold.Chemscore.Metal.Weighted>
-0.0000

> <Gold.Chemscore.Lipo.Weighted>
-12.9148

> <Gold.Chemscore.Internal_Hbond.Weighted>
0.0000

> <Gold.Chemscore.DEClash.Weighted>
0.0226

> <Gold.Chemscore.DEInternal.Weighted>
5.4565

> <Gold.Chemscore.Rot.Weighted>
3.7023

> <Gold.Chemscore.Internal.Correction.Weighted>
   9.000000E+99

> <Gold.Protein.RotatedTorsions>
[ 6907 6896 6895 6894 ] final  -33.38 input  -60.11 | X-H torsion
[ 7974 7965 7964 7962 ] final  139.30 input  175.53 | X-H torsion
[ 8008 7997 7996 7995 ] final  168.68 input   59.86 | X-H torsion
[ 10167 10162 10161 10158 ] final  166.30 input  -65.29 | X-H torsion
[ 10718 10713 10712 10709 ] final  -96.75 input   66.30 | X-H torsion
[ 10763 10752 10751 10750 ] final   58.72 input  -60.55 | X-H torsion
[ 11005 11000 10999 10996 ] final -108.64 input  -57.11 | X-H torsion

> <Gold.Protein.ActiveResidues>
 VAL166  LYS551  ARG553  GLY616  TRP617  ASP618  TYR619  PRO620  LYS621  CYS622 
 ASP623  PHE694  ASN695  SER759  ASP760  ASP761  ALA762  ILE779  LEU786  VAL792 
 PHE793  MET794  SER795  GLU796  ALA797  LYS798  CYS799  TRP800  GLU811  SER814 

> <Gold.Protein.RotatedAtoms>
  151.0664  134.9770  159.8286 H   0  0  0  0  0  0  0  0  0  0  0  0  # atno 6907 bound_to 6896
  152.5402  134.2354  159.8851 H   0  0  0  0  0  0  0  0  0  0  0  0  # atno 6908 bound_to 6896
  151.2376  133.4373  159.2640 H   0  0  0  0  0  0  0  0  0  0  0  0  # atno 6909 bound_to 6896
  144.9291  139.5070  143.5626 H   0  0  0  0  0  0  0  0  0  0  0  0  # atno 7974 bound_to 7965
  156.1525  140.1584  156.8746 H   0  0  0  0  0  0  0  0  0  0  0  0  # atno 8008 bound_to 7997
  154.5084  140.0807  156.7978 H   0  0  0  0  0  0  0  0  0  0  0  0  # atno 8009 bound_to 7997
  155.3868  140.3408  155.4251 H   0  0  0  0  0  0  0  0  0  0  0  0  # atno 8010 bound_to 7997
  139.4922  144.4041  151.9375 H   0  0  0  0  0  0  0  0  0  0  0  0  # atno 10167 bound_to 10162
  156.0068  130.5165  150.6272 H   0  0  0  0  0  0  0  0  0  0  0  0  # atno 10718 bound_to 10713
  152.9877  135.5597  154.5597 H   0  0  0  0  0  0  0  0  0  0  0  0  # atno 10763 bound_to 10752
  154.5019  135.2798  155.1416 H   0  0  0  0  0  0  0  0  0  0  0  0  # atno 10764 bound_to 10752
  154.2843  135.6338  153.5412 H   0  0  0  0  0  0  0  0  0  0  0  0  # atno 10765 bound_to 10752
  141.0890  133.9088  157.2118 H   0  0  0  0  0  0  0  0  0  0  0  0  # atno 11005 bound_to 11000
  146.3239  139.8228  142.8923 LP  0  0  0  0  0  0  0  0  0  0  0  0  # atno 17320 bound_to 7965
  145.3171  141.0234  143.3521 LP  0  0  0  0  0  0  0  0  0  0  0  0  # atno 17321 bound_to 7965
  140.3481  144.3122  150.5954 LP  0  0  0  0  0  0  0  0  0  0  0  0  # atno 17342 bound_to 10162
  140.5509  143.2206  151.7929 LP  0  0  0  0  0  0  0  0  0  0  0  0  # atno 17343 bound_to 10162
  157.4077  131.0819  151.1250 LP  0  0  0  0  0  0  0  0  0  0  0  0  # atno 17370 bound_to 10713
  157.1892  130.6344  149.5698 LP  0  0  0  0  0  0  0  0  0  0  0  0  # atno 17371 bound_to 10713
  139.9713  135.0127  156.9519 LP  0  0  0  0  0  0  0  0  0  0  0  0  # atno 17394 bound_to 11000
  140.5295  134.0827  155.7312 LP  0  0  0  0  0  0  0  0  0  0  0  0  # atno 17395 bound_to 11000

$$$$
