#       Name:                AV-unprocessed.smi:1304
#       Creating user name   scv26
#       Creation time:       Fri Mar 27 04:59:00 2020


#       File generated by GOLD software.
#

@<TRIPOS>MOLECULE
AV-unprocessed.smi:1304
    54    55     1
SMALL
NO_CHARGES


@<TRIPOS>ATOM
      1 ****        -2.3030  -1.4027   0.8869 C.3            1 S1                 0.0000
      2 ****        -1.0025  -0.7792   0.3485 C.3            1 S1                 0.0000
      3 ****        -1.1585   0.1326  -0.9106 C.3            1 S1                 0.0000
      4 ****        -1.9398   1.3902  -0.4423 C.3            1 S1                 0.0000
      5 ****         0.2602   0.5901  -1.3834 C.3            1 S1                 0.0000
      6 ****         1.0001   1.3532  -0.3785 N.am           1 S1                 0.0000
      7 ****         1.9942   0.8820   0.3895 C.2            1 S1                 0.0000
      8 ****         2.4330  -0.2654   0.3030 O.2            1 S1                 0.0000
      9 ****         2.5843   1.8654   1.4086 C.3            1 S1                 0.0000
     10 ****         2.9286   1.2188   2.6854 N.am           1 S1                 0.0000
     11 ****         4.2851   0.9064   2.9050 C.2            1 S1                 0.0000
     12 ****         4.7033   0.3143   4.0349 C.2            1 S1                 0.0000
     13 ****         3.7203  -0.0034   5.0434 C.2            1 S1                 0.0000
     14 ****         2.4198   0.2884   4.8424 C.2            1 S1                 0.0000
     15 ****         1.9577   0.9330   3.6078 C.2            1 S1                 0.0000
     16 ****         0.7710   1.2000   3.4144 O.2            1 S1                 0.0000
     17 ****        -1.9043  -0.5754  -1.9900 N.3            1 S1                 0.0000
     18 ****        -2.2380   0.2420  -3.1627 C.3            1 S1                 0.0000
     19 ****        -3.1282  -0.5185  -4.1607 C.3            1 S1                 0.0000
     20 ****        -2.4853  -1.7243  -4.5563 O.3            1 S1                 0.0000
     21 ****        -2.1945  -2.5726  -3.4519 C.3            1 S1                 0.0000
     22 ****        -1.2940  -1.8285  -2.4516 C.3            1 S1                 0.0000
     23 ****        -2.0937  -2.0243   1.7576 H              1 S1                 0.0000
     24 ****        -2.7883  -2.0369   0.1454 H              1 S1                 0.0000
     25 ****        -3.0181  -0.6419   1.1982 H              1 S1                 0.0000
     26 ****        -0.5594  -0.2119   1.1673 H              1 S1                 0.0000
     27 ****        -0.2852  -1.5758   0.1511 H              1 S1                 0.0000
     28 ****        -1.5472   1.7929   0.4920 H              1 S1                 0.0000
     29 ****        -2.9949   1.1707  -0.2776 H              1 S1                 0.0000
     30 ****        -1.8863   2.1991  -1.1709 H              1 S1                 0.0000
     31 ****         0.8572  -0.2615  -1.7100 H              1 S1                 0.0000
     32 ****         0.1794   1.2425  -2.2519 H              1 S1                 0.0000
     33 ****         0.7108   2.3103  -0.2375 H              1 S1                 0.0000
     34 ****         3.4625   2.3311   0.9597 H              1 S1                 0.0000
     35 ****         1.8843   2.6847   1.5854 H              1 S1                 0.0000
     36 ****         4.9554   1.1701   2.0999 H              1 S1                 0.0000
     37 ****         5.7467   0.0782   4.1840 H              1 S1                 0.0000
     38 ****         4.0288  -0.4785   5.9628 H              1 S1                 0.0000
     39 ****         1.6984   0.0428   5.6079 H              1 S1                 0.0000
     40 ****        -2.7674   1.1470  -2.8697 H              1 S1                 0.0000
     41 ****        -1.3300   0.5570  -3.6763 H              1 S1                 0.0000
     42 ****        -4.0999  -0.7433  -3.7182 H              1 S1                 0.0000
     43 ****        -3.3130   0.0921  -5.0447 H              1 S1                 0.0000
     44 ****        -3.1216  -2.8921  -2.9732 H              1 S1                 0.0000
     45 ****        -1.6952  -3.4709  -3.8147 H              1 S1                 0.0000
     46 ****        -0.3350  -1.6296  -2.9297 H              1 S1                 0.0000
     47 ****        -1.0974  -2.4993  -1.6175 H              1 S1                 0.0000
     48 ****         2.0460  -0.8996  -0.3664 LP             1 S1                 0.0000
     49 ****         3.1763  -0.5629   0.9021 LP             1 S1                 0.0000
     50 ****         0.4900   1.6399   2.5614 LP             1 S1                 0.0000
     51 ****         0.0884   0.9769   4.1103 LP             1 S1                 0.0000
     52 ****        -2.7535  -0.7953  -1.5100 LP             1 S1                 0.0000
     53 ****        -1.6290  -1.4946  -5.0189 LP             1 S1                 0.0000
     54 ****        -3.0846  -2.2149  -5.1889 LP             1 S1                 0.0000
@<TRIPOS>BOND
    1    1    2 1     
    2    1   23 1     
    3    1   24 1     
    4    1   25 1     
    5    2    3 1     
    6    2   26 1     
    7    2   27 1     
    8    3    4 1     
    9    3    5 1     
   10    3   17 1     
   11    4   28 1     
   12    4   29 1     
   13    4   30 1     
   14    5    6 1     
   15    5   31 1     
   16    5   32 1     
   17    6    7 am    
   18    6   33 1     
   19    7    8 2     
   20    7    9 1     
   21    9   10 1     
   22    9   34 1     
   23    9   35 1     
   24   10   15 am    
   25   10   11 1     
   26   11   12 2     
   27   11   36 1     
   28   12   13 1     
   29   12   37 1     
   30   13   14 2     
   31   13   38 1     
   32   14   15 1     
   33   14   39 1     
   34   15   16 2     
   35   17   22 1     
   36   17   18 1     
   37   18   19 1     
   38   18   40 1     
   39   18   41 1     
   40   19   20 1     
   41   19   42 1     
   42   19   43 1     
   43   20   21 1     
   44   21   22 1     
   45   21   44 1     
   46   21   45 1     
   47   22   46 1     
   48   22   47 1     
   49    8   48 1     
   50    8   49 1     
   51   16   50 1     
   52   16   51 1     
   53   17   52 1     
   54   20   53 1     
   55   20   54 1     
@<TRIPOS>SUBSTRUCTURE
      1 S1             1
@<TRIPOS>SET
LONE_PAIRS      STATIC     ATOMS    <user>   **** ""
7 48 49 50 51 52 53 54
DONOR_HYDROGENS      STATIC     ATOMS    <user>   **** ""
1 33
ATOM$BLUE        STATIC     ATOMS    COLORGROUP SYSTEM
7 48 49 50 51 52 53 54
ATOM$RED        STATIC     ATOMS    COLORGROUP SYSTEM
1 33
