#       Name:                AV-unprocessed.smi:3031
#       Creating user name   scv26
#       Creation time:       Fri Mar 27 16:49:12 2020


#       File generated by GOLD software.
#

@<TRIPOS>MOLECULE
AV-unprocessed.smi:3031
    53    54     1
SMALL
NO_CHARGES


@<TRIPOS>ATOM
      1 ****        -2.3257   1.1948  -2.9800 C.3            1 S1                 0.0000
      2 ****        -1.9426  -0.0460  -2.2264 C.2            1 S1                 0.0000
      3 ****        -0.7591  -0.8257  -2.3662 C.2            1 S1                 0.0000
      4 ****        -0.7250  -1.8601  -1.5415 N.2            1 S1                 0.0000
      5 ****        -1.8817  -1.7778  -0.8498 N.pl3          1 S1                 0.0000
      6 ****        -2.1775  -2.7553   0.1819 C.3            1 S1                 0.0000
      7 ****        -1.8459  -2.2493   1.6034 C.3            1 S1                 0.0000
      8 ****        -2.3220  -3.2554   2.6597 C.3            1 S1                 0.0000
      9 ****        -0.3922  -2.0176   1.7673 N.4            1 S1                 1.0000
     10 ****         0.0408  -0.6103   1.6262 C.3            1 S1                 0.0000
     11 ****         1.5746  -0.4987   1.6052 C.3            1 S1                 0.0000
     12 ****         2.0461  -0.9219   2.8694 O.3            1 S1                 0.0000
     13 ****         2.1327   0.9232   1.3726 C.3            1 S1                 0.0000
     14 ****         2.0305   1.4279  -0.0005 N.3            1 S1                 0.0000
     15 ****         0.8277   2.2338  -0.2184 C.3            1 S1                 0.0000
     16 ****         0.7428   2.7602  -1.6614 C.3            1 S1                 0.0000
     17 ****         1.9065   3.5233  -1.9587 O.3            1 S1                 0.0000
     18 ****         3.1073   2.7773  -1.7929 C.3            1 S1                 0.0000
     19 ****         3.1890   2.2464  -0.3509 C.3            1 S1                 0.0000
     20 ****        -2.6381  -0.6959  -1.2466 C.2            1 S1                 0.0000
     21 ****        -1.6175   1.4208  -3.7773 H              1 S1                 0.0000
     22 ****        -2.3615   2.0660  -2.3260 H              1 S1                 0.0000
     23 ****        -3.3082   1.0980  -3.4417 H              1 S1                 0.0000
     24 ****         0.0737  -0.6678  -3.0358 H              1 S1                 0.0000
     25 ****        -3.2386  -2.9979   0.1112 H              1 S1                 0.0000
     26 ****        -1.6357  -3.6779  -0.0340 H              1 S1                 0.0000
     27 ****        -2.3798  -1.3148   1.7846 H              1 S1                 0.0000
     28 ****        -3.3969  -3.4231   2.5860 H              1 S1                 0.0000
     29 ****        -2.1161  -2.8938   3.6678 H              1 S1                 0.0000
     30 ****        -1.8267  -4.2200   2.5436 H              1 S1                 0.0000
     31 ****        -0.1229  -2.3197   2.6928 H              1 S1                 0.0000
     32 ****        -0.3644  -0.2365   0.6926 H              1 S1                 0.0000
     33 ****        -0.3862  -0.0061   2.4279 H              1 S1                 0.0000
     34 ****         1.9846  -1.1706   0.8497 H              1 S1                 0.0000
     35 ****         2.9908  -0.8812   2.8672 H              1 S1                 0.0000
     36 ****         1.6932   1.6321   2.0761 H              1 S1                 0.0000
     37 ****         3.1896   0.8789   1.6420 H              1 S1                 0.0000
     38 ****        -0.0735   1.6674  -0.0046 H              1 S1                 0.0000
     39 ****         0.8230   3.0817   0.4687 H              1 S1                 0.0000
     40 ****         0.6491   1.9357  -2.3696 H              1 S1                 0.0000
     41 ****        -0.1376   3.3910  -1.7843 H              1 S1                 0.0000
     42 ****         3.1351   1.9551  -2.5097 H              1 S1                 0.0000
     43 ****         3.9600   3.4212  -2.0095 H              1 S1                 0.0000
     44 ****         3.2727   3.0872   0.3399 H              1 S1                 0.0000
     45 ****         4.1029   1.6614  -0.2418 H              1 S1                 0.0000
     46 ****        -3.5952  -0.4748  -0.7973 H              1 S1                 0.0000
     47 ****         0.1002  -2.5840   1.0913 H              1 S1                 0.0000
     48 ****        -0.0048  -2.5479  -1.4510 LP             1 S1                 0.0000
     49 ****         1.7495  -1.8611   3.0426 LP             1 S1                 0.0000
     50 ****         1.6844  -0.3213   3.5824 LP             1 S1                 0.0000
     51 ****         1.9869   0.6150  -0.5814 LP             1 S1                 0.0000
     52 ****         1.9346   4.3152  -1.3488 LP             1 S1                 0.0000
     53 ****         1.8514   3.8349  -2.9073 LP             1 S1                 0.0000
@<TRIPOS>BOND
    1    1    2 1     
    2    1   21 1     
    3    1   22 1     
    4    1   23 1     
    5    2   20 2     
    6    2    3 1     
    7    3    4 2     
    8    3   24 1     
    9    4    5 1     
   10    5    6 1     
   11    5   20 1     
   12    6    7 1     
   13    6   25 1     
   14    6   26 1     
   15    7    8 1     
   16    7    9 1     
   17    7   27 1     
   18    8   28 1     
   19    8   29 1     
   20    8   30 1     
   21    9   10 1     
   22    9   31 1     
   23    9   47 1     
   24   10   11 1     
   25   10   32 1     
   26   10   33 1     
   27   11   12 1     
   28   11   13 1     
   29   11   34 1     
   30   12   35 1     
   31   13   14 1     
   32   13   36 1     
   33   13   37 1     
   34   14   19 1     
   35   14   15 1     
   36   15   16 1     
   37   15   38 1     
   38   15   39 1     
   39   16   17 1     
   40   16   40 1     
   41   16   41 1     
   42   17   18 1     
   43   18   19 1     
   44   18   42 1     
   45   18   43 1     
   46   19   44 1     
   47   19   45 1     
   48   20   46 1     
   49    4   48 1     
   50   12   49 1     
   51   12   50 1     
   52   14   51 1     
   53   17   52 1     
   54   17   53 1     
@<TRIPOS>SUBSTRUCTURE
      1 S1             1
@<TRIPOS>SET
LONE_PAIRS      STATIC     ATOMS    <user>   **** ""
6 48 49 50 51 52 53
DONOR_HYDROGENS      STATIC     ATOMS    <user>   **** ""
3 31 47 35
ATOM$BLUE        STATIC     ATOMS    COLORGROUP SYSTEM
6 48 49 50 51 52 53
ATOM$RED        STATIC     ATOMS    COLORGROUP SYSTEM
3 31 47 35
