#       Name:                AV-unprocessed.smi:1005
#       Creating user name   scv26
#       Creation time:       Fri Mar 27 02:30:56 2020


#       File generated by GOLD software.
#

@<TRIPOS>MOLECULE
AV-unprocessed.smi:1005
    62    64     1
SMALL
NO_CHARGES


@<TRIPOS>ATOM
      1 ****        -5.6621   3.1559   4.0598 C.3            1 S1                 0.0000
      2 ****        -4.5993   3.0227   2.9822 C.ar           1 S1                 0.0000
      3 ****        -5.0139   2.9092   1.6362 C.ar           1 S1                 0.0000
      4 ****        -4.0186   2.7844   0.6741 C.ar           1 S1                 0.0000
      5 ****        -4.1006   2.6530  -0.7135 N.pl3          1 S1                 1.0000
      6 ****        -2.8471   2.5598  -1.2366 C.2            1 S1                 0.0000
      7 ****        -1.9639   2.6249  -0.2029 N.pl3          1 S1                 0.0000
      8 ****        -0.4940   2.5735  -0.2204 C.3            1 S1                 0.0000
      9 ****         0.0578   1.1338  -0.2000 C.3            1 S1                 0.0000
     10 ****        -0.3705   0.4772   0.9775 O.3            1 S1                 0.0000
     11 ****         1.5994   1.1138  -0.2421 C.3            1 S1                 0.0000
     12 ****         2.1591  -0.2625  -0.2647 N.4            1 S1                 1.0000
     13 ****         3.5661  -0.3097   0.1972 C.3            1 S1                 0.0000
     14 ****         4.0713  -1.7609   0.2251 C.3            1 S1                 0.0000
     15 ****         3.9275  -2.3383  -1.0670 O.3            1 S1                 0.0000
     16 ****         2.5690  -2.3881  -1.4918 C.3            1 S1                 0.0000
     17 ****         2.5248  -3.0940  -2.8603 C.3            1 S1                 0.0000
     18 ****         2.9530  -4.5149  -2.7886 N.4            1 S1                 1.0000
     19 ****         1.9251  -5.4111  -2.2101 C.3            1 S1                 0.0000
     20 ****         3.4363  -5.0182  -4.0935 C.3            1 S1                 0.0000
     21 ****         2.0252  -0.9470  -1.5749 C.3            1 S1                 0.0000
     22 ****        -2.6505   2.7711   1.0094 C.ar           1 S1                 0.0000
     23 ****        -2.2252   2.8852   2.3311 C.ar           1 S1                 0.0000
     24 ****        -3.2223   3.0126   3.3246 C.ar           1 S1                 0.0000
     25 ****        -2.7873   3.1367   4.7750 C.3            1 S1                 0.0000
     26 ****        -6.6665   3.0998   3.6393 H              1 S1                 0.0000
     27 ****        -5.5679   4.1132   4.5728 H              1 S1                 0.0000
     28 ****        -5.5656   2.3571   4.7956 H              1 S1                 0.0000
     29 ****        -6.0603   2.9175   1.3677 H              1 S1                 0.0000
     30 ****        -2.5999   2.4538  -2.2833 H              1 S1                 0.0000
     31 ****        -0.1690   3.0801  -1.1301 H              1 S1                 0.0000
     32 ****        -0.1035   3.1622   0.6101 H              1 S1                 0.0000
     33 ****        -0.3529   0.5980  -1.0551 H              1 S1                 0.0000
     34 ****        -1.3153   0.5013   1.0078 H              1 S1                 0.0000
     35 ****         1.9671   1.6677  -1.1073 H              1 S1                 0.0000
     36 ****         1.9736   1.6406   0.6375 H              1 S1                 0.0000
     37 ****         4.1900   0.2921  -0.4657 H              1 S1                 0.0000
     38 ****         3.6459   0.1240   1.1948 H              1 S1                 0.0000
     39 ****         5.1234  -1.7876   0.5096 H              1 S1                 0.0000
     40 ****         3.5263  -2.3503   0.9644 H              1 S1                 0.0000
     41 ****         1.9780  -2.9444  -0.7636 H              1 S1                 0.0000
     42 ****         1.5228  -3.0408  -3.2890 H              1 S1                 0.0000
     43 ****         3.1784  -2.5506  -3.5447 H              1 S1                 0.0000
     44 ****         1.0216  -5.4150  -2.8212 H              1 S1                 0.0000
     45 ****         1.6522  -5.1108  -1.1994 H              1 S1                 0.0000
     46 ****         2.2981  -6.4342  -2.1522 H              1 S1                 0.0000
     47 ****         2.6375  -5.0101  -4.8363 H              1 S1                 0.0000
     48 ****         3.8065  -6.0398  -4.0005 H              1 S1                 0.0000
     49 ****         4.2578  -4.4053  -4.4662 H              1 S1                 0.0000
     50 ****         0.9804  -0.9766  -1.8815 H              1 S1                 0.0000
     51 ****         2.5655  -0.3828  -2.3369 H              1 S1                 0.0000
     52 ****        -1.1783   2.8735   2.5962 H              1 S1                 0.0000
     53 ****        -1.7015   3.1770   4.8649 H              1 S1                 0.0000
     54 ****        -3.1387   2.2819   5.3531 H              1 S1                 0.0000
     55 ****        -3.1902   4.0464   5.2209 H              1 S1                 0.0000
     56 ****         3.7512  -4.5441  -2.1698 H              1 S1                 0.0000
     57 ****         1.6237  -0.7942   0.4075 H              1 S1                 0.0000
     58 ****        -4.9485   2.6309  -1.2658 H              1 S1                 0.0000
     59 ****         0.0047   0.9430   1.7789 LP             1 S1                 0.0000
     60 ****        -0.0575  -0.4725   0.9670 LP             1 S1                 0.0000
     61 ****         4.2913  -3.2695  -1.0448 LP             1 S1                 0.0000
     62 ****         4.4490  -1.7922  -1.7225 LP             1 S1                 0.0000
@<TRIPOS>BOND
    1    1    2 1     
    2    1   26 1     
    3    1   27 1     
    4    1   28 1     
    5    2   24 ar    
    6    2    3 ar    
    7    3    4 ar    
    8    3   29 1     
    9    4   22 ar    
   10    4    5 1     
   11    5    6 2     
   12    5   58 1     
   13    6    7 1     
   14    6   30 1     
   15    7    8 1     
   16    7   22 1     
   17    8    9 1     
   18    8   31 1     
   19    8   32 1     
   20    9   10 1     
   21    9   11 1     
   22    9   33 1     
   23   10   34 1     
   24   11   12 1     
   25   11   35 1     
   26   11   36 1     
   27   12   21 1     
   28   12   13 1     
   29   12   57 1     
   30   13   14 1     
   31   13   37 1     
   32   13   38 1     
   33   14   15 1     
   34   14   39 1     
   35   14   40 1     
   36   15   16 1     
   37   16   17 1     
   38   16   21 1     
   39   16   41 1     
   40   17   18 1     
   41   17   42 1     
   42   17   43 1     
   43   18   19 1     
   44   18   20 1     
   45   18   56 1     
   46   19   44 1     
   47   19   45 1     
   48   19   46 1     
   49   20   47 1     
   50   20   48 1     
   51   20   49 1     
   52   21   50 1     
   53   21   51 1     
   54   22   23 ar    
   55   23   24 ar    
   56   23   52 1     
   57   24   25 1     
   58   25   53 1     
   59   25   54 1     
   60   25   55 1     
   61   10   59 1     
   62   10   60 1     
   63   15   61 1     
   64   15   62 1     
@<TRIPOS>SUBSTRUCTURE
      1 S1             1
@<TRIPOS>SET
LONE_PAIRS      STATIC     ATOMS    <user>   **** ""
4 59 60 61 62
DONOR_HYDROGENS      STATIC     ATOMS    <user>   **** ""
4 58 34 57 56
ATOM$BLUE        STATIC     ATOMS    COLORGROUP SYSTEM
4 59 60 61 62
ATOM$RED        STATIC     ATOMS    COLORGROUP SYSTEM
4 58 34 57 56
