AV-unprocessed.smi:3071|AV-procd|sdf|11716|dock9
  -GOLD-   2272017123D 1   1.00000     0.00000
 Structure written by MMmdl.
 29 30  0  0  0  0  0  0  0  0  3 V2000
  144.3783  132.0698  150.5228 C   0  0  0  0  0  0  0  0  0  0  0  0
  144.6444  133.4932  150.8945 C   0  0  0  0  0  0  0  0  0  0  0  0
  143.7573  134.4926  150.8244 N   0  3  0  0  0  0  0  0  0  0  0  0
  144.3245  135.6647  151.2445 C   0  0  0  0  0  0  0  0  0  0  0  0
  145.6175  135.3676  151.5871 C   0  0  0  0  0  0  0  0  0  0  0  0
  145.7883  134.0250  151.3590 N   0  0  0  0  0  0  0  0  0  0  0  0
  147.0190  133.2528  151.5836 C   0  0  0  0  0  0  0  0  0  0  0  0
  147.4414  133.2135  153.0648 C   0  0  1  0  0  0  0  0  0  0  0  0
  148.5642  132.2246  153.3940 C   0  0  0  0  0  0  0  0  0  0  0  0
  149.1436  132.7905  154.6850 C   0  0  0  0  0  0  0  0  0  0  0  0
  149.0301  134.3053  154.4941 C   0  0  0  0  0  0  0  0  0  0  0  0
  147.9266  134.5263  153.5365 N   0  3  0  0  0  0  0  0  0  0  0  0
  143.3454  131.9779  150.1854 H   0  0  0  0  0  0  0  0  0  0  0  0
  144.5378  131.4419  151.3997 H   0  0  0  0  0  0  0  0  0  0  0  0
  145.0567  131.7814  149.7201 H   0  0  0  0  0  0  0  0  0  0  0  0
  143.7793  136.5972  151.2686 H   0  0  0  0  0  0  0  0  0  0  0  0
  146.4087  135.9984  151.9659 H   0  0  0  0  0  0  0  0  0  0  0  0
  146.8411  132.2417  151.2145 H   0  0  0  0  0  0  0  0  0  0  0  0
  147.8116  133.6733  150.9636 H   0  0  0  0  0  0  0  0  0  0  0  0
  146.5783  132.9610  153.6822 H   0  0  0  0  0  0  0  0  0  0  0  0
  148.2091  131.1993  153.5045 H   0  0  0  0  0  0  0  0  0  0  0  0
  149.3257  132.2372  152.6125 H   0  0  0  0  0  0  0  0  0  0  0  0
  148.5310  132.4763  155.5315 H   0  0  0  0  0  0  0  0  0  0  0  0
  150.1669  132.4628  154.8721 H   0  0  0  0  0  0  0  0  0  0  0  0
  148.8489  134.8259  155.4351 H   0  0  0  0  0  0  0  0  0  0  0  0
  149.9480  134.7041  154.0606 H   0  0  0  0  0  0  0  0  0  0  0  0
  148.2867  135.0538  152.7537 H   0  0  0  0  0  0  0  0  0  0  0  0
  147.1732  135.0396  153.9720 H   0  0  0  0  0  0  0  0  0  0  0  0
  142.8005  134.3924  150.5083 H   0  0  0  0  0  0  0  0  0  0  0  0
  1  2  1  0  0  0  0
  1 13  1  0  0  0  0
  1 14  1  0  0  0  0
  1 15  1  0  0  0  0
  2  6  1  0  0  0  0
  2  3  2  0  0  0  0
  3  4  1  0  0  0  0
  3 29  1  0  0  0  0
  4  5  2  0  0  0  0
  4 16  1  0  0  0  0
  5  6  1  0  0  0  0
  5 17  1  0  0  0  0
  6  7  1  0  0  0  0
  7  8  1  0  0  0  0
  7 18  1  0  0  0  0
  7 19  1  0  0  0  0
  8 12  1  0  0  0  0
  8  9  1  0  0  0  0
  8 20  1  0  0  0  0
  9 10  1  0  0  0  0
  9 21  1  0  0  0  0
  9 22  1  0  0  0  0
 10 11  1  0  0  0  0
 10 23  1  0  0  0  0
 10 24  1  0  0  0  0
 11 12  1  0  0  0  0
 11 25  1  0  0  0  0
 11 26  1  0  0  0  0
 12 27  1  0  0  0  0
 12 28  1  0  0  0  0
M  CHG  1   3   1
M  CHG  1  12   1
M  END
> <s_m_source_file>
AV-unprocessed.smi

> <i_m_source_file_index>
3071

> <i_lp_mmshare_version>
43012

> <i_f3d_flags>
0

> <s_epik_input>
W0NIM11jMW5bY0hdW2NIXW4xW0NIMl1bQ0BASF0yW0NIMl1bQ0gyXVtDSDJdW05IXTI=

> <s_epik_cmdline>
J2VwaWtfcHl0aG9uJywgJy1waCcsICc3LjAnLCAnLXRuJywgJzgnLCAnLW1hJywgJzIwMCcsICctbWV0YWxfYmluZGluZycsICctaW1hZScsICc8aW5maWxlLm1hZT4nLCAnLW9tYWUnLCAnPG91dGZpbGUubWFlPic=

> <r_lp_tautomer_probability>
1

> <r_epik_Ionization_Penalty>
0.770167

> <r_epik_Ionization_Penalty_Charging>
0.000985251

> <r_epik_Ionization_Penalty_Neutral>
0.769181

> <r_epik_State_Penalty>
0.493256

> <r_epik_Charging_Adjusted_Penalty>
0.494241

> <i_epik_Tot_Q>
2

> <i_epik_Tot_abs_Q>
2

> <r_epik_Metal_State_Penalty>
4.24699

> <b_epik_Metal_Only>
0

> <s_lp_Force_Field>
OPLS_2005

> <r_lp_Energy>
34.2931

> <b_lp_Chiralities_Consistent>
1

> <s_lp_Variant>
AV-unprocessed.smi:3071-4

> <Gold.Version>
5.8.1

> <Gold.Id.Protein>
6NUR|6NUR_protein|mol2

> <Gold.PLP.Fitness>
42.0899

> <Gold.PLP.PLP>
-27.2244

> <Gold.PLP.part.hbond>
-2.0000

> <Gold.PLP.part.metal>
0.0000

> <Gold.PLP.part.buried>
-1.9160

> <Gold.PLP.part.nonpolar>
-22.3984

> <Gold.PLP.part.repulsive>
0.0140

> <Gold.PLP.ligand.clash>
0.0000

> <Gold.PLP.ligand.torsion>
0.0674

> <Gold.PLP.Chemscore.Hbond>
4.0000

> <Gold.PLP.Chemscore.CHOScore>
1.0000

> <Gold.PLP.Chemscore.Metal>
0.0000

> <Gold.Chemscore.Hbonds>
donor molecule, donor type, donor heavy atom, donor atom, acceptor molecule, acceptor atom, score
      L1  H     3    29       P1 10186  2.00
      L1  H    12    27       P1  7948  2.00
      L1  C     5    17       P1  7948  1.00

> <Gold.PLP.Chemscore.Internal.Correction>
0.0003

> <Gold.Rescore>
     Score         DG    S(hbond)    S(metal)    S(lipo)     H(rot)  DE(clash)    DE(int)     intcor
     14.70     -14.93       1.97        0.00      51.82       1.25       0.11       0.12       ----

> <Gold.Chemscore.Fitness>
14.7039

> <Gold.Chemscore.DG>
-14.9326

> <Gold.Chemscore.ZeroCoef>
-5.4800

> <Gold.Chemscore.Hbond>
1.9711

> <Gold.Chemscore.Metal>
0.0000

> <Gold.Chemscore.Lipo>
51.8236

> <Gold.Chemscore.Internal_Hbond>
0.0000

> <Gold.Chemscore.DEClash>
0.1137

> <Gold.Chemscore.DEInternal>
0.1151

> <Gold.Chemscore.Rot>
1.2477

> <Gold.Chemscore.Internal.Correction>
   9.000000E+99

> <Gold.Chemscore.Hbonds>
donor molecule, donor type, donor heavy atom, donor atom, acceptor molecule, acceptor atom, score
      L1  H     3    29       P1 10186  0.56
      L1  H    12    27       P1  7948  0.80

> <Gold.Chemscore.Hbond.Weighted>
-6.5834

> <Gold.Chemscore.Metal.Weighted>
-0.0000

> <Gold.Chemscore.Lipo.Weighted>
-6.0634

> <Gold.Chemscore.Internal_Hbond.Weighted>
0.0000

> <Gold.Chemscore.DEClash.Weighted>
0.1137

> <Gold.Chemscore.DEInternal.Weighted>
0.1151

> <Gold.Chemscore.Rot.Weighted>
3.1941

> <Gold.Chemscore.Internal.Correction.Weighted>
   9.000000E+99

> <Gold.Protein.RotatedTorsions>
[ 6907 6896 6895 6894 ] final  -39.02 input  -60.11 | X-H torsion
[ 7974 7965 7964 7962 ] final   58.65 input  175.53 | X-H torsion
[ 8008 7997 7996 7995 ] final  -97.13 input   59.86 | X-H torsion
[ 10167 10162 10161 10158 ] final  -55.54 input  -65.29 | X-H torsion
[ 10718 10713 10712 10709 ] final  122.59 input   66.30 | X-H torsion
[ 10763 10752 10751 10750 ] final  -94.96 input  -60.55 | X-H torsion
[ 11005 11000 10999 10996 ] final -133.31 input  -57.11 | X-H torsion

> <Gold.Protein.ActiveResidues>
 VAL166  LYS551  ARG553  GLY616  TRP617  ASP618  TYR619  PRO620  LYS621  CYS622 
 ASP623  PHE694  ASN695  SER759  ASP760  ASP761  ALA762  ILE779  LEU786  VAL792 
 PHE793  MET794  SER795  GLU796  ALA797  LYS798  CYS799  TRP800  GLU811  SER814 

> <Gold.Protein.RotatedAtoms>
  150.9954  134.9279  159.7922 H   0  0  0  0  0  0  0  0  0  0  0  0  # atno 6907 bound_to 6896
  152.5263  134.3226  159.9164 H   0  0  0  0  0  0  0  0  0  0  0  0  # atno 6908 bound_to 6896
  151.3232  133.3990  159.2690 H   0  0  0  0  0  0  0  0  0  0  0  0  # atno 6909 bound_to 6896
  145.9158  139.3690  143.0508 H   0  0  0  0  0  0  0  0  0  0  0  0  # atno 7974 bound_to 7965
  154.7837  140.0465  157.1147 H   0  0  0  0  0  0  0  0  0  0  0  0  # atno 8008 bound_to 7997
  154.9674  140.3085  155.4983 H   0  0  0  0  0  0  0  0  0  0  0  0  # atno 8009 bound_to 7997
  156.2940  140.2259  156.4764 H   0  0  0  0  0  0  0  0  0  0  0  0  # atno 8010 bound_to 7997
  140.6369  143.2487  151.5094 H   0  0  0  0  0  0  0  0  0  0  0  0  # atno 10167 bound_to 10162
  157.5731  131.1081  150.8330 H   0  0  0  0  0  0  0  0  0  0  0  0  # atno 10718 bound_to 10713
  154.7104  135.5138  153.8658 H   0  0  0  0  0  0  0  0  0  0  0  0  # atno 10763 bound_to 10752
  153.0776  135.6621  154.0122 H   0  0  0  0  0  0  0  0  0  0  0  0  # atno 10764 bound_to 10752
  153.9965  135.3015  155.3386 H   0  0  0  0  0  0  0  0  0  0  0  0  # atno 10765 bound_to 10752
  140.9092  134.1589  157.4402 H   0  0  0  0  0  0  0  0  0  0  0  0  # atno 11005 bound_to 11000
  145.8613  140.9473  143.0698 LP  0  0  0  0  0  0  0  0  0  0  0  0  # atno 17320 bound_to 7965
  144.6747  140.0535  143.7478 LP  0  0  0  0  0  0  0  0  0  0  0  0  # atno 17321 bound_to 7965
  139.5579  144.2230  152.1643 LP  0  0  0  0  0  0  0  0  0  0  0  0  # atno 17342 bound_to 10162
  140.1489  144.5133  150.6699 LP  0  0  0  0  0  0  0  0  0  0  0  0  # atno 17343 bound_to 10162
  156.8797  130.5175  149.5291 LP  0  0  0  0  0  0  0  0  0  0  0  0  # atno 17370 bound_to 10713
  156.0776  130.5794  150.9502 LP  0  0  0  0  0  0  0  0  0  0  0  0  # atno 17371 bound_to 10713
  139.8754  134.9929  156.5619 LP  0  0  0  0  0  0  0  0  0  0  0  0  # atno 17394 bound_to 11000
  140.8131  133.8413  155.8828 LP  0  0  0  0  0  0  0  0  0  0  0  0  # atno 17395 bound_to 11000

$$$$
