#       Name:                AV-unprocessed.smi:1220
#       Creating user name   scv26
#       Creation time:       Fri Mar 27 04:17:36 2020


#       File generated by GOLD software.
#

@<TRIPOS>MOLECULE
AV-unprocessed.smi:1220
    38    39     1
SMALL
NO_CHARGES


@<TRIPOS>ATOM
      1 ****        -0.9230  -2.7224  -2.4505 C.3            1 S1                 0.0000
      2 ****        -0.2842  -2.1872  -1.1619 C.3            1 S1                 0.0000
      3 ****         1.2255  -2.5072  -1.1081 C.3            1 S1                 0.0000
      4 ****         1.8335  -2.1420   0.1595 N.pl3          1 S1                 0.0000
      5 ****         2.6425  -1.0613   0.4423 C.2            1 S1                 0.0000
      6 ****         2.9532  -1.1231   1.7702 C.2            1 S1                 0.0000
      7 ****         2.2834  -2.2954   2.2194 C.2            1 S1                 0.0000
      8 ****         1.6174  -2.9054   1.2522 N.2            1 S1                 0.0000
      9 ****        -0.5109  -0.7443  -1.0830 N.am           1 S1                 0.0000
     10 ****        -0.8312  -0.0605   0.0274 C.2            1 S1                 0.0000
     11 ****        -1.0118  -0.5924   1.1230 O.2            1 S1                 0.0000
     12 ****        -0.9413   1.4614  -0.1195 C.3            1 S1                 0.0000
     13 ****        -2.3069   2.0011   0.3581 C.3            1 S1                 0.0000
     14 ****        -2.2072   3.5243   0.4874 C.3            1 S1                 0.0000
     15 ****        -0.4930   3.8619   1.0357 S.o2           1 S1                 0.0000
     16 ****         0.1199   4.8359   0.1200 O.2            1 S1                 0.0000
     17 ****        -0.4772   4.0765   2.4905 O.2            1 S1                 0.0000
     18 ****         0.1589   2.1875   0.6759 C.3            1 S1                 0.0000
     19 ****        -0.8010  -3.8031  -2.5284 H              1 S1                 0.0000
     20 ****        -0.4720  -2.2721  -3.3356 H              1 S1                 0.0000
     21 ****        -1.9926  -2.5109  -2.4762 H              1 S1                 0.0000
     22 ****        -0.7790  -2.6873  -0.3273 H              1 S1                 0.0000
     23 ****         1.3894  -3.5744  -1.2651 H              1 S1                 0.0000
     24 ****         1.7548  -1.9914  -1.9105 H              1 S1                 0.0000
     25 ****         2.9191  -0.3424  -0.3147 H              1 S1                 0.0000
     26 ****         3.5640  -0.4351   2.3354 H              1 S1                 0.0000
     27 ****         2.2614  -2.7184   3.2128 H              1 S1                 0.0000
     28 ****        -0.3852  -0.2203  -1.9370 H              1 S1                 0.0000
     29 ****        -0.8294   1.7317  -1.1711 H              1 S1                 0.0000
     30 ****        -3.1119   1.7168  -0.3203 H              1 S1                 0.0000
     31 ****        -2.5537   1.5843   1.3359 H              1 S1                 0.0000
     32 ****        -2.3524   4.0054  -0.4800 H              1 S1                 0.0000
     33 ****        -2.9214   3.9423   1.1971 H              1 S1                 0.0000
     34 ****         0.3701   1.6987   1.6282 H              1 S1                 0.0000
     35 ****         1.0919   2.2704   0.1184 H              1 S1                 0.0000
     36 ****         1.0757  -3.7436   1.3161 LP             1 S1                 0.0000
     37 ****        -0.9215  -1.5838   1.2185 LP             1 S1                 0.0000
     38 ****        -1.2488  -0.0331   1.9174 LP             1 S1                 0.0000
@<TRIPOS>BOND
    1    1    2 1     
    2    1   19 1     
    3    1   20 1     
    4    1   21 1     
    5    2    3 1     
    6    2    9 1     
    7    2   22 1     
    8    3    4 1     
    9    3   23 1     
   10    3   24 1     
   11    4    8 1     
   12    4    5 1     
   13    5    6 2     
   14    5   25 1     
   15    6    7 1     
   16    6   26 1     
   17    7    8 2     
   18    7   27 1     
   19    9   10 am    
   20    9   28 1     
   21   10   11 2     
   22   10   12 1     
   23   12   18 1     
   24   12   13 1     
   25   12   29 1     
   26   13   14 1     
   27   13   30 1     
   28   13   31 1     
   29   14   15 1     
   30   14   32 1     
   31   14   33 1     
   32   15   16 2     
   33   15   17 2     
   34   15   18 1     
   35   18   34 1     
   36   18   35 1     
   37    8   36 1     
   38   11   37 1     
   39   11   38 1     
@<TRIPOS>SUBSTRUCTURE
      1 S1             1
@<TRIPOS>SET
LONE_PAIRS      STATIC     ATOMS    <user>   **** ""
5 36 37 38 16 17
DONOR_HYDROGENS      STATIC     ATOMS    <user>   **** ""
1 28
ATOM$BLUE        STATIC     ATOMS    COLORGROUP SYSTEM
5 36 37 38 16 17
ATOM$RED        STATIC     ATOMS    COLORGROUP SYSTEM
1 28
