AV-unprocessed.smi:157|AV-procd|sdf|1315|dock1
  -GOLD-   2262019 03D 1   1.00000     0.00000
 Structure written by MMmdl.
 36 38  0  0  0  0  0  0  0  0  2 V2000
  144.9916  132.6301  148.4740 O   0  0  0  0  0  0  0  0  0  0  0  0
  145.7828  131.9738  149.4421 C   0  0  0  0  0  0  0  0  0  0  0  0
  145.0765  131.9647  150.8128 C   0  0  1  0  0  0  0  0  0  0  0  0
  145.6613  133.0152  151.5872 O   0  0  0  0  0  0  0  0  0  0  0  0
  144.6898  133.9449  151.9554 C   0  0  1  0  0  0  0  0  0  0  0  0
  145.2746  135.3140  151.8409 N   0  0  0  0  0  0  0  0  0  0  0  0
  145.6980  135.9048  150.7038 C   0  0  0  0  0  0  0  0  0  0  0  0
  146.1732  137.1275  150.8690 N   0  3  0  0  0  0  0  0  0  0  0  0
  146.0700  137.4080  152.2151 C   0  0  0  0  0  0  0  0  0  0  0  0
  145.5181  136.2667  152.8034 C   0  0  0  0  0  0  0  0  0  0  0  0
  145.2018  136.0124  154.1467 N   0  0  0  0  0  0  0  0  0  0  0  0
  145.6605  136.7242  155.1246 C   0  0  0  0  0  0  0  0  0  0  0  0
  146.4309  137.8745  155.0812 N   0  0  0  0  0  0  0  0  0  0  0  0
  146.1336  138.9931  154.2042 C   0  0  0  0  0  0  0  0  0  0  0  0
  146.5056  138.7416  152.7369 C   0  0  1  0  0  0  0  0  0  0  0  0
  147.8926  138.9585  152.5794 O   0  0  0  0  0  0  0  0  0  0  0  0
  143.5319  133.7720  150.9829 C   0  0  0  0  0  0  0  0  0  0  0  0
  143.5647  132.2718  150.7971 C   0  0  1  0  0  0  0  0  0  0  0  0
  142.8871  131.8866  149.6183 O   0  0  0  0  0  0  0  0  0  0  0  0
  145.2671  131.0161  151.3168 H   0  0  0  0  0  0  0  0  0  0  0  0
  144.4106  133.8111  153.0012 H   0  0  0  0  0  0  0  0  0  0  0  0
  146.0126  139.5073  152.1368 H   0  0  0  0  0  0  0  0  0  0  0  0
  143.0882  131.7916  151.6531 H   0  0  0  0  0  0  0  0  0  0  0  0
  145.2922  133.5226  148.3935 H   0  0  0  0  0  0  0  0  0  0  0  0
  145.9339  130.9504  149.0974 H   0  0  0  0  0  0  0  0  0  0  0  0
  146.7674  132.4382  149.5024 H   0  0  0  0  0  0  0  0  0  0  0  0
  145.6475  135.4174  149.7465 H   0  0  0  0  0  0  0  0  0  0  0  0
  145.4318  136.4241  156.1483 H   0  0  0  0  0  0  0  0  0  0  0  0
  146.8911  138.1805  155.9268 H   0  0  0  0  0  0  0  0  0  0  0  0
  145.0609  139.1819  154.2694 H   0  0  0  0  0  0  0  0  0  0  0  0
  146.6219  139.8933  154.5789 H   0  0  0  0  0  0  0  0  0  0  0  0
  148.0271  139.5763  151.8774 H   0  0  0  0  0  0  0  0  0  0  0  0
  142.5989  134.1507  151.4011 H   0  0  0  0  0  0  0  0  0  0  0  0
  143.7498  134.2904  150.0473 H   0  0  0  0  0  0  0  0  0  0  0  0
  141.9668  131.7984  149.8162 H   0  0  0  0  0  0  0  0  0  0  0  0
  146.5328  137.7358  150.1445 H   0  0  0  0  0  0  0  0  0  0  0  0
  1  2  1  0  0  0  0
  1 24  1  0  0  0  0
  2  3  1  0  0  0  0
  2 25  1  0  0  0  0
  2 26  1  0  0  0  0
  3 20  1  0  0  0  0
  3 18  1  0  0  0  0
  3  4  1  0  0  0  0
  4  5  1  0  0  0  0
  5 21  1  0  0  0  0
  5  6  1  0  0  0  0
  5 17  1  0  0  0  0
  6 10  1  0  0  0  0
  6  7  1  0  0  0  0
  7  8  2  0  0  0  0
  7 27  1  0  0  0  0
  8  9  1  0  0  0  0
  8 36  1  0  0  0  0
  9 15  1  0  0  0  0
  9 10  2  0  0  0  0
 10 11  1  0  0  0  0
 11 12  2  0  0  0  0
 12 13  1  0  0  0  0
 12 28  1  0  0  0  0
 13 14  1  0  0  0  0
 13 29  1  0  0  0  0
 14 15  1  0  0  0  0
 14 30  1  0  0  0  0
 14 31  1  0  0  0  0
 15 22  1  0  0  0  0
 15 16  1  0  0  0  0
 16 32  1  0  0  0  0
 17 18  1  0  0  0  0
 17 33  1  0  0  0  0
 17 34  1  0  0  0  0
 18 23  1  0  0  0  0
 18 19  1  0  0  0  0
 19 35  1  0  0  0  0
M  CHG  1   8   1
M  END
> <s_m_source_file>
AV-unprocessed.smi

> <i_m_source_file_index>
157

> <i_lp_mmshare_version>
43012

> <i_f3d_flags>
0

> <s_epik_input>
W09IXVtDSDJdW0NASF0xT1tDQEhdKFtDSDJdW0NAQEhdMVtPSF0pbihbY0hdbjIpYyhjMjMpTj1bQ0hdW05IXVtDSDJdW0NASF0zW09IXQ==

> <s_epik_cmdline>
J2VwaWtfcHl0aG9uJywgJy1waCcsICc3LjAnLCAnLXRuJywgJzgnLCAnLW1hJywgJzIwMCcsICctbWV0YWxfYmluZGluZycsICctaW1hZScsICc8aW5maWxlLm1hZT4nLCAnLW9tYWUnLCAnPG91dGZpbGUubWFlPic=

> <r_epik_Ionization_Penalty>
1.68594

> <r_epik_Ionization_Penalty_Charging>
0

> <r_epik_Ionization_Penalty_Neutral>
1.68594

> <r_epik_State_Penalty>
1.79006

> <r_epik_Charging_Adjusted_Penalty>
1.79006

> <i_epik_Tot_Q>
1

> <i_epik_Tot_abs_Q>
1

> <r_epik_Metal_State_Penalty>
5.85324

> <b_epik_Metal_Only>
0

> <s_epik_Chemistry_Notes>
This compound has an imine and may undergo hydrolysis. This compound contains an acetal/aminal-like group ( X-CH(R)-Y where X, Y are N, S, or O) that may be acid/base labile, releasing an aldehyde.

> <s_lp_Force_Field>
OPLS_2005

> <r_lp_Energy>
55.0394

> <b_lp_Chiralities_Consistent>
1

> <s_lp_Variant>
AV-unprocessed.smi:157-25

> <Gold.Version>
5.8.1

> <Gold.Id.Protein>
6NUR|6NUR_protein|mol2

> <Gold.PLP.Fitness>
43.1614

> <Gold.PLP.PLP>
-31.8157

> <Gold.PLP.part.hbond>
-8.3595

> <Gold.PLP.part.metal>
0.0000

> <Gold.PLP.part.buried>
-2.9100

> <Gold.PLP.part.nonpolar>
-21.9768

> <Gold.PLP.part.repulsive>
0.2703

> <Gold.PLP.ligand.clash>
0.0088

> <Gold.PLP.ligand.torsion>
0.6539

> <Gold.PLP.Chemscore.Hbond>
3.2160

> <Gold.PLP.Chemscore.CHOScore>
1.0000

> <Gold.PLP.Chemscore.Metal>
0.0000

> <Gold.Chemscore.Hbonds>
donor molecule, donor type, donor heavy atom, donor atom, acceptor molecule, acceptor atom, score
      L1  H     1    24       P1  7921  1.00
      L1  H    16    32       P1  7957  0.54
      L1  H    19    35       P1 10952  0.62
      P1  H 10785 10796       L1    19  0.95
      L1  C     7    27       P1  7921  1.00

> <Gold.PLP.Chemscore.Internal.Correction>
0.0143

> <Gold.Rescore>
     Score         DG    S(hbond)    S(metal)    S(lipo)     H(rot)  DE(clash)    DE(int)     intcor
      8.97     -10.28       2.42        0.00      52.07       3.67       0.71       0.61       ----

> <Gold.Chemscore.Fitness>
8.9663

> <Gold.Chemscore.DG>
-10.2831

> <Gold.Chemscore.ZeroCoef>
-5.4800

> <Gold.Chemscore.Hbond>
2.4238

> <Gold.Chemscore.Metal>
0.0000

> <Gold.Chemscore.Lipo>
52.0730

> <Gold.Chemscore.Internal_Hbond>
0.0000

> <Gold.Chemscore.DEClash>
0.7081

> <Gold.Chemscore.DEInternal>
0.6087

> <Gold.Chemscore.Rot>
3.6659

> <Gold.Chemscore.Internal.Correction>
   9.000000E+99

> <Gold.Chemscore.Hbonds>
donor molecule, donor type, donor heavy atom, donor atom, acceptor molecule, acceptor atom, score
      L1  H     1    24       P1  7921  0.43
      L1  H    16    32       P1  7957  0.54
      L1  H    19    35       P1 10952  0.61
      P1  H 10785 10796       L1    19  0.21

> <Gold.Chemscore.Hbond.Weighted>
-8.0954

> <Gold.Chemscore.Metal.Weighted>
-0.0000

> <Gold.Chemscore.Lipo.Weighted>
-6.0925

> <Gold.Chemscore.Internal_Hbond.Weighted>
0.0000

> <Gold.Chemscore.DEClash.Weighted>
0.7081

> <Gold.Chemscore.DEInternal.Weighted>
0.6087

> <Gold.Chemscore.Rot.Weighted>
9.3848

> <Gold.Chemscore.Internal.Correction.Weighted>
   9.000000E+99

> <Gold.Protein.RotatedTorsions>
[ 6907 6896 6895 6894 ] final  -55.40 input  -60.11 | X-H torsion
[ 7974 7965 7964 7962 ] final   19.83 input  175.53 | X-H torsion
[ 8008 7997 7996 7995 ] final  111.16 input   59.86 | X-H torsion
[ 10167 10162 10161 10158 ] final -169.80 input  -65.29 | X-H torsion
[ 10718 10713 10712 10709 ] final   27.69 input   66.30 | X-H torsion
[ 10763 10752 10751 10750 ] final -133.34 input  -60.55 | X-H torsion
[ 11005 11000 10999 10996 ] final  134.30 input  -57.11 | X-H torsion

> <Gold.Protein.ActiveResidues>
 VAL166  LYS551  ARG553  GLY616  TRP617  ASP618  TYR619  PRO620  LYS621  CYS622 
 ASP623  PHE694  ASN695  SER759  ASP760  ASP761  ALA762  ILE779  LEU786  VAL792 
 PHE793  MET794  SER795  GLU796  ALA797  LYS798  CYS799  TRP800  GLU811  SER814 

> <Gold.Protein.RotatedAtoms>
  150.8255  134.7483  159.6808 H   0  0  0  0  0  0  0  0  0  0  0  0  # atno 6907 bound_to 6896
  152.4366  134.5671  159.9920 H   0  0  0  0  0  0  0  0  0  0  0  0  # atno 6908 bound_to 6896
  151.5844  133.3336  159.3051 H   0  0  0  0  0  0  0  0  0  0  0  0  # atno 6909 bound_to 6896
  146.2134  139.8257  142.8670 H   0  0  0  0  0  0  0  0  0  0  0  0  # atno 7974 bound_to 7965
  156.2104  140.3025  155.9720 H   0  0  0  0  0  0  0  0  0  0  0  0  # atno 8008 bound_to 7997
  155.2738  140.0435  157.3026 H   0  0  0  0  0  0  0  0  0  0  0  0  # atno 8009 bound_to 7997
  154.5691  140.2343  155.8226 H   0  0  0  0  0  0  0  0  0  0  0  0  # atno 8010 bound_to 7997
  139.5901  144.1233  152.1623 H   0  0  0  0  0  0  0  0  0  0  0  0  # atno 10167 bound_to 10162
  157.2235  130.6990  149.6281 H   0  0  0  0  0  0  0  0  0  0  0  0  # atno 10718 bound_to 10713
  154.8733  135.3769  154.4556 H   0  0  0  0  0  0  0  0  0  0  0  0  # atno 10763 bound_to 10752
  153.5229  135.7028  153.5727 H   0  0  0  0  0  0  0  0  0  0  0  0  # atno 10764 bound_to 10752
  153.3966  135.3959  155.1925 H   0  0  0  0  0  0  0  0  0  0  0  0  # atno 10765 bound_to 10752
  139.9906  134.9516  156.9847 H   0  0  0  0  0  0  0  0  0  0  0  0  # atno 11005 bound_to 11000
  145.3050  141.0204  143.3587 LP  0  0  0  0  0  0  0  0  0  0  0  0  # atno 17320 bound_to 7965
  144.8978  139.4689  143.6647 LP  0  0  0  0  0  0  0  0  0  0  0  0  # atno 17321 bound_to 7965
  140.0805  144.5704  150.7126 LP  0  0  0  0  0  0  0  0  0  0  0  0  # atno 17342 bound_to 10162
  140.7165  143.2549  151.4417 LP  0  0  0  0  0  0  0  0  0  0  0  0  # atno 17343 bound_to 10162
  155.9680  130.4512  150.5726 LP  0  0  0  0  0  0  0  0  0  0  0  0  # atno 17370 bound_to 10713
  157.3551  131.0740  151.1682 LP  0  0  0  0  0  0  0  0  0  0  0  0  # atno 17371 bound_to 10713
  140.4915  134.1188  155.7233 LP  0  0  0  0  0  0  0  0  0  0  0  0  # atno 17394 bound_to 11000
  141.1563  133.8877  157.1969 LP  0  0  0  0  0  0  0  0  0  0  0  0  # atno 17395 bound_to 11000

$$$$
