AV-unprocessed.smi:805|AV-procd|sdf|3797|dock10
  -GOLD-   22720 1233D 1   1.00000     0.00000
 Structure written by MMmdl.
 40 41  0  0  0  0  0  0  0  0  1 V2000
  153.5331  129.1692  154.5875 C   0  0  0  0  0  0  0  0  0  0  0  0
  152.6169  129.3550  155.7994 C   0  0  0  0  0  0  0  0  0  0  0  0
  151.3169  128.8979  155.4663 O   0  0  0  0  0  0  0  0  0  0  0  0
  150.3411  129.9273  155.5085 C   0  0  1  0  0  0  0  0  0  0  0  0
  150.4420  130.9504  154.3724 C   0  0  0  0  0  0  0  0  0  0  0  0
  148.9127  130.9292  154.3653 C   0  0  1  0  0  0  0  0  0  0  0  0
  148.3543  131.0296  153.0210 N   0  0  0  0  0  0  0  0  0  0  0  0
  147.1683  131.5829  152.7347 C   0  0  0  0  0  0  0  0  0  0  0  0
  146.4295  132.0780  153.5855 O   0  0  0  0  0  0  0  0  0  0  0  0
  146.9159  131.5330  151.4154 N   0  0  0  0  0  0  0  0  0  0  0  0
  145.7757  132.0083  150.7125 C   0  0  0  0  0  0  0  0  0  0  0  0
  144.7669  132.6571  151.4543 C   0  0  0  0  0  0  0  0  0  0  0  0
  143.6323  133.1524  150.7843 C   0  0  0  0  0  0  0  0  0  0  0  0
  143.5542  132.9867  149.3882 C   0  0  0  0  0  0  0  0  0  0  0  0
  144.5166  132.3826  148.6602 N   0  0  0  0  0  0  0  0  0  0  0  0
  145.6018  131.9081  149.3095 C   0  0  0  0  0  0  0  0  0  0  0  0
  148.9671  129.4892  154.9429 C   0  0  0  0  0  0  0  0  0  0  0  0
  148.9916  128.3269  153.9345 C   0  0  0  0  0  0  0  0  0  0  0  0
  147.9017  129.1509  155.9852 C   0  0  0  0  0  0  0  0  0  0  0  0
  154.5438  129.5149  154.8057 H   0  0  0  0  0  0  0  0  0  0  0  0
  153.1650  129.7319  153.7294 H   0  0  0  0  0  0  0  0  0  0  0  0
  153.5928  128.1195  154.2997 H   0  0  0  0  0  0  0  0  0  0  0  0
  153.0059  128.7927  156.6497 H   0  0  0  0  0  0  0  0  0  0  0  0
  152.5883  130.4074  156.0847 H   0  0  0  0  0  0  0  0  0  0  0  0
  150.2535  130.3964  156.4915 H   0  0  0  0  0  0  0  0  0  0  0  0
  150.8836  131.9054  154.6577 H   0  0  0  0  0  0  0  0  0  0  0  0
  150.8982  130.5465  153.4667 H   0  0  0  0  0  0  0  0  0  0  0  0
  148.4999  131.6529  155.0726 H   0  0  0  0  0  0  0  0  0  0  0  0
  148.9049  130.6494  152.2650 H   0  0  0  0  0  0  0  0  0  0  0  0
  147.6545  131.1594  150.8377 H   0  0  0  0  0  0  0  0  0  0  0  0
  144.8563  132.7716  152.5249 H   0  0  0  0  0  0  0  0  0  0  0  0
  142.8409  133.6480  151.3270 H   0  0  0  0  0  0  0  0  0  0  0  0
  142.6982  133.3539  148.8415 H   0  0  0  0  0  0  0  0  0  0  0  0
  146.3455  131.4595  148.6700 H   0  0  0  0  0  0  0  0  0  0  0  0
  148.0227  128.1930  153.4521 H   0  0  0  0  0  0  0  0  0  0  0  0
  149.2443  127.3840  154.4202 H   0  0  0  0  0  0  0  0  0  0  0  0
  149.7256  128.4841  153.1441 H   0  0  0  0  0  0  0  0  0  0  0  0
  146.9203  129.0239  155.5274 H   0  0  0  0  0  0  0  0  0  0  0  0
  147.8077  129.9401  156.7317 H   0  0  0  0  0  0  0  0  0  0  0  0
  148.1412  128.2301  156.5178 H   0  0  0  0  0  0  0  0  0  0  0  0
  1  2  1  0  0  0  0
  1 20  1  0  0  0  0
  1 21  1  0  0  0  0
  1 22  1  0  0  0  0
  2  3  1  0  0  0  0
  2 23  1  0  0  0  0
  2 24  1  0  0  0  0
  3  4  1  0  0  0  0
  4 17  1  0  0  0  0
  4  5  1  0  0  0  0
  4 25  1  0  0  0  0
  5  6  1  0  0  0  0
  5 26  1  0  0  0  0
  5 27  1  0  0  0  0
  6  7  1  0  0  0  0
  6 17  1  0  0  0  0
  6 28  1  0  0  0  0
  7  8  1  0  0  0  0
  7 29  1  0  0  0  0
  8  9  2  0  0  0  0
  8 10  1  0  0  0  0
 10 11  1  0  0  0  0
 10 30  1  0  0  0  0
 11 16  1  0  0  0  0
 11 12  2  0  0  0  0
 12 13  1  0  0  0  0
 12 31  1  0  0  0  0
 13 14  2  0  0  0  0
 13 32  1  0  0  0  0
 14 15  1  0  0  0  0
 14 33  1  0  0  0  0
 15 16  2  0  0  0  0
 16 34  1  0  0  0  0
 17 18  1  0  0  0  0
 17 19  1  0  0  0  0
 18 35  1  0  0  0  0
 18 36  1  0  0  0  0
 18 37  1  0  0  0  0
 19 38  1  0  0  0  0
 19 39  1  0  0  0  0
 19 40  1  0  0  0  0
M  END
> <s_m_source_file>
AV-unprocessed.smi

> <i_m_source_file_index>
805

> <i_lp_mmshare_version>
43012

> <i_f3d_flags>
0

> <s_epik_input>
W0NIM11bQ0gyXU9bQ0BASF0oQzEoW0NIM10pW0NIM10pW0NIMl1bQ0BIXTFbTkhdQyg9TylbTkhdYzJbY0hdW2NIXVtjSF1uW2NIXTI=

> <s_epik_cmdline>
J2VwaWtfcHl0aG9uJywgJy1waCcsICc3LjAnLCAnLXRuJywgJzgnLCAnLW1hJywgJzIwMCcsICctbWV0YWxfYmluZGluZycsICctaW1hZScsICc8aW5maWxlLm1hZT4nLCAnLW9tYWUnLCAnPG91dGZpbGUubWFlPic=

> <r_epik_Ionization_Penalty>
0.00485231

> <r_epik_Ionization_Penalty_Charging>
0

> <r_epik_Ionization_Penalty_Neutral>
0.00485231

> <r_epik_State_Penalty>
0.00349213

> <r_epik_Charging_Adjusted_Penalty>
0.00349213

> <i_epik_Tot_Q>
0

> <i_epik_Tot_abs_Q>
0

> <r_epik_Metal_State_Penalty>
-0

> <b_epik_Metal_Only>
0

> <s_lp_Force_Field>
OPLS_2005

> <r_lp_Energy>
21.475

> <b_lp_Chiralities_Consistent>
1

> <s_lp_Variant>
AV-unprocessed.smi:805-2

> <Gold.Version>
5.8.1

> <Gold.Id.Protein>
6NUR|6NUR_protein|mol2

> <Gold.PLP.Fitness>
38.2243

> <Gold.PLP.PLP>
-31.4292

> <Gold.PLP.part.hbond>
-2.4679

> <Gold.PLP.part.metal>
0.0000

> <Gold.PLP.part.buried>
-2.4852

> <Gold.PLP.part.nonpolar>
-26.9806

> <Gold.PLP.part.repulsive>
1.1046

> <Gold.PLP.ligand.clash>
0.0000

> <Gold.PLP.ligand.torsion>
0.6601

> <Gold.PLP.Chemscore.Hbond>
1.6610

> <Gold.PLP.Chemscore.CHOScore>
0.9435

> <Gold.PLP.Chemscore.Metal>
0.0000

> <Gold.Chemscore.Hbonds>
donor molecule, donor type, donor heavy atom, donor atom, acceptor molecule, acceptor atom, score
      L1  H     7    29       P1 10747  0.77
      L1  H    10    30       P1 10747  0.84
      L1  C    14    33       P1 10186  1.00

> <Gold.PLP.Chemscore.Internal.Correction>
0.3019

> <Gold.Rescore>
     Score         DG    S(hbond)    S(metal)    S(lipo)     H(rot)  DE(clash)    DE(int)     intcor
     14.20     -17.00       1.49        0.00      85.65       1.36       0.73       2.06       ----

> <Gold.Chemscore.Fitness>
14.2024

> <Gold.Chemscore.DG>
-16.9980

> <Gold.Chemscore.ZeroCoef>
-5.4800

> <Gold.Chemscore.Hbond>
1.4867

> <Gold.Chemscore.Metal>
0.0000

> <Gold.Chemscore.Lipo>
85.6528

> <Gold.Chemscore.Internal_Hbond>
0.0000

> <Gold.Chemscore.DEClash>
0.7312

> <Gold.Chemscore.DEInternal>
2.0645

> <Gold.Chemscore.Rot>
1.3551

> <Gold.Chemscore.Internal.Correction>
   9.000000E+99

> <Gold.Chemscore.Hbonds>
donor molecule, donor type, donor heavy atom, donor atom, acceptor molecule, acceptor atom, score
      L1  H     7    29       P1 10747  0.30
      L1  H    10    30       P1 10747  0.82

> <Gold.Chemscore.Hbond.Weighted>
-4.9657

> <Gold.Chemscore.Metal.Weighted>
-0.0000

> <Gold.Chemscore.Lipo.Weighted>
-10.0214

> <Gold.Chemscore.Internal_Hbond.Weighted>
0.0000

> <Gold.Chemscore.DEClash.Weighted>
0.7312

> <Gold.Chemscore.DEInternal.Weighted>
2.0645

> <Gold.Chemscore.Rot.Weighted>
3.4691

> <Gold.Chemscore.Internal.Correction.Weighted>
   9.000000E+99

> <Gold.Protein.RotatedTorsions>
[ 6907 6896 6895 6894 ] final  121.87 input  -60.11 | X-H torsion
[ 7974 7965 7964 7962 ] final  168.29 input  175.53 | X-H torsion
[ 8008 7997 7996 7995 ] final   71.27 input   59.86 | X-H torsion
[ 10167 10162 10161 10158 ] final -114.00 input  -65.29 | X-H torsion
[ 10718 10713 10712 10709 ] final  -76.20 input   66.30 | X-H torsion
[ 10763 10752 10751 10750 ] final   68.18 input  -60.55 | X-H torsion
[ 11005 11000 10999 10996 ] final -125.93 input  -57.11 | X-H torsion

> <Gold.Protein.ActiveResidues>
 VAL166  LYS551  ARG553  GLY616  TRP617  ASP618  TYR619  PRO620  LYS621  CYS622 
 ASP623  PHE694  ASN695  SER759  ASP760  ASP761  ALA762  ILE779  LEU786  VAL792 
 PHE793  MET794  SER795  GLU796  ALA797  LYS798  CYS799  TRP800  GLU811  SER814 

> <Gold.Protein.RotatedAtoms>
  152.4288  133.7241  159.6549 H   0  0  0  0  0  0  0  0  0  0  0  0  # atno 6907 bound_to 6896
  150.8165  133.8317  159.3164 H   0  0  0  0  0  0  0  0  0  0  0  0  # atno 6908 bound_to 6896
  151.6011  135.1049  160.0112 H   0  0  0  0  0  0  0  0  0  0  0  0  # atno 6909 bound_to 6896
  144.7394  139.8885  143.6401 H   0  0  0  0  0  0  0  0  0  0  0  0  # atno 7974 bound_to 7965
  155.7513  140.3488  155.5152 H   0  0  0  0  0  0  0  0  0  0  0  0  # atno 8008 bound_to 7997
  155.9002  140.1032  157.1377 H   0  0  0  0  0  0  0  0  0  0  0  0  # atno 8009 bound_to 7997
  154.4043  140.1287  156.4413 H   0  0  0  0  0  0  0  0  0  0  0  0  # atno 8010 bound_to 7997
  140.1057  143.4573  152.1784 H   0  0  0  0  0  0  0  0  0  0  0  0  # atno 10167 bound_to 10162
  156.0182  130.4459  150.3158 H   0  0  0  0  0  0  0  0  0  0  0  0  # atno 10718 bound_to 10713
  153.0223  135.5256  154.7095 H   0  0  0  0  0  0  0  0  0  0  0  0  # atno 10763 bound_to 10752
  154.6181  135.2886  155.0359 H   0  0  0  0  0  0  0  0  0  0  0  0  # atno 10764 bound_to 10752
  154.1355  135.6586  153.4983 H   0  0  0  0  0  0  0  0  0  0  0  0  # atno 10765 bound_to 10752
  140.9722  134.0790  157.3857 H   0  0  0  0  0  0  0  0  0  0  0  0  # atno 11005 bound_to 11000
  146.1159  139.4170  143.0259 LP  0  0  0  0  0  0  0  0  0  0  0  0  # atno 17320 bound_to 7965
  145.7376  141.0020  143.1318 LP  0  0  0  0  0  0  0  0  0  0  0  0  # atno 17321 bound_to 7965
  139.5647  144.7427  151.4057 LP  0  0  0  0  0  0  0  0  0  0  0  0  # atno 17342 bound_to 10162
  140.6953  143.7763  150.7318 LP  0  0  0  0  0  0  0  0  0  0  0  0  # atno 17343 bound_to 10162
  157.1259  131.0259  151.2990 LP  0  0  0  0  0  0  0  0  0  0  0  0  # atno 17370 bound_to 10713
  157.4590  130.7642  149.7219 LP  0  0  0  0  0  0  0  0  0  0  0  0  # atno 17371 bound_to 10713
  139.8916  135.0120  156.6803 LP  0  0  0  0  0  0  0  0  0  0  0  0  # atno 17394 bound_to 11000
  140.7312  133.9057  155.8212 LP  0  0  0  0  0  0  0  0  0  0  0  0  # atno 17395 bound_to 11000

$$$$
