#       Name:                AV-unprocessed.smi:1985
#       Creating user name   scv26
#       Creation time:       Fri Mar 27 10:24:23 2020


#       File generated by GOLD software.
#

@<TRIPOS>MOLECULE
AV-unprocessed.smi:1985
    59    60     1
SMALL
NO_CHARGES


@<TRIPOS>ATOM
      1 ****        -4.2204  -1.1931  -0.4721 C.3            1 S1                 0.0000
      2 ****        -2.6894  -1.0600  -0.5568 C.3            1 S1                 0.0000
      3 ****        -2.0038  -0.3822   0.6689 C.3            1 S1                 0.0000
      4 ****        -2.4569   1.1020   0.6939 C.3            1 S1                 0.0000
      5 ****        -0.4586  -0.4401   0.4816 C.3            1 S1                 0.0000
      6 ****        -0.0001   0.2833  -0.7009 N.am           1 S1                 0.0000
      7 ****         1.2394   0.2057  -1.2045 C.2            1 S1                 0.0000
      8 ****         2.1109  -0.5261  -0.7332 O.2            1 S1                 0.0000
      9 ****         1.5222   1.0837  -2.4318 C.3            1 S1                 0.0000
     10 ****         2.9547   1.2809  -2.6911 N.am           1 S1                 0.0000
     11 ****         3.5795   0.5396  -3.6773 C.2            1 S1                 0.0000
     12 ****         4.8931   0.6492  -3.9723 C.2            1 S1                 0.0000
     13 ****         5.7466   1.5828  -3.2482 C.2            1 S1                 0.0000
     14 ****         6.9529   1.7027  -3.4665 O.2            1 S1                 0.0000
     15 ****         5.0811   2.3395  -2.2556 N.am           1 S1                 0.0000
     16 ****         5.8795   3.2670  -1.4808 C.3            1 S1                 0.0000
     17 ****         3.7089   2.2093  -1.9401 C.2            1 S1                 0.0000
     18 ****         3.1748   2.8653  -1.0424 O.2            1 S1                 0.0000
     19 ****        -2.4134  -1.0780   1.9440 N.4            1 S1                 1.0000
     20 ****        -2.0493  -2.5202   2.0434 C.3            1 S1                 0.0000
     21 ****        -2.6954  -3.1557   3.2847 C.3            1 S1                 0.0000
     22 ****        -2.2734  -2.4579   4.4475 O.3            1 S1                 0.0000
     23 ****        -2.6820  -1.0979   4.4203 C.3            1 S1                 0.0000
     24 ****        -2.0494  -0.3849   3.2129 C.3            1 S1                 0.0000
     25 ****        -4.6094  -1.6790  -1.3673 H              1 S1                 0.0000
     26 ****        -4.7082  -0.2218  -0.3957 H              1 S1                 0.0000
     27 ****        -4.5301  -1.7950   0.3822 H              1 S1                 0.0000
     28 ****        -2.2600  -2.0450  -0.7381 H              1 S1                 0.0000
     29 ****        -2.4590  -0.4970  -1.4620 H              1 S1                 0.0000
     30 ****        -2.3898   1.5630  -0.2921 H              1 S1                 0.0000
     31 ****        -1.8374   1.7070   1.3565 H              1 S1                 0.0000
     32 ****        -3.4908   1.2047   1.0247 H              1 S1                 0.0000
     33 ****         0.0539  -0.0154   1.3448 H              1 S1                 0.0000
     34 ****        -0.1244  -1.4746   0.3958 H              1 S1                 0.0000
     35 ****        -0.6599   0.9025  -1.1493 H              1 S1                 0.0000
     36 ****         1.0462   0.6225  -3.2982 H              1 S1                 0.0000
     37 ****         1.0332   2.0515  -2.3077 H              1 S1                 0.0000
     38 ****         2.9904  -0.1698  -4.2402 H              1 S1                 0.0000
     39 ****         5.3190   0.0356  -4.7526 H              1 S1                 0.0000
     40 ****         5.2485   4.0540  -1.0669 H              1 S1                 0.0000
     41 ****         6.6150   3.7352  -2.1371 H              1 S1                 0.0000
     42 ****         6.3590   2.6873  -0.6908 H              1 S1                 0.0000
     43 ****        -2.3784  -3.0778   1.1688 H              1 S1                 0.0000
     44 ****        -0.9672  -2.6345   2.1110 H              1 S1                 0.0000
     45 ****        -3.7840  -3.1446   3.2090 H              1 S1                 0.0000
     46 ****        -2.3931  -4.1995   3.3722 H              1 S1                 0.0000
     47 ****        -3.7707  -1.0325   4.3842 H              1 S1                 0.0000
     48 ****        -2.3666  -0.6173   5.3466 H              1 S1                 0.0000
     49 ****        -0.9661  -0.3588   3.3325 H              1 S1                 0.0000
     50 ****        -2.3996   0.6455   3.2239 H              1 S1                 0.0000
     51 ****        -3.4232  -1.0624   1.9229 H              1 S1                 0.0000
     52 ****         1.9077  -1.0978   0.0617 LP             1 S1                 0.0000
     53 ****         3.0217  -0.5485  -1.1455 LP             1 S1                 0.0000
     54 ****         7.3918   1.1435  -4.1699 LP             1 S1                 0.0000
     55 ****         7.4934   2.3593  -2.9404 LP             1 S1                 0.0000
     56 ****         2.2028   2.7413  -0.8431 LP             1 S1                 0.0000
     57 ****         3.7139   3.5212  -0.5140 LP             1 S1                 0.0000
     58 ****        -1.2757  -2.4956   4.5041 LP             1 S1                 0.0000
     59 ****        -2.6698  -2.8995   5.2524 LP             1 S1                 0.0000
@<TRIPOS>BOND
    1    1    2 1     
    2    1   25 1     
    3    1   26 1     
    4    1   27 1     
    5    2    3 1     
    6    2   28 1     
    7    2   29 1     
    8    3    4 1     
    9    3    5 1     
   10    3   19 1     
   11    4   30 1     
   12    4   31 1     
   13    4   32 1     
   14    5    6 1     
   15    5   33 1     
   16    5   34 1     
   17    6    7 am    
   18    6   35 1     
   19    7    8 2     
   20    7    9 1     
   21    9   10 1     
   22    9   36 1     
   23    9   37 1     
   24   10   17 am    
   25   10   11 1     
   26   11   12 2     
   27   11   38 1     
   28   12   13 1     
   29   12   39 1     
   30   13   14 2     
   31   13   15 am    
   32   15   16 1     
   33   15   17 am    
   34   16   40 1     
   35   16   41 1     
   36   16   42 1     
   37   17   18 2     
   38   19   24 1     
   39   19   20 1     
   40   19   51 1     
   41   20   21 1     
   42   20   43 1     
   43   20   44 1     
   44   21   22 1     
   45   21   45 1     
   46   21   46 1     
   47   22   23 1     
   48   23   24 1     
   49   23   47 1     
   50   23   48 1     
   51   24   49 1     
   52   24   50 1     
   53    8   52 1     
   54    8   53 1     
   55   14   54 1     
   56   14   55 1     
   57   18   56 1     
   58   18   57 1     
   59   22   58 1     
   60   22   59 1     
@<TRIPOS>SUBSTRUCTURE
      1 S1             1
@<TRIPOS>SET
LONE_PAIRS      STATIC     ATOMS    <user>   **** ""
8 52 53 54 55 56 57 58 59
DONOR_HYDROGENS      STATIC     ATOMS    <user>   **** ""
2 35 51
ATOM$BLUE        STATIC     ATOMS    COLORGROUP SYSTEM
8 52 53 54 55 56 57 58 59
ATOM$RED        STATIC     ATOMS    COLORGROUP SYSTEM
2 35 51
