AV-unprocessed.smi:2131|AV-procd|sdf|8687|dock4
  -GOLD-   2272011443D 1   1.00000     0.00000
 Structure written by MMmdl.
 40 42  0  0  0  0  0  0  0  0  1 V2000
  149.6557  133.2617  153.4274 N   0  0  0  0  0  0  0  0  0  0  0  0
  149.7866  133.8985  154.3845 C   0  0  0  0  0  0  0  0  0  0  0  0
  149.9535  134.7078  155.6013 C   0  0  0  0  0  0  0  0  0  0  0  0
  150.0698  136.1856  155.2906 C   0  0  0  0  0  0  0  0  0  0  0  0
  151.1874  136.6776  154.5888 C   0  0  0  0  0  0  0  0  0  0  0  0
  151.2905  138.0520  154.2998 C   0  0  0  0  0  0  0  0  0  0  0  0
  150.2850  138.9537  154.7053 C   0  0  0  0  0  0  0  0  0  0  0  0
  150.4646  140.2809  154.3777 O   0  0  0  0  0  0  0  0  0  0  0  0
  149.4787  141.2162  154.7960 C   0  0  0  0  0  0  0  0  0  0  0  0
  149.6876  141.5400  156.2826 C   0  0  2  0  0  0  0  0  0  0  0  0
  148.5396  142.2160  156.7571 O   0  0  0  0  0  0  0  0  0  0  0  0
  150.9401  142.4039  156.5283 C   0  0  0  0  0  0  0  0  0  0  0  0
  151.5306  142.1678  157.8342 N   0  0  0  0  0  0  0  0  0  0  0  0
  152.1342  141.0402  158.2563 C   0  0  0  0  0  0  0  0  0  0  0  0
  152.6116  141.0321  159.4975 N   0  0  0  0  0  0  0  0  0  0  0  0
  152.2805  142.3039  159.9326 C   0  0  0  0  0  0  0  0  0  0  0  0
  152.5081  142.9362  161.1760 C   0  0  0  0  0  0  0  0  0  0  0  0
  152.0720  144.2595  161.3950 C   0  0  0  0  0  0  0  0  0  0  0  0
  151.4022  144.9695  160.3772 C   0  0  0  0  0  0  0  0  0  0  0  0
  151.1639  144.3606  159.1300 C   0  0  0  0  0  0  0  0  0  0  0  0
  151.6022  143.0406  158.9149 C   0  0  0  0  0  0  0  0  0  0  0  0
  149.1652  138.4517  155.4159 C   0  0  0  0  0  0  0  0  0  0  0  0
  149.0604  137.0769  155.7041 C   0  0  0  0  0  0  0  0  0  0  0  0
  149.1009  134.5269  156.2565 H   0  0  0  0  0  0  0  0  0  0  0  0
  150.8469  134.3650  156.1240 H   0  0  0  0  0  0  0  0  0  0  0  0
  151.9682  136.0028  154.2701 H   0  0  0  0  0  0  0  0  0  0  0  0
  152.1510  138.4184  153.7595 H   0  0  0  0  0  0  0  0  0  0  0  0
  149.5366  142.1309  154.2033 H   0  0  0  0  0  0  0  0  0  0  0  0
  148.4876  140.7815  154.6528 H   0  0  0  0  0  0  0  0  0  0  0  0
  149.7721  140.6065  156.8407 H   0  0  0  0  0  0  0  0  0  0  0  0
  148.6592  143.1431  156.6177 H   0  0  0  0  0  0  0  0  0  0  0  0
  151.6975  142.1945  155.7717 H   0  0  0  0  0  0  0  0  0  0  0  0
  150.6990  143.4639  156.4391 H   0  0  0  0  0  0  0  0  0  0  0  0
  152.2266  140.1755  157.6152 H   0  0  0  0  0  0  0  0  0  0  0  0
  153.0191  142.4022  161.9635 H   0  0  0  0  0  0  0  0  0  0  0  0
  152.2516  144.7326  162.3493 H   0  0  0  0  0  0  0  0  0  0  0  0
  151.0709  145.9821  160.5548 H   0  0  0  0  0  0  0  0  0  0  0  0
  150.6490  144.9007  158.3493 H   0  0  0  0  0  0  0  0  0  0  0  0
  148.3713  139.1010  155.7519 H   0  0  0  0  0  0  0  0  0  0  0  0
  148.2016  136.7076  156.2451 H   0  0  0  0  0  0  0  0  0  0  0  0
  1  2  3  0  0  0  0
  2  3  1  0  0  0  0
  3  4  1  0  0  0  0
  3 24  1  0  0  0  0
  3 25  1  0  0  0  0
  4 23  1  0  0  0  0
  4  5  2  0  0  0  0
  5  6  1  0  0  0  0
  5 26  1  0  0  0  0
  6  7  2  0  0  0  0
  6 27  1  0  0  0  0
  7  8  1  0  0  0  0
  7 22  1  0  0  0  0
  8  9  1  0  0  0  0
  9 10  1  0  0  0  0
  9 28  1  0  0  0  0
  9 29  1  0  0  0  0
 10 11  1  0  0  0  0
 10 12  1  0  0  0  0
 10 30  1  0  0  0  0
 11 31  1  0  0  0  0
 12 13  1  0  0  0  0
 12 32  1  0  0  0  0
 12 33  1  0  0  0  0
 13 21  1  0  0  0  0
 13 14  1  0  0  0  0
 14 15  2  0  0  0  0
 14 34  1  0  0  0  0
 15 16  1  0  0  0  0
 16 21  2  0  0  0  0
 16 17  1  0  0  0  0
 17 18  2  0  0  0  0
 17 35  1  0  0  0  0
 18 19  1  0  0  0  0
 18 36  1  0  0  0  0
 19 20  2  0  0  0  0
 19 37  1  0  0  0  0
 20 21  1  0  0  0  0
 20 38  1  0  0  0  0
 22 23  2  0  0  0  0
 22 39  1  0  0  0  0
 23 40  1  0  0  0  0
M  END
> <s_m_source_file>
AV-unprocessed.smi

> <i_m_source_file_index>
2131

> <i_lp_mmshare_version>
43012

> <i_f3d_flags>
0

> <s_epik_input>
TiNDW0NIMl1jMVtjSF1bY0hdYyhbY0hdW2NIXTEpT1tDSDJdW0NASF0oW09IXSlbQ0gyXW4oW2NIXW4yKWMoYzIzKVtjSF1bY0hdW2NIXVtjSF0z

> <s_epik_cmdline>
J2VwaWtfcHl0aG9uJywgJy1waCcsICc3LjAnLCAnLXRuJywgJzgnLCAnLW1hJywgJzIwMCcsICctbWV0YWxfYmluZGluZycsICctaW1hZScsICc8aW5maWxlLm1hZT4nLCAnLW9tYWUnLCAnPG91dGZpbGUubWFlPic=

> <r_lp_tautomer_probability>
1

> <r_epik_Ionization_Penalty>
0.0609831

> <r_epik_Ionization_Penalty_Charging>
0

> <r_epik_Ionization_Penalty_Neutral>
0.0609831

> <r_epik_State_Penalty>
0.0529032

> <r_epik_Charging_Adjusted_Penalty>
0.0529032

> <i_epik_Tot_Q>
0

> <i_epik_Tot_abs_Q>
0

> <r_epik_Metal_State_Penalty>
5.53344e-05

> <b_epik_Metal_Only>
0

> <s_lp_Force_Field>
OPLS_2005

> <r_lp_Energy>
15.4123

> <b_lp_Chiralities_Consistent>
1

> <s_lp_Variant>
AV-unprocessed.smi:2131-1

> <Gold.Version>
5.8.1

> <Gold.Id.Protein>
6NUR|6NUR_protein|mol2

> <Gold.PLP.Fitness>
54.0575

> <Gold.PLP.PLP>
-49.1873

> <Gold.PLP.part.hbond>
-2.0000

> <Gold.PLP.part.metal>
0.0000

> <Gold.PLP.part.buried>
-6.7735

> <Gold.PLP.part.nonpolar>
-40.9796

> <Gold.PLP.part.repulsive>
0.2945

> <Gold.PLP.ligand.clash>
0.0000

> <Gold.PLP.ligand.torsion>
0.6047

> <Gold.PLP.Chemscore.Hbond>
2.0000

> <Gold.PLP.Chemscore.CHOScore>
0.0000

> <Gold.PLP.Chemscore.Metal>
0.0000

> <Gold.Chemscore.Hbonds>
donor molecule, donor type, donor heavy atom, donor atom, acceptor molecule, acceptor atom, score
      L1  H    11    31       P1  8028  1.00
      P1  H  7989  7998       L1     8  1.00

> <Gold.PLP.Chemscore.Internal.Correction>
0.0796

> <Gold.Rescore>
     Score         DG    S(hbond)    S(metal)    S(lipo)     H(rot)  DE(clash)    DE(int)     intcor
     18.07     -18.78       1.72        0.00     124.10       2.72       0.14       0.57       ----

> <Gold.Chemscore.Fitness>
18.0677

> <Gold.Chemscore.DG>
-18.7815

> <Gold.Chemscore.ZeroCoef>
-5.4800

> <Gold.Chemscore.Hbond>
1.7187

> <Gold.Chemscore.Metal>
0.0000

> <Gold.Chemscore.Lipo>
124.1021

> <Gold.Chemscore.Internal_Hbond>
0.0000

> <Gold.Chemscore.DEClash>
0.1430

> <Gold.Chemscore.DEInternal>
0.5708

> <Gold.Chemscore.Rot>
2.7183

> <Gold.Chemscore.Internal.Correction>
   9.000000E+99

> <Gold.Chemscore.Hbonds>
donor molecule, donor type, donor heavy atom, donor atom, acceptor molecule, acceptor atom, score
      L1  H    11    31       P1  8028  0.81
      P1  H  7989  7998       L1     8  0.86

> <Gold.Chemscore.Hbond.Weighted>
-5.7404

> <Gold.Chemscore.Metal.Weighted>
-0.0000

> <Gold.Chemscore.Lipo.Weighted>
-14.5199

> <Gold.Chemscore.Internal_Hbond.Weighted>
0.0000

> <Gold.Chemscore.DEClash.Weighted>
0.1430

> <Gold.Chemscore.DEInternal.Weighted>
0.5708

> <Gold.Chemscore.Rot.Weighted>
6.9588

> <Gold.Chemscore.Internal.Correction.Weighted>
   9.000000E+99

> <Gold.Protein.RotatedTorsions>
[ 6907 6896 6895 6894 ] final  -17.57 input  -60.11 | X-H torsion
[ 7974 7965 7964 7962 ] final -131.65 input  175.53 | X-H torsion
[ 8008 7997 7996 7995 ] final   35.76 input   59.86 | X-H torsion
[ 10167 10162 10161 10158 ] final -129.86 input  -65.29 | X-H torsion
[ 10718 10713 10712 10709 ] final   77.20 input   66.30 | X-H torsion
[ 10763 10752 10751 10750 ] final    2.88 input  -60.55 | X-H torsion
[ 11005 11000 10999 10996 ] final -137.16 input  -57.11 | X-H torsion

> <Gold.Protein.ActiveResidues>
 VAL166  LYS551  ARG553  GLY616  TRP617  ASP618  TYR619  PRO620  LYS621  CYS622 
 ASP623  PHE694  ASN695  SER759  ASP760  ASP761  ALA762  ILE779  LEU786  VAL792 
 PHE793  MET794  SER795  GLU796  ALA797  LYS798  CYS799  TRP800  GLU811  SER814 

> <Gold.Protein.RotatedAtoms>
  151.2913  135.0742  159.9204 H   0  0  0  0  0  0  0  0  0  0  0  0  # atno 6907 bound_to 6896
  152.5316  133.9929  159.7869 H   0  0  0  0  0  0  0  0  0  0  0  0  # atno 6908 bound_to 6896
  151.0199  133.5835  159.2703 H   0  0  0  0  0  0  0  0  0  0  0  0  # atno 6909 bound_to 6896
  144.9359  140.7182  143.4877 H   0  0  0  0  0  0  0  0  0  0  0  0  # atno 7974 bound_to 7965
  155.1763  140.3296  155.4383 H   0  0  0  0  0  0  0  0  0  0  0  0  # atno 8008 bound_to 7997
  156.2492  140.1934  156.6814 H   0  0  0  0  0  0  0  0  0  0  0  0  # atno 8009 bound_to 7997
  154.6302  140.0583  156.9709 H   0  0  0  0  0  0  0  0  0  0  0  0  # atno 8010 bound_to 7997
  139.9353  143.6225  152.2518 H   0  0  0  0  0  0  0  0  0  0  0  0  # atno 10167 bound_to 10162
  157.6702  130.9810  150.1607 H   0  0  0  0  0  0  0  0  0  0  0  0  # atno 10718 bound_to 10713
  153.2902  135.6948  153.7301 H   0  0  0  0  0  0  0  0  0  0  0  0  # atno 10763 bound_to 10752
  153.6254  135.3419  155.3025 H   0  0  0  0  0  0  0  0  0  0  0  0  # atno 10764 bound_to 10752
  154.8521  135.4396  154.1982 H   0  0  0  0  0  0  0  0  0  0  0  0  # atno 10765 bound_to 10752
  140.8737  134.2019  157.4635 H   0  0  0  0  0  0  0  0  0  0  0  0  # atno 11005 bound_to 11000
  145.3068  139.1832  143.4660 LP  0  0  0  0  0  0  0  0  0  0  0  0  # atno 17320 bound_to 7965
  146.3266  140.3067  142.8624 LP  0  0  0  0  0  0  0  0  0  0  0  0  # atno 17321 bound_to 7965
  139.6748  144.7659  151.1716 LP  0  0  0  0  0  0  0  0  0  0  0  0  # atno 17342 bound_to 10162
  140.7626  143.5811  150.8894 LP  0  0  0  0  0  0  0  0  0  0  0  0  # atno 17343 bound_to 10162
  156.2384  130.3688  149.8365 LP  0  0  0  0  0  0  0  0  0  0  0  0  # atno 17370 bound_to 10713
  156.6171  130.8611  151.3467 LP  0  0  0  0  0  0  0  0  0  0  0  0  # atno 17371 bound_to 10713
  139.8714  134.9786  156.5003 LP  0  0  0  0  0  0  0  0  0  0  0  0  # atno 17394 bound_to 11000
  140.8543  133.8108  155.9200 LP  0  0  0  0  0  0  0  0  0  0  0  0  # atno 17395 bound_to 11000

$$$$
