AV-unprocessed.smi:338|AV-procd|sdf|2376|dock4
  -GOLD-   2262022293D 1   1.00000     0.00000
 Structure written by MMmdl.
 42 44  0  0  0  0  0  0  0  0  2 V2000
  151.3901  130.6302  156.9669 C   0  0  0  0  0  0  0  0  0  0  0  0
  151.6125  132.1414  156.9242 C   0  0  0  0  0  0  0  0  0  0  0  0
  152.4470  132.6360  157.6815 O   0  0  0  0  0  0  0  0  0  0  0  0
  150.8004  132.9381  155.9597 C   0  0  0  0  0  0  0  0  0  0  0  0
  149.8844  132.3218  155.0755 C   0  0  0  0  0  0  0  0  0  0  0  0
  149.1330  133.0994  154.1759 C   0  0  0  0  0  0  0  0  0  0  0  0
  149.2884  134.4968  154.1494 C   0  0  0  0  0  0  0  0  0  0  0  0
  150.1926  135.1357  155.0201 C   0  0  0  0  0  0  0  0  0  0  0  0
  150.2832  136.5082  154.9262 O   0  0  0  0  0  0  0  0  0  0  0  0
  151.1761  137.1884  155.7985 C   0  0  0  0  0  0  0  0  0  0  0  0
  150.8850  138.6951  155.7338 C   0  0  2  0  0  0  0  0  0  0  0  0
  151.0861  139.1335  154.4045 O   0  0  0  0  0  0  0  0  0  0  0  0
  151.7712  139.5080  156.6986 C   0  0  0  0  0  0  0  0  0  0  0  0
  151.3695  140.9190  156.7901 N   0  0  0  0  0  0  0  0  0  0  0  0
  150.5672  141.6464  155.9663 C   0  0  0  0  0  0  0  0  0  0  0  0
  150.4916  142.9081  156.4730 N   0  3  0  0  0  0  0  0  0  0  0  0
  151.2586  142.9898  157.6370 C   0  0  0  0  0  0  0  0  0  0  0  0
  151.4919  144.0560  158.5004 C   0  0  0  0  0  0  0  0  0  0  0  0
  152.3339  143.8046  159.6035 C   0  0  0  0  0  0  0  0  0  0  0  0
  152.9084  142.5345  159.8143 C   0  0  0  0  0  0  0  0  0  0  0  0
  152.6639  141.4604  158.9333 C   0  0  0  0  0  0  0  0  0  0  0  0
  151.8283  141.7158  157.8460 C   0  0  0  0  0  0  0  0  0  0  0  0
  150.9458  134.3453  155.9251 C   0  0  0  0  0  0  0  0  0  0  0  0
  151.5915  130.1857  155.9921 H   0  0  0  0  0  0  0  0  0  0  0  0
  150.3628  130.4033  157.2526 H   0  0  0  0  0  0  0  0  0  0  0  0
  152.0556  130.1674  157.6960 H   0  0  0  0  0  0  0  0  0  0  0  0
  149.7404  131.2518  155.0693 H   0  0  0  0  0  0  0  0  0  0  0  0
  148.4349  132.6224  153.5039 H   0  0  0  0  0  0  0  0  0  0  0  0
  148.7072  135.0846  153.4539 H   0  0  0  0  0  0  0  0  0  0  0  0
  151.0645  136.8286  156.8230 H   0  0  0  0  0  0  0  0  0  0  0  0
  152.2039  137.0013  155.4825 H   0  0  0  0  0  0  0  0  0  0  0  0
  149.8352  138.8636  155.9777 H   0  0  0  0  0  0  0  0  0  0  0  0
  150.7268  138.4859  153.8173 H   0  0  0  0  0  0  0  0  0  0  0  0
  151.7015  139.0937  157.7052 H   0  0  0  0  0  0  0  0  0  0  0  0
  152.8230  139.4473  156.4185 H   0  0  0  0  0  0  0  0  0  0  0  0
  150.0778  141.2865  155.0728 H   0  0  0  0  0  0  0  0  0  0  0  0
  151.0544  145.0305  158.3400 H   0  0  0  0  0  0  0  0  0  0  0  0
  152.5449  144.6027  160.3005 H   0  0  0  0  0  0  0  0  0  0  0  0
  153.5514  142.3801  160.6687 H   0  0  0  0  0  0  0  0  0  0  0  0
  153.1147  140.4936  159.1021 H   0  0  0  0  0  0  0  0  0  0  0  0
  151.6462  134.8100  156.6024 H   0  0  0  0  0  0  0  0  0  0  0  0
  149.9557  143.6567  156.0527 H   0  0  0  0  0  0  0  0  0  0  0  0
  1  2  1  0  0  0  0
  1 24  1  0  0  0  0
  1 25  1  0  0  0  0
  1 26  1  0  0  0  0
  2  3  2  0  0  0  0
  2  4  1  0  0  0  0
  4 23  1  0  0  0  0
  4  5  2  0  0  0  0
  5  6  1  0  0  0  0
  5 27  1  0  0  0  0
  6  7  2  0  0  0  0
  6 28  1  0  0  0  0
  7  8  1  0  0  0  0
  7 29  1  0  0  0  0
  8  9  1  0  0  0  0
  8 23  2  0  0  0  0
  9 10  1  0  0  0  0
 10 11  1  0  0  0  0
 10 30  1  0  0  0  0
 10 31  1  0  0  0  0
 11 12  1  0  0  0  0
 11 13  1  0  0  0  0
 11 32  1  0  0  0  0
 12 33  1  0  0  0  0
 13 14  1  0  0  0  0
 13 34  1  0  0  0  0
 13 35  1  0  0  0  0
 14 22  1  0  0  0  0
 14 15  1  0  0  0  0
 15 16  2  0  0  0  0
 15 36  1  0  0  0  0
 16 17  1  0  0  0  0
 16 42  1  0  0  0  0
 17 22  2  0  0  0  0
 17 18  1  0  0  0  0
 18 19  2  0  0  0  0
 18 37  1  0  0  0  0
 19 20  1  0  0  0  0
 19 38  1  0  0  0  0
 20 21  2  0  0  0  0
 20 39  1  0  0  0  0
 21 22  1  0  0  0  0
 21 40  1  0  0  0  0
 23 41  1  0  0  0  0
M  CHG  1  16   1
M  END
> <s_m_source_file>
AV-unprocessed.smi

> <i_m_source_file_index>
338

> <i_lp_mmshare_version>
43012

> <i_f3d_flags>
0

> <s_epik_input>
W0NIM11DKD1PKWMxW2NIXVtjSF1bY0hdYyhbY0hdMSlPW0NIMl1bQ0BIXShbT0hdKVtDSDJdbihbY0hdbjIpYyhjMjMpW2NIXVtjSF1bY0hdW2NIXTM=

> <s_epik_cmdline>
J2VwaWtfcHl0aG9uJywgJy1waCcsICc3LjAnLCAnLXRuJywgJzgnLCAnLW1hJywgJzIwMCcsICctbWV0YWxfYmluZGluZycsICctaW1hZScsICc8aW5maWxlLm1hZT4nLCAnLW9tYWUnLCAnPG91dGZpbGUubWFlPic=

> <r_lp_tautomer_probability>
0.99995

> <r_epik_Ionization_Penalty>
1.35015

> <r_epik_Ionization_Penalty_Charging>
1.35015

> <r_epik_Ionization_Penalty_Neutral>
2.3993e-06

> <r_epik_State_Penalty>
1.42814

> <r_epik_Charging_Adjusted_Penalty>
2.77829

> <i_epik_Tot_Q>
1

> <i_epik_Tot_abs_Q>
1

> <r_epik_Metal_State_Penalty>
5.46522

> <b_epik_Metal_Only>
0

> <s_lp_Force_Field>
OPLS_2005

> <r_lp_Energy>
26.3487

> <b_lp_Chiralities_Consistent>
1

> <s_lp_Variant>
AV-unprocessed.smi:338-3

> <Gold.Version>
5.8.1

> <Gold.Id.Protein>
6NUR|6NUR_protein|mol2

> <Gold.PLP.Fitness>
55.2472

> <Gold.PLP.PLP>
-43.7004

> <Gold.PLP.part.hbond>
-3.0000

> <Gold.PLP.part.metal>
0.0000

> <Gold.PLP.part.buried>
-4.1636

> <Gold.PLP.part.nonpolar>
-36.1822

> <Gold.PLP.part.repulsive>
0.2424

> <Gold.PLP.ligand.clash>
0.0000

> <Gold.PLP.ligand.torsion>
0.2833

> <Gold.PLP.Chemscore.Hbond>
4.0000

> <Gold.PLP.Chemscore.CHOScore>
0.0000

> <Gold.PLP.Chemscore.Metal>
0.0000

> <Gold.Chemscore.Hbonds>
donor molecule, donor type, donor heavy atom, donor atom, acceptor molecule, acceptor atom, score
      L1  H    16    42       P1  8028  2.00
      P1  H  6896  6909       L1     3  1.00
      P1  H  7989  7998       L1    12  1.00

> <Gold.PLP.Chemscore.Internal.Correction>
0.1133

> <Gold.Rescore>
     Score         DG    S(hbond)    S(metal)    S(lipo)     H(rot)  DE(clash)    DE(int)     intcor
     21.32     -21.91       2.78        0.00     115.26       2.48       0.26       0.33       ----

> <Gold.Chemscore.Fitness>
21.3189

> <Gold.Chemscore.DG>
-21.9052

> <Gold.Chemscore.ZeroCoef>
-5.4800

> <Gold.Chemscore.Hbond>
2.7843

> <Gold.Chemscore.Metal>
0.0000

> <Gold.Chemscore.Lipo>
115.2568

> <Gold.Chemscore.Internal_Hbond>
0.0000

> <Gold.Chemscore.DEClash>
0.2585

> <Gold.Chemscore.DEInternal>
0.3278

> <Gold.Chemscore.Rot>
2.4842

> <Gold.Chemscore.Internal.Correction>
   9.000000E+99

> <Gold.Chemscore.Hbonds>
donor molecule, donor type, donor heavy atom, donor atom, acceptor molecule, acceptor atom, score
      L1  H    16    42       P1  8028  0.95
      P1  H  6896  6909       L1     3  0.94
      P1  H  7989  7998       L1    12  0.82

> <Gold.Chemscore.Hbond.Weighted>
-9.2996

> <Gold.Chemscore.Metal.Weighted>
-0.0000

> <Gold.Chemscore.Lipo.Weighted>
-13.4851

> <Gold.Chemscore.Internal_Hbond.Weighted>
0.0000

> <Gold.Chemscore.DEClash.Weighted>
0.2585

> <Gold.Chemscore.DEInternal.Weighted>
0.3278

> <Gold.Chemscore.Rot.Weighted>
6.3594

> <Gold.Chemscore.Internal.Correction.Weighted>
   9.000000E+99

> <Gold.Protein.RotatedTorsions>
[ 6907 6896 6895 6894 ] final  -77.52 input  -60.11 | X-H torsion
[ 7974 7965 7964 7962 ] final   71.22 input  175.53 | X-H torsion
[ 8008 7997 7996 7995 ] final  -28.54 input   59.86 | X-H torsion
[ 10167 10162 10161 10158 ] final  -13.03 input  -65.29 | X-H torsion
[ 10718 10713 10712 10709 ] final  -56.72 input   66.30 | X-H torsion
[ 10763 10752 10751 10750 ] final   88.38 input  -60.55 | X-H torsion
[ 11005 11000 10999 10996 ] final   86.41 input  -57.11 | X-H torsion

> <Gold.Protein.ActiveResidues>
 VAL166  LYS551  ARG553  GLY616  TRP617  ASP618  TYR619  PRO620  LYS621  CYS622 
 ASP623  PHE694  ASN695  SER759  ASP760  ASP761  ALA762  ILE779  LEU786  VAL792 
 PHE793  MET794  SER795  GLU796  ALA797  LYS798  CYS799  TRP800  GLU811  SER814 

> <Gold.Protein.RotatedAtoms>
  150.6997  134.4410  159.5292 H   0  0  0  0  0  0  0  0  0  0  0  0  # atno 6907 bound_to 6896
  152.2120  134.8490  160.0505 H   0  0  0  0  0  0  0  0  0  0  0  0  # atno 6908 bound_to 6896
  151.9371  133.3592  159.3988 H   0  0  0  0  0  0  0  0  0  0  0  0  # atno 6909 bound_to 6896
  145.7685  139.2832  143.1334 H   0  0  0  0  0  0  0  0  0  0  0  0  # atno 7974 bound_to 7965
  154.4328  140.1842  156.1105 H   0  0  0  0  0  0  0  0  0  0  0  0  # atno 8008 bound_to 7997
  156.0221  140.3339  155.7024 H   0  0  0  0  0  0  0  0  0  0  0  0  # atno 8009 bound_to 7997
  155.5961  140.0635  157.2736 H   0  0  0  0  0  0  0  0  0  0  0  0  # atno 8010 bound_to 7997
  140.7174  143.5469  150.9345 H   0  0  0  0  0  0  0  0  0  0  0  0  # atno 10167 bound_to 10162
  156.1266  130.4162  150.0344 H   0  0  0  0  0  0  0  0  0  0  0  0  # atno 10718 bound_to 10713
  153.1763  135.4509  154.9969 H   0  0  0  0  0  0  0  0  0  0  0  0  # atno 10763 bound_to 10752
  154.8000  135.3252  154.7575 H   0  0  0  0  0  0  0  0  0  0  0  0  # atno 10764 bound_to 10752
  153.8045  135.6960  153.4905 H   0  0  0  0  0  0  0  0  0  0  0  0  # atno 10765 bound_to 10752
  139.8945  134.8353  156.2717 H   0  0  0  0  0  0  0  0  0  0  0  0  # atno 11005 bound_to 11000
  146.0193  140.8363  142.9931 LP  0  0  0  0  0  0  0  0  0  0  0  0  # atno 17320 bound_to 7965
  144.6817  140.2605  143.7319 LP  0  0  0  0  0  0  0  0  0  0  0  0  # atno 17321 bound_to 7965
  139.9193  143.6626  152.3100 LP  0  0  0  0  0  0  0  0  0  0  0  0  # atno 17342 bound_to 10162
  139.7037  144.7631  151.1230 LP  0  0  0  0  0  0  0  0  0  0  0  0  # atno 17343 bound_to 10162
  156.8267  130.9378  151.3639 LP  0  0  0  0  0  0  0  0  0  0  0  0  # atno 17370 bound_to 10713
  157.6447  130.8834  149.9516 LP  0  0  0  0  0  0  0  0  0  0  0  0  # atno 17371 bound_to 10713
  141.0096  133.7103  156.1090 LP  0  0  0  0  0  0  0  0  0  0  0  0  # atno 17394 bound_to 11000
  140.7385  134.4176  157.5557 LP  0  0  0  0  0  0  0  0  0  0  0  0  # atno 17395 bound_to 11000

$$$$
