AV-unprocessed.smi:441|AV-procd|sdf|2582|dock4
  -GOLD-   2262022573D 1   1.00000     0.00000
 Structure written by MMmdl.
 34 35  0  0  0  0  0  0  0  0  1 V2000
  151.4888  140.5527  159.2052 O   0  0  0  0  0  0  0  0  0  0  0  0
  152.6372  140.2550  159.5375 C   0  0  0  0  0  0  0  0  0  0  0  0
  153.1064  138.7927  159.5246 C   0  0  0  0  0  0  0  0  0  0  0  0
  153.6424  138.3401  160.8171 N   0  0  0  0  0  0  0  0  0  0  0  0
  154.0978  139.3643  161.6290 N   0  0  0  0  0  0  0  0  0  0  0  0
  154.5729  139.0866  162.7940 C   0  0  0  0  0  0  0  0  0  0  0  0
  154.6540  137.7306  163.2899 C   0  0  0  0  0  0  0  0  0  0  0  0
  155.3015  137.4197  164.8619 Cl  0  0  0  0  0  0  0  0  0  0  0  0
  154.2107  136.7335  162.4837 C   0  0  0  0  0  0  0  0  0  0  0  0
  154.2771  135.0853  163.0063 Cl  0  0  0  0  0  0  0  0  0  0  0  0
  153.6622  137.0124  161.1491 C   0  0  0  0  0  0  0  0  0  0  0  0
  153.2515  136.1359  160.3873 O   0  0  0  0  0  0  0  0  0  0  0  0
  153.5409  141.1580  159.9478 N   0  0  0  0  0  0  0  0  0  0  0  0
  153.3139  142.5970  160.0429 C   0  0  0  0  0  0  0  0  0  0  0  0
  152.5423  142.9129  161.3383 C   0  0  0  0  0  0  0  0  0  0  0  0
  152.2262  144.4130  161.4541 C   0  0  0  0  0  0  0  0  0  0  0  0
  151.4587  144.9177  160.2223 C   0  0  0  0  0  0  0  0  0  0  0  0
  152.2259  144.6097  158.9270 C   0  0  0  0  0  0  0  0  0  0  0  0
  152.5433  143.1102  158.8085 C   0  0  0  0  0  0  0  0  0  0  0  0
  152.2820  138.1467  159.2164 H   0  0  0  0  0  0  0  0  0  0  0  0
  153.8638  138.6898  158.7455 H   0  0  0  0  0  0  0  0  0  0  0  0
  154.9402  139.8601  163.4687 H   0  0  0  0  0  0  0  0  0  0  0  0
  154.4581  140.8250  160.2071 H   0  0  0  0  0  0  0  0  0  0  0  0
  154.2787  143.1056  160.0929 H   0  0  0  0  0  0  0  0  0  0  0  0
  151.6106  142.3455  161.3617 H   0  0  0  0  0  0  0  0  0  0  0  0
  153.1211  142.5931  162.2057 H   0  0  0  0  0  0  0  0  0  0  0  0
  151.6455  144.6022  162.3572 H   0  0  0  0  0  0  0  0  0  0  0  0
  153.1553  144.9742  161.5609 H   0  0  0  0  0  0  0  0  0  0  0  0
  150.4755  144.4467  160.1861 H   0  0  0  0  0  0  0  0  0  0  0  0
  151.2850  145.9908  160.3059 H   0  0  0  0  0  0  0  0  0  0  0  0
  151.6448  144.9356  158.0641 H   0  0  0  0  0  0  0  0  0  0  0  0
  153.1546  145.1815  158.9078 H   0  0  0  0  0  0  0  0  0  0  0  0
  153.1216  142.9322  157.9012 H   0  0  0  0  0  0  0  0  0  0  0  0
  151.6128  142.5523  158.6953 H   0  0  0  0  0  0  0  0  0  0  0  0
  1  2  2  0  0  0  0
  2  3  1  0  0  0  0
  2 13  1  0  0  0  0
  3  4  1  0  0  0  0
  3 20  1  0  0  0  0
  3 21  1  0  0  0  0
  4 11  1  0  0  0  0
  4  5  1  0  0  0  0
  5  6  2  0  0  0  0
  6  7  1  0  0  0  0
  6 22  1  0  0  0  0
  7  8  1  0  0  0  0
  7  9  2  0  0  0  0
  9 10  1  0  0  0  0
  9 11  1  0  0  0  0
 11 12  2  0  0  0  0
 13 14  1  0  0  0  0
 13 23  1  0  0  0  0
 14 19  1  0  0  0  0
 14 15  1  0  0  0  0
 14 24  1  0  0  0  0
 15 16  1  0  0  0  0
 15 25  1  0  0  0  0
 15 26  1  0  0  0  0
 16 17  1  0  0  0  0
 16 27  1  0  0  0  0
 16 28  1  0  0  0  0
 17 18  1  0  0  0  0
 17 29  1  0  0  0  0
 17 30  1  0  0  0  0
 18 19  1  0  0  0  0
 18 31  1  0  0  0  0
 18 32  1  0  0  0  0
 19 33  1  0  0  0  0
 19 34  1  0  0  0  0
M  END
> <s_m_source_file>
AV-unprocessed.smi

> <i_m_source_file_index>
441

> <i_lp_mmshare_version>
43012

> <i_f3d_flags>
0

> <s_epik_input>
W0NIMl0xW0NIMl1bQ0gyXVtDSDJdW0NIMl1bQ0hdMVtOSF1DKD1PKVtDSDJdbjJuW2NIXWMoQ2wpYyhDbCljMj1P

> <s_epik_cmdline>
J2VwaWtfcHl0aG9uJywgJy1waCcsICc3LjAnLCAnLXRuJywgJzgnLCAnLW1hJywgJzIwMCcsICctbWV0YWxfYmluZGluZycsICctaW1hZScsICc8aW5maWxlLm1hZT4nLCAnLW9tYWUnLCAnPG91dGZpbGUubWFlPic=

> <r_lp_tautomer_probability>
1

> <r_epik_Ionization_Penalty>
1.90776e-08

> <r_epik_Ionization_Penalty_Charging>
3.07389e-11

> <r_epik_Ionization_Penalty_Neutral>
1.90469e-08

> <r_epik_State_Penalty>
-0

> <r_epik_Charging_Adjusted_Penalty>
3.07389e-11

> <i_epik_Tot_Q>
0

> <i_epik_Tot_abs_Q>
0

> <r_epik_Metal_State_Penalty>
-0

> <b_epik_Metal_Only>
0

> <s_lp_Force_Field>
OPLS_2005

> <r_lp_Energy>
22.7857

> <b_lp_Chiralities_Consistent>
1

> <s_lp_Variant>
AV-unprocessed.smi:441-1

> <Gold.Version>
5.8.1

> <Gold.Id.Protein>
6NUR|6NUR_protein|mol2

> <Gold.PLP.Fitness>
43.5805

> <Gold.PLP.PLP>
-41.7987

> <Gold.PLP.part.hbond>
-1.0000

> <Gold.PLP.part.metal>
0.0000

> <Gold.PLP.part.buried>
-5.7433

> <Gold.PLP.part.nonpolar>
-35.1920

> <Gold.PLP.part.repulsive>
0.0602

> <Gold.PLP.ligand.clash>
0.0000

> <Gold.PLP.ligand.torsion>
0.6119

> <Gold.PLP.Chemscore.Hbond>
1.0000

> <Gold.PLP.Chemscore.CHOScore>
0.0000

> <Gold.PLP.Chemscore.Metal>
0.0000

> <Gold.Chemscore.Hbonds>
donor molecule, donor type, donor heavy atom, donor atom, acceptor molecule, acceptor atom, score
      P1  H  6896  6909       L1    12  1.00

> <Gold.PLP.Chemscore.Internal.Correction>
0.0056

> <Gold.Rescore>
     Score         DG    S(hbond)    S(metal)    S(lipo)     H(rot)  DE(clash)    DE(int)     intcor
     16.26     -18.12       1.00        0.00     112.56       1.51       0.03       1.83       ----

> <Gold.Chemscore.Fitness>
16.2642

> <Gold.Chemscore.DG>
-18.1187

> <Gold.Chemscore.ZeroCoef>
-5.4800

> <Gold.Chemscore.Hbond>
1.0000

> <Gold.Chemscore.Metal>
0.0000

> <Gold.Chemscore.Lipo>
112.5551

> <Gold.Chemscore.Internal_Hbond>
0.0000

> <Gold.Chemscore.DEClash>
0.0275

> <Gold.Chemscore.DEInternal>
1.8270

> <Gold.Chemscore.Rot>
1.5118

> <Gold.Chemscore.Internal.Correction>
   9.000000E+99

> <Gold.Chemscore.Hbonds>
donor molecule, donor type, donor heavy atom, donor atom, acceptor molecule, acceptor atom, score
      P1  H  6896  6909       L1    12  0.99

> <Gold.Chemscore.Hbond.Weighted>
-3.3400

> <Gold.Chemscore.Metal.Weighted>
-0.0000

> <Gold.Chemscore.Lipo.Weighted>
-13.1689

> <Gold.Chemscore.Internal_Hbond.Weighted>
0.0000

> <Gold.Chemscore.DEClash.Weighted>
0.0275

> <Gold.Chemscore.DEInternal.Weighted>
1.8270

> <Gold.Chemscore.Rot.Weighted>
3.8702

> <Gold.Chemscore.Internal.Correction.Weighted>
   9.000000E+99

> <Gold.Protein.RotatedTorsions>
[ 6907 6896 6895 6894 ] final  150.62 input  -60.11 | X-H torsion
[ 7974 7965 7964 7962 ] final  -47.70 input  175.53 | X-H torsion
[ 8008 7997 7996 7995 ] final  118.43 input   59.86 | X-H torsion
[ 10167 10162 10161 10158 ] final   78.14 input  -65.29 | X-H torsion
[ 10718 10713 10712 10709 ] final -127.65 input   66.30 | X-H torsion
[ 10763 10752 10751 10750 ] final   83.82 input  -60.55 | X-H torsion
[ 11005 11000 10999 10996 ] final -172.35 input  -57.11 | X-H torsion

> <Gold.Protein.ActiveResidues>
 VAL166  LYS551  ARG553  GLY616  TRP617  ASP618  TYR619  PRO620  LYS621  CYS622 
 ASP623  PHE694  ASN695  SER759  ASP760  ASP761  ALA762  ILE779  LEU786  VAL792 
 PHE793  MET794  SER795  GLU796  ALA797  LYS798  CYS799  TRP800  GLU811  SER814 

> <Gold.Protein.RotatedAtoms>
  152.1119  133.4305  159.4634 H   0  0  0  0  0  0  0  0  0  0  0  0  # atno 6907 bound_to 6896
  150.6867  134.2638  159.4569 H   0  0  0  0  0  0  0  0  0  0  0  0  # atno 6908 bound_to 6896
  152.0508  134.9654  160.0625 H   0  0  0  0  0  0  0  0  0  0  0  0  # atno 6909 bound_to 6896
  145.9588  140.7499  142.9467 H   0  0  0  0  0  0  0  0  0  0  0  0  # atno 7974 bound_to 7965
  156.2546  140.2875  156.0834 H   0  0  0  0  0  0  0  0  0  0  0  0  # atno 8008 bound_to 7997
  155.1542  140.0398  157.2845 H   0  0  0  0  0  0  0  0  0  0  0  0  # atno 8009 bound_to 7997
  154.6439  140.2529  155.7297 H   0  0  0  0  0  0  0  0  0  0  0  0  # atno 8010 bound_to 7997
  139.9741  144.5873  150.7959 H   0  0  0  0  0  0  0  0  0  0  0  0  # atno 10167 bound_to 10162
  156.1877  130.6774  151.0385 H   0  0  0  0  0  0  0  0  0  0  0  0  # atno 10718 bound_to 10713
  153.1325  135.4677  154.9371 H   0  0  0  0  0  0  0  0  0  0  0  0  # atno 10763 bound_to 10752
  154.7677  135.3149  154.8256 H   0  0  0  0  0  0  0  0  0  0  0  0  # atno 10764 bound_to 10752
  153.8795  135.6895  153.4822 H   0  0  0  0  0  0  0  0  0  0  0  0  # atno 10765 bound_to 10752
  140.4980  134.5921  157.4978 H   0  0  0  0  0  0  0  0  0  0  0  0  # atno 11005 bound_to 11000
  144.6810  140.2557  143.7326 LP  0  0  0  0  0  0  0  0  0  0  0  0  # atno 17320 bound_to 7965
  145.8068  139.1987  143.2016 LP  0  0  0  0  0  0  0  0  0  0  0  0  # atno 17321 bound_to 7965
  140.7512  143.2968  151.3184 LP  0  0  0  0  0  0  0  0  0  0  0  0  # atno 17342 bound_to 10162
  139.6459  144.0453  152.2590 LP  0  0  0  0  0  0  0  0  0  0  0  0  # atno 17343 bound_to 10162
  157.6909  131.0810  150.7110 LP  0  0  0  0  0  0  0  0  0  0  0  0  # atno 17370 bound_to 10713
  156.7167  130.4668  149.5533 LP  0  0  0  0  0  0  0  0  0  0  0  0  # atno 17371 bound_to 10713
  139.9730  134.7261  156.0004 LP  0  0  0  0  0  0  0  0  0  0  0  0  # atno 17394 bound_to 11000
  141.1450  133.6557  156.3841 LP  0  0  0  0  0  0  0  0  0  0  0  0  # atno 17395 bound_to 11000

$$$$
