AV-unprocessed.smi:837|AV-procd|sdf|3892|dock4
  -GOLD-   22720 1353D 1   1.00000     0.00000
 Structure written by MMmdl.
 49 51  0  0  0  0  0  0  0  0  1 V2000
  152.2398  139.3488  158.8210 C   0  0  0  0  0  0  0  0  0  0  0  0
  152.2810  140.7922  158.2735 C   0  0  2  0  0  0  0  0  0  0  0  0
  152.1977  141.8021  159.4387 C   0  0  0  0  0  0  0  0  0  0  0  0
  152.2970  143.2559  158.9510 C   0  0  0  0  0  0  0  0  0  0  0  0
  151.2214  143.5668  157.9011 C   0  0  0  0  0  0  0  0  0  0  0  0
  151.3037  142.5822  156.7242 C   0  0  0  0  0  0  0  0  0  0  0  0
  151.2023  141.1103  157.1912 C   0  0  2  0  0  0  0  0  0  0  0  0
  149.8575  140.7978  157.6462 N   0  0  0  0  0  0  0  0  0  0  0  0
  149.2565  139.8643  156.8974 C   0  0  0  0  0  0  0  0  0  0  0  0
  148.1253  139.4219  157.0903 O   0  0  0  0  0  0  0  0  0  0  0  0
  150.1033  139.4983  155.9182 N   0  0  0  0  0  0  0  0  0  0  0  0
  149.8268  138.4561  154.9222 C   0  0  0  0  0  0  0  0  0  0  0  0
  148.3506  138.4235  154.5043 C   0  0  0  0  0  0  0  0  0  0  0  0
  147.5081  137.8775  155.2176 O   0  0  0  0  0  0  0  0  0  0  0  0
  148.0519  139.0241  153.3429 N   0  0  0  0  0  0  0  0  0  0  0  0
  146.7206  139.0917  152.7473 C   0  0  0  0  0  0  0  0  0  0  0  0
  146.4762  138.0011  151.6844 C   0  0  0  0  0  0  0  0  0  0  0  0
  145.4791  136.9400  152.1177 C   0  0  0  0  0  0  0  0  0  0  0  0
  145.5028  135.6489  151.5508 C   0  0  0  0  0  0  0  0  0  0  0  0
  144.5519  134.7025  151.9775 C   0  0  0  0  0  0  0  0  0  0  0  0
  143.6155  135.0883  152.9571 C   0  0  0  0  0  0  0  0  0  0  0  0
  143.5850  136.3206  153.5093 N   0  0  0  0  0  0  0  0  0  0  0  0
  144.5008  137.2222  153.0943 C   0  0  0  0  0  0  0  0  0  0  0  0
  151.2624  140.1660  155.9978 C   0  0  0  0  0  0  0  0  0  0  0  0
  152.2377  140.0533  155.2550 O   0  0  0  0  0  0  0  0  0  0  0  0
  151.3002  139.1395  159.3324 H   0  0  0  0  0  0  0  0  0  0  0  0
  153.0445  139.1830  159.5377 H   0  0  0  0  0  0  0  0  0  0  0  0
  152.3600  138.6075  158.0316 H   0  0  0  0  0  0  0  0  0  0  0  0
  153.2592  140.9229  157.8071 H   0  0  0  0  0  0  0  0  0  0  0  0
  151.2617  141.6653  159.9819 H   0  0  0  0  0  0  0  0  0  0  0  0
  152.9967  141.6090  160.1555 H   0  0  0  0  0  0  0  0  0  0  0  0
  152.1982  143.9382  159.7959 H   0  0  0  0  0  0  0  0  0  0  0  0
  153.2858  143.4322  158.5254 H   0  0  0  0  0  0  0  0  0  0  0  0
  150.2330  143.5170  158.3595 H   0  0  0  0  0  0  0  0  0  0  0  0
  151.3417  144.5880  157.5388 H   0  0  0  0  0  0  0  0  0  0  0  0
  150.5192  142.8117  156.0009 H   0  0  0  0  0  0  0  0  0  0  0  0
  152.2498  142.7375  156.2029 H   0  0  0  0  0  0  0  0  0  0  0  0
  149.4384  141.2360  158.4534 H   0  0  0  0  0  0  0  0  0  0  0  0
  150.4352  138.6102  154.0297 H   0  0  0  0  0  0  0  0  0  0  0  0
  150.1216  137.4826  155.3191 H   0  0  0  0  0  0  0  0  0  0  0  0
  148.8056  139.4489  152.8218 H   0  0  0  0  0  0  0  0  0  0  0  0
  145.9572  139.0437  153.5251 H   0  0  0  0  0  0  0  0  0  0  0  0
  146.6260  140.0740  152.2841 H   0  0  0  0  0  0  0  0  0  0  0  0
  146.1230  138.4604  150.7602 H   0  0  0  0  0  0  0  0  0  0  0  0
  147.4199  137.5157  151.4338 H   0  0  0  0  0  0  0  0  0  0  0  0
  146.2300  135.3885  150.7961 H   0  0  0  0  0  0  0  0  0  0  0  0
  144.5382  133.7070  151.5594 H   0  0  0  0  0  0  0  0  0  0  0  0
  142.8708  134.3885  153.3061 H   0  0  0  0  0  0  0  0  0  0  0  0
  144.4487  138.1992  153.5520 H   0  0  0  0  0  0  0  0  0  0  0  0
  1  2  1  0  0  0  0
  1 26  1  0  0  0  0
  1 27  1  0  0  0  0
  1 28  1  0  0  0  0
  2  7  1  0  0  0  0
  2  3  1  0  0  0  0
  2 29  1  0  0  0  0
  3  4  1  0  0  0  0
  3 30  1  0  0  0  0
  3 31  1  0  0  0  0
  4  5  1  0  0  0  0
  4 32  1  0  0  0  0
  4 33  1  0  0  0  0
  5  6  1  0  0  0  0
  5 34  1  0  0  0  0
  5 35  1  0  0  0  0
  6  7  1  0  0  0  0
  6 36  1  0  0  0  0
  6 37  1  0  0  0  0
  7 24  1  0  0  0  0
  7  8  1  0  0  0  0
  8  9  1  0  0  0  0
  8 38  1  0  0  0  0
  9 10  2  0  0  0  0
  9 11  1  0  0  0  0
 11 12  1  0  0  0  0
 11 24  1  0  0  0  0
 12 13  1  0  0  0  0
 12 39  1  0  0  0  0
 12 40  1  0  0  0  0
 13 14  2  0  0  0  0
 13 15  1  0  0  0  0
 15 16  1  0  0  0  0
 15 41  1  0  0  0  0
 16 17  1  0  0  0  0
 16 42  1  0  0  0  0
 16 43  1  0  0  0  0
 17 18  1  0  0  0  0
 17 44  1  0  0  0  0
 17 45  1  0  0  0  0
 18 23  1  0  0  0  0
 18 19  2  0  0  0  0
 19 20  1  0  0  0  0
 19 46  1  0  0  0  0
 20 21  2  0  0  0  0
 20 47  1  0  0  0  0
 21 22  1  0  0  0  0
 21 48  1  0  0  0  0
 22 23  2  0  0  0  0
 23 49  1  0  0  0  0
 24 25  2  0  0  0  0
M  END
> <s_m_source_file>
AV-unprocessed.smi

> <i_m_source_file_index>
837

> <i_lp_mmshare_version>
43012

> <i_f3d_flags>
0

> <s_epik_input>
W0NIMl0xW0NIMl1bQ0gyXVtDSDJdW0NAQEhdKFtDSDNdKVtDQEBdMTJbTkhdQyg9TylOKEMyPU8pW0NIMl1DKD1PKVtOSF1bQ0gyXVtDSDJdYzNbY0hdW2NIXVtjSF1uW2NIXTM=

> <s_epik_cmdline>
J2VwaWtfcHl0aG9uJywgJy1waCcsICc3LjAnLCAnLXRuJywgJzgnLCAnLW1hJywgJzIwMCcsICctbWV0YWxfYmluZGluZycsICctaW1hZScsICc8aW5maWxlLm1hZT4nLCAnLW9tYWUnLCAnPG91dGZpbGUubWFlPic=

> <r_lp_tautomer_probability>
1

> <r_epik_Ionization_Penalty>
0.0127837

> <r_epik_Ionization_Penalty_Charging>
0

> <r_epik_Ionization_Penalty_Neutral>
0.0127837

> <r_epik_State_Penalty>
0.00987657

> <r_epik_Charging_Adjusted_Penalty>
0.00987657

> <i_epik_Tot_Q>
0

> <i_epik_Tot_abs_Q>
0

> <r_epik_Metal_State_Penalty>
0.0309865

> <b_epik_Metal_Only>
0

> <s_lp_Force_Field>
OPLS_2005

> <r_lp_Energy>
21.3574

> <b_lp_Chiralities_Consistent>
1

> <s_lp_Variant>
AV-unprocessed.smi:837-1

> <Gold.Version>
5.8.1

> <Gold.Id.Protein>
6NUR|6NUR_protein|mol2

> <Gold.PLP.Fitness>
46.1927

> <Gold.PLP.PLP>
-39.9789

> <Gold.PLP.part.hbond>
-2.5693

> <Gold.PLP.part.metal>
0.0000

> <Gold.PLP.part.buried>
-1.9776

> <Gold.PLP.part.nonpolar>
-36.8460

> <Gold.PLP.part.repulsive>
0.3217

> <Gold.PLP.ligand.clash>
0.0000

> <Gold.PLP.ligand.torsion>
1.4939

> <Gold.PLP.Chemscore.Hbond>
2.0545

> <Gold.PLP.Chemscore.CHOScore>
1.0000

> <Gold.PLP.Chemscore.Metal>
0.0000

> <Gold.Chemscore.Hbonds>
donor molecule, donor type, donor heavy atom, donor atom, acceptor molecule, acceptor atom, score
      L1  H    15    41       P1  7957  1.00
      P1  H  7989  7998       L1    25  0.70
      P1  H  7997  8010       L1    25  0.36
      L1  C    23    49       P1 10175  0.76

> <Gold.PLP.Chemscore.Internal.Correction>
0.0382

> <Gold.Rescore>
     Score         DG    S(hbond)    S(metal)    S(lipo)     H(rot)  DE(clash)    DE(int)     intcor
     13.70     -18.75       1.71        0.00     105.32       1.86       0.32       4.73       ----

> <Gold.Chemscore.Fitness>
13.7050

> <Gold.Chemscore.DG>
-18.7501

> <Gold.Chemscore.ZeroCoef>
-5.4800

> <Gold.Chemscore.Hbond>
1.7057

> <Gold.Chemscore.Metal>
0.0000

> <Gold.Chemscore.Lipo>
105.3222

> <Gold.Chemscore.Internal_Hbond>
0.0000

> <Gold.Chemscore.DEClash>
0.3196

> <Gold.Chemscore.DEInternal>
4.7255

> <Gold.Chemscore.Rot>
1.8553

> <Gold.Chemscore.Internal.Correction>
   9.000000E+99

> <Gold.Chemscore.Hbonds>
donor molecule, donor type, donor heavy atom, donor atom, acceptor molecule, acceptor atom, score
      L1  H    15    41       P1  7957  0.95
      P1  H  7989  7998       L1    25  0.37
      P1  H  7997  8010       L1    25  0.35

> <Gold.Chemscore.Hbond.Weighted>
-5.6971

> <Gold.Chemscore.Metal.Weighted>
-0.0000

> <Gold.Chemscore.Lipo.Weighted>
-12.3227

> <Gold.Chemscore.Internal_Hbond.Weighted>
0.0000

> <Gold.Chemscore.DEClash.Weighted>
0.3196

> <Gold.Chemscore.DEInternal.Weighted>
4.7255

> <Gold.Chemscore.Rot.Weighted>
4.7497

> <Gold.Chemscore.Internal.Correction.Weighted>
   9.000000E+99

> <Gold.Protein.RotatedTorsions>
[ 6907 6896 6895 6894 ] final -135.46 input  -60.11 | X-H torsion
[ 7974 7965 7964 7962 ] final  121.14 input  175.53 | X-H torsion
[ 8008 7997 7996 7995 ] final   96.67 input   59.86 | X-H torsion
[ 10167 10162 10161 10158 ] final  144.05 input  -65.29 | X-H torsion
[ 10718 10713 10712 10709 ] final  -30.30 input   66.30 | X-H torsion
[ 10763 10752 10751 10750 ] final    8.98 input  -60.55 | X-H torsion
[ 11005 11000 10999 10996 ] final   -3.47 input  -57.11 | X-H torsion

> <Gold.Protein.ActiveResidues>
 VAL166  LYS551  ARG553  GLY616  TRP617  ASP618  TYR619  PRO620  LYS621  CYS622 
 ASP623  PHE694  ASN695  SER759  ASP760  ASP761  ALA762  ILE779  LEU786  VAL792 
 PHE793  MET794  SER795  GLU796  ALA797  LYS798  CYS799  TRP800  GLU811  SER814 

> <Gold.Protein.RotatedAtoms>
  150.9981  133.6083  159.2698 H   0  0  0  0  0  0  0  0  0  0  0  0  # atno 6907 bound_to 6896
  151.3279  135.0833  159.9338 H   0  0  0  0  0  0  0  0  0  0  0  0  # atno 6908 bound_to 6896
  152.5266  133.9616  159.7774 H   0  0  0  0  0  0  0  0  0  0  0  0  # atno 6909 bound_to 6896
  145.1228  139.3378  143.4705 H   0  0  0  0  0  0  0  0  0  0  0  0  # atno 7974 bound_to 7965
  156.0820  140.3269  155.7706 H   0  0  0  0  0  0  0  0  0  0  0  0  # atno 8008 bound_to 7997
  155.5137  140.0579  157.2936 H   0  0  0  0  0  0  0  0  0  0  0  0  # atno 8009 bound_to 7997
  154.4588  140.1956  156.0321 H   0  0  0  0  0  0  0  0  0  0  0  0  # atno 8010 bound_to 7997
  139.4955  144.5999  151.6504 H   0  0  0  0  0  0  0  0  0  0  0  0  # atno 10167 bound_to 10162
  156.4016  130.4391  149.7318 H   0  0  0  0  0  0  0  0  0  0  0  0  # atno 10718 bound_to 10713
  153.2190  135.6879  153.8023 H   0  0  0  0  0  0  0  0  0  0  0  0  # atno 10763 bound_to 10752
  153.7228  135.3264  155.3271 H   0  0  0  0  0  0  0  0  0  0  0  0  # atno 10764 bound_to 10752
  154.8260  135.4617  154.1029 H   0  0  0  0  0  0  0  0  0  0  0  0  # atno 10765 bound_to 10752
  140.6697  133.9247  155.8487 H   0  0  0  0  0  0  0  0  0  0  0  0  # atno 11005 bound_to 11000
  146.3520  140.1195  142.8601 LP  0  0  0  0  0  0  0  0  0  0  0  0  # atno 17320 bound_to 7965
  145.0721  140.9163  143.4876 LP  0  0  0  0  0  0  0  0  0  0  0  0  # atno 17321 bound_to 7965
  140.5646  144.0212  150.6186 LP  0  0  0  0  0  0  0  0  0  0  0  0  # atno 17342 bound_to 10162
  140.3309  143.3078  152.0688 LP  0  0  0  0  0  0  0  0  0  0  0  0  # atno 17343 bound_to 10162
  156.4332  130.7825  151.2845 LP  0  0  0  0  0  0  0  0  0  0  0  0  # atno 17370 bound_to 10713
  157.7504  131.0147  150.3476 LP  0  0  0  0  0  0  0  0  0  0  0  0  # atno 17371 bound_to 10713
  141.0401  134.0633  157.3912 LP  0  0  0  0  0  0  0  0  0  0  0  0  # atno 17394 bound_to 11000
  139.8985  135.0155  156.7154 LP  0  0  0  0  0  0  0  0  0  0  0  0  # atno 17395 bound_to 11000

$$$$
