AV-unprocessed.smi:2328|AV-procd|sdf|9300|dock2
  -GOLD-   2272012523D 1   1.00000     0.00000
 Structure written by MMmdl.
 40 40  0  0  0  0  0  0  0  0  1 V2000
  145.6796  136.6805  151.4585 C   0  0  0  0  0  0  0  0  0  0  0  0
  145.3527  135.3027  150.8539 C   0  0  0  0  0  0  0  0  0  0  0  0
  145.5416  134.0686  151.8010 C   0  0  1  0  0  0  0  0  0  0  0  0
  146.9771  133.8878  152.1136 N   0  0  0  0  0  0  0  0  0  0  0  0
  147.6766  132.9079  152.7245 C   0  0  0  0  0  0  0  0  0  0  0  0
  147.0861  131.9130  153.1418 O   0  0  0  0  0  0  0  0  0  0  0  0
  149.2021  133.0078  152.9065 C   0  0  0  0  0  0  0  0  0  0  0  0
  149.5650  133.5705  154.2705 C   0  0  0  0  0  0  0  0  0  0  0  0
  150.3604  132.8346  155.1732 C   0  0  0  0  0  0  0  0  0  0  0  0
  150.6636  133.4005  156.4265 C   0  0  0  0  0  0  0  0  0  0  0  0
  150.1581  134.6819  156.7238 C   0  0  0  0  0  0  0  0  0  0  0  0
  149.3975  135.3966  155.8667 N   0  0  0  0  0  0  0  0  0  0  0  0
  149.1110  134.8465  154.6674 C   0  0  0  0  0  0  0  0  0  0  0  0
  144.6967  134.2698  153.0948 C   0  0  0  0  0  0  0  0  0  0  0  0
  145.3138  134.2182  154.2814 N   0  0  0  0  0  0  0  0  0  0  0  0
  143.4864  134.4776  153.0259 O   0  0  0  0  0  0  0  0  0  0  0  0
  145.0815  132.7464  151.0772 C   0  0  0  0  0  0  0  0  0  0  0  0
  145.8537  132.3940  149.7858 C   0  0  0  0  0  0  0  0  0  0  0  0
  143.5641  132.6756  150.7837 C   0  0  0  0  0  0  0  0  0  0  0  0
  145.4812  137.4689  150.7323 H   0  0  0  0  0  0  0  0  0  0  0  0
  146.7288  136.7620  151.7391 H   0  0  0  0  0  0  0  0  0  0  0  0
  145.0754  136.8946  152.3397 H   0  0  0  0  0  0  0  0  0  0  0  0
  144.3320  135.3412  150.4782 H   0  0  0  0  0  0  0  0  0  0  0  0
  145.9486  135.1839  149.9498 H   0  0  0  0  0  0  0  0  0  0  0  0
  147.5448  134.6701  151.8223 H   0  0  0  0  0  0  0  0  0  0  0  0
  149.6384  132.0152  152.7920 H   0  0  0  0  0  0  0  0  0  0  0  0
  149.6633  133.6475  152.1580 H   0  0  0  0  0  0  0  0  0  0  0  0
  150.7291  131.8531  154.9135 H   0  0  0  0  0  0  0  0  0  0  0  0
  151.2679  132.8647  157.1436 H   0  0  0  0  0  0  0  0  0  0  0  0
  150.3711  135.1453  157.6757 H   0  0  0  0  0  0  0  0  0  0  0  0
  148.4990  135.4414  154.0054 H   0  0  0  0  0  0  0  0  0  0  0  0
  144.7823  134.3480  155.1301 H   0  0  0  0  0  0  0  0  0  0  0  0
  146.3088  134.0513  154.3233 H   0  0  0  0  0  0  0  0  0  0  0  0
  145.2675  131.9242  151.7682 H   0  0  0  0  0  0  0  0  0  0  0  0
  145.7470  133.1612  149.0192 H   0  0  0  0  0  0  0  0  0  0  0  0
  145.4824  131.4624  149.3580 H   0  0  0  0  0  0  0  0  0  0  0  0
  146.9166  132.2425  149.9677 H   0  0  0  0  0  0  0  0  0  0  0  0
  143.2605  133.4064  150.0342 H   0  0  0  0  0  0  0  0  0  0  0  0
  142.9598  132.8402  151.6754 H   0  0  0  0  0  0  0  0  0  0  0  0
  143.2913  131.6924  150.3991 H   0  0  0  0  0  0  0  0  0  0  0  0
  1  2  1  0  0  0  0
  1 20  1  0  0  0  0
  1 21  1  0  0  0  0
  1 22  1  0  0  0  0
  2  3  1  0  0  0  0
  2 23  1  0  0  0  0
  2 24  1  0  0  0  0
  3  4  1  0  0  0  0
  3 14  1  0  0  0  0
  3 17  1  0  0  0  0
  4  5  1  0  0  0  0
  4 25  1  0  0  0  0
  5  6  2  0  0  0  0
  5  7  1  0  0  0  0
  7  8  1  0  0  0  0
  7 26  1  0  0  0  0
  7 27  1  0  0  0  0
  8 13  1  0  0  0  0
  8  9  2  0  0  0  0
  9 10  1  0  0  0  0
  9 28  1  0  0  0  0
 10 11  2  0  0  0  0
 10 29  1  0  0  0  0
 11 12  1  0  0  0  0
 11 30  1  0  0  0  0
 12 13  2  0  0  0  0
 13 31  1  0  0  0  0
 14 15  1  0  0  0  0
 14 16  2  0  0  0  0
 15 32  1  0  0  0  0
 15 33  1  0  0  0  0
 17 18  1  0  0  0  0
 17 19  1  0  0  0  0
 17 34  1  0  0  0  0
 18 35  1  0  0  0  0
 18 36  1  0  0  0  0
 18 37  1  0  0  0  0
 19 38  1  0  0  0  0
 19 39  1  0  0  0  0
 19 40  1  0  0  0  0
M  END
> <s_m_source_file>
AV-unprocessed.smi

> <i_m_source_file_index>
2328

> <i_lp_mmshare_version>
43012

> <i_f3d_flags>
0

> <s_epik_input>
W0NIM11bQ0gyXVtDQEBdKEMoPU8pW05IMl0pKFtDSF0oW0NIM10pW0NIM10pW05IXUMoPU8pW0NIMl1jMVtjSF1bY0hdW2NIXW5bY0hdMQ==

> <s_epik_cmdline>
J2VwaWtfcHl0aG9uJywgJy1waCcsICc3LjAnLCAnLXRuJywgJzgnLCAnLW1hJywgJzIwMCcsICctbWV0YWxfYmluZGluZycsICctaW1hZScsICc8aW5maWxlLm1hZT4nLCAnLW9tYWUnLCAnPG91dGZpbGUubWFlPic=

> <r_epik_Ionization_Penalty>
0.00378489

> <r_epik_Ionization_Penalty_Charging>
0

> <r_epik_Ionization_Penalty_Neutral>
0.00378489

> <r_epik_State_Penalty>
0.00269972

> <r_epik_Charging_Adjusted_Penalty>
0.00269972

> <i_epik_Tot_Q>
0

> <i_epik_Tot_abs_Q>
0

> <r_epik_Metal_State_Penalty>
-0

> <b_epik_Metal_Only>
0

> <s_lp_Force_Field>
OPLS_2005

> <r_lp_Energy>
14.3821

> <b_lp_Chiralities_Consistent>
1

> <s_lp_Variant>
AV-unprocessed.smi:2328-1

> <Gold.Version>
5.8.1

> <Gold.Id.Protein>
6NUR|6NUR_protein|mol2

> <Gold.PLP.Fitness>
36.0907

> <Gold.PLP.PLP>
-30.9757

> <Gold.PLP.part.hbond>
-1.0000

> <Gold.PLP.part.metal>
0.0000

> <Gold.PLP.part.buried>
-2.9337

> <Gold.PLP.part.nonpolar>
-26.7504

> <Gold.PLP.part.repulsive>
0.3087

> <Gold.PLP.ligand.clash>
0.0000

> <Gold.PLP.ligand.torsion>
0.5631

> <Gold.PLP.Chemscore.Hbond>
0.9913

> <Gold.PLP.Chemscore.CHOScore>
1.0000

> <Gold.PLP.Chemscore.Metal>
0.0000

> <Gold.Chemscore.Hbonds>
donor molecule, donor type, donor heavy atom, donor atom, acceptor molecule, acceptor atom, score
      L1  H     4    25       P1  7948  0.94
      L1  C    13    31       P1  7948  0.98

> <Gold.PLP.Chemscore.Internal.Correction>
0.2675

> <Gold.Rescore>
     Score         DG    S(hbond)    S(metal)    S(lipo)     H(rot)  DE(clash)    DE(int)     intcor
      7.94     -10.89       0.90        0.00      70.67       2.29       0.13       2.82       ----

> <Gold.Chemscore.Fitness>
7.9431

> <Gold.Chemscore.DG>
-10.8875

> <Gold.Chemscore.ZeroCoef>
-5.4800

> <Gold.Chemscore.Hbond>
0.9004

> <Gold.Chemscore.Metal>
0.0000

> <Gold.Chemscore.Lipo>
70.6661

> <Gold.Chemscore.Internal_Hbond>
0.0000

> <Gold.Chemscore.DEClash>
0.1294

> <Gold.Chemscore.DEInternal>
2.8151

> <Gold.Chemscore.Rot>
2.2921

> <Gold.Chemscore.Internal.Correction>
   9.000000E+99

> <Gold.Chemscore.Hbonds>
donor molecule, donor type, donor heavy atom, donor atom, acceptor molecule, acceptor atom, score
      L1  H     4    25       P1  7948  0.50

> <Gold.Chemscore.Hbond.Weighted>
-3.0073

> <Gold.Chemscore.Metal.Weighted>
-0.0000

> <Gold.Chemscore.Lipo.Weighted>
-8.2679

> <Gold.Chemscore.Internal_Hbond.Weighted>
0.0000

> <Gold.Chemscore.DEClash.Weighted>
0.1294

> <Gold.Chemscore.DEInternal.Weighted>
2.8151

> <Gold.Chemscore.Rot.Weighted>
5.8677

> <Gold.Chemscore.Internal.Correction.Weighted>
   9.000000E+99

> <Gold.Protein.RotatedTorsions>
[ 6907 6896 6895 6894 ] final  -45.64 input  -60.11 | X-H torsion
[ 7974 7965 7964 7962 ] final   34.99 input  175.53 | X-H torsion
[ 8008 7997 7996 7995 ] final  127.74 input   59.86 | X-H torsion
[ 10167 10162 10161 10158 ] final  -35.85 input  -65.29 | X-H torsion
[ 10718 10713 10712 10709 ] final  -83.34 input   66.30 | X-H torsion
[ 10763 10752 10751 10750 ] final  102.23 input  -60.55 | X-H torsion
[ 11005 11000 10999 10996 ] final -120.69 input  -57.11 | X-H torsion

> <Gold.Protein.ActiveResidues>
 VAL166  LYS551  ARG553  GLY616  TRP617  ASP618  TYR619  PRO620  LYS621  CYS622 
 ASP623  PHE694  ASN695  SER759  ASP760  ASP761  ALA762  ILE779  LEU786  VAL792 
 PHE793  MET794  SER795  GLU796  ALA797  LYS798  CYS799  TRP800  GLU811  SER814 

> <Gold.Protein.RotatedAtoms>
  150.9198  134.8615  159.7480 H   0  0  0  0  0  0  0  0  0  0  0  0  # atno 6907 bound_to 6896
  152.4987  134.4235  159.9498 H   0  0  0  0  0  0  0  0  0  0  0  0  # atno 6908 bound_to 6896
  151.4270  133.3642  159.2799 H   0  0  0  0  0  0  0  0  0  0  0  0  # atno 6909 bound_to 6896
  146.1314  139.6198  142.9224 H   0  0  0  0  0  0  0  0  0  0  0  0  # atno 7974 bound_to 7965
  156.2898  140.2661  156.2322 H   0  0  0  0  0  0  0  0  0  0  0  0  # atno 8008 bound_to 7997
  155.0061  140.0387  157.2398 H   0  0  0  0  0  0  0  0  0  0  0  0  # atno 8009 bound_to 7997
  154.7559  140.2751  155.6259 H   0  0  0  0  0  0  0  0  0  0  0  0  # atno 8010 bound_to 7997
  140.7156  143.3449  151.2279 H   0  0  0  0  0  0  0  0  0  0  0  0  # atno 10167 bound_to 10162
  156.0020  130.4663  150.4243 H   0  0  0  0  0  0  0  0  0  0  0  0  # atno 10718 bound_to 10713
  153.3369  135.4017  155.1540 H   0  0  0  0  0  0  0  0  0  0  0  0  # atno 10763 bound_to 10752
  154.8635  135.3624  154.5397 H   0  0  0  0  0  0  0  0  0  0  0  0  # atno 10764 bound_to 10752
  153.5840  135.7076  153.5511 H   0  0  0  0  0  0  0  0  0  0  0  0  # atno 10765 bound_to 10752
  141.0125  134.0243  157.3394 H   0  0  0  0  0  0  0  0  0  0  0  0  # atno 11005 bound_to 11000
  145.5252  141.0430  143.2413 LP  0  0  0  0  0  0  0  0  0  0  0  0  # atno 17320 bound_to 7965
  144.7694  139.6769  143.7201 LP  0  0  0  0  0  0  0  0  0  0  0  0  # atno 17321 bound_to 7965
  139.6965  143.9604  152.2885 LP  0  0  0  0  0  0  0  0  0  0  0  0  # atno 17342 bound_to 10162
  139.9283  144.6757  150.8390 LP  0  0  0  0  0  0  0  0  0  0  0  0  # atno 17343 bound_to 10162
  157.2297  131.0501  151.2499 LP  0  0  0  0  0  0  0  0  0  0  0  0  # atno 17370 bound_to 10713
  157.3723  130.7187  149.6573 LP  0  0  0  0  0  0  0  0  0  0  0  0  # atno 17371 bound_to 10713
  139.9098  135.0188  156.7643 LP  0  0  0  0  0  0  0  0  0  0  0  0  # atno 17394 bound_to 11000
  140.6709  133.9560  155.7856 LP  0  0  0  0  0  0  0  0  0  0  0  0  # atno 17395 bound_to 11000

$$$$
