#       Name:                AV-unprocessed.smi:1217
#       Creating user name   scv26
#       Creation time:       Fri Mar 27 04:15:52 2020


#       File generated by GOLD software.
#

@<TRIPOS>MOLECULE
AV-unprocessed.smi:1217
    39    40     1
SMALL
NO_CHARGES


@<TRIPOS>ATOM
      1 ****        -2.2090  -1.3580   2.0116 C.3            1 S1                 0.0000
      2 ****        -1.6903  -0.5803   0.7924 C.3            1 S1                 0.0000
      3 ****        -0.2352  -0.4828   0.8878 N.am           1 S1                 0.0000
      4 ****         0.4933   0.6145   0.6329 C.2            1 S1                 0.0000
      5 ****         0.0068   1.6903   0.2834 O.2            1 S1                 0.0000
      6 ****         1.8054   0.3750   0.8037 N.am           1 S1                 0.0000
      7 ****         2.8876   1.2870   0.6817 C.ar           1 S1                 0.0000
      8 ****         4.1696   0.7234   0.8723 C.ar           1 S1                 0.0000
      9 ****         5.3092   1.5456   0.7783 C.ar           1 S1                 0.0000
     10 ****         5.1374   2.9129   0.4989 C.ar           1 S1                 0.0000
     11 ****         3.8268   3.3942   0.3240 C.ar           1 S1                 0.0000
     12 ****         2.7334   2.6076   0.4122 N.ar           1 S1                 0.0000
     13 ****        -2.0832  -1.2518  -0.5392 C.3            1 S1                 0.0000
     14 ****        -3.5894  -1.3285  -0.7974 C.3            1 S1                 0.0000
     15 ****        -3.6988  -1.3698  -2.3145 C.3            1 S1                 0.0000
     16 ****        -2.3004  -0.9824  -2.8008 C.3            1 S1                 0.0000
     17 ****        -1.6381  -0.4849  -1.6478 O.3            1 S1                 0.0000
     18 ****        -3.2974  -1.4175   2.0120 H              1 S1                 0.0000
     19 ****        -1.9109  -0.8723   2.9414 H              1 S1                 0.0000
     20 ****        -1.8203  -2.3768   2.0284 H              1 S1                 0.0000
     21 ****        -2.1310   0.4178   0.8262 H              1 S1                 0.0000
     22 ****         0.2544  -1.3209   1.1641 H              1 S1                 0.0000
     23 ****         2.0588  -0.5662   1.0646 H              1 S1                 0.0000
     24 ****         4.2834  -0.3291   1.0878 H              1 S1                 0.0000
     25 ****         6.2974   1.1335   0.9196 H              1 S1                 0.0000
     26 ****         5.9867   3.5753   0.4208 H              1 S1                 0.0000
     27 ****         3.6512   4.4378   0.1090 H              1 S1                 0.0000
     28 ****        -1.6457  -2.2501  -0.6057 H              1 S1                 0.0000
     29 ****        -4.0542  -2.1900  -0.3171 H              1 S1                 0.0000
     30 ****        -4.0827  -0.4300  -0.4238 H              1 S1                 0.0000
     31 ****        -3.9720  -2.3627  -2.6732 H              1 S1                 0.0000
     32 ****        -4.4537  -0.6658  -2.6659 H              1 S1                 0.0000
     33 ****        -1.7659  -1.8588  -3.1703 H              1 S1                 0.0000
     34 ****        -2.3231  -0.2370  -3.5961 H              1 S1                 0.0000
     35 ****        -0.9833   1.7798   0.1755 LP             1 S1                 0.0000
     36 ****         0.6018   2.4745   0.1074 LP             1 S1                 0.0000
     37 ****         1.8204   2.9938   0.2804 LP             1 S1                 0.0000
     38 ****        -0.6484  -0.5802  -1.7542 LP             1 S1                 0.0000
     39 ****        -1.8673   0.4788  -1.5110 LP             1 S1                 0.0000
@<TRIPOS>BOND
    1    1    2 1     
    2    1   18 1     
    3    1   19 1     
    4    1   20 1     
    5    2    3 1     
    6    2   13 1     
    7    2   21 1     
    8    3    4 am    
    9    3   22 1     
   10    4    5 2     
   11    4    6 am    
   12    6    7 1     
   13    6   23 1     
   14    7   12 ar    
   15    7    8 ar    
   16    8    9 ar    
   17    8   24 1     
   18    9   10 ar    
   19    9   25 1     
   20   10   11 ar    
   21   10   26 1     
   22   11   12 ar    
   23   11   27 1     
   24   13   17 1     
   25   13   14 1     
   26   13   28 1     
   27   14   15 1     
   28   14   29 1     
   29   14   30 1     
   30   15   16 1     
   31   15   31 1     
   32   15   32 1     
   33   16   17 1     
   34   16   33 1     
   35   16   34 1     
   36    5   35 1     
   37    5   36 1     
   38   12   37 1     
   39   17   38 1     
   40   17   39 1     
@<TRIPOS>SUBSTRUCTURE
      1 S1             1
@<TRIPOS>SET
LONE_PAIRS      STATIC     ATOMS    <user>   **** ""
5 35 36 37 38 39
DONOR_HYDROGENS      STATIC     ATOMS    <user>   **** ""
2 22 23
ATOM$BLUE        STATIC     ATOMS    COLORGROUP SYSTEM
5 35 36 37 38 39
ATOM$RED        STATIC     ATOMS    COLORGROUP SYSTEM
2 22 23
