AV-unprocessed.smi:491|AV-procd|sdf|2707|dock4
  -GOLD-   2262023143D 1   1.00000     0.00000
 Structure written by MMmdl.
 45 46  0  0  0  0  0  0  0  0  1 V2000
  146.6874  139.1479  152.6668 C   0  0  0  0  0  0  0  0  0  0  0  0
  147.4555  140.4253  153.0372 C   0  0  0  0  0  0  0  0  0  0  0  0
  147.0900  140.9468  154.3286 N   0  0  0  0  0  0  0  0  0  0  0  0
  145.9306  141.6694  154.5172 C   0  0  0  0  0  0  0  0  0  0  0  0
  145.5716  142.1657  155.7188 C   0  0  0  0  0  0  0  0  0  0  0  0
  144.3710  142.9139  155.8940 C   0  0  0  0  0  0  0  0  0  0  0  0
  143.3975  143.5284  156.0123 N   0  0  0  0  0  0  0  0  0  0  0  0
  146.4066  141.9591  156.8993 C   0  0  0  0  0  0  0  0  0  0  0  0
  146.1340  142.4132  158.0116 O   0  0  0  0  0  0  0  0  0  0  0  0
  147.5865  141.2001  156.6892 N   0  0  0  0  0  0  0  0  0  0  0  0
  148.4961  140.9739  157.8379 C   0  0  0  0  0  0  0  0  0  0  0  0
  149.9484  141.4313  157.6076 C   0  0  0  0  0  0  0  0  0  0  0  0
  150.8674  140.6349  157.7939 O   0  0  0  0  0  0  0  0  0  0  0  0
  150.1530  142.6982  157.2156 N   0  0  0  0  0  0  0  0  0  0  0  0
  151.4509  143.3110  156.9761 C   0  0  0  0  0  0  0  0  0  0  0  0
  152.1380  143.6846  158.3039 C   0  0  0  0  0  0  0  0  0  0  0  0
  152.5826  142.4214  159.0688 C   0  0  0  0  0  0  0  0  0  0  0  0
  153.2860  142.7733  160.3897 C   0  0  0  0  0  0  0  0  0  0  0  0
  152.3936  143.6537  161.2775 C   0  0  0  0  0  0  0  0  0  0  0  0
  151.9488  144.9192  160.5291 C   0  0  0  0  0  0  0  0  0  0  0  0
  151.2475  144.5699  159.2065 C   0  0  0  0  0  0  0  0  0  0  0  0
  147.9504  140.6866  155.4204 C   0  0  0  0  0  0  0  0  0  0  0  0
  148.9920  140.0420  155.2745 O   0  0  0  0  0  0  0  0  0  0  0  0
  146.9679  138.8052  151.6709 H   0  0  0  0  0  0  0  0  0  0  0  0
  145.6111  139.3228  152.6661 H   0  0  0  0  0  0  0  0  0  0  0  0
  146.8946  138.3365  153.3650 H   0  0  0  0  0  0  0  0  0  0  0  0
  148.5377  140.2813  153.0334 H   0  0  0  0  0  0  0  0  0  0  0  0
  147.2444  141.2215  152.3221 H   0  0  0  0  0  0  0  0  0  0  0  0
  145.2838  141.8461  153.6696 H   0  0  0  0  0  0  0  0  0  0  0  0
  148.1212  141.4722  158.7331 H   0  0  0  0  0  0  0  0  0  0  0  0
  148.5154  139.9199  158.1185 H   0  0  0  0  0  0  0  0  0  0  0  0
  149.3436  143.2868  157.0844 H   0  0  0  0  0  0  0  0  0  0  0  0
  152.0732  142.6179  156.4079 H   0  0  0  0  0  0  0  0  0  0  0  0
  151.3198  144.2030  156.3613 H   0  0  0  0  0  0  0  0  0  0  0  0
  153.0358  144.2553  158.0598 H   0  0  0  0  0  0  0  0  0  0  0  0
  151.7157  141.7923  159.2767 H   0  0  0  0  0  0  0  0  0  0  0  0
  153.2532  141.8257  158.4483 H   0  0  0  0  0  0  0  0  0  0  0  0
  153.5539  141.8604  160.9223 H   0  0  0  0  0  0  0  0  0  0  0  0
  154.2212  143.2942  160.1791 H   0  0  0  0  0  0  0  0  0  0  0  0
  151.5164  143.0866  161.5916 H   0  0  0  0  0  0  0  0  0  0  0  0
  152.9279  143.9274  162.1877 H   0  0  0  0  0  0  0  0  0  0  0  0
  151.2808  145.5078  161.1587 H   0  0  0  0  0  0  0  0  0  0  0  0
  152.8166  145.5483  160.3268 H   0  0  0  0  0  0  0  0  0  0  0  0
  150.9803  145.4953  158.6952 H   0  0  0  0  0  0  0  0  0  0  0  0
  150.3097  144.0542  159.4174 H   0  0  0  0  0  0  0  0  0  0  0  0
  1  2  1  0  0  0  0
  1 24  1  0  0  0  0
  1 25  1  0  0  0  0
  1 26  1  0  0  0  0
  2  3  1  0  0  0  0
  2 27  1  0  0  0  0
  2 28  1  0  0  0  0
  3 22  1  0  0  0  0
  3  4  1  0  0  0  0
  4  5  2  0  0  0  0
  4 29  1  0  0  0  0
  5  6  1  0  0  0  0
  5  8  1  0  0  0  0
  6  7  3  0  0  0  0
  8  9  2  0  0  0  0
  8 10  1  0  0  0  0
 10 11  1  0  0  0  0
 10 22  1  0  0  0  0
 11 12  1  0  0  0  0
 11 30  1  0  0  0  0
 11 31  1  0  0  0  0
 12 13  2  0  0  0  0
 12 14  1  0  0  0  0
 14 15  1  0  0  0  0
 14 32  1  0  0  0  0
 15 16  1  0  0  0  0
 15 33  1  0  0  0  0
 15 34  1  0  0  0  0
 16 21  1  0  0  0  0
 16 17  1  0  0  0  0
 16 35  1  0  0  0  0
 17 18  1  0  0  0  0
 17 36  1  0  0  0  0
 17 37  1  0  0  0  0
 18 19  1  0  0  0  0
 18 38  1  0  0  0  0
 18 39  1  0  0  0  0
 19 20  1  0  0  0  0
 19 40  1  0  0  0  0
 19 41  1  0  0  0  0
 20 21  1  0  0  0  0
 20 42  1  0  0  0  0
 20 43  1  0  0  0  0
 21 44  1  0  0  0  0
 21 45  1  0  0  0  0
 22 23  2  0  0  0  0
M  END
> <s_m_source_file>
AV-unprocessed.smi

> <i_m_source_file_index>
491

> <i_lp_mmshare_version>
43012

> <i_f3d_flags>
0

> <s_epik_input>
W0NIM11bQ0gyXW4xW2NIXWMoQyNOKWMoPU8pbihjMT1PKVtDSDJdQyg9TylbTkhdW0NIMl1bQ0hdMltDSDJdW0NIMl1bQ0gyXVtDSDJdW0NIMl0y

> <s_epik_cmdline>
J2VwaWtfcHl0aG9uJywgJy1waCcsICc3LjAnLCAnLXRuJywgJzgnLCAnLW1hJywgJzIwMCcsICctbWV0YWxfYmluZGluZycsICctaW1hZScsICc8aW5maWxlLm1hZT4nLCAnLW9tYWUnLCAnPG91dGZpbGUubWFlPic=

> <r_lp_tautomer_probability>
1

> <r_epik_Ionization_Penalty>
1.98356e-08

> <r_epik_Ionization_Penalty_Charging>
3.77777e-11

> <r_epik_Ionization_Penalty_Neutral>
1.97978e-08

> <r_epik_State_Penalty>
-0

> <r_epik_Charging_Adjusted_Penalty>
3.77777e-11

> <i_epik_Tot_Q>
0

> <i_epik_Tot_abs_Q>
0

> <r_epik_Metal_State_Penalty>
-0

> <b_epik_Metal_Only>
0

> <s_lp_Force_Field>
OPLS_2005

> <r_lp_Energy>
13.3995

> <b_lp_Chiralities_Consistent>
1

> <s_lp_Variant>
AV-unprocessed.smi:491-1

> <Gold.Version>
5.8.1

> <Gold.Id.Protein>
6NUR|6NUR_protein|mol2

> <Gold.PLP.Fitness>
47.2779

> <Gold.PLP.PLP>
-45.1992

> <Gold.PLP.part.hbond>
-1.0000

> <Gold.PLP.part.metal>
0.0000

> <Gold.PLP.part.buried>
-3.7601

> <Gold.PLP.part.nonpolar>
-41.4295

> <Gold.PLP.part.repulsive>
0.3409

> <Gold.PLP.ligand.clash>
0.0000

> <Gold.PLP.ligand.torsion>
0.4776

> <Gold.PLP.Chemscore.Hbond>
1.0000

> <Gold.PLP.Chemscore.CHOScore>
0.0002

> <Gold.PLP.Chemscore.Metal>
0.0000

> <Gold.Chemscore.Hbonds>
donor molecule, donor type, donor heavy atom, donor atom, acceptor molecule, acceptor atom, score
      L1  H    14    32       P1  8028  0.60
      L1  C     4    29       P1 10175  0.57

> <Gold.PLP.Chemscore.Internal.Correction>
0.0335

> <Gold.Rescore>
     Score         DG    S(hbond)    S(metal)    S(lipo)     H(rot)  DE(clash)    DE(int)     intcor
     12.06     -15.96       0.85        0.00     107.72       1.95       0.69       3.21       ----

> <Gold.Chemscore.Fitness>
12.0579

> <Gold.Chemscore.DG>
-15.9561

> <Gold.Chemscore.ZeroCoef>
-5.4800

> <Gold.Chemscore.Hbond>
0.8546

> <Gold.Chemscore.Metal>
0.0000

> <Gold.Chemscore.Lipo>
107.7197

> <Gold.Chemscore.Internal_Hbond>
0.0000

> <Gold.Chemscore.DEClash>
0.6858

> <Gold.Chemscore.DEInternal>
3.2123

> <Gold.Chemscore.Rot>
1.9458

> <Gold.Chemscore.Internal.Correction>
   9.000000E+99

> <Gold.Chemscore.Hbonds>
donor molecule, donor type, donor heavy atom, donor atom, acceptor molecule, acceptor atom, score
      L1  H    14    32       P1  8028  0.53

> <Gold.Chemscore.Hbond.Weighted>
-2.8542

> <Gold.Chemscore.Metal.Weighted>
-0.0000

> <Gold.Chemscore.Lipo.Weighted>
-12.6032

> <Gold.Chemscore.Internal_Hbond.Weighted>
0.0000

> <Gold.Chemscore.DEClash.Weighted>
0.6858

> <Gold.Chemscore.DEInternal.Weighted>
3.2123

> <Gold.Chemscore.Rot.Weighted>
4.9813

> <Gold.Chemscore.Internal.Correction.Weighted>
   9.000000E+99

> <Gold.Protein.RotatedTorsions>
[ 6907 6896 6895 6894 ] final   -8.30 input  -60.11 | X-H torsion
[ 7974 7965 7964 7962 ] final   89.35 input  175.53 | X-H torsion
[ 8008 7997 7996 7995 ] final -146.91 input   59.86 | X-H torsion
[ 10167 10162 10161 10158 ] final -103.71 input  -65.29 | X-H torsion
[ 10718 10713 10712 10709 ] final   -2.99 input   66.30 | X-H torsion
[ 10763 10752 10751 10750 ] final  133.42 input  -60.55 | X-H torsion
[ 11005 11000 10999 10996 ] final  135.22 input  -57.11 | X-H torsion

> <Gold.Protein.ActiveResidues>
 VAL166  LYS551  ARG553  GLY616  TRP617  ASP618  TYR619  PRO620  LYS621  CYS622 
 ASP623  PHE694  ASN695  SER759  ASP760  ASP761  ALA762  ILE779  LEU786  VAL792 
 PHE793  MET794  SER795  GLU796  ALA797  LYS798  CYS799  TRP800  GLU811  SER814 

> <Gold.Protein.RotatedAtoms>
  151.4358  135.1015  159.9655 H   0  0  0  0  0  0  0  0  0  0  0  0  # atno 6907 bound_to 6896
  152.4940  133.8574  159.7243 H   0  0  0  0  0  0  0  0  0  0  0  0  # atno 6908 bound_to 6896
  150.9122  133.6924  159.2879 H   0  0  0  0  0  0  0  0  0  0  0  0  # atno 6909 bound_to 6896
  145.5335  139.2284  143.2605 H   0  0  0  0  0  0  0  0  0  0  0  0  # atno 7974 bound_to 7965
  155.5669  140.0630  157.2815 H   0  0  0  0  0  0  0  0  0  0  0  0  # atno 8008 bound_to 7997
  154.4373  140.1876  156.0885 H   0  0  0  0  0  0  0  0  0  0  0  0  # atno 8009 bound_to 7997
  156.0405  140.3296  155.7242 H   0  0  0  0  0  0  0  0  0  0  0  0  # atno 8010 bound_to 7997
  140.2171  143.3703  152.1001 H   0  0  0  0  0  0  0  0  0  0  0  0  # atno 10167 bound_to 10162
  156.7826  130.5335  149.5748 H   0  0  0  0  0  0  0  0  0  0  0  0  # atno 10718 bound_to 10713
  153.8068  135.3134  155.3396 H   0  0  0  0  0  0  0  0  0  0  0  0  # atno 10763 bound_to 10752
  154.8067  135.4693  154.0414 H   0  0  0  0  0  0  0  0  0  0  0  0  # atno 10764 bound_to 10752
  153.1779  135.6889  153.8606 H   0  0  0  0  0  0  0  0  0  0  0  0  # atno 10765 bound_to 10752
  139.9965  134.9495  156.9977 H   0  0  0  0  0  0  0  0  0  0  0  0  # atno 11005 bound_to 11000
  146.2028  140.6152  142.9094 LP  0  0  0  0  0  0  0  0  0  0  0  0  # atno 17320 bound_to 7965
  144.7613  140.5429  143.6733 LP  0  0  0  0  0  0  0  0  0  0  0  0  # atno 17321 bound_to 7965
  139.5158  144.6968  151.5607 LP  0  0  0  0  0  0  0  0  0  0  0  0  # atno 17342 bound_to 10162
  140.6282  143.9127  150.6582 LP  0  0  0  0  0  0  0  0  0  0  0  0  # atno 17343 bound_to 10162
  156.1208  130.6109  151.0191 LP  0  0  0  0  0  0  0  0  0  0  0  0  # atno 17370 bound_to 10713
  157.6639  131.0875  150.7774 LP  0  0  0  0  0  0  0  0  0  0  0  0  # atno 17371 bound_to 10713
  140.4807  134.1292  155.7216 LP  0  0  0  0  0  0  0  0  0  0  0  0  # atno 17394 bound_to 11000
  141.1609  133.8795  157.1851 LP  0  0  0  0  0  0  0  0  0  0  0  0  # atno 17395 bound_to 11000

$$$$
