#       Name:                AV-unprocessed.smi:1647
#       Creating user name   scv26
#       Creation time:       Fri Mar 27 07:32:31 2020


#       File generated by GOLD software.
#

@<TRIPOS>MOLECULE
AV-unprocessed.smi:1647
    43    44     1
SMALL
NO_CHARGES


@<TRIPOS>ATOM
      1 ****        -6.7613   1.3929   1.9344 C.2            1 S1                 0.0000
      2 ****        -5.8202   1.0328   2.8197 C.2            1 S1                 0.0000
      3 ****        -5.3126  -0.3840   3.0020 C.3            1 S1                 0.0000
      4 ****        -3.8621  -0.4521   2.8746 N.am           1 S1                 0.0000
      5 ****        -3.1910  -0.4416   1.7139 C.2            1 S1                 0.0000
      6 ****        -3.7413  -0.3982   0.6139 O.2            1 S1                 0.0000
      7 ****        -1.8644  -0.4988   1.9227 N.am           1 S1                 0.0000
      8 ****        -0.8025  -0.4334   0.9792 C.ar           1 S1                 0.0000
      9 ****        -0.9432  -0.0291  -0.3692 C.ar           1 S1                 0.0000
     10 ****         0.1999   0.0171  -1.1903 C.ar           1 S1                 0.0000
     11 ****         1.4585  -0.3331  -0.6479 C.ar           1 S1                 0.0000
     12 ****         2.6179  -0.2749  -1.4516 N.3            1 S1                 0.0000
     13 ****         2.8609   1.0224  -2.0868 C.3            1 S1                 0.0000
     14 ****         3.9014   0.9067  -3.2138 C.3            1 S1                 0.0000
     15 ****         5.1932   0.2492  -2.7071 C.3            1 S1                 0.0000
     16 ****         4.8724  -1.1087  -2.0664 C.3            1 S1                 0.0000
     17 ****         3.8156  -0.9609  -0.9586 C.3            1 S1                 0.0000
     18 ****         1.5891  -0.7221   0.6440 N.ar           1 S1                 0.0000
     19 ****         0.4917  -0.7647   1.4273 C.ar           1 S1                 0.0000
     20 ****        -7.2216   0.6681   1.2788 H              1 S1                 0.0000
     21 ****        -7.0828   2.4209   1.8537 H              1 S1                 0.0000
     22 ****        -5.3833   1.7855   3.4597 H              1 S1                 0.0000
     23 ****        -5.5870  -0.7251   4.0002 H              1 S1                 0.0000
     24 ****        -5.7922  -1.0605   2.2923 H              1 S1                 0.0000
     25 ****        -3.3314  -0.4983   3.7322 H              1 S1                 0.0000
     26 ****        -1.5756  -0.6080   2.8839 H              1 S1                 0.0000
     27 ****        -1.8927   0.2581  -0.7919 H              1 S1                 0.0000
     28 ****         0.0985   0.3143  -2.2236 H              1 S1                 0.0000
     29 ****         1.9457   1.4479  -2.4964 H              1 S1                 0.0000
     30 ****         3.2151   1.7193  -1.3263 H              1 S1                 0.0000
     31 ****         3.4877   0.3163  -4.0325 H              1 S1                 0.0000
     32 ****         4.1194   1.8938  -3.6224 H              1 S1                 0.0000
     33 ****         5.8998   0.1224  -3.5276 H              1 S1                 0.0000
     34 ****         5.6748   0.8981  -1.9747 H              1 S1                 0.0000
     35 ****         4.5059  -1.7955  -2.8305 H              1 S1                 0.0000
     36 ****         5.7801  -1.5542  -1.6585 H              1 S1                 0.0000
     37 ****         4.2309  -0.3983  -0.1214 H              1 S1                 0.0000
     38 ****         3.5520  -1.9510  -0.5838 H              1 S1                 0.0000
     39 ****         0.6555  -1.0727   2.4499 H              1 S1                 0.0000
     40 ****        -4.7391  -0.3686   0.5548 LP             1 S1                 0.0000
     41 ****        -3.1906  -0.3926  -0.2208 LP             1 S1                 0.0000
     42 ****         2.3588  -0.8772  -2.2067 LP             1 S1                 0.0000
     43 ****         2.4848  -0.9736   1.0106 LP             1 S1                 0.0000
@<TRIPOS>BOND
    1    1    2 2     
    2    1   20 1     
    3    1   21 1     
    4    2    3 1     
    5    2   22 1     
    6    3    4 1     
    7    3   23 1     
    8    3   24 1     
    9    4    5 am    
   10    4   25 1     
   11    5    6 2     
   12    5    7 am    
   13    7    8 1     
   14    7   26 1     
   15    8   19 ar    
   16    8    9 ar    
   17    9   10 ar    
   18    9   27 1     
   19   10   11 ar    
   20   10   28 1     
   21   11   12 1     
   22   11   18 ar    
   23   12   17 1     
   24   12   13 1     
   25   13   14 1     
   26   13   29 1     
   27   13   30 1     
   28   14   15 1     
   29   14   31 1     
   30   14   32 1     
   31   15   16 1     
   32   15   33 1     
   33   15   34 1     
   34   16   17 1     
   35   16   35 1     
   36   16   36 1     
   37   17   37 1     
   38   17   38 1     
   39   18   19 ar    
   40   19   39 1     
   41    6   40 1     
   42    6   41 1     
   43   12   42 1     
   44   18   43 1     
@<TRIPOS>SUBSTRUCTURE
      1 S1             1
@<TRIPOS>SET
LONE_PAIRS      STATIC     ATOMS    <user>   **** ""
4 40 41 42 43
DONOR_HYDROGENS      STATIC     ATOMS    <user>   **** ""
2 25 26
ATOM$BLUE        STATIC     ATOMS    COLORGROUP SYSTEM
4 40 41 42 43
ATOM$RED        STATIC     ATOMS    COLORGROUP SYSTEM
2 25 26
