AV-unprocessed.smi:697|AV-procd|sdf|3394|dock2
  -GOLD-   22720 0373D 1   1.00000     0.00000
 Structure written by MMmdl.
 43 44  0  0  0  0  0  0  0  0  2 V2000
  151.5882  139.9440  158.0177 C   0  0  0  0  0  0  0  0  0  0  0  0
  150.6963  138.8587  157.7939 O   0  0  0  0  0  0  0  0  0  0  0  0
  149.7368  139.0009  156.7371 C   0  0  2  0  0  0  0  0  0  0  0  0
  149.0728  140.3825  156.7946 C   0  0  0  0  0  0  0  0  0  0  0  0
  148.8532  137.7419  156.6469 C   0  0  0  0  0  0  0  0  0  0  0  0
  149.9681  137.1082  155.8173 C   0  0  1  0  0  0  0  0  0  0  0  0
  149.4578  136.2784  154.7312 N   0  0  0  0  0  0  0  0  0  0  0  0
  148.8743  135.0844  154.8983 C   0  0  0  0  0  0  0  0  0  0  0  0
  148.7001  134.5686  156.0023 O   0  0  0  0  0  0  0  0  0  0  0  0
  148.5423  134.5460  153.7113 N   0  0  0  0  0  0  0  0  0  0  0  0
  147.8946  133.3310  153.4321 C   0  0  0  0  0  0  0  0  0  0  0  0
  146.9271  133.1644  152.4882 C   0  0  0  0  0  0  0  0  0  0  0  0
  146.3022  131.8727  152.2314 C   0  0  0  0  0  0  0  0  0  0  0  0
  145.2795  131.6339  151.1348 C   0  0  0  0  0  0  0  0  0  0  0  0
  144.2210  132.4310  151.2839 F   0  0  0  0  0  0  0  0  0  0  0  0
  145.8232  131.8845  149.9447 F   0  0  0  0  0  0  0  0  0  0  0  0
  144.8574  130.3693  151.1412 F   0  0  0  0  0  0  0  0  0  0  0  0
  146.8262  130.8701  153.0240 C   0  0  0  0  0  0  0  0  0  0  0  0
  147.7744  130.9515  153.9831 N   0  5  0  0  0  0  0  0  0  0  0  0
  148.3464  132.1656  154.2203 C   0  0  0  0  0  0  0  0  0  0  0  0
  149.2240  132.3084  155.0725 O   0  0  0  0  0  0  0  0  0  0  0  0
  150.4022  138.5369  155.3999 C   0  0  0  0  0  0  0  0  0  0  0  0
  149.7810  139.0985  154.1066 C   0  0  0  0  0  0  0  0  0  0  0  0
  151.9118  138.7672  155.2705 C   0  0  0  0  0  0  0  0  0  0  0  0
  152.1466  139.7610  158.9355 H   0  0  0  0  0  0  0  0  0  0  0  0
  151.0674  140.8941  158.1322 H   0  0  0  0  0  0  0  0  0  0  0  0
  152.3166  140.0382  157.2127 H   0  0  0  0  0  0  0  0  0  0  0  0
  148.4146  140.5520  155.9432 H   0  0  0  0  0  0  0  0  0  0  0  0
  149.8166  141.1796  156.7957 H   0  0  0  0  0  0  0  0  0  0  0  0
  148.4525  140.5006  157.6826 H   0  0  0  0  0  0  0  0  0  0  0  0
  148.6496  137.2286  157.5860 H   0  0  0  0  0  0  0  0  0  0  0  0
  147.9321  137.9105  156.0861 H   0  0  0  0  0  0  0  0  0  0  0  0
  150.7046  136.6071  156.4500 H   0  0  0  0  0  0  0  0  0  0  0  0
  149.5666  136.6310  153.7916 H   0  0  0  0  0  0  0  0  0  0  0  0
  148.8220  135.0626  152.8903 H   0  0  0  0  0  0  0  0  0  0  0  0
  146.6003  133.9912  151.8793 H   0  0  0  0  0  0  0  0  0  0  0  0
  146.4277  129.8463  152.8583 H   0  0  0  0  0  0  0  0  0  0  0  0
  150.1781  138.6019  153.2206 H   0  0  0  0  0  0  0  0  0  0  0  0
  149.9847  140.1639  153.9959 H   0  0  0  0  0  0  0  0  0  0  0  0
  148.6983  138.9737  154.0809 H   0  0  0  0  0  0  0  0  0  0  0  0
  152.3029  138.3546  154.3400 H   0  0  0  0  0  0  0  0  0  0  0  0
  152.4682  138.2922  156.0788 H   0  0  0  0  0  0  0  0  0  0  0  0
  152.1554  139.8299  155.2899 H   0  0  0  0  0  0  0  0  0  0  0  0
  1  2  1  0  0  0  0
  1 25  1  0  0  0  0
  1 26  1  0  0  0  0
  1 27  1  0  0  0  0
  2  3  1  0  0  0  0
  3 22  1  0  0  0  0
  3  4  1  0  0  0  0
  3  5  1  0  0  0  0
  4 28  1  0  0  0  0
  4 29  1  0  0  0  0
  4 30  1  0  0  0  0
  5  6  1  0  0  0  0
  5 31  1  0  0  0  0
  5 32  1  0  0  0  0
  6  7  1  0  0  0  0
  6 22  1  0  0  0  0
  6 33  1  0  0  0  0
  7  8  1  0  0  0  0
  7 34  1  0  0  0  0
  8  9  2  0  0  0  0
  8 10  1  0  0  0  0
 10 11  1  0  0  0  0
 10 35  1  0  0  0  0
 11 20  1  0  0  0  0
 11 12  2  0  0  0  0
 12 13  1  0  0  0  0
 12 36  1  0  0  0  0
 13 14  1  0  0  0  0
 13 18  2  0  0  0  0
 14 15  1  0  0  0  0
 14 16  1  0  0  0  0
 14 17  1  0  0  0  0
 18 19  1  0  0  0  0
 18 37  1  0  0  0  0
 19 20  1  0  0  0  0
 20 21  2  0  0  0  0
 22 23  1  0  0  0  0
 22 24  1  0  0  0  0
 23 38  1  0  0  0  0
 23 39  1  0  0  0  0
 23 40  1  0  0  0  0
 24 41  1  0  0  0  0
 24 42  1  0  0  0  0
 24 43  1  0  0  0  0
M  CHG  1  19  -1
M  END
> <s_m_source_file>
AV-unprocessed.smi

> <i_m_source_file_index>
697

> <i_lp_mmshare_version>
43012

> <i_f3d_flags>
0

> <s_epik_input>
W0NIM11PW0NAQF0xKFtDSDNdKVtDSDJdW0NASF0oQzEoW0NIM10pW0NIM10pW05IXUMoPU8pW05IXWMyW2NIXWMoQyhGKShGKUYpW2NIXVtuSF1jMj1P

> <s_epik_cmdline>
J2VwaWtfcHl0aG9uJywgJy1waCcsICc3LjAnLCAnLXRuJywgJzgnLCAnLW1hJywgJzIwMCcsICctbWV0YWxfYmluZGluZycsICctaW1hZScsICc8aW5maWxlLm1hZT4nLCAnLW9tYWUnLCAnPG91dGZpbGUubWFlPic=

> <r_lp_tautomer_probability>
1

> <r_epik_Ionization_Penalty>
3.20094

> <r_epik_Ionization_Penalty_Charging>
0.180017

> <r_epik_Ionization_Penalty_Neutral>
3.02092

> <r_epik_State_Penalty>
3.01726

> <r_epik_Charging_Adjusted_Penalty>
3.19727

> <i_epik_Tot_Q>
-1

> <i_epik_Tot_abs_Q>
1

> <r_epik_Metal_State_Penalty>
0.455096

> <b_epik_Metal_Only>
1

> <s_lp_Force_Field>
OPLS_2005

> <r_lp_Energy>
36.2607

> <b_lp_Chiralities_Consistent>
1

> <s_lp_Variant>
AV-unprocessed.smi:697-6

> <Gold.Version>
5.8.1

> <Gold.Id.Protein>
6NUR|6NUR_protein|mol2

> <Gold.PLP.Fitness>
37.5829

> <Gold.PLP.PLP>
-33.1243

> <Gold.PLP.part.hbond>
-1.9537

> <Gold.PLP.part.metal>
0.0000

> <Gold.PLP.part.buried>
-3.9119

> <Gold.PLP.part.nonpolar>
-27.9834

> <Gold.PLP.part.repulsive>
0.1260

> <Gold.PLP.ligand.clash>
0.0174

> <Gold.PLP.ligand.torsion>
0.7276

> <Gold.PLP.Chemscore.Hbond>
1.8318

> <Gold.PLP.Chemscore.CHOScore>
0.0000

> <Gold.PLP.Chemscore.Metal>
0.0000

> <Gold.Chemscore.Hbonds>
donor molecule, donor type, donor heavy atom, donor atom, acceptor molecule, acceptor atom, score
      L1  H     7    34       P1  7948  0.81
      L1  H    10    35       P1  7948  0.98

> <Gold.PLP.Chemscore.Internal.Correction>
0.4357

> <Gold.Rescore>
     Score         DG    S(hbond)    S(metal)    S(lipo)     H(rot)  DE(clash)    DE(int)     intcor
      9.10     -14.13       1.52        0.00      58.86       1.30       0.41       4.62       ----

> <Gold.Chemscore.Fitness>
9.1008

> <Gold.Chemscore.DG>
-14.1279

> <Gold.Chemscore.ZeroCoef>
-5.4800

> <Gold.Chemscore.Hbond>
1.5216

> <Gold.Chemscore.Metal>
0.0000

> <Gold.Chemscore.Lipo>
58.8622

> <Gold.Chemscore.Internal_Hbond>
0.0000

> <Gold.Chemscore.DEClash>
0.4083

> <Gold.Chemscore.DEInternal>
4.6188

> <Gold.Chemscore.Rot>
1.2973

> <Gold.Chemscore.Internal.Correction>
   9.000000E+99

> <Gold.Chemscore.Hbonds>
donor molecule, donor type, donor heavy atom, donor atom, acceptor molecule, acceptor atom, score
      L1  H     7    34       P1  7948  0.59
      L1  H    10    35       P1  7948  0.23

> <Gold.Chemscore.Hbond.Weighted>
-5.0820

> <Gold.Chemscore.Metal.Weighted>
-0.0000

> <Gold.Chemscore.Lipo.Weighted>
-6.8869

> <Gold.Chemscore.Internal_Hbond.Weighted>
0.0000

> <Gold.Chemscore.DEClash.Weighted>
0.4083

> <Gold.Chemscore.DEInternal.Weighted>
4.6188

> <Gold.Chemscore.Rot.Weighted>
3.3210

> <Gold.Chemscore.Internal.Correction.Weighted>
   9.000000E+99

> <Gold.Protein.RotatedTorsions>
[ 6907 6896 6895 6894 ] final  -97.20 input  -60.11 | X-H torsion
[ 7974 7965 7964 7962 ] final -148.91 input  175.53 | X-H torsion
[ 8008 7997 7996 7995 ] final  -24.60 input   59.86 | X-H torsion
[ 10167 10162 10161 10158 ] final  141.16 input  -65.29 | X-H torsion
[ 10718 10713 10712 10709 ] final    7.50 input   66.30 | X-H torsion
[ 10763 10752 10751 10750 ] final  164.58 input  -60.55 | X-H torsion
[ 11005 11000 10999 10996 ] final   24.80 input  -57.11 | X-H torsion

> <Gold.Protein.ActiveResidues>
 VAL166  LYS551  ARG553  GLY616  TRP617  ASP618  TYR619  PRO620  LYS621  CYS622 
 ASP623  PHE694  ASN695  SER759  ASP760  ASP761  ALA762  ILE779  LEU786  VAL792 
 PHE793  MET794  SER795  GLU796  ALA797  LYS798  CYS799  TRP800  GLU811  SER814 

> <Gold.Protein.RotatedAtoms>
  150.7009  134.1386  159.4096 H   0  0  0  0  0  0  0  0  0  0  0  0  # atno 6907 bound_to 6896
  151.9371  135.0228  160.0542 H   0  0  0  0  0  0  0  0  0  0  0  0  # atno 6908 bound_to 6896
  152.2126  133.4887  159.5155 H   0  0  0  0  0  0  0  0  0  0  0  0  # atno 6909 bound_to 6896
  144.8000  140.5135  143.5714 H   0  0  0  0  0  0  0  0  0  0  0  0  # atno 7974 bound_to 7965
  154.4520  140.1949  156.0489 H   0  0  0  0  0  0  0  0  0  0  0  0  # atno 8008 bound_to 7997
  156.0669  140.3289  155.7501 H   0  0  0  0  0  0  0  0  0  0  0  0  # atno 8009 bound_to 7997
  155.5325  140.0579  157.2877 H   0  0  0  0  0  0  0  0  0  0  0  0  # atno 8010 bound_to 7997
  139.5028  144.6189  151.6098 H   0  0  0  0  0  0  0  0  0  0  0  0  # atno 10167 bound_to 10162
  156.9379  130.5850  149.5651 H   0  0  0  0  0  0  0  0  0  0  0  0  # atno 10718 bound_to 10713
  154.3111  135.2757  155.2565 H   0  0  0  0  0  0  0  0  0  0  0  0  # atno 10763 bound_to 10752
  154.4960  135.5821  153.6498 H   0  0  0  0  0  0  0  0  0  0  0  0  # atno 10764 bound_to 10752
  152.9888  135.6146  154.3289 H   0  0  0  0  0  0  0  0  0  0  0  0  # atno 10765 bound_to 10752
  140.3548  134.2189  155.7677 H   0  0  0  0  0  0  0  0  0  0  0  0  # atno 11005 bound_to 11000
  145.5577  139.1478  143.3359 LP  0  0  0  0  0  0  0  0  0  0  0  0  # atno 17320 bound_to 7965
  146.2279  140.5714  142.8988 LP  0  0  0  0  0  0  0  0  0  0  0  0  # atno 17321 bound_to 7965
  140.5885  143.9821  150.6310 LP  0  0  0  0  0  0  0  0  0  0  0  0  # atno 17342 bound_to 10162
  140.2994  143.3271  152.0987 LP  0  0  0  0  0  0  0  0  0  0  0  0  # atno 17343 bound_to 10162
  156.0418  130.5499  150.8788 LP  0  0  0  0  0  0  0  0  0  0  0  0  # atno 17370 bound_to 10713
  157.5804  131.0946  150.9279 LP  0  0  0  0  0  0  0  0  0  0  0  0  # atno 17371 bound_to 10713
  141.2001  133.7994  157.0502 LP  0  0  0  0  0  0  0  0  0  0  0  0  # atno 17394 bound_to 11000
  140.0674  134.9721  157.1409 LP  0  0  0  0  0  0  0  0  0  0  0  0  # atno 17395 bound_to 11000

$$$$
