AV-unprocessed.smi:199|AV-procd|sdf|1567|dock7
  -GOLD-   2262019443D 1   1.00000     0.00000
 Structure written by MMmdl.
 51 55  0  0  0  0  0  0  0  0  1 V2000
  152.5464  141.1252  158.8978 C   0  0  0  0  0  0  0  0  0  0  0  0
  151.7386  142.4158  159.1048 C   0  0  1  0  0  0  0  0  0  0  0  0
  152.6016  143.3648  159.7269 O   0  0  0  0  0  0  0  0  0  0  0  0
  152.2433  144.6666  159.2982 C   0  0  0  0  0  0  0  0  0  0  0  0
  151.9265  144.4511  157.8265 C   0  0  0  0  0  0  0  0  0  0  0  0
  151.1933  143.1128  157.8257 C   0  0  2  0  0  0  0  0  0  0  0  0
  149.8148  143.3725  158.0360 O   0  0  0  0  0  0  0  0  0  0  0  0
  151.3331  142.3263  156.4953 C   0  0  0  0  0  0  0  0  0  0  0  0
  150.9673  140.9223  156.6124 N   0  0  0  0  0  0  0  0  0  0  0  0
  150.0116  140.3884  157.4452 C   0  0  0  0  0  0  0  0  0  0  0  0
  149.8667  139.0949  157.3651 N   0  0  0  0  0  0  0  0  0  0  0  0
  150.7912  138.6986  156.4048 C   0  0  0  0  0  0  0  0  0  0  0  0
  151.1629  137.4489  155.8233 C   0  0  0  0  0  0  0  0  0  0  0  0
  150.6080  136.2441  156.1350 N   0  0  0  0  0  0  0  0  0  0  0  0
  149.6986  136.0859  157.2608 C   0  0  2  0  0  0  0  0  0  0  0  0
  149.5035  134.5611  157.3144 C   0  0  0  0  0  0  0  0  0  0  0  0
  149.5546  134.1976  155.8238 C   0  0  0  0  0  0  0  0  0  0  0  0
  149.7247  135.5862  155.1802 C   0  0  1  0  0  0  0  0  0  0  0  0
  148.4215  136.4223  155.2731 C   0  0  1  0  0  0  0  0  0  0  0  0
  147.1472  135.7679  154.7082 C   0  0  0  0  0  0  0  0  0  0  0  0
  147.4481  135.0819  153.5115 O   0  0  0  0  0  0  0  0  0  0  0  0
  148.3857  136.7379  156.7810 C   0  0  0  0  0  0  0  0  0  0  0  0
  152.1633  137.4681  154.9030 N   0  0  0  0  0  0  0  0  0  0  0  0
  152.7474  138.6169  154.5544 C   0  0  0  0  0  0  0  0  0  0  0  0
  152.4951  139.8477  154.9994 N   0  0  0  0  0  0  0  0  0  0  0  0
  151.5008  139.8413  155.9321 C   0  0  0  0  0  0  0  0  0  0  0  0
  151.9429  140.3463  158.4318 H   0  0  0  0  0  0  0  0  0  0  0  0
  152.8972  140.7358  159.8539 H   0  0  0  0  0  0  0  0  0  0  0  0
  153.4242  141.2982  158.2747 H   0  0  0  0  0  0  0  0  0  0  0  0
  150.9241  142.2034  159.7999 H   0  0  0  0  0  0  0  0  0  0  0  0
  151.3643  145.0089  159.8466 H   0  0  0  0  0  0  0  0  0  0  0  0
  153.0523  145.3799  159.4564 H   0  0  0  0  0  0  0  0  0  0  0  0
  151.3569  145.2687  157.3826 H   0  0  0  0  0  0  0  0  0  0  0  0
  152.8659  144.3644  157.2794 H   0  0  0  0  0  0  0  0  0  0  0  0
  149.4886  143.8698  157.3018 H   0  0  0  0  0  0  0  0  0  0  0  0
  150.7055  142.7683  155.7211 H   0  0  0  0  0  0  0  0  0  0  0  0
  152.3589  142.3786  156.1274 H   0  0  0  0  0  0  0  0  0  0  0  0
  149.4176  140.9930  158.1149 H   0  0  0  0  0  0  0  0  0  0  0  0
  150.0525  136.4714  158.2147 H   0  0  0  0  0  0  0  0  0  0  0  0
  150.3213  134.0812  157.8535 H   0  0  0  0  0  0  0  0  0  0  0  0
  148.5663  134.2721  157.7915 H   0  0  0  0  0  0  0  0  0  0  0  0
  150.4272  133.5760  155.6193 H   0  0  0  0  0  0  0  0  0  0  0  0
  148.6776  133.6512  155.4799 H   0  0  0  0  0  0  0  0  0  0  0  0
  150.1186  135.5202  154.1652 H   0  0  0  0  0  0  0  0  0  0  0  0
  148.5864  137.3532  154.7271 H   0  0  0  0  0  0  0  0  0  0  0  0
  146.7380  135.0544  155.4241 H   0  0  0  0  0  0  0  0  0  0  0  0
  146.3729  136.5051  154.4985 H   0  0  0  0  0  0  0  0  0  0  0  0
  147.7984  135.7022  152.8905 H   0  0  0  0  0  0  0  0  0  0  0  0
  147.5115  136.3305  157.2902 H   0  0  0  0  0  0  0  0  0  0  0  0
  148.3967  137.8158  156.9466 H   0  0  0  0  0  0  0  0  0  0  0  0
  153.5287  138.5378  153.8131 H   0  0  0  0  0  0  0  0  0  0  0  0
  1  2  1  0  0  0  0
  1 27  1  0  0  0  0
  1 28  1  0  0  0  0
  1 29  1  0  0  0  0
  2  6  1  0  0  0  0
  2  3  1  0  0  0  0
  2 30  1  0  0  0  0
  3  4  1  0  0  0  0
  4  5  1  0  0  0  0
  4 31  1  0  0  0  0
  4 32  1  0  0  0  0
  5  6  1  0  0  0  0
  5 33  1  0  0  0  0
  5 34  1  0  0  0  0
  6  7  1  0  0  0  0
  6  8  1  0  0  0  0
  7 35  1  0  0  0  0
  8  9  1  0  0  0  0
  8 36  1  0  0  0  0
  8 37  1  0  0  0  0
  9 26  1  0  0  0  0
  9 10  1  0  0  0  0
 10 11  2  0  0  0  0
 10 38  1  0  0  0  0
 11 12  1  0  0  0  0
 12 26  2  0  0  0  0
 12 13  1  0  0  0  0
 13 14  1  0  0  0  0
 13 23  2  0  0  0  0
 14 18  1  0  0  0  0
 14 15  1  0  0  0  0
 15 22  1  0  0  0  0
 15 16  1  0  0  0  0
 15 39  1  0  0  0  0
 16 17  1  0  0  0  0
 16 40  1  0  0  0  0
 16 41  1  0  0  0  0
 17 18  1  0  0  0  0
 17 42  1  0  0  0  0
 17 43  1  0  0  0  0
 18 19  1  0  0  0  0
 18 44  1  0  0  0  0
 19 20  1  0  0  0  0
 19 22  1  0  0  0  0
 19 45  1  0  0  0  0
 20 21  1  0  0  0  0
 20 46  1  0  0  0  0
 20 47  1  0  0  0  0
 21 48  1  0  0  0  0
 22 49  1  0  0  0  0
 22 50  1  0  0  0  0
 23 24  1  0  0  0  0
 24 25  2  0  0  0  0
 24 51  1  0  0  0  0
 25 26  1  0  0  0  0
M  END
> <s_m_source_file>
AV-unprocessed.smi

> <i_m_source_file_index>
199

> <i_lp_mmshare_version>
43012

> <i_f3d_flags>
0

> <s_epik_input>
W0NIMl0xW0NIMl1PW0NAQEhdKFtDSDNdKVtDQEBdMShbT0hdKVtDSDJdbihbY0hdbjIpYyhjMjMpbltjSF1uYzNOKFtDQEBIXTQ1KVtDQEhdKFtDSDJdW0NIMl00KVtDQEhdKFtDSDJdNSlbQ0gyXVtPSF0=

> <s_epik_cmdline>
J2VwaWtfcHl0aG9uJywgJy1waCcsICc3LjAnLCAnLXRuJywgJzgnLCAnLW1hJywgJzIwMCcsICctbWV0YWxfYmluZGluZycsICctaW1hZScsICc8aW5maWxlLm1hZT4nLCAnLW9tYWUnLCAnPG91dGZpbGUubWFlPic=

> <r_lp_tautomer_probability>
1

> <r_epik_Ionization_Penalty>
0.00583903

> <r_epik_Ionization_Penalty_Charging>
0

> <r_epik_Ionization_Penalty_Neutral>
0.00583903

> <r_epik_State_Penalty>
-0

> <r_epik_Charging_Adjusted_Penalty>
0

> <i_epik_Tot_Q>
0

> <i_epik_Tot_abs_Q>
0

> <r_epik_Metal_State_Penalty>
-0

> <b_epik_Metal_Only>
0

> <s_lp_Force_Field>
OPLS_2005

> <r_lp_Energy>
84.1045

> <b_lp_Chiralities_Consistent>
1

> <s_lp_Variant>
AV-unprocessed.smi:199-8

> <Gold.Version>
5.8.1

> <Gold.Id.Protein>
6NUR|6NUR_protein|mol2

> <Gold.PLP.Fitness>
49.4884

> <Gold.PLP.PLP>
-39.3634

> <Gold.PLP.part.hbond>
-4.6142

> <Gold.PLP.part.metal>
0.0000

> <Gold.PLP.part.buried>
-7.7332

> <Gold.PLP.part.nonpolar>
-28.1280

> <Gold.PLP.part.repulsive>
0.1309

> <Gold.PLP.ligand.clash>
0.0000

> <Gold.PLP.ligand.torsion>
0.9976

> <Gold.PLP.Chemscore.Hbond>
4.0341

> <Gold.PLP.Chemscore.CHOScore>
0.0000

> <Gold.PLP.Chemscore.Metal>
0.0000

> <Gold.Chemscore.Hbonds>
donor molecule, donor type, donor heavy atom, donor atom, acceptor molecule, acceptor atom, score
      L1  H     7    35       P1  8028  1.00
      L1  H    21    48       P1  7948  1.00
      P1  H  7989  7998       L1    25  0.61
      P1  H  7997  8010       L1    25  0.56
      P1  H 10752 10765       L1    23  0.78

> <Gold.PLP.Chemscore.Internal.Correction>
0.0178

> <Gold.Rescore>
     Score         DG    S(hbond)    S(metal)    S(lipo)     H(rot)  DE(clash)    DE(int)     intcor
     10.85     -18.19       3.08        0.00      87.99       3.07       1.62       5.72       ----

> <Gold.Chemscore.Fitness>
10.8544

> <Gold.Chemscore.DG>
-18.1890

> <Gold.Chemscore.ZeroCoef>
-5.4800

> <Gold.Chemscore.Hbond>
3.0780

> <Gold.Chemscore.Metal>
0.0000

> <Gold.Chemscore.Lipo>
87.9930

> <Gold.Chemscore.Internal_Hbond>
0.0000

> <Gold.Chemscore.DEClash>
1.6184

> <Gold.Chemscore.DEInternal>
5.7163

> <Gold.Chemscore.Rot>
3.0729

> <Gold.Chemscore.Internal.Correction>
   9.000000E+99

> <Gold.Chemscore.Hbonds>
donor molecule, donor type, donor heavy atom, donor atom, acceptor molecule, acceptor atom, score
      L1  H     7    35       P1  8028  0.50
      L1  H    21    48       P1  7948  0.96
      P1  H  7989  7998       L1    25  0.14
      P1  H  7997  8010       L1    25  0.07
      P1  H 10752 10765       L1    23  0.65

> <Gold.Chemscore.Hbond.Weighted>
-10.2806

> <Gold.Chemscore.Metal.Weighted>
-0.0000

> <Gold.Chemscore.Lipo.Weighted>
-10.2952

> <Gold.Chemscore.Internal_Hbond.Weighted>
0.0000

> <Gold.Chemscore.DEClash.Weighted>
1.6184

> <Gold.Chemscore.DEInternal.Weighted>
5.7163

> <Gold.Chemscore.Rot.Weighted>
7.8667

> <Gold.Chemscore.Internal.Correction.Weighted>
   9.000000E+99

> <Gold.Protein.RotatedTorsions>
[ 6907 6896 6895 6894 ] final  156.83 input  -60.11 | X-H torsion
[ 7974 7965 7964 7962 ] final   13.06 input  175.53 | X-H torsion
[ 8008 7997 7996 7995 ] final   94.17 input   59.86 | X-H torsion
[ 10167 10162 10161 10158 ] final  133.06 input  -65.29 | X-H torsion
[ 10718 10713 10712 10709 ] final   90.89 input   66.30 | X-H torsion
[ 10763 10752 10751 10750 ] final  171.84 input  -60.55 | X-H torsion
[ 11005 11000 10999 10996 ] final  -28.64 input  -57.11 | X-H torsion

> <Gold.Protein.ActiveResidues>
 VAL166  LYS551  ARG553  GLY616  TRP617  ASP618  TYR619  PRO620  LYS621  CYS622 
 ASP623  PHE694  ASN695  SER759  ASP760  ASP761  ALA762  ILE779  LEU786  VAL792 
 PHE793  MET794  SER795  GLU796  ALA797  LYS798  CYS799  TRP800  GLU811  SER814 

> <Gold.Protein.RotatedAtoms>
  152.0240  133.3910  159.4269 H   0  0  0  0  0  0  0  0  0  0  0  0  # atno 6907 bound_to 6896
  150.6888  134.3594  159.4953 H   0  0  0  0  0  0  0  0  0  0  0  0  # atno 6908 bound_to 6896
  152.1372  134.9090  160.0606 H   0  0  0  0  0  0  0  0  0  0  0  0  # atno 6909 bound_to 6896
  146.2338  139.9245  142.8505 H   0  0  0  0  0  0  0  0  0  0  0  0  # atno 7974 bound_to 7965
  156.0550  140.3303  155.7394 H   0  0  0  0  0  0  0  0  0  0  0  0  # atno 8008 bound_to 7997
  155.5543  140.0613  157.2860 H   0  0  0  0  0  0  0  0  0  0  0  0  # atno 8009 bound_to 7997
  154.4453  140.1888  156.0706 H   0  0  0  0  0  0  0  0  0  0  0  0  # atno 8010 bound_to 7997
  139.5313  144.6633  151.4942 H   0  0  0  0  0  0  0  0  0  0  0  0  # atno 10167 bound_to 10162
  157.6960  131.0387  150.3646 H   0  0  0  0  0  0  0  0  0  0  0  0  # atno 10718 bound_to 10713
  154.4176  135.2757  155.1996 H   0  0  0  0  0  0  0  0  0  0  0  0  # atno 10763 bound_to 10752
  154.3956  135.6056  153.5871 H   0  0  0  0  0  0  0  0  0  0  0  0  # atno 10764 bound_to 10752
  152.9832  135.5914  154.4467 H   0  0  0  0  0  0  0  0  0  0  0  0  # atno 10765 bound_to 10752
  140.9226  133.7389  156.0822 H   0  0  0  0  0  0  0  0  0  0  0  0  # atno 11005 bound_to 11000
  145.2104  140.9893  143.4104 LP  0  0  0  0  0  0  0  0  0  0  0  0  # atno 17320 bound_to 7965
  144.9696  139.3894  143.6315 LP  0  0  0  0  0  0  0  0  0  0  0  0  # atno 17321 bound_to 7965
  140.6492  143.8731  150.6768 LP  0  0  0  0  0  0  0  0  0  0  0  0  # atno 17342 bound_to 10162
  140.2090  143.3898  152.1733 LP  0  0  0  0  0  0  0  0  0  0  0  0  # atno 17343 bound_to 10162
  156.4078  130.3928  149.6913 LP  0  0  0  0  0  0  0  0  0  0  0  0  # atno 17370 bound_to 10713
  156.4208  130.7767  151.2784 LP  0  0  0  0  0  0  0  0  0  0  0  0  # atno 17371 bound_to 10713
  140.7968  134.3554  157.5450 LP  0  0  0  0  0  0  0  0  0  0  0  0  # atno 17394 bound_to 11000
  139.8778  134.9174  156.3177 LP  0  0  0  0  0  0  0  0  0  0  0  0  # atno 17395 bound_to 11000

$$$$
