AV-unprocessed.smi:798|AV-procd|sdf|3782|dock7
  -GOLD-   22720 1213D 1   1.00000     0.00000
 Structure written by MMmdl.
 33 35  0  0  0  0  0  0  0  0  2 V2000
  147.7462  137.0822  158.0470 O   0  0  0  0  0  0  0  0  0  0  0  0
  148.7962  136.7831  158.6199 C   0  0  0  0  0  0  0  0  0  0  0  0
  148.9345  135.8908  159.6269 N   0  5  0  0  0  0  0  0  0  0  0  0
  148.0605  135.8851  160.6470 C   0  0  0  0  0  0  0  0  0  0  0  0
  147.6003  137.0166  161.2044 N   0  0  0  0  0  0  0  0  0  0  0  0
  146.7163  136.7896  162.2506 N   0  0  0  0  0  0  0  0  0  0  0  0
  146.5372  135.4859  162.4613 C   0  0  0  0  0  0  0  0  0  0  0  0
  147.4329  134.4174  161.4025 S   0  0  0  0  0  0  0  0  0  0  0  0
  149.9481  137.3613  158.2519 N   0  0  0  0  0  0  0  0  0  0  0  0
  150.1123  138.3490  157.1871 C   0  0  1  0  0  0  0  0  0  0  0  0
  150.6933  139.6619  157.7567 C   0  0  2  0  0  0  0  0  0  0  0  0
  150.4887  140.7857  156.7246 C   0  0  0  0  0  0  0  0  0  0  0  0
  151.5174  140.4289  155.6354 C   0  0  0  0  0  0  0  0  0  0  0  0
  152.1604  139.1339  156.1774 C   0  0  1  0  0  0  0  0  0  0  0  0
  152.1997  139.4338  157.6703 C   0  0  0  0  0  0  0  0  0  0  0  0
  151.1796  137.9348  156.1408 C   0  0  2  0  0  0  0  0  0  0  0  0
  150.5990  137.5744  154.7593 C   0  0  0  0  0  0  0  0  0  0  0  0
  151.6275  137.1754  153.8779 O   0  0  0  0  0  0  0  0  0  0  0  0
  145.8766  135.1514  163.2469 H   0  0  0  0  0  0  0  0  0  0  0  0
  150.7822  137.0864  158.7495 H   0  0  0  0  0  0  0  0  0  0  0  0
  149.1413  138.5399  156.7259 H   0  0  0  0  0  0  0  0  0  0  0  0
  150.3203  139.9187  158.7491 H   0  0  0  0  0  0  0  0  0  0  0  0
  149.4685  140.8200  156.3406 H   0  0  0  0  0  0  0  0  0  0  0  0
  150.7145  141.7599  157.1598 H   0  0  0  0  0  0  0  0  0  0  0  0
  151.0687  140.3120  154.6499 H   0  0  0  0  0  0  0  0  0  0  0  0
  152.2665  141.2174  155.5544 H   0  0  0  0  0  0  0  0  0  0  0  0
  153.1328  138.9130  155.7361 H   0  0  0  0  0  0  0  0  0  0  0  0
  152.7870  140.3189  157.9213 H   0  0  0  0  0  0  0  0  0  0  0  0
  152.5472  138.5936  158.2740 H   0  0  0  0  0  0  0  0  0  0  0  0
  151.7200  137.0592  156.5070 H   0  0  0  0  0  0  0  0  0  0  0  0
  149.8950  136.7481  154.8572 H   0  0  0  0  0  0  0  0  0  0  0  0
  150.0437  138.4030  154.3213 H   0  0  0  0  0  0  0  0  0  0  0  0
  151.2525  136.6182  153.2133 H   0  0  0  0  0  0  0  0  0  0  0  0
  1  2  2  0  0  0  0
  2  3  1  0  0  0  0
  2  9  1  0  0  0  0
  3  4  1  0  0  0  0
  4  8  1  0  0  0  0
  4  5  2  0  0  0  0
  5  6  1  0  0  0  0
  6  7  2  0  0  0  0
  7  8  1  0  0  0  0
  7 19  1  0  0  0  0
  9 10  1  0  0  0  0
  9 20  1  0  0  0  0
 10 16  1  0  0  0  0
 10 11  1  0  0  0  0
 10 21  1  0  0  0  0
 11 15  1  0  0  0  0
 11 12  1  0  0  0  0
 11 22  1  0  0  0  0
 12 13  1  0  0  0  0
 12 23  1  0  0  0  0
 12 24  1  0  0  0  0
 13 14  1  0  0  0  0
 13 25  1  0  0  0  0
 13 26  1  0  0  0  0
 14 15  1  0  0  0  0
 14 16  1  0  0  0  0
 14 27  1  0  0  0  0
 15 28  1  0  0  0  0
 15 29  1  0  0  0  0
 16 17  1  0  0  0  0
 16 30  1  0  0  0  0
 17 18  1  0  0  0  0
 17 31  1  0  0  0  0
 17 32  1  0  0  0  0
 18 33  1  0  0  0  0
M  CHG  1   3  -1
M  END
> <s_m_source_file>
AV-unprocessed.smi

> <i_m_source_file_index>
798

> <i_lp_mmshare_version>
43012

> <i_f3d_flags>
0

> <s_epik_input>
W0NIMl0xW0NIMl1bQ0BASF0oW0NIMl0yKVtDQEBIXShbQ0gyXVtPSF0pW0NAQEhdKFtDQEhdMTIpW05IXUMoPU8pW05IXWMzbm5bY0hdczM=

> <s_epik_cmdline>
J2VwaWtfcHl0aG9uJywgJy1waCcsICc3LjAnLCAnLXRuJywgJzgnLCAnLW1hJywgJzIwMCcsICctbWV0YWxfYmluZGluZycsICctaW1hZScsICc8aW5maWxlLm1hZT4nLCAnLW9tYWUnLCAnPG91dGZpbGUubWFlPic=

> <r_lp_tautomer_probability>
1

> <r_epik_Ionization_Penalty>
4.53732

> <r_epik_Ionization_Penalty_Charging>
4.48632

> <r_epik_Ionization_Penalty_Neutral>
0.0510007

> <r_epik_State_Penalty>
4.48602

> <r_epik_Charging_Adjusted_Penalty>
8.97234

> <i_epik_Tot_Q>
-1

> <i_epik_Tot_abs_Q>
1

> <r_epik_Metal_State_Penalty>
0.812492

> <b_epik_Metal_Only>
1

> <s_lp_Force_Field>
OPLS_2005

> <r_lp_Energy>
47.3152

> <b_lp_Chiralities_Consistent>
1

> <s_lp_Variant>
AV-unprocessed.smi:798-14

> <Gold.Version>
5.8.1

> <Gold.Id.Protein>
6NUR|6NUR_protein|mol2

> <Gold.PLP.Fitness>
41.2697

> <Gold.PLP.PLP>
-28.3801

> <Gold.PLP.part.hbond>
-5.0000

> <Gold.PLP.part.metal>
0.0000

> <Gold.PLP.part.buried>
-3.9240

> <Gold.PLP.part.nonpolar>
-19.6960

> <Gold.PLP.part.repulsive>
0.1297

> <Gold.PLP.ligand.clash>
0.0000

> <Gold.PLP.ligand.torsion>
0.7019

> <Gold.PLP.Chemscore.Hbond>
4.7565

> <Gold.PLP.Chemscore.CHOScore>
0.0000

> <Gold.PLP.Chemscore.Metal>
0.0000

> <Gold.Chemscore.Hbonds>
donor molecule, donor type, donor heavy atom, donor atom, acceptor molecule, acceptor atom, score
      L1  H    18    33       P1  7949  1.00
      P1  H  6896  6907       L1     3  1.43
      P1  H  6931  6943       L1     5  1.00
      P1  H  6934  6947       L1     5  0.72
      P1  H 10752 10763       L1    18  0.30

> <Gold.PLP.Chemscore.Internal.Correction>
0.0238

> <Gold.Rescore>
     Score         DG    S(hbond)    S(metal)    S(lipo)     H(rot)  DE(clash)    DE(int)     intcor
     15.29     -16.17       2.68        0.00      56.83       1.92       0.05       0.83       ----

> <Gold.Chemscore.Fitness>
15.2925

> <Gold.Chemscore.DG>
-16.1667

> <Gold.Chemscore.ZeroCoef>
-5.4800

> <Gold.Chemscore.Hbond>
2.6808

> <Gold.Chemscore.Metal>
0.0000

> <Gold.Chemscore.Lipo>
56.8335

> <Gold.Chemscore.Internal_Hbond>
0.0000

> <Gold.Chemscore.DEClash>
0.0456

> <Gold.Chemscore.DEInternal>
0.8285

> <Gold.Chemscore.Rot>
1.9207

> <Gold.Chemscore.Internal.Correction>
   9.000000E+99

> <Gold.Chemscore.Hbonds>
donor molecule, donor type, donor heavy atom, donor atom, acceptor molecule, acceptor atom, score
      L1  H    18    33       P1  7949  0.58
      P1  H  6896  6907       L1     3  0.65
      P1  H  6931  6943       L1     5  0.49
      P1  H  6934  6947       L1     5  0.12

> <Gold.Chemscore.Hbond.Weighted>
-8.9540

> <Gold.Chemscore.Metal.Weighted>
-0.0000

> <Gold.Chemscore.Lipo.Weighted>
-6.6495

> <Gold.Chemscore.Internal_Hbond.Weighted>
0.0000

> <Gold.Chemscore.DEClash.Weighted>
0.0456

> <Gold.Chemscore.DEInternal.Weighted>
0.8285

> <Gold.Chemscore.Rot.Weighted>
4.9169

> <Gold.Chemscore.Internal.Correction.Weighted>
   9.000000E+99

> <Gold.Protein.RotatedTorsions>
[ 6907 6896 6895 6894 ] final  -52.42 input  -60.11 | X-H torsion
[ 7974 7965 7964 7962 ] final  -36.19 input  175.53 | X-H torsion
[ 8008 7997 7996 7995 ] final   -9.75 input   59.86 | X-H torsion
[ 10167 10162 10161 10158 ] final   70.93 input  -65.29 | X-H torsion
[ 10718 10713 10712 10709 ] final -171.88 input   66.30 | X-H torsion
[ 10763 10752 10751 10750 ] final   33.49 input  -60.55 | X-H torsion
[ 11005 11000 10999 10996 ] final  -43.05 input  -57.11 | X-H torsion

> <Gold.Protein.ActiveResidues>
 VAL166  LYS551  ARG553  GLY616  TRP617  ASP618  TYR619  PRO620  LYS621  CYS622 
 ASP623  PHE694  ASN695  SER759  ASP760  ASP761  ALA762  ILE779  LEU786  VAL792 
 PHE793  MET794  SER795  GLU796  ALA797  LYS798  CYS799  TRP800  GLU811  SER814 

> <Gold.Protein.RotatedAtoms>
  150.8519  134.7847  159.7015 H   0  0  0  0  0  0  0  0  0  0  0  0  # atno 6907 bound_to 6896
  152.4581  134.5242  159.9801 H   0  0  0  0  0  0  0  0  0  0  0  0  # atno 6908 bound_to 6896
  151.5361  133.3402  159.2962 H   0  0  0  0  0  0  0  0  0  0  0  0  # atno 6909 bound_to 6896
  146.0683  140.6249  142.8965 H   0  0  0  0  0  0  0  0  0  0  0  0  # atno 7974 bound_to 7965
  154.5618  140.2347  155.8324 H   0  0  0  0  0  0  0  0  0  0  0  0  # atno 8008 bound_to 7997
  156.2035  140.3046  155.9537 H   0  0  0  0  0  0  0  0  0  0  0  0  # atno 8009 bound_to 7997
  155.2875  140.0425  157.3011 H   0  0  0  0  0  0  0  0  0  0  0  0  # atno 8010 bound_to 7997
  140.0516  144.5307  150.7359 H   0  0  0  0  0  0  0  0  0  0  0  0  # atno 10167 bound_to 10162
  156.7474  130.9365  151.3113 H   0  0  0  0  0  0  0  0  0  0  0  0  # atno 10718 bound_to 10713
  153.0210  135.6386  154.1519 H   0  0  0  0  0  0  0  0  0  0  0  0  # atno 10763 bound_to 10752
  154.1253  135.2844  155.3200 H   0  0  0  0  0  0  0  0  0  0  0  0  # atno 10764 bound_to 10752
  154.6234  135.5517  153.7662 H   0  0  0  0  0  0  0  0  0  0  0  0  # atno 10765 bound_to 10752
  141.0358  133.6800  156.2680 H   0  0  0  0  0  0  0  0  0  0  0  0  # atno 11005 bound_to 11000
  144.7216  140.4390  143.7004 LP  0  0  0  0  0  0  0  0  0  0  0  0  # atno 17320 bound_to 7965
  145.6438  139.1554  143.2900 LP  0  0  0  0  0  0  0  0  0  0  0  0  # atno 17321 bound_to 7965
  140.7214  143.2592  151.4267 LP  0  0  0  0  0  0  0  0  0  0  0  0  # atno 17342 bound_to 10162
  139.5949  144.1419  152.2132 LP  0  0  0  0  0  0  0  0  0  0  0  0  # atno 17343 bound_to 10162
  157.6792  130.9123  150.0224 LP  0  0  0  0  0  0  0  0  0  0  0  0  # atno 17370 bound_to 10713
  156.1424  130.3642  149.9562 LP  0  0  0  0  0  0  0  0  0  0  0  0  # atno 17371 bound_to 10713
  140.6325  134.5249  157.5561 LP  0  0  0  0  0  0  0  0  0  0  0  0  # atno 17394 bound_to 11000
  139.9239  134.8094  156.1126 LP  0  0  0  0  0  0  0  0  0  0  0  0  # atno 17395 bound_to 11000

$$$$
