AV-unprocessed.smi:2021|AV-procd|sdf|8179|dock3
  -GOLD-   2272010433D 1   1.00000     0.00000
 Structure written by MMmdl.
 41 42  0  0  0  0  0  0  0  0  1 V2000
  151.6549  145.2503  160.3598 C   0  0  0  0  0  0  0  0  0  0  0  0
  152.3313  144.2282  159.4304 C   0  0  0  0  0  0  0  0  0  0  0  0
  152.8413  144.8606  158.1239 C   0  0  0  0  0  0  0  0  0  0  0  0
  151.5049  142.9356  159.2182 C   0  0  0  0  0  0  0  0  0  0  0  0
  152.2403  141.6844  159.0061 N   0  0  0  0  0  0  0  0  0  0  0  0
  153.0260  141.2737  160.1666 C   0  0  0  0  0  0  0  0  0  0  0  0
  153.7428  139.9328  159.9344 C   0  0  0  0  0  0  0  0  0  0  0  0
  152.7924  138.9364  159.5771 O   0  0  0  0  0  0  0  0  0  0  0  0
  152.0557  139.2715  158.4039 C   0  0  1  0  0  0  0  0  0  0  0  0
  151.0772  138.1251  158.0974 C   0  0  0  0  0  0  0  0  0  0  0  0
  150.0960  137.9563  159.1639 N   0  0  0  0  0  0  0  0  0  0  0  0
  149.3831  136.8432  159.3853 C   0  0  0  0  0  0  0  0  0  0  0  0
  149.4634  135.8358  158.6825 O   0  0  0  0  0  0  0  0  0  0  0  0
  148.5907  136.9803  160.4607 N   0  0  0  0  0  0  0  0  0  0  0  0
  147.7041  136.0253  161.0180 C   0  0  0  0  0  0  0  0  0  0  0  0
  147.1556  135.1224  160.1965 N   0  0  0  0  0  0  0  0  0  0  0  0
  146.3091  134.2509  160.8711 N   0  0  0  0  0  0  0  0  0  0  0  0
  146.2523  134.5312  162.1766 C   0  0  0  0  0  0  0  0  0  0  0  0
  147.2280  135.8873  162.7132 S   0  0  0  0  0  0  0  0  0  0  0  0
  151.3236  140.6048  158.6507 C   0  0  0  0  0  0  0  0  0  0  0  0
  150.7626  145.6818  159.9062 H   0  0  0  0  0  0  0  0  0  0  0  0
  152.3319  146.0717  160.5958 H   0  0  0  0  0  0  0  0  0  0  0  0
  151.3596  144.7869  161.3016 H   0  0  0  0  0  0  0  0  0  0  0  0
  153.2342  143.9051  159.9503 H   0  0  0  0  0  0  0  0  0  0  0  0
  152.0434  145.3007  157.5295 H   0  0  0  0  0  0  0  0  0  0  0  0
  153.3497  144.1224  157.5029 H   0  0  0  0  0  0  0  0  0  0  0  0
  153.5581  145.6545  158.3350 H   0  0  0  0  0  0  0  0  0  0  0  0
  150.7900  142.8142  160.0332 H   0  0  0  0  0  0  0  0  0  0  0  0
  150.8945  143.1110  158.3311 H   0  0  0  0  0  0  0  0  0  0  0  0
  153.7830  142.0209  160.3920 H   0  0  0  0  0  0  0  0  0  0  0  0
  152.3818  141.1954  161.0437 H   0  0  0  0  0  0  0  0  0  0  0  0
  154.4935  140.0270  159.1484 H   0  0  0  0  0  0  0  0  0  0  0  0
  154.2643  139.6201  160.8390 H   0  0  0  0  0  0  0  0  0  0  0  0
  152.7471  139.3919  157.5676 H   0  0  0  0  0  0  0  0  0  0  0  0
  150.5430  138.3270  157.1686 H   0  0  0  0  0  0  0  0  0  0  0  0
  151.6211  137.1915  157.9443 H   0  0  0  0  0  0  0  0  0  0  0  0
  149.9715  138.7362  159.7924 H   0  0  0  0  0  0  0  0  0  0  0  0
  148.6308  137.8669  160.9413 H   0  0  0  0  0  0  0  0  0  0  0  0
  145.6313  133.9345  162.8280 H   0  0  0  0  0  0  0  0  0  0  0  0
  150.5869  140.4712  159.4447 H   0  0  0  0  0  0  0  0  0  0  0  0
  150.7668  140.8771  157.7534 H   0  0  0  0  0  0  0  0  0  0  0  0
  1  2  1  0  0  0  0
  1 21  1  0  0  0  0
  1 22  1  0  0  0  0
  1 23  1  0  0  0  0
  2  3  1  0  0  0  0
  2  4  1  0  0  0  0
  2 24  1  0  0  0  0
  3 25  1  0  0  0  0
  3 26  1  0  0  0  0
  3 27  1  0  0  0  0
  4  5  1  0  0  0  0
  4 28  1  0  0  0  0
  4 29  1  0  0  0  0
  5 20  1  0  0  0  0
  5  6  1  0  0  0  0
  6  7  1  0  0  0  0
  6 30  1  0  0  0  0
  6 31  1  0  0  0  0
  7  8  1  0  0  0  0
  7 32  1  0  0  0  0
  7 33  1  0  0  0  0
  8  9  1  0  0  0  0
  9 10  1  0  0  0  0
  9 20  1  0  0  0  0
  9 34  1  0  0  0  0
 10 11  1  0  0  0  0
 10 35  1  0  0  0  0
 10 36  1  0  0  0  0
 11 12  1  0  0  0  0
 11 37  1  0  0  0  0
 12 13  2  0  0  0  0
 12 14  1  0  0  0  0
 14 15  1  0  0  0  0
 14 38  1  0  0  0  0
 15 19  1  0  0  0  0
 15 16  2  0  0  0  0
 16 17  1  0  0  0  0
 17 18  2  0  0  0  0
 18 19  1  0  0  0  0
 18 39  1  0  0  0  0
 20 40  1  0  0  0  0
 20 41  1  0  0  0  0
M  END
> <s_m_source_file>
AV-unprocessed.smi

> <i_m_source_file_index>
2021

> <i_lp_mmshare_version>
43012

> <i_f3d_flags>
0

> <s_epik_input>
W0NIM11bQ0hdKFtDSDNdKVtDSDJdTjFbQ0gyXVtDSDJdT1tDQEhdKFtDSDJdMSlbQ0gyXVtOSF1DKD1PKVtOSF1jMm5uW2NIXXMy

> <s_epik_cmdline>
J2VwaWtfcHl0aG9uJywgJy1waCcsICc3LjAnLCAnLXRuJywgJzgnLCAnLW1hJywgJzIwMCcsICctbWV0YWxfYmluZGluZycsICctaW1hZScsICc8aW5maWxlLm1hZT4nLCAnLW9tYWUnLCAnPG91dGZpbGUubWFlPic=

> <r_lp_tautomer_probability>
1

> <r_epik_Ionization_Penalty>
1.11451

> <r_epik_Ionization_Penalty_Charging>
0

> <r_epik_Ionization_Penalty_Neutral>
1.11451

> <r_epik_State_Penalty>
1.17021

> <r_epik_Charging_Adjusted_Penalty>
1.17021

> <i_epik_Tot_Q>
0

> <i_epik_Tot_abs_Q>
0

> <r_epik_Metal_State_Penalty>
1.53642

> <b_epik_Metal_Only>
0

> <s_lp_Force_Field>
OPLS_2005

> <r_lp_Energy>
25.242

> <b_lp_Chiralities_Consistent>
1

> <s_lp_Variant>
AV-unprocessed.smi:2021-5

> <Gold.Version>
5.8.1

> <Gold.Id.Protein>
6NUR|6NUR_protein|mol2

> <Gold.PLP.Fitness>
40.8294

> <Gold.PLP.PLP>
-39.0435

> <Gold.PLP.part.hbond>
-1.0000

> <Gold.PLP.part.metal>
0.0000

> <Gold.PLP.part.buried>
-6.4425

> <Gold.PLP.part.nonpolar>
-33.8543

> <Gold.PLP.part.repulsive>
1.7872

> <Gold.PLP.ligand.clash>
0.0000

> <Gold.PLP.ligand.torsion>
0.6600

> <Gold.PLP.Chemscore.Hbond>
1.0000

> <Gold.PLP.Chemscore.CHOScore>
0.0000

> <Gold.PLP.Chemscore.Metal>
0.0000

> <Gold.Chemscore.Hbonds>
donor molecule, donor type, donor heavy atom, donor atom, acceptor molecule, acceptor atom, score
      P1  H  6896  6909       L1    13  1.00

> <Gold.PLP.Chemscore.Internal.Correction>
0.1059

> <Gold.Rescore>
     Score         DG    S(hbond)    S(metal)    S(lipo)     H(rot)  DE(clash)    DE(int)     intcor
     12.75     -14.88       0.83        0.00      96.97       1.84       0.24       1.89       ----

> <Gold.Chemscore.Fitness>
12.7494

> <Gold.Chemscore.DG>
-14.8808

> <Gold.Chemscore.ZeroCoef>
-5.4800

> <Gold.Chemscore.Hbond>
0.8291

> <Gold.Chemscore.Metal>
0.0000

> <Gold.Chemscore.Lipo>
96.9698

> <Gold.Chemscore.Internal_Hbond>
0.0000

> <Gold.Chemscore.DEClash>
0.2418

> <Gold.Chemscore.DEInternal>
1.8895

> <Gold.Chemscore.Rot>
1.8413

> <Gold.Chemscore.Internal.Correction>
   9.000000E+99

> <Gold.Chemscore.Hbonds>
donor molecule, donor type, donor heavy atom, donor atom, acceptor molecule, acceptor atom, score
      P1  H  6896  6909       L1    13  0.73

> <Gold.Chemscore.Hbond.Weighted>
-2.7691

> <Gold.Chemscore.Metal.Weighted>
-0.0000

> <Gold.Chemscore.Lipo.Weighted>
-11.3455

> <Gold.Chemscore.Internal_Hbond.Weighted>
0.0000

> <Gold.Chemscore.DEClash.Weighted>
0.2418

> <Gold.Chemscore.DEInternal.Weighted>
1.8895

> <Gold.Chemscore.Rot.Weighted>
4.7138

> <Gold.Chemscore.Internal.Correction.Weighted>
   9.000000E+99

> <Gold.Protein.RotatedTorsions>
[ 6907 6896 6895 6894 ] final   43.98 input  -60.11 | X-H torsion
[ 7974 7965 7964 7962 ] final -131.50 input  175.53 | X-H torsion
[ 8008 7997 7996 7995 ] final -154.65 input   59.86 | X-H torsion
[ 10167 10162 10161 10158 ] final   -0.06 input  -65.29 | X-H torsion
[ 10718 10713 10712 10709 ] final  110.26 input   66.30 | X-H torsion
[ 10763 10752 10751 10750 ] final   91.49 input  -60.55 | X-H torsion
[ 11005 11000 10999 10996 ] final   14.96 input  -57.11 | X-H torsion

> <Gold.Protein.ActiveResidues>
 VAL166  LYS551  ARG553  GLY616  TRP617  ASP618  TYR619  PRO620  LYS621  CYS622 
 ASP623  PHE694  ASN695  SER759  ASP760  ASP761  ALA762  ILE779  LEU786  VAL792 
 PHE793  MET794  SER795  GLU796  ALA797  LYS798  CYS799  TRP800  GLU811  SER814 

> <Gold.Protein.RotatedAtoms>
  152.2269  134.8359  160.0478 H   0  0  0  0  0  0  0  0  0  0  0  0  # atno 6907 bound_to 6896
  151.9122  133.3559  159.3876 H   0  0  0  0  0  0  0  0  0  0  0  0  # atno 6908 bound_to 6896
  150.7015  134.4646  159.5441 H   0  0  0  0  0  0  0  0  0  0  0  0  # atno 6909 bound_to 6896
  144.9373  140.7198  143.4868 H   0  0  0  0  0  0  0  0  0  0  0  0  # atno 7974 bound_to 7965
  155.6896  140.0754  157.2453 H   0  0  0  0  0  0  0  0  0  0  0  0  # atno 8008 bound_to 7997
  154.4091  140.1667  156.2124 H   0  0  0  0  0  0  0  0  0  0  0  0  # atno 8009 bound_to 7997
  155.9463  140.3380  155.6373 H   0  0  0  0  0  0  0  0  0  0  0  0  # atno 8010 bound_to 7997
  140.6751  143.6939  150.8005 H   0  0  0  0  0  0  0  0  0  0  0  0  # atno 10167 bound_to 10162
  157.6503  131.0929  150.6575 H   0  0  0  0  0  0  0  0  0  0  0  0  # atno 10718 bound_to 10713
  153.2088  135.4396  155.0355 H   0  0  0  0  0  0  0  0  0  0  0  0  # atno 10763 bound_to 10752
  154.8189  135.3328  154.7100 H   0  0  0  0  0  0  0  0  0  0  0  0  # atno 10764 bound_to 10752
  153.7539  135.6996  153.4995 H   0  0  0  0  0  0  0  0  0  0  0  0  # atno 10765 bound_to 10752
  140.4636  134.1102  155.7720 H   0  0  0  0  0  0  0  0  0  0  0  0  # atno 11005 bound_to 11000
  145.3046  139.1839  143.4671 LP  0  0  0  0  0  0  0  0  0  0  0  0  # atno 17320 bound_to 7965
  146.3272  140.3042  142.8622 LP  0  0  0  0  0  0  0  0  0  0  0  0  # atno 17321 bound_to 7965
  140.0631  143.5135  152.2618 LP  0  0  0  0  0  0  0  0  0  0  0  0  # atno 17342 bound_to 10162
  139.6039  144.7590  151.3108 LP  0  0  0  0  0  0  0  0  0  0  0  0  # atno 17343 bound_to 10162
  156.6887  130.4589  149.5606 LP  0  0  0  0  0  0  0  0  0  0  0  0  # atno 17370 bound_to 10713
  156.1877  130.6539  151.1025 LP  0  0  0  0  0  0  0  0  0  0  0  0  # atno 17371 bound_to 10713
  141.1609  133.8794  157.1849 LP  0  0  0  0  0  0  0  0  0  0  0  0  # atno 17394 bound_to 11000
  139.9929  135.0058  157.0017 LP  0  0  0  0  0  0  0  0  0  0  0  0  # atno 17395 bound_to 11000

$$$$
