AV-unprocessed.smi:1718|AV-procd|sdf|6924|dock9
  -GOLD-   22720 8133D 1   1.00000     0.00000
 Structure written by MMmdl.
 40 41  0  0  0  0  0  0  0  0  1 V2000
  147.9947  138.3736  157.7697 C   0  0  0  0  0  0  0  0  0  0  0  0
  149.2005  137.4402  157.9550 C   0  0  2  0  0  0  0  0  0  0  0  0
  148.7825  136.3614  158.7850 O   0  0  0  0  0  0  0  0  0  0  0  0
  148.6460  136.6701  160.1685 C   0  0  0  0  0  0  0  0  0  0  0  0
  147.1689  136.5583  160.5693 C   0  0  1  0  0  0  0  0  0  0  0  0
  146.7155  135.1356  160.9313 C   0  0  0  0  0  0  0  0  0  0  0  0
  146.3937  135.2312  162.4100 C   0  0  0  0  0  0  0  0  0  0  0  0
  146.0010  136.6944  162.5597 C   0  0  0  0  0  0  0  0  0  0  0  0
  146.9237  137.3667  161.7174 O   0  0  0  0  0  0  0  0  0  0  0  0
  150.3868  138.1751  158.6000 C   0  0  0  0  0  0  0  0  0  0  0  0
  151.1435  137.5592  159.3503 O   0  0  0  0  0  0  0  0  0  0  0  0
  150.5017  139.4792  158.2787 N   0  0  0  0  0  0  0  0  0  0  0  0
  151.4757  140.4157  158.6649 C   0  0  0  0  0  0  0  0  0  0  0  0
  151.2258  141.7094  158.9979 C   0  0  0  0  0  0  0  0  0  0  0  0
  152.2841  142.6224  159.3967 C   0  0  0  0  0  0  0  0  0  0  0  0
  152.0035  144.0898  159.6823 C   0  0  0  0  0  0  0  0  0  0  0  0
  150.7085  144.3728  159.5344 F   0  0  0  0  0  0  0  0  0  0  0  0
  152.3632  144.4121  160.9248 F   0  0  0  0  0  0  0  0  0  0  0  0
  152.6945  144.8551  158.8388 F   0  0  0  0  0  0  0  0  0  0  0  0
  153.5331  142.1217  159.4149 C   0  0  0  0  0  0  0  0  0  0  0  0
  153.7957  140.7871  159.0981 N   0  0  0  0  0  0  0  0  0  0  0  0
  152.8515  139.8947  158.7243 C   0  0  0  0  0  0  0  0  0  0  0  0
  153.1642  138.7343  158.4601 O   0  0  0  0  0  0  0  0  0  0  0  0
  154.7573  140.4832  159.1525 H   0  0  0  0  0  0  0  0  0  0  0  0
  148.2510  139.2345  157.1512 H   0  0  0  0  0  0  0  0  0  0  0  0
  147.6219  138.7452  158.7251 H   0  0  0  0  0  0  0  0  0  0  0  0
  147.1740  137.8492  157.2799 H   0  0  0  0  0  0  0  0  0  0  0  0
  149.4872  137.0551  156.9743 H   0  0  0  0  0  0  0  0  0  0  0  0
  149.2488  135.9868  160.7682 H   0  0  0  0  0  0  0  0  0  0  0  0
  148.9961  137.6815  160.3767 H   0  0  0  0  0  0  0  0  0  0  0  0
  146.5478  136.9346  159.7554 H   0  0  0  0  0  0  0  0  0  0  0  0
  145.8157  134.8802  160.3704 H   0  0  0  0  0  0  0  0  0  0  0  0
  147.4656  134.3729  160.7191 H   0  0  0  0  0  0  0  0  0  0  0  0
  145.6083  134.5427  162.7232 H   0  0  0  0  0  0  0  0  0  0  0  0
  147.2874  135.0244  163.0003 H   0  0  0  0  0  0  0  0  0  0  0  0
  144.9859  136.8640  162.1978 H   0  0  0  0  0  0  0  0  0  0  0  0
  146.0651  137.0461  163.5895 H   0  0  0  0  0  0  0  0  0  0  0  0
  149.7685  139.8570  157.6955 H   0  0  0  0  0  0  0  0  0  0  0  0
  150.2226  142.1019  158.9963 H   0  0  0  0  0  0  0  0  0  0  0  0
  154.4147  142.6944  159.6625 H   0  0  0  0  0  0  0  0  0  0  0  0
  1  2  1  0  0  0  0
  1 25  1  0  0  0  0
  1 26  1  0  0  0  0
  1 27  1  0  0  0  0
  2  3  1  0  0  0  0
  2 10  1  0  0  0  0
  2 28  1  0  0  0  0
  3  4  1  0  0  0  0
  4  5  1  0  0  0  0
  4 29  1  0  0  0  0
  4 30  1  0  0  0  0
  5  9  1  0  0  0  0
  5  6  1  0  0  0  0
  5 31  1  0  0  0  0
  6  7  1  0  0  0  0
  6 32  1  0  0  0  0
  6 33  1  0  0  0  0
  7  8  1  0  0  0  0
  7 34  1  0  0  0  0
  7 35  1  0  0  0  0
  8  9  1  0  0  0  0
  8 36  1  0  0  0  0
  8 37  1  0  0  0  0
 10 11  2  0  0  0  0
 10 12  1  0  0  0  0
 12 13  1  0  0  0  0
 12 38  1  0  0  0  0
 13 22  1  0  0  0  0
 13 14  2  0  0  0  0
 14 15  1  0  0  0  0
 14 39  1  0  0  0  0
 15 16  1  0  0  0  0
 15 20  2  0  0  0  0
 16 17  1  0  0  0  0
 16 18  1  0  0  0  0
 16 19  1  0  0  0  0
 20 21  1  0  0  0  0
 20 40  1  0  0  0  0
 21 24  1  0  0  0  0
 21 22  1  0  0  0  0
 22 23  2  0  0  0  0
M  END
> <s_m_source_file>
AV-unprocessed.smi

> <i_m_source_file_index>
1718

> <i_lp_mmshare_version>
43012

> <i_f3d_flags>
0

> <s_epik_input>
TzFbQ0gyXVtDSDJdW0NIMl1bQ0BIXTFbQ0gyXU9bQ0BASF0oW0NIM10pQyg9TylbTkhdYzJbY0hdYyhDKEYpKEYpRilbY0hdW25IXWMyPU8=

> <s_epik_cmdline>
J2VwaWtfcHl0aG9uJywgJy1waCcsICc3LjAnLCAnLXRuJywgJzgnLCAnLW1hJywgJzIwMCcsICctbWV0YWxfYmluZGluZycsICctaW1hZScsICc8aW5maWxlLm1hZT4nLCAnLW9tYWUnLCAnPG91dGZpbGUubWFlPic=

> <r_lp_tautomer_probability>
0.999

> <r_epik_Ionization_Penalty>
0.00894336

> <r_epik_Ionization_Penalty_Charging>
0.00894326

> <r_epik_Ionization_Penalty_Neutral>
1.00145e-07

> <r_epik_State_Penalty>
0.00676626

> <r_epik_Charging_Adjusted_Penalty>
0.0157095

> <i_epik_Tot_Q>
0

> <i_epik_Tot_abs_Q>
0

> <r_epik_Metal_State_Penalty>
0.321145

> <b_epik_Metal_Only>
0

> <s_lp_Force_Field>
OPLS_2005

> <r_lp_Energy>
34.3894

> <b_lp_Chiralities_Consistent>
1

> <s_lp_Variant>
AV-unprocessed.smi:1718-3

> <Gold.Version>
5.8.1

> <Gold.Id.Protein>
6NUR|6NUR_protein|mol2

> <Gold.PLP.Fitness>
48.7267

> <Gold.PLP.PLP>
-45.4133

> <Gold.PLP.part.hbond>
-3.0000

> <Gold.PLP.part.metal>
0.0000

> <Gold.PLP.part.buried>
-4.9037

> <Gold.PLP.part.nonpolar>
-37.7902

> <Gold.PLP.part.repulsive>
0.2115

> <Gold.PLP.ligand.clash>
0.0000

> <Gold.PLP.ligand.torsion>
1.7958

> <Gold.PLP.Chemscore.Hbond>
2.2828

> <Gold.PLP.Chemscore.CHOScore>
0.0000

> <Gold.PLP.Chemscore.Metal>
0.0000

> <Gold.Chemscore.Hbonds>
donor molecule, donor type, donor heavy atom, donor atom, acceptor molecule, acceptor atom, score
      P1  H  6931  6943       L1     9  0.23
      P1  H  6934  6947       L1     9  0.88

> <Gold.PLP.Chemscore.Internal.Correction>
0.0567

> <Gold.Rescore>
     Score         DG    S(hbond)    S(metal)    S(lipo)     H(rot)  DE(clash)    DE(int)     intcor
      9.63     -16.48       1.97        0.00      78.86       1.88       0.09       6.76       ----

> <Gold.Chemscore.Fitness>
9.6300

> <Gold.Chemscore.DG>
-16.4816

> <Gold.Chemscore.ZeroCoef>
-5.4800

> <Gold.Chemscore.Hbond>
1.9717

> <Gold.Chemscore.Metal>
0.0000

> <Gold.Chemscore.Lipo>
78.8568

> <Gold.Chemscore.Internal_Hbond>
0.0000

> <Gold.Chemscore.DEClash>
0.0901

> <Gold.Chemscore.DEInternal>
6.7615

> <Gold.Chemscore.Rot>
1.8790

> <Gold.Chemscore.Internal.Correction>
   9.000000E+99

> <Gold.Chemscore.Hbonds>
donor molecule, donor type, donor heavy atom, donor atom, acceptor molecule, acceptor atom, score
      P1  H  6931  6943       L1     9  0.05
      P1  H  6934  6947       L1     9  0.19

> <Gold.Chemscore.Hbond.Weighted>
-6.5856

> <Gold.Chemscore.Metal.Weighted>
-0.0000

> <Gold.Chemscore.Lipo.Weighted>
-9.2262

> <Gold.Chemscore.Internal_Hbond.Weighted>
0.0000

> <Gold.Chemscore.DEClash.Weighted>
0.0901

> <Gold.Chemscore.DEInternal.Weighted>
6.7615

> <Gold.Chemscore.Rot.Weighted>
4.8102

> <Gold.Chemscore.Internal.Correction.Weighted>
   9.000000E+99

> <Gold.Protein.RotatedTorsions>
[ 6907 6896 6895 6894 ] final  -31.40 input  -60.11 | X-H torsion
[ 7974 7965 7964 7962 ] final   84.23 input  175.53 | X-H torsion
[ 8008 7997 7996 7995 ] final  121.52 input   59.86 | X-H torsion
[ 10167 10162 10161 10158 ] final   65.04 input  -65.29 | X-H torsion
[ 10718 10713 10712 10709 ] final  -72.38 input   66.30 | X-H torsion
[ 10763 10752 10751 10750 ] final  101.62 input  -60.55 | X-H torsion
[ 11005 11000 10999 10996 ] final   44.16 input  -57.11 | X-H torsion

> <Gold.Protein.ActiveResidues>
 VAL166  LYS551  ARG553  GLY616  TRP617  ASP618  TYR619  PRO620  LYS621  CYS622 
 ASP623  PHE694  ASN695  SER759  ASP760  ASP761  ALA762  ILE779  LEU786  VAL792 
 PHE793  MET794  SER795  GLU796  ALA797  LYS798  CYS799  TRP800  GLU811  SER814 

> <Gold.Protein.RotatedAtoms>
  151.0926  134.9925  159.8409 H   0  0  0  0  0  0  0  0  0  0  0  0  # atno 6907 bound_to 6896
  152.5430  134.2047  159.8736 H   0  0  0  0  0  0  0  0  0  0  0  0  # atno 6908 bound_to 6896
  151.2084  133.4526  159.2631 H   0  0  0  0  0  0  0  0  0  0  0  0  # atno 6909 bound_to 6896
  145.6014  139.2353  143.2243 H   0  0  0  0  0  0  0  0  0  0  0  0  # atno 7974 bound_to 7965
  156.2690  140.2806  156.1322 H   0  0  0  0  0  0  0  0  0  0  0  0  # atno 8008 bound_to 7997
  155.1042  140.0390  157.2723 H   0  0  0  0  0  0  0  0  0  0  0  0  # atno 8009 bound_to 7997
  154.6792  140.2605  155.6932 H   0  0  0  0  0  0  0  0  0  0  0  0  # atno 8010 bound_to 7997
  140.1156  144.4778  150.6951 H   0  0  0  0  0  0  0  0  0  0  0  0  # atno 10167 bound_to 10162
  156.0323  130.4371  150.2584 H   0  0  0  0  0  0  0  0  0  0  0  0  # atno 10718 bound_to 10713
  153.3290  135.4038  155.1479 H   0  0  0  0  0  0  0  0  0  0  0  0  # atno 10763 bound_to 10752
  154.8618  135.3606  154.5496 H   0  0  0  0  0  0  0  0  0  0  0  0  # atno 10764 bound_to 10752
  153.5934  135.7073  153.5473 H   0  0  0  0  0  0  0  0  0  0  0  0  # atno 10765 bound_to 10752
  140.1577  134.4380  155.8338 H   0  0  0  0  0  0  0  0  0  0  0  0  # atno 11005 bound_to 11000
  146.1573  140.6839  142.9294 LP  0  0  0  0  0  0  0  0  0  0  0  0  # atno 17320 bound_to 7965
  144.7308  140.4666  143.6939 LP  0  0  0  0  0  0  0  0  0  0  0  0  # atno 17321 bound_to 7965
  140.6901  143.2371  151.5155 LP  0  0  0  0  0  0  0  0  0  0  0  0  # atno 17342 bound_to 10162
  139.5596  144.2190  152.1669 LP  0  0  0  0  0  0  0  0  0  0  0  0  # atno 17343 bound_to 10162
  157.0685  131.0110  151.3198 LP  0  0  0  0  0  0  0  0  0  0  0  0  # atno 17370 bound_to 10713
  157.5017  130.7884  149.7611 LP  0  0  0  0  0  0  0  0  0  0  0  0  # atno 17371 bound_to 10713
  141.2206  133.6900  156.7538 LP  0  0  0  0  0  0  0  0  0  0  0  0  # atno 17394 bound_to 11000
  140.2527  134.8528  157.3683 LP  0  0  0  0  0  0  0  0  0  0  0  0  # atno 17395 bound_to 11000

$$$$
