AV-unprocessed.smi:2243|AV-procd|sdf|9065|dock5
  -GOLD-   2272012273D 1   1.00000     0.00000
 Structure written by MMmdl.
 35 36  0  0  0  0  0  0  0  0  2 V2000
  147.0157  140.2253  151.7050 C   0  0  0  0  0  0  0  0  0  0  0  0
  146.8653  139.2752  152.9057 C   0  0  1  0  0  0  0  0  0  0  0  0
  146.8746  137.9021  152.3987 N   0  0  0  0  0  0  0  0  0  0  0  0
  145.7994  137.1154  152.2347 C   0  0  0  0  0  0  0  0  0  0  0  0
  144.6482  137.4586  152.5055 O   0  0  0  0  0  0  0  0  0  0  0  0
  146.1385  135.9137  151.7436 N   0  0  0  0  0  0  0  0  0  0  0  0
  145.2432  134.8570  151.4586 C   0  0  0  0  0  0  0  0  0  0  0  0
  145.2012  134.2088  150.2954 N   0  3  0  0  0  0  0  0  0  0  0  0
  144.2217  133.2490  150.3608 C   0  0  0  0  0  0  0  0  0  0  0  0
  143.6792  133.3540  151.6192 C   0  0  0  0  0  0  0  0  0  0  0  0
  144.3111  134.3608  152.3214 O   0  0  0  0  0  0  0  0  0  0  0  0
  147.9664  139.4671  153.9829 C   0  0  0  0  0  0  0  0  0  0  0  0
  148.4489  140.9302  154.0852 C   0  0  0  0  0  0  0  0  0  0  0  0
  149.5935  141.0741  155.1011 C   0  0  0  0  0  0  0  0  0  0  0  0
  150.6704  140.2166  154.7455 O   0  0  0  0  0  0  0  0  0  0  0  0
  150.3056  138.8425  154.7670 C   0  0  0  0  0  0  0  0  0  0  0  0
  149.1993  138.5741  153.7337 C   0  0  0  0  0  0  0  0  0  0  0  0
  146.8835  141.2673  151.9946 H   0  0  0  0  0  0  0  0  0  0  0  0
  146.2650  140.0137  150.9425 H   0  0  0  0  0  0  0  0  0  0  0  0
  147.9972  140.1280  151.2399 H   0  0  0  0  0  0  0  0  0  0  0  0
  145.9014  139.4904  153.3704 H   0  0  0  0  0  0  0  0  0  0  0  0
  147.7781  137.5273  152.1480 H   0  0  0  0  0  0  0  0  0  0  0  0
  145.7757  134.3655  149.4766 H   0  0  0  0  0  0  0  0  0  0  0  0
  144.0120  132.6001  149.5226 H   0  0  0  0  0  0  0  0  0  0  0  0
  142.8927  132.8269  152.1396 H   0  0  0  0  0  0  0  0  0  0  0  0
  147.5444  139.1902  154.9504 H   0  0  0  0  0  0  0  0  0  0  0  0
  148.7883  141.2745  153.1073 H   0  0  0  0  0  0  0  0  0  0  0  0
  147.6326  141.5891  154.3805 H   0  0  0  0  0  0  0  0  0  0  0  0
  149.9542  142.1028  155.1147 H   0  0  0  0  0  0  0  0  0  0  0  0
  149.2488  140.8449  156.1109 H   0  0  0  0  0  0  0  0  0  0  0  0
  151.1860  138.2430  154.5348 H   0  0  0  0  0  0  0  0  0  0  0  0
  149.9811  138.5557  155.7686 H   0  0  0  0  0  0  0  0  0  0  0  0
  148.9299  137.5193  153.7784 H   0  0  0  0  0  0  0  0  0  0  0  0
  149.5908  138.7554  152.7319 H   0  0  0  0  0  0  0  0  0  0  0  0
  147.1154  135.7409  151.5582 H   0  0  0  0  0  0  0  0  0  0  0  0
  1  2  1  0  0  0  0
  1 18  1  0  0  0  0
  1 19  1  0  0  0  0
  1 20  1  0  0  0  0
  2  3  1  0  0  0  0
  2 12  1  0  0  0  0
  2 21  1  0  0  0  0
  3 22  1  0  0  0  0
  3  4  1  0  0  0  0
  4  6  1  0  0  0  0
  4  5  2  0  0  0  0
  6  7  1  0  0  0  0
  6 35  1  0  0  0  0
  7 11  1  0  0  0  0
  7  8  2  0  0  0  0
  8 23  1  0  0  0  0
  8  9  1  0  0  0  0
  9 24  1  0  0  0  0
  9 10  2  0  0  0  0
 10 25  1  0  0  0  0
 10 11  1  0  0  0  0
 12 17  1  0  0  0  0
 12 13  1  0  0  0  0
 12 26  1  0  0  0  0
 13 14  1  0  0  0  0
 13 27  1  0  0  0  0
 13 28  1  0  0  0  0
 14 15  1  0  0  0  0
 14 29  1  0  0  0  0
 14 30  1  0  0  0  0
 15 16  1  0  0  0  0
 16 17  1  0  0  0  0
 16 31  1  0  0  0  0
 16 32  1  0  0  0  0
 17 33  1  0  0  0  0
 17 34  1  0  0  0  0
M  CHG  1   8   1
M  END
> <s_m_source_file>
AV-unprocessed.smi

> <i_m_source_file_index>
2243

> <i_lp_mmshare_version>
43012

> <i_f3d_flags>
0

> <s_epik_input>
W0NIMl0xW0NIMl1PW0NIMl1bQ0gyXVtDSF0xW0NASF0oW0NIM10pW05IXUMoPU8pW05IXWMybltjSF1bY0hdbzI=

> <s_epik_cmdline>
J2VwaWtfcHl0aG9uJywgJy1waCcsICc3LjAnLCAnLXRuJywgJzgnLCAnLW1hJywgJzIwMCcsICctbWV0YWxfYmluZGluZycsICctaW1hZScsICc8aW5maWxlLm1hZT4nLCAnLW9tYWUnLCAnPG91dGZpbGUubWFlPic=

> <r_epik_Ionization_Penalty>
6.61405

> <r_epik_Ionization_Penalty_Charging>
6.55981

> <r_epik_Ionization_Penalty_Neutral>
0.0542461

> <r_epik_State_Penalty>
1.79186

> <r_epik_Charging_Adjusted_Penalty>
8.35167

> <i_epik_Tot_Q>
1

> <i_epik_Tot_abs_Q>
1

> <r_epik_Metal_State_Penalty>
1.80655

> <b_epik_Metal_Only>
0

> <s_lp_Force_Field>
OPLS_2005

> <r_lp_Energy>
19.6033

> <b_lp_Chiralities_Consistent>
1

> <s_lp_Variant>
AV-unprocessed.smi:2243-4

> <Gold.Version>
5.8.1

> <Gold.Id.Protein>
6NUR|6NUR_protein|mol2

> <Gold.PLP.Fitness>
37.0899

> <Gold.PLP.PLP>
-26.6976

> <Gold.PLP.part.hbond>
-4.0000

> <Gold.PLP.part.metal>
0.0000

> <Gold.PLP.part.buried>
0.5263

> <Gold.PLP.part.nonpolar>
-24.8980

> <Gold.PLP.part.repulsive>
0.6442

> <Gold.PLP.ligand.clash>
0.0000

> <Gold.PLP.ligand.torsion>
1.3341

> <Gold.PLP.Chemscore.Hbond>
4.0000

> <Gold.PLP.Chemscore.CHOScore>
0.3481

> <Gold.PLP.Chemscore.Metal>
0.0000

> <Gold.Chemscore.Hbonds>
donor molecule, donor type, donor heavy atom, donor atom, acceptor molecule, acceptor atom, score
      L1  H     3    22       P1  7948  1.00
      L1  H     6    35       P1  7948  0.99
      L1  H     8    23       P1  7921  1.00
      P1  H  7989  7998       L1    15  1.00
      L1  C    10    25       P1 10957  0.16

> <Gold.PLP.Chemscore.Internal.Correction>
0.0163

> <Gold.Rescore>
     Score         DG    S(hbond)    S(metal)    S(lipo)     H(rot)  DE(clash)    DE(int)     intcor
     18.90     -22.74       3.81        0.00      67.87       1.33       2.31       1.53       ----

> <Gold.Chemscore.Fitness>
18.9005

> <Gold.Chemscore.DG>
-22.7403

> <Gold.Chemscore.ZeroCoef>
-5.4800

> <Gold.Chemscore.Hbond>
3.8114

> <Gold.Chemscore.Metal>
0.0000

> <Gold.Chemscore.Lipo>
67.8668

> <Gold.Chemscore.Internal_Hbond>
0.0000

> <Gold.Chemscore.DEClash>
2.3084

> <Gold.Chemscore.DEInternal>
1.5314

> <Gold.Chemscore.Rot>
1.3321

> <Gold.Chemscore.Internal.Correction>
   9.000000E+99

> <Gold.Chemscore.Hbonds>
donor molecule, donor type, donor heavy atom, donor atom, acceptor molecule, acceptor atom, score
      L1  H     3    22       P1  7948  0.99
      L1  H     6    35       P1  7948  0.94
      L1  H     8    23       P1  7921  0.69
      P1  H  7989  7998       L1    15  0.81

> <Gold.Chemscore.Hbond.Weighted>
-12.7302

> <Gold.Chemscore.Metal.Weighted>
-0.0000

> <Gold.Chemscore.Lipo.Weighted>
-7.9404

> <Gold.Chemscore.Internal_Hbond.Weighted>
0.0000

> <Gold.Chemscore.DEClash.Weighted>
2.3084

> <Gold.Chemscore.DEInternal.Weighted>
1.5314

> <Gold.Chemscore.Rot.Weighted>
3.4103

> <Gold.Chemscore.Internal.Correction.Weighted>
   9.000000E+99

> <Gold.Protein.RotatedTorsions>
[ 6907 6896 6895 6894 ] final   52.30 input  -60.11 | X-H torsion
[ 7974 7965 7964 7962 ] final   26.84 input  175.53 | X-H torsion
[ 8008 7997 7996 7995 ] final   96.73 input   59.86 | X-H torsion
[ 10167 10162 10161 10158 ] final   85.40 input  -65.29 | X-H torsion
[ 10718 10713 10712 10709 ] final -178.16 input   66.30 | X-H torsion
[ 10763 10752 10751 10750 ] final  -72.51 input  -60.55 | X-H torsion
[ 11005 11000 10999 10996 ] final  179.20 input  -57.11 | X-H torsion

> <Gold.Protein.ActiveResidues>
 VAL166  LYS551  ARG553  GLY616  TRP617  ASP618  TYR619  PRO620  LYS621  CYS622 
 ASP623  PHE694  ASN695  SER759  ASP760  ASP761  ALA762  ILE779  LEU786  VAL792 
 PHE793  MET794  SER795  GLU796  ALA797  LYS798  CYS799  TRP800  GLU811  SER814 

> <Gold.Protein.RotatedAtoms>
  152.3219  134.7370  160.0311 H   0  0  0  0  0  0  0  0  0  0  0  0  # atno 6907 bound_to 6896
  151.7815  133.3345  159.3481 H   0  0  0  0  0  0  0  0  0  0  0  0  # atno 6908 bound_to 6896
  150.7374  134.5857  159.6006 H   0  0  0  0  0  0  0  0  0  0  0  0  # atno 6909 bound_to 6896
  146.1816  139.7274  142.8896 H   0  0  0  0  0  0  0  0  0  0  0  0  # atno 7974 bound_to 7965
  156.0828  140.3268  155.7715 H   0  0  0  0  0  0  0  0  0  0  0  0  # atno 8008 bound_to 7997
  155.5125  140.0578  157.2938 H   0  0  0  0  0  0  0  0  0  0  0  0  # atno 8009 bound_to 7997
  154.4591  140.1958  156.0310 H   0  0  0  0  0  0  0  0  0  0  0  0  # atno 8010 bound_to 7997
  139.8981  144.6345  150.8666 H   0  0  0  0  0  0  0  0  0  0  0  0  # atno 10167 bound_to 10162
  156.8402  130.9683  151.3100 H   0  0  0  0  0  0  0  0  0  0  0  0  # atno 10718 bound_to 10713
  154.4467  135.5927  153.6165 H   0  0  0  0  0  0  0  0  0  0  0  0  # atno 10763 bound_to 10752
  152.9810  135.6011  154.3655 H   0  0  0  0  0  0  0  0  0  0  0  0  # atno 10764 bound_to 10752
  154.3511  135.2841  155.2350 H   0  0  0  0  0  0  0  0  0  0  0  0  # atno 10765 bound_to 10752
  140.4035  134.6756  157.4575 H   0  0  0  0  0  0  0  0  0  0  0  0  # atno 11005 bound_to 11000
  145.4058  141.0391  143.3044 LP  0  0  0  0  0  0  0  0  0  0  0  0  # atno 17320 bound_to 7965
  144.8325  139.5604  143.6937 LP  0  0  0  0  0  0  0  0  0  0  0  0  # atno 17321 bound_to 7965
  140.7712  143.3457  151.2115 LP  0  0  0  0  0  0  0  0  0  0  0  0  # atno 17342 bound_to 10162
  139.7049  143.9471  152.2922 LP  0  0  0  0  0  0  0  0  0  0  0  0  # atno 17343 bound_to 10162
  157.6360  130.8767  149.9359 LP  0  0  0  0  0  0  0  0  0  0  0  0  # atno 17370 bound_to 10713
  156.0885  130.3665  150.0441 LP  0  0  0  0  0  0  0  0  0  0  0  0  # atno 17371 bound_to 10713
  140.0319  134.6394  155.9095 LP  0  0  0  0  0  0  0  0  0  0  0  0  # atno 17394 bound_to 11000
  141.1848  133.6553  156.5170 LP  0  0  0  0  0  0  0  0  0  0  0  0  # atno 17395 bound_to 11000

$$$$
