AV-unprocessed.smi:821|AV-procd|sdf|3838|dock3
  -GOLD-   22720 1283D 1   1.00000     0.00000
 Structure written by MMmdl.
 44 45  0  0  0  0  0  0  0  0  1 V2000
  149.6440  135.1103  155.9006 C   0  0  0  0  0  0  0  0  0  0  0  0
  148.4005  135.9714  156.1819 C   0  0  2  0  0  0  0  0  0  0  0  0
  148.4111  137.2628  155.3347 C   0  0  0  0  0  0  0  0  0  0  0  0
  149.5385  138.1634  155.5773 N   0  0  0  0  0  0  0  0  0  0  0  0
  150.7640  137.7280  154.9112 C   0  0  0  0  0  0  0  0  0  0  0  0
  151.9280  138.7056  155.1506 C   0  0  0  0  0  0  0  0  0  0  0  0
  151.5531  140.0115  154.7251 O   0  0  0  0  0  0  0  0  0  0  0  0
  150.3903  140.4916  155.3914 C   0  0  0  0  0  0  0  0  0  0  0  0
  149.2216  139.5216  155.1477 C   0  0  0  0  0  0  0  0  0  0  0  0
  148.3656  136.3158  157.6013 N   0  0  0  0  0  0  0  0  0  0  0  0
  148.5896  135.4660  158.6150 C   0  0  0  0  0  0  0  0  0  0  0  0
  148.8339  134.2699  158.4543 O   0  0  0  0  0  0  0  0  0  0  0  0
  148.5049  136.0600  160.0273 C   0  0  0  0  0  0  0  0  0  0  0  0
  147.4436  135.4426  160.8408 N   0  0  0  0  0  0  0  0  0  0  0  0
  147.6939  134.1560  161.3503 C   0  0  0  0  0  0  0  0  0  0  0  0
  146.7949  133.5088  162.1040 C   0  0  0  0  0  0  0  0  0  0  0  0
  145.5431  134.1668  162.3889 C   0  0  0  0  0  0  0  0  0  0  0  0
  145.2744  135.4052  161.9146 C   0  0  0  0  0  0  0  0  0  0  0  0
  143.9563  136.1178  162.2095 C   0  0  0  0  0  0  0  0  0  0  0  0
  144.1814  137.3119  162.7592 F   0  0  0  0  0  0  0  0  0  0  0  0
  143.2615  136.3008  161.0860 F   0  0  0  0  0  0  0  0  0  0  0  0
  143.1932  135.4192  163.0515 F   0  0  0  0  0  0  0  0  0  0  0  0
  146.2731  136.1101  161.0854 C   0  0  0  0  0  0  0  0  0  0  0  0
  146.0748  137.2386  160.6315 O   0  0  0  0  0  0  0  0  0  0  0  0
  149.6930  134.8247  154.8495 H   0  0  0  0  0  0  0  0  0  0  0  0
  149.6315  134.1900  156.4857 H   0  0  0  0  0  0  0  0  0  0  0  0
  150.5619  135.6466  156.1436 H   0  0  0  0  0  0  0  0  0  0  0  0
  147.5194  135.3818  155.9202 H   0  0  0  0  0  0  0  0  0  0  0  0
  148.3392  137.0222  154.2725 H   0  0  0  0  0  0  0  0  0  0  0  0
  147.4978  137.8138  155.5642 H   0  0  0  0  0  0  0  0  0  0  0  0
  151.0592  136.7430  155.2721 H   0  0  0  0  0  0  0  0  0  0  0  0
  150.5886  137.6302  153.8388 H   0  0  0  0  0  0  0  0  0  0  0  0
  152.2049  138.7249  156.2058 H   0  0  0  0  0  0  0  0  0  0  0  0
  152.8101  138.3887  154.5943 H   0  0  0  0  0  0  0  0  0  0  0  0
  150.5908  140.5960  156.4588 H   0  0  0  0  0  0  0  0  0  0  0  0
  150.1451  141.4838  155.0122 H   0  0  0  0  0  0  0  0  0  0  0  0
  148.9689  139.5242  154.0862 H   0  0  0  0  0  0  0  0  0  0  0  0
  148.3398  139.8820  155.6785 H   0  0  0  0  0  0  0  0  0  0  0  0
  148.1646  137.2788  157.8283 H   0  0  0  0  0  0  0  0  0  0  0  0
  149.4680  135.9609  160.5322 H   0  0  0  0  0  0  0  0  0  0  0  0
  148.3436  137.1344  159.9318 H   0  0  0  0  0  0  0  0  0  0  0  0
  148.6570  133.7368  161.0972 H   0  0  0  0  0  0  0  0  0  0  0  0
  147.0033  132.5224  162.4913 H   0  0  0  0  0  0  0  0  0  0  0  0
  144.8172  133.6468  162.9960 H   0  0  0  0  0  0  0  0  0  0  0  0
  1  2  1  0  0  0  0
  1 25  1  0  0  0  0
  1 26  1  0  0  0  0
  1 27  1  0  0  0  0
  2  3  1  0  0  0  0
  2 10  1  0  0  0  0
  2 28  1  0  0  0  0
  3  4  1  0  0  0  0
  3 29  1  0  0  0  0
  3 30  1  0  0  0  0
  4  9  1  0  0  0  0
  4  5  1  0  0  0  0
  5  6  1  0  0  0  0
  5 31  1  0  0  0  0
  5 32  1  0  0  0  0
  6  7  1  0  0  0  0
  6 33  1  0  0  0  0
  6 34  1  0  0  0  0
  7  8  1  0  0  0  0
  8  9  1  0  0  0  0
  8 35  1  0  0  0  0
  8 36  1  0  0  0  0
  9 37  1  0  0  0  0
  9 38  1  0  0  0  0
 10 11  1  0  0  0  0
 10 39  1  0  0  0  0
 11 12  2  0  0  0  0
 11 13  1  0  0  0  0
 13 14  1  0  0  0  0
 13 40  1  0  0  0  0
 13 41  1  0  0  0  0
 14 23  1  0  0  0  0
 14 15  1  0  0  0  0
 15 16  2  0  0  0  0
 15 42  1  0  0  0  0
 16 17  1  0  0  0  0
 16 43  1  0  0  0  0
 17 18  2  0  0  0  0
 17 44  1  0  0  0  0
 18 19  1  0  0  0  0
 18 23  1  0  0  0  0
 19 20  1  0  0  0  0
 19 21  1  0  0  0  0
 19 22  1  0  0  0  0
 23 24  2  0  0  0  0
M  END
> <s_m_source_file>
AV-unprocessed.smi

> <i_m_source_file_index>
821

> <i_lp_mmshare_version>
43012

> <i_f3d_flags>
0

> <s_epik_input>
W0NIMl0xW0NIMl1PW0NIMl1bQ0gyXU4xW0NIMl1bQ0BASF0oW0NIM10pW05IXUMoPU8pW0NIMl1uMltjSF1bY0hdW2NIXWMoQyhGKShGKUYpYzI9Tw==

> <s_epik_cmdline>
J2VwaWtfcHl0aG9uJywgJy1waCcsICc3LjAnLCAnLXRuJywgJzgnLCAnLW1hJywgJzIwMCcsICctbWV0YWxfYmluZGluZycsICctaW1hZScsICc8aW5maWxlLm1hZT4nLCAnLW9tYWUnLCAnPG91dGZpbGUubWFlPic=

> <r_lp_tautomer_probability>
1

> <r_epik_Ionization_Penalty>
0.237382

> <r_epik_Ionization_Penalty_Charging>
1.90699e-09

> <r_epik_Ionization_Penalty_Neutral>
0.237382

> <r_epik_State_Penalty>
0.228245

> <r_epik_Charging_Adjusted_Penalty>
0.228245

> <i_epik_Tot_Q>
0

> <i_epik_Tot_abs_Q>
0

> <r_epik_Metal_State_Penalty>
0.228219

> <b_epik_Metal_Only>
0

> <s_lp_Force_Field>
OPLS_2005

> <r_lp_Energy>
36.3962

> <b_lp_Chiralities_Consistent>
1

> <s_lp_Variant>
AV-unprocessed.smi:821-1

> <Gold.Version>
5.8.1

> <Gold.Id.Protein>
6NUR|6NUR_protein|mol2

> <Gold.PLP.Fitness>
41.6294

> <Gold.PLP.PLP>
-34.3856

> <Gold.PLP.part.hbond>
-2.5394

> <Gold.PLP.part.metal>
0.0000

> <Gold.PLP.part.buried>
-5.3330

> <Gold.PLP.part.nonpolar>
-27.6532

> <Gold.PLP.part.repulsive>
0.1261

> <Gold.PLP.ligand.clash>
0.2163

> <Gold.PLP.ligand.torsion>
0.6231

> <Gold.PLP.Chemscore.Hbond>
2.7475

> <Gold.PLP.Chemscore.CHOScore>
0.0000

> <Gold.PLP.Chemscore.Metal>
0.0000

> <Gold.Chemscore.Hbonds>
donor molecule, donor type, donor heavy atom, donor atom, acceptor molecule, acceptor atom, score
      P1  H  6896  6909       L1    12  0.95
      P1  H  6934  6947       L1    24  0.80
      P1  H  7989  7998       L1     7  0.91

> <Gold.PLP.Chemscore.Internal.Correction>
0.4637

> <Gold.Rescore>
     Score         DG    S(hbond)    S(metal)    S(lipo)     H(rot)  DE(clash)    DE(int)     intcor
     12.93     -17.69       2.79        0.00      70.43       2.09       0.15       4.62       ----

> <Gold.Chemscore.Fitness>
12.9271

> <Gold.Chemscore.DG>
-17.6898

> <Gold.Chemscore.ZeroCoef>
-5.4800

> <Gold.Chemscore.Hbond>
2.7921

> <Gold.Chemscore.Metal>
0.0000

> <Gold.Chemscore.Lipo>
70.4345

> <Gold.Chemscore.Internal_Hbond>
0.0000

> <Gold.Chemscore.DEClash>
0.1474

> <Gold.Chemscore.DEInternal>
4.6153

> <Gold.Chemscore.Rot>
2.0924

> <Gold.Chemscore.Internal.Correction>
   9.000000E+99

> <Gold.Chemscore.Hbonds>
donor molecule, donor type, donor heavy atom, donor atom, acceptor molecule, acceptor atom, score
      P1  H  6896  6909       L1    12  0.20
      P1  H  6934  6947       L1    24  0.79
      P1  H  7989  7998       L1     7  0.39

> <Gold.Chemscore.Hbond.Weighted>
-9.3256

> <Gold.Chemscore.Metal.Weighted>
-0.0000

> <Gold.Chemscore.Lipo.Weighted>
-8.2408

> <Gold.Chemscore.Internal_Hbond.Weighted>
0.0000

> <Gold.Chemscore.DEClash.Weighted>
0.1474

> <Gold.Chemscore.DEInternal.Weighted>
4.6153

> <Gold.Chemscore.Rot.Weighted>
5.3566

> <Gold.Chemscore.Internal.Correction.Weighted>
   9.000000E+99

> <Gold.Protein.RotatedTorsions>
[ 6907 6896 6895 6894 ] final   24.89 input  -60.11 | X-H torsion
[ 7974 7965 7964 7962 ] final  155.65 input  175.53 | X-H torsion
[ 8008 7997 7996 7995 ] final  -76.46 input   59.86 | X-H torsion
[ 10167 10162 10161 10158 ] final  -61.69 input  -65.29 | X-H torsion
[ 10718 10713 10712 10709 ] final   16.42 input   66.30 | X-H torsion
[ 10763 10752 10751 10750 ] final  124.91 input  -60.55 | X-H torsion
[ 11005 11000 10999 10996 ] final  -19.90 input  -57.11 | X-H torsion

> <Gold.Protein.ActiveResidues>
 VAL166  LYS551  ARG553  GLY616  TRP617  ASP618  TYR619  PRO620  LYS621  CYS622 
 ASP623  PHE694  ASN695  SER759  ASP760  ASP761  ALA762  ILE779  LEU786  VAL792 
 PHE793  MET794  SER795  GLU796  ALA797  LYS798  CYS799  TRP800  GLU811  SER814 

> <Gold.Protein.RotatedAtoms>
  151.9644  135.0108  160.0549 H   0  0  0  0  0  0  0  0  0  0  0  0  # atno 6907 bound_to 6896
  152.1840  133.4722  159.4981 H   0  0  0  0  0  0  0  0  0  0  0  0  # atno 6908 bound_to 6896
  150.6922  134.1714  159.4257 H   0  0  0  0  0  0  0  0  0  0  0  0  # atno 6909 bound_to 6896
  144.8012  139.7096  143.6181 H   0  0  0  0  0  0  0  0  0  0  0  0  # atno 7974 bound_to 7965
  154.5508  140.0726  156.8664 H   0  0  0  0  0  0  0  0  0  0  0  0  # atno 8008 bound_to 7997
  155.2998  140.3383  155.4230 H   0  0  0  0  0  0  0  0  0  0  0  0  # atno 8009 bound_to 7997
  156.1959  140.1703  156.7985 H   0  0  0  0  0  0  0  0  0  0  0  0  # atno 8010 bound_to 7997
  140.5989  143.2357  151.5974 H   0  0  0  0  0  0  0  0  0  0  0  0  # atno 10167 bound_to 10162
  157.0677  130.6335  149.5799 H   0  0  0  0  0  0  0  0  0  0  0  0  # atno 10718 bound_to 10713
  153.6689  135.3334  155.3148 H   0  0  0  0  0  0  0  0  0  0  0  0  # atno 10763 bound_to 10752
  154.8496  135.4381  154.1726 H   0  0  0  0  0  0  0  0  0  0  0  0  # atno 10764 bound_to 10752
  153.2712  135.7000  153.7555 H   0  0  0  0  0  0  0  0  0  0  0  0  # atno 10765 bound_to 10752
  140.8412  133.7925  155.9862 H   0  0  0  0  0  0  0  0  0  0  0  0  # atno 11005 bound_to 11000
  146.2293  139.5783  142.9566 LP  0  0  0  0  0  0  0  0  0  0  0  0  # atno 17320 bound_to 7965
  145.5549  141.0410  143.2258 LP  0  0  0  0  0  0  0  0  0  0  0  0  # atno 17321 bound_to 7965
  139.5277  144.3009  152.1074 LP  0  0  0  0  0  0  0  0  0  0  0  0  # atno 17342 bound_to 10162
  140.2186  144.4489  150.6352 LP  0  0  0  0  0  0  0  0  0  0  0  0  # atno 17343 bound_to 10162
  155.9960  130.5028  150.7479 LP  0  0  0  0  0  0  0  0  0  0  0  0  # atno 17370 bound_to 10713
  157.4904  131.0910  151.0434 LP  0  0  0  0  0  0  0  0  0  0  0  0  # atno 17371 bound_to 10713
  140.8893  134.2514  157.5103 LP  0  0  0  0  0  0  0  0  0  0  0  0  # atno 17394 bound_to 11000
  139.8703  134.9654  156.4526 LP  0  0  0  0  0  0  0  0  0  0  0  0  # atno 17395 bound_to 11000

$$$$
