AV-unprocessed.smi:2511|AV-procd|sdf|9886|dock6
  -GOLD-   2272013523D 1   1.00000     0.00000
 Structure written by MMmdl.
 40 41  0  0  0  0  0  0  0  0  1 V2000
  143.5410  133.6476  147.8987 N   0  0  0  0  0  0  0  0  0  0  0  0
  143.8044  132.9627  149.0167 C   0  0  0  0  0  0  0  0  0  0  0  0
  143.4167  131.8072  149.1833 O   0  0  0  0  0  0  0  0  0  0  0  0
  144.5676  133.6984  150.0861 C   0  0  0  0  0  0  0  0  0  0  0  0
  145.4392  132.9904  150.9446 C   0  0  0  0  0  0  0  0  0  0  0  0
  146.1499  133.6956  151.9344 C   0  0  0  0  0  0  0  0  0  0  0  0
  145.9674  135.0943  152.0427 C   0  0  0  0  0  0  0  0  0  0  0  0
  146.6331  135.9219  152.9868 N   0  0  0  0  0  0  0  0  0  0  0  0
  146.1781  137.0247  153.6134 C   0  0  0  0  0  0  0  0  0  0  0  0
  145.0567  137.5040  153.4624 O   0  0  0  0  0  0  0  0  0  0  0  0
  147.0741  137.6041  154.4333 N   0  0  0  0  0  0  0  0  0  0  0  0
  146.9196  138.8043  155.2624 C   0  0  2  0  0  0  0  0  0  0  0  0
  146.4849  139.9962  154.3881 C   0  0  0  0  0  0  0  0  0  0  0  0
  147.6150  140.4809  153.4641 C   0  0  0  0  0  0  0  0  0  0  0  0
  148.8861  140.8146  154.2606 C   0  0  0  0  0  0  0  0  0  0  0  0
  149.3588  139.6155  155.1094 C   0  0  1  0  0  0  0  0  0  0  0  0
  150.6440  139.9365  155.9002 C   0  0  0  0  0  0  0  0  0  0  0  0
  150.8739  139.0084  156.8296 F   0  0  0  0  0  0  0  0  0  0  0  0
  151.6882  139.9858  155.0729 F   0  0  0  0  0  0  0  0  0  0  0  0
  150.5295  141.1235  156.4961 F   0  0  0  0  0  0  0  0  0  0  0  0
  148.2162  139.1381  156.0344 C   0  0  0  0  0  0  0  0  0  0  0  0
  145.0926  135.7120  151.1265 C   0  0  0  0  0  0  0  0  0  0  0  0
  144.4074  135.0412  150.1771 N   0  0  0  0  0  0  0  0  0  0  0  0
  143.0356  133.2071  147.1441 H   0  0  0  0  0  0  0  0  0  0  0  0
  143.8551  134.6039  147.8174 H   0  0  0  0  0  0  0  0  0  0  0  0
  145.5686  131.9216  150.8529 H   0  0  0  0  0  0  0  0  0  0  0  0
  146.8249  133.1516  152.5762 H   0  0  0  0  0  0  0  0  0  0  0  0
  147.6003  135.6882  153.1582 H   0  0  0  0  0  0  0  0  0  0  0  0
  147.9798  137.1600  154.4823 H   0  0  0  0  0  0  0  0  0  0  0  0
  146.1192  138.6243  155.9823 H   0  0  0  0  0  0  0  0  0  0  0  0
  145.6064  139.7320  153.7980 H   0  0  0  0  0  0  0  0  0  0  0  0
  146.1779  140.8194  155.0345 H   0  0  0  0  0  0  0  0  0  0  0  0
  147.8401  139.7155  152.7206 H   0  0  0  0  0  0  0  0  0  0  0  0
  147.2856  141.3592  152.9084 H   0  0  0  0  0  0  0  0  0  0  0  0
  149.6734  141.1191  153.5705 H   0  0  0  0  0  0  0  0  0  0  0  0
  148.6946  141.6729  154.9060 H   0  0  0  0  0  0  0  0  0  0  0  0
  149.5991  138.8002  154.4252 H   0  0  0  0  0  0  0  0  0  0  0  0
  147.9976  139.9194  156.7633 H   0  0  0  0  0  0  0  0  0  0  0  0
  148.5412  138.2750  156.6156 H   0  0  0  0  0  0  0  0  0  0  0  0
  144.9308  136.7797  151.1583 H   0  0  0  0  0  0  0  0  0  0  0  0
  1  2  1  0  0  0  0
  1 24  1  0  0  0  0
  1 25  1  0  0  0  0
  2  3  2  0  0  0  0
  2  4  1  0  0  0  0
  4 23  1  0  0  0  0
  4  5  2  0  0  0  0
  5  6  1  0  0  0  0
  5 26  1  0  0  0  0
  6  7  2  0  0  0  0
  6 27  1  0  0  0  0
  7  8  1  0  0  0  0
  7 22  1  0  0  0  0
  8  9  1  0  0  0  0
  8 28  1  0  0  0  0
  9 10  2  0  0  0  0
  9 11  1  0  0  0  0
 11 12  1  0  0  0  0
 11 29  1  0  0  0  0
 12 21  1  0  0  0  0
 12 13  1  0  0  0  0
 12 30  1  0  0  0  0
 13 14  1  0  0  0  0
 13 31  1  0  0  0  0
 13 32  1  0  0  0  0
 14 15  1  0  0  0  0
 14 33  1  0  0  0  0
 14 34  1  0  0  0  0
 15 16  1  0  0  0  0
 15 35  1  0  0  0  0
 15 36  1  0  0  0  0
 16 17  1  0  0  0  0
 16 21  1  0  0  0  0
 16 37  1  0  0  0  0
 17 18  1  0  0  0  0
 17 19  1  0  0  0  0
 17 20  1  0  0  0  0
 21 38  1  0  0  0  0
 21 39  1  0  0  0  0
 22 23  2  0  0  0  0
 22 40  1  0  0  0  0
M  END
> <s_m_source_file>
AV-unprocessed.smi

> <i_m_source_file_index>
2511

> <i_lp_mmshare_version>
43012

> <i_f3d_flags>
0

> <s_epik_input>
W05IMl1DKD1PKWMxW2NIXVtjSF1jKFtjSF1uMSlbTkhdQyg9TylbTkhdW0NAQEhdMltDSDJdW0NIMl1bQ0gyXVtDQEBIXShDKEYpKEYpRilbQ0gyXTI=

> <s_epik_cmdline>
J2VwaWtfcHl0aG9uJywgJy1waCcsICc3LjAnLCAnLXRuJywgJzgnLCAnLW1hJywgJzIwMCcsICctbWV0YWxfYmluZGluZycsICctaW1hZScsICc8aW5maWxlLm1hZT4nLCAnLW9tYWUnLCAnPG91dGZpbGUubWFlPic=

> <r_lp_tautomer_probability>
1

> <r_epik_Ionization_Penalty>
4.28758e-05

> <r_epik_Ionization_Penalty_Charging>
0

> <r_epik_Ionization_Penalty_Neutral>
4.28758e-05

> <r_epik_State_Penalty>
-0

> <r_epik_Charging_Adjusted_Penalty>
0

> <i_epik_Tot_Q>
0

> <i_epik_Tot_abs_Q>
0

> <r_epik_Metal_State_Penalty>
-0

> <b_epik_Metal_Only>
0

> <s_lp_Force_Field>
OPLS_2005

> <r_lp_Energy>
27.7433

> <b_lp_Chiralities_Consistent>
1

> <s_lp_Variant>
AV-unprocessed.smi:2511-1

> <Gold.Version>
5.8.1

> <Gold.Id.Protein>
6NUR|6NUR_protein|mol2

> <Gold.PLP.Fitness>
41.2214

> <Gold.PLP.PLP>
-32.7727

> <Gold.PLP.part.hbond>
-4.8270

> <Gold.PLP.part.metal>
0.0000

> <Gold.PLP.part.buried>
-0.3483

> <Gold.PLP.part.nonpolar>
-29.8650

> <Gold.PLP.part.repulsive>
1.8840

> <Gold.PLP.ligand.clash>
0.0000

> <Gold.PLP.ligand.torsion>
1.0140

> <Gold.PLP.Chemscore.Hbond>
2.4848

> <Gold.PLP.Chemscore.CHOScore>
1.0000

> <Gold.PLP.Chemscore.Metal>
0.0000

> <Gold.Chemscore.Hbonds>
donor molecule, donor type, donor heavy atom, donor atom, acceptor molecule, acceptor atom, score
      L1  H     1    24       P1 10195  1.00
      L1  H     1    25       P1  7921  0.11
      L1  H     8    28       P1  7948  0.38
      P1  H 10785 10796       L1     3  0.99
      L1  C    22    40       P1 10171  1.00

> <Gold.PLP.Chemscore.Internal.Correction>
0.0222

> <Gold.Rescore>
     Score         DG    S(hbond)    S(metal)    S(lipo)     H(rot)  DE(clash)    DE(int)     intcor
     15.26     -17.44       2.48        0.00      53.22       1.00       0.34       1.83       ----

> <Gold.Chemscore.Fitness>
15.2580

> <Gold.Chemscore.DG>
-17.4355

> <Gold.Chemscore.ZeroCoef>
-5.4800

> <Gold.Chemscore.Hbond>
2.4818

> <Gold.Chemscore.Metal>
0.0000

> <Gold.Chemscore.Lipo>
53.2161

> <Gold.Chemscore.Internal_Hbond>
0.0000

> <Gold.Chemscore.DEClash>
0.3430

> <Gold.Chemscore.DEInternal>
1.8345

> <Gold.Chemscore.Rot>
1.0000

> <Gold.Chemscore.Internal.Correction>
   9.000000E+99

> <Gold.Chemscore.Hbonds>
donor molecule, donor type, donor heavy atom, donor atom, acceptor molecule, acceptor atom, score
      L1  H     1    24       P1 10195  0.91
      L1  H     1    25       P1  7921  0.12
      L1  H     8    28       P1  7948  0.38
      P1  H 10785 10796       L1     3  0.94

> <Gold.Chemscore.Hbond.Weighted>
-8.2892

> <Gold.Chemscore.Metal.Weighted>
-0.0000

> <Gold.Chemscore.Lipo.Weighted>
-6.2263

> <Gold.Chemscore.Internal_Hbond.Weighted>
0.0000

> <Gold.Chemscore.DEClash.Weighted>
0.3430

> <Gold.Chemscore.DEInternal.Weighted>
1.8345

> <Gold.Chemscore.Rot.Weighted>
2.5600

> <Gold.Chemscore.Internal.Correction.Weighted>
   9.000000E+99

> <Gold.Protein.RotatedTorsions>
[ 6907 6896 6895 6894 ] final -167.14 input  -60.11 | X-H torsion
[ 7974 7965 7964 7962 ] final  -50.53 input  175.53 | X-H torsion
[ 8008 7997 7996 7995 ] final   55.32 input   59.86 | X-H torsion
[ 10167 10162 10161 10158 ] final   55.84 input  -65.29 | X-H torsion
[ 10718 10713 10712 10709 ] final   31.57 input   66.30 | X-H torsion
[ 10763 10752 10751 10750 ] final  -38.01 input  -60.55 | X-H torsion
[ 11005 11000 10999 10996 ] final  -56.50 input  -57.11 | X-H torsion

> <Gold.Protein.ActiveResidues>
 VAL166  LYS551  ARG553  GLY616  TRP617  ASP618  TYR619  PRO620  LYS621  CYS622 
 ASP623  PHE694  ASN695  SER759  ASP760  ASP761  ALA762  ILE779  LEU786  VAL792 
 PHE793  MET794  SER795  GLU796  ALA797  LYS798  CYS799  TRP800  GLU811  SER814 

> <Gold.Protein.RotatedAtoms>
  151.4548  133.3608  159.2800 H   0  0  0  0  0  0  0  0  0  0  0  0  # atno 6907 bound_to 6896
  150.9066  134.8483  159.7407 H   0  0  0  0  0  0  0  0  0  0  0  0  # atno 6908 bound_to 6896
  152.4909  134.4474  159.9615 H   0  0  0  0  0  0  0  0  0  0  0  0  # atno 6909 bound_to 6896
  145.9288  140.7768  142.9610 H   0  0  0  0  0  0  0  0  0  0  0  0  # atno 7974 bound_to 7965
  155.4992  140.3474  155.4368 H   0  0  0  0  0  0  0  0  0  0  0  0  # atno 8008 bound_to 7997
  156.0925  140.1414  156.9601 H   0  0  0  0  0  0  0  0  0  0  0  0  # atno 8009 bound_to 7997
  154.4643  140.0923  156.6956 H   0  0  0  0  0  0  0  0  0  0  0  0  # atno 8010 bound_to 7997
  140.2152  144.3847  150.6472 H   0  0  0  0  0  0  0  0  0  0  0  0  # atno 10167 bound_to 10162
  157.2742  130.7223  149.6520 H   0  0  0  0  0  0  0  0  0  0  0  0  # atno 10718 bound_to 10713
  153.9058  135.6797  153.4753 H   0  0  0  0  0  0  0  0  0  0  0  0  # atno 10763 bound_to 10752
  153.1105  135.4785  154.9024 H   0  0  0  0  0  0  0  0  0  0  0  0  # atno 10764 bound_to 10752
  154.7552  135.3195  154.8437 H   0  0  0  0  0  0  0  0  0  0  0  0  # atno 10765 bound_to 10752
  141.1123  133.6610  156.4629 H   0  0  0  0  0  0  0  0  0  0  0  0  # atno 11005 bound_to 11000
  144.6762  140.2094  143.7378 LP  0  0  0  0  0  0  0  0  0  0  0  0  # atno 17320 bound_to 7965
  145.8453  139.2149  143.1803 LP  0  0  0  0  0  0  0  0  0  0  0  0  # atno 17321 bound_to 7965
  140.6295  143.2185  151.6526 LP  0  0  0  0  0  0  0  0  0  0  0  0  # atno 17342 bound_to 10162
  139.5165  144.3346  152.0796 LP  0  0  0  0  0  0  0  0  0  0  0  0  # atno 17343 bound_to 10162
  155.9663  130.4358  150.5108 LP  0  0  0  0  0  0  0  0  0  0  0  0  # atno 17370 bound_to 10713
  157.3038  131.0650  151.2049 LP  0  0  0  0  0  0  0  0  0  0  0  0  # atno 17371 bound_to 10713
  140.4742  134.6725  157.5142 LP  0  0  0  0  0  0  0  0  0  0  0  0  # atno 17394 bound_to 11000
  140.0024  134.6816  155.9509 LP  0  0  0  0  0  0  0  0  0  0  0  0  # atno 17395 bound_to 11000

$$$$
