AV-unprocessed.smi:2379|AV-procd|sdf|9451|dock4
  -GOLD-   2272013 83D 1   1.00000     0.00000
 Structure written by MMmdl.
 53 55  0  0  0  0  0  0  0  0  2 V2000
  154.0068  141.1222  161.3701 C   0  0  0  0  0  0  0  0  0  0  0  0
  153.1910  141.6389  160.2036 C   0  0  0  0  0  0  0  0  0  0  0  0
  153.2649  142.9890  159.8111 C   0  0  0  0  0  0  0  0  0  0  0  0
  152.4806  143.4075  158.7182 C   0  0  0  0  0  0  0  0  0  0  0  0
  152.5094  144.8452  158.2437 C   0  0  0  0  0  0  0  0  0  0  0  0
  151.6651  142.5757  158.0352 N   0  0  0  0  0  0  0  0  0  0  0  0
  151.5855  141.2736  158.4052 C   0  0  0  0  0  0  0  0  0  0  0  0
  150.7598  140.3187  157.7546 N   0  0  0  0  0  0  0  0  0  0  0  0
  149.7671  140.5402  156.8752 C   0  0  0  0  0  0  0  0  0  0  0  0
  149.3989  141.6455  156.4763 O   0  0  0  0  0  0  0  0  0  0  0  0
  149.2155  139.3879  156.4669 N   0  0  0  0  0  0  0  0  0  0  0  0
  148.1251  139.2730  155.5027 C   0  0  2  0  0  0  0  0  0  0  0  0
  147.6957  137.8018  155.3770 C   0  0  0  0  0  0  0  0  0  0  0  0
  146.6232  137.6208  154.2895 C   0  0  0  0  0  0  0  0  0  0  0  0
  147.0958  138.1428  152.9815 N   0  3  1  0  0  0  0  0  0  0  0  0
  146.1629  137.8456  151.8642 C   0  0  0  0  0  0  0  0  0  0  0  0
  145.5643  136.4309  151.9801 C   0  0  2  0  0  0  0  0  0  0  0  0
  145.3633  135.6971  150.6677 C   0  0  0  0  0  0  0  0  0  0  0  0
  144.3441  134.6264  151.0478 C   0  0  0  0  0  0  0  0  0  0  0  0
  143.5785  135.1757  152.1165 O   0  0  0  0  0  0  0  0  0  0  0  0
  144.1381  136.4178  152.5292 C   0  0  0  0  0  0  0  0  0  0  0  0
  147.4591  139.5808  153.0712 C   0  0  0  0  0  0  0  0  0  0  0  0
  148.5563  139.8070  154.1236 C   0  0  0  0  0  0  0  0  0  0  0  0
  152.3380  140.7723  159.4909 C   0  0  0  0  0  0  0  0  0  0  0  0
  154.7248  141.8684  161.7123 H   0  0  0  0  0  0  0  0  0  0  0  0
  154.5586  140.2274  161.0813 H   0  0  0  0  0  0  0  0  0  0  0  0
  153.3520  140.8692  162.2040 H   0  0  0  0  0  0  0  0  0  0  0  0
  153.9048  143.6853  160.3337 H   0  0  0  0  0  0  0  0  0  0  0  0
  153.2791  145.4174  158.7622 H   0  0  0  0  0  0  0  0  0  0  0  0
  151.5468  145.3227  158.4279 H   0  0  0  0  0  0  0  0  0  0  0  0
  152.7165  144.8898  157.1741 H   0  0  0  0  0  0  0  0  0  0  0  0
  150.9539  139.3545  157.9806 H   0  0  0  0  0  0  0  0  0  0  0  0
  149.5793  138.5272  156.8493 H   0  0  0  0  0  0  0  0  0  0  0  0
  147.2694  139.8508  155.8583 H   0  0  0  0  0  0  0  0  0  0  0  0
  148.5607  137.1821  155.1348 H   0  0  0  0  0  0  0  0  0  0  0  0
  147.3149  137.4400  156.3328 H   0  0  0  0  0  0  0  0  0  0  0  0
  146.3864  136.5599  154.1989 H   0  0  0  0  0  0  0  0  0  0  0  0
  145.7018  138.1301  154.5766 H   0  0  0  0  0  0  0  0  0  0  0  0
  145.3345  138.5558  151.8825 H   0  0  0  0  0  0  0  0  0  0  0  0
  146.6517  137.9913  150.8993 H   0  0  0  0  0  0  0  0  0  0  0  0
  146.1886  135.8214  152.6360 H   0  0  0  0  0  0  0  0  0  0  0  0
  144.9377  136.3655  149.9175 H   0  0  0  0  0  0  0  0  0  0  0  0
  146.2837  135.2722  150.2655 H   0  0  0  0  0  0  0  0  0  0  0  0
  143.7091  134.3427  150.2080 H   0  0  0  0  0  0  0  0  0  0  0  0
  144.8487  133.7292  151.4093 H   0  0  0  0  0  0  0  0  0  0  0  0
  144.1058  136.5267  153.6136 H   0  0  0  0  0  0  0  0  0  0  0  0
  143.5474  137.2238  152.0911 H   0  0  0  0  0  0  0  0  0  0  0  0
  147.8092  139.9422  152.1050 H   0  0  0  0  0  0  0  0  0  0  0  0
  146.5736  140.1672  153.3228 H   0  0  0  0  0  0  0  0  0  0  0  0
  148.7878  140.8712  154.1856 H   0  0  0  0  0  0  0  0  0  0  0  0
  149.4734  139.3105  153.8025 H   0  0  0  0  0  0  0  0  0  0  0  0
  152.2650  139.7327  159.7768 H   0  0  0  0  0  0  0  0  0  0  0  0
  147.9466  137.6392  152.7751 H   0  0  0  0  0  0  0  0  0  0  0  0
  1  2  1  0  0  0  0
  1 25  1  0  0  0  0
  1 26  1  0  0  0  0
  1 27  1  0  0  0  0
  2 24  1  0  0  0  0
  2  3  2  0  0  0  0
  3  4  1  0  0  0  0
  3 28  1  0  0  0  0
  4  5  1  0  0  0  0
  4  6  2  0  0  0  0
  5 29  1  0  0  0  0
  5 30  1  0  0  0  0
  5 31  1  0  0  0  0
  6  7  1  0  0  0  0
  7  8  1  0  0  0  0
  7 24  2  0  0  0  0
  8  9  1  0  0  0  0
  8 32  1  0  0  0  0
  9 10  2  0  0  0  0
  9 11  1  0  0  0  0
 11 12  1  0  0  0  0
 11 33  1  0  0  0  0
 12 23  1  0  0  0  0
 12 13  1  0  0  0  0
 12 34  1  0  0  0  0
 13 14  1  0  0  0  0
 13 35  1  0  0  0  0
 13 36  1  0  0  0  0
 14 15  1  0  0  0  0
 14 37  1  0  0  0  0
 14 38  1  0  0  0  0
 15 16  1  0  0  0  0
 15 22  1  0  0  0  0
 15 53  1  0  0  0  0
 16 17  1  0  0  0  0
 16 39  1  0  0  0  0
 16 40  1  0  0  0  0
 17 21  1  0  0  0  0
 17 18  1  0  0  0  0
 17 41  1  0  0  0  0
 18 19  1  0  0  0  0
 18 42  1  0  0  0  0
 18 43  1  0  0  0  0
 19 20  1  0  0  0  0
 19 44  1  0  0  0  0
 19 45  1  0  0  0  0
 20 21  1  0  0  0  0
 21 46  1  0  0  0  0
 21 47  1  0  0  0  0
 22 23  1  0  0  0  0
 22 48  1  0  0  0  0
 22 49  1  0  0  0  0
 23 50  1  0  0  0  0
 23 51  1  0  0  0  0
 24 52  1  0  0  0  0
M  CHG  1  15   1
M  END
> <s_m_source_file>
AV-unprocessed.smi

> <i_m_source_file_index>
2379

> <i_lp_mmshare_version>
43012

> <i_f3d_flags>
0

> <s_epik_input>
W0NIM11jMVtjSF1jKFtDSDNdKW5jKFtjSF0xKVtOSF1DKD1PKVtOSF1bQ0hdMltDSDJdW0NIMl1OKFtDSDJdW0NIMl0yKVtDSDJdW0NAQEhdM1tDSDJdW0NIMl1PW0NIMl0z

> <s_epik_cmdline>
J2VwaWtfcHl0aG9uJywgJy1waCcsICc3LjAnLCAnLXRuJywgJzgnLCAnLW1hJywgJzIwMCcsICctbWV0YWxfYmluZGluZycsICctaW1hZScsICc8aW5maWxlLm1hZT4nLCAnLW9tYWUnLCAnPG91dGZpbGUubWFlPic=

> <r_epik_Ionization_Penalty>
0.00766556

> <r_epik_Ionization_Penalty_Charging>
0.00747775

> <r_epik_Ionization_Penalty_Neutral>
0.00018781

> <r_epik_State_Penalty>
0.00558817

> <r_epik_Charging_Adjusted_Penalty>
0.0130659

> <i_epik_Tot_Q>
1

> <i_epik_Tot_abs_Q>
1

> <r_epik_Metal_State_Penalty>
-0

> <b_epik_Metal_Only>
0

> <s_lp_Force_Field>
OPLS_2005

> <r_lp_Energy>
36.075

> <b_lp_Chiralities_Consistent>
1

> <s_lp_Variant>
AV-unprocessed.smi:2379-1

> <Gold.Version>
5.8.1

> <Gold.Id.Protein>
6NUR|6NUR_protein|mol2

> <Gold.PLP.Fitness>
47.0243

> <Gold.PLP.PLP>
-42.4492

> <Gold.PLP.part.hbond>
-1.0000

> <Gold.PLP.part.metal>
0.0000

> <Gold.PLP.part.buried>
-3.2671

> <Gold.PLP.part.nonpolar>
-39.2467

> <Gold.PLP.part.repulsive>
0.4447

> <Gold.PLP.ligand.clash>
0.0000

> <Gold.PLP.ligand.torsion>
0.7370

> <Gold.PLP.Chemscore.Hbond>
2.0000

> <Gold.PLP.Chemscore.CHOScore>
0.0000

> <Gold.PLP.Chemscore.Metal>
0.0000

> <Gold.Chemscore.Hbonds>
donor molecule, donor type, donor heavy atom, donor atom, acceptor molecule, acceptor atom, score
      L1  H    15    53       P1  7948  2.00

> <Gold.PLP.Chemscore.Internal.Correction>
0.0492

> <Gold.Rescore>
     Score         DG    S(hbond)    S(metal)    S(lipo)     H(rot)  DE(clash)    DE(int)     intcor
     16.43     -18.30       0.97        0.00     111.89       1.37       0.05       1.82       ----

> <Gold.Chemscore.Fitness>
16.4338

> <Gold.Chemscore.DG>
-18.3020

> <Gold.Chemscore.ZeroCoef>
-5.4800

> <Gold.Chemscore.Hbond>
0.9715

> <Gold.Chemscore.Metal>
0.0000

> <Gold.Chemscore.Lipo>
111.8868

> <Gold.Chemscore.Internal_Hbond>
0.0000

> <Gold.Chemscore.DEClash>
0.0509

> <Gold.Chemscore.DEInternal>
1.8173

> <Gold.Chemscore.Rot>
1.3725

> <Gold.Chemscore.Internal.Correction>
   9.000000E+99

> <Gold.Chemscore.Hbonds>
donor molecule, donor type, donor heavy atom, donor atom, acceptor molecule, acceptor atom, score
      L1  H    15    53       P1  7948  0.96

> <Gold.Chemscore.Hbond.Weighted>
-3.2449

> <Gold.Chemscore.Metal.Weighted>
-0.0000

> <Gold.Chemscore.Lipo.Weighted>
-13.0908

> <Gold.Chemscore.Internal_Hbond.Weighted>
0.0000

> <Gold.Chemscore.DEClash.Weighted>
0.0509

> <Gold.Chemscore.DEInternal.Weighted>
1.8173

> <Gold.Chemscore.Rot.Weighted>
3.5136

> <Gold.Chemscore.Internal.Correction.Weighted>
   9.000000E+99

> <Gold.Protein.RotatedTorsions>
[ 6907 6896 6895 6894 ] final  -91.54 input  -60.11 | X-H torsion
[ 7974 7965 7964 7962 ] final  167.90 input  175.53 | X-H torsion
[ 8008 7997 7996 7995 ] final  -63.80 input   59.86 | X-H torsion
[ 10167 10162 10161 10158 ] final  109.70 input  -65.29 | X-H torsion
[ 10718 10713 10712 10709 ] final  163.95 input   66.30 | X-H torsion
[ 10763 10752 10751 10750 ] final  -37.82 input  -60.55 | X-H torsion
[ 11005 11000 10999 10996 ] final  126.07 input  -57.11 | X-H torsion

> <Gold.Protein.ActiveResidues>
 VAL166  LYS551  ARG553  GLY616  TRP617  ASP618  TYR619  PRO620  LYS621  CYS622 
 ASP623  PHE694  ASN695  SER759  ASP760  ASP761  ALA762  ILE779  LEU786  VAL792 
 PHE793  MET794  SER795  GLU796  ALA797  LYS798  CYS799  TRP800  GLU811  SER814 

> <Gold.Protein.RotatedAtoms>
  150.6894  134.2261  159.4415 H   0  0  0  0  0  0  0  0  0  0  0  0  # atno 6907 bound_to 6896
  152.0214  134.9818  160.0580 H   0  0  0  0  0  0  0  0  0  0  0  0  # atno 6908 bound_to 6896
  152.1393  133.4419  159.4796 H   0  0  0  0  0  0  0  0  0  0  0  0  # atno 6909 bound_to 6896
  144.7407  139.8829  143.6397 H   0  0  0  0  0  0  0  0  0  0  0  0  # atno 7974 bound_to 7965
  154.4575  140.0967  156.6798 H   0  0  0  0  0  0  0  0  0  0  0  0  # atno 8008 bound_to 7997
  155.5095  140.3476  155.4367 H   0  0  0  0  0  0  0  0  0  0  0  0  # atno 8009 bound_to 7997
  156.0806  140.1372  156.9706 H   0  0  0  0  0  0  0  0  0  0  0  0  # atno 8010 bound_to 7997
  139.6746  144.7123  151.1626 H   0  0  0  0  0  0  0  0  0  0  0  0  # atno 10167 bound_to 10162
  157.1012  131.0443  151.2497 H   0  0  0  0  0  0  0  0  0  0  0  0  # atno 10718 bound_to 10713
  153.9027  135.6800  153.4754 H   0  0  0  0  0  0  0  0  0  0  0  0  # atno 10763 bound_to 10752
  153.1121  135.4778  154.9050 H   0  0  0  0  0  0  0  0  0  0  0  0  # atno 10764 bound_to 10752
  154.7567  135.3199  154.8411 H   0  0  0  0  0  0  0  0  0  0  0  0  # atno 10765 bound_to 10752
  139.9438  134.9632  156.8653 H   0  0  0  0  0  0  0  0  0  0  0  0  # atno 11005 bound_to 11000
  146.1198  139.4215  143.0235 LP  0  0  0  0  0  0  0  0  0  0  0  0  # atno 17320 bound_to 7965
  145.7321  141.0038  143.1346 LP  0  0  0  0  0  0  0  0  0  0  0  0  # atno 17321 bound_to 7965
  140.7630  143.5792  150.8913 LP  0  0  0  0  0  0  0  0  0  0  0  0  # atno 17342 bound_to 10162
  139.9460  143.6327  152.3041 LP  0  0  0  0  0  0  0  0  0  0  0  0  # atno 17343 bound_to 10162
  157.4639  130.7669  149.7261 LP  0  0  0  0  0  0  0  0  0  0  0  0  # atno 17370 bound_to 10713
  155.9873  130.3968  150.3171 LP  0  0  0  0  0  0  0  0  0  0  0  0  # atno 17371 bound_to 10713
  140.5886  134.0283  155.7491 LP  0  0  0  0  0  0  0  0  0  0  0  0  # atno 17394 bound_to 11000
  141.1081  133.9660  157.2959 LP  0  0  0  0  0  0  0  0  0  0  0  0  # atno 17395 bound_to 11000

$$$$
