AV-unprocessed.smi:2459|AV-procd|sdf|9712|dock2
  -GOLD-   2272013353D 1   1.00000     0.00000
 Structure written by MMmdl.
 47 48  0  0  0  0  0  0  0  0  2 V2000
  138.7534  140.3385  153.4339 C   0  0  0  0  0  0  0  0  0  0  0  0
  140.0398  140.7189  153.9182 O   0  0  0  0  0  0  0  0  0  0  0  0
  140.5756  140.0295  155.0549 C   0  0  0  0  0  0  0  0  0  0  0  0
  141.8771  140.7847  155.3878 C   0  0  0  0  0  0  0  0  0  0  0  0
  139.6033  140.1545  156.2546 C   0  0  0  0  0  0  0  0  0  0  0  0
  140.9142  138.5651  154.6735 C   0  0  0  0  0  0  0  0  0  0  0  0
  140.3260  137.6487  155.2473 O   0  0  0  0  0  0  0  0  0  0  0  0
  141.8523  138.3740  153.7248 N   0  0  0  0  0  0  0  0  0  0  0  0
  142.3721  137.1578  153.2037 C   0  0  0  0  0  0  0  0  0  0  0  0
  141.6839  135.9218  153.2289 C   0  0  0  0  0  0  0  0  0  0  0  0
  142.2710  134.8140  152.7289 N   0  3  0  0  0  0  0  0  0  0  0  0
  143.5145  134.7959  152.1903 C   0  0  0  0  0  0  0  0  0  0  0  0
  144.0316  133.5730  151.7231 N   0  0  0  0  0  0  0  0  0  0  0  0
  144.2423  133.5500  150.2769 C   0  0  0  0  0  0  0  0  0  0  0  0
  144.4900  132.1149  149.7812 C   0  0  0  0  0  0  0  0  0  0  0  0
  145.6430  131.4562  150.5550 C   0  0  0  0  0  0  0  0  0  0  0  0
  145.3793  131.5312  152.0673 C   0  0  0  0  0  0  0  0  0  0  0  0
  145.1154  132.9813  152.5076 C   0  0  0  0  0  0  0  0  0  0  0  0
  144.2531  136.0066  152.1403 C   0  0  0  0  0  0  0  0  0  0  0  0
  145.6448  136.0745  151.5332 C   0  0  0  0  0  0  0  0  0  0  0  0
  143.6722  137.1857  152.6571 C   0  0  0  0  0  0  0  0  0  0  0  0
  138.5036  140.9603  152.5744 H   0  0  0  0  0  0  0  0  0  0  0  0
  137.9740  140.4927  154.1792 H   0  0  0  0  0  0  0  0  0  0  0  0
  138.7201  139.3015  153.0996 H   0  0  0  0  0  0  0  0  0  0  0  0
  142.3946  140.3345  156.2359 H   0  0  0  0  0  0  0  0  0  0  0  0
  141.6719  141.8246  155.6446 H   0  0  0  0  0  0  0  0  0  0  0  0
  142.5691  140.7950  154.5445 H   0  0  0  0  0  0  0  0  0  0  0  0
  140.0488  139.7568  157.1675 H   0  0  0  0  0  0  0  0  0  0  0  0
  138.6636  139.6257  156.0950 H   0  0  0  0  0  0  0  0  0  0  0  0
  139.3558  141.1991  156.4457 H   0  0  0  0  0  0  0  0  0  0  0  0
  142.2114  139.2150  153.2965 H   0  0  0  0  0  0  0  0  0  0  0  0
  140.6986  135.7616  153.6395 H   0  0  0  0  0  0  0  0  0  0  0  0
  143.3866  133.9755  149.7532 H   0  0  0  0  0  0  0  0  0  0  0  0
  145.1007  134.1788  150.0364 H   0  0  0  0  0  0  0  0  0  0  0  0
  143.5815  131.5241  149.9062 H   0  0  0  0  0  0  0  0  0  0  0  0
  144.7110  132.1213  148.7134 H   0  0  0  0  0  0  0  0  0  0  0  0
  145.7629  130.4184  150.2428 H   0  0  0  0  0  0  0  0  0  0  0  0
  146.5797  131.9635  150.3203 H   0  0  0  0  0  0  0  0  0  0  0  0
  144.5181  130.9106  152.3190 H   0  0  0  0  0  0  0  0  0  0  0  0
  146.2273  131.1219  152.6168 H   0  0  0  0  0  0  0  0  0  0  0  0
  146.0226  133.5739  152.3811 H   0  0  0  0  0  0  0  0  0  0  0  0
  144.8597  133.0040  153.5678 H   0  0  0  0  0  0  0  0  0  0  0  0
  145.8680  137.0838  151.1862 H   0  0  0  0  0  0  0  0  0  0  0  0
  145.7391  135.4057  150.6775 H   0  0  0  0  0  0  0  0  0  0  0  0
  146.3962  135.7994  152.2731 H   0  0  0  0  0  0  0  0  0  0  0  0
  144.2240  138.1145  152.6296 H   0  0  0  0  0  0  0  0  0  0  0  0
  141.7503  133.9376  152.7686 H   0  0  0  0  0  0  0  0  0  0  0  0
  1  2  1  0  0  0  0
  1 22  1  0  0  0  0
  1 23  1  0  0  0  0
  1 24  1  0  0  0  0
  2  3  1  0  0  0  0
  3  4  1  0  0  0  0
  3  5  1  0  0  0  0
  3  6  1  0  0  0  0
  4 25  1  0  0  0  0
  4 26  1  0  0  0  0
  4 27  1  0  0  0  0
  5 28  1  0  0  0  0
  5 29  1  0  0  0  0
  5 30  1  0  0  0  0
  6  7  2  0  0  0  0
  6  8  1  0  0  0  0
  8  9  1  0  0  0  0
  8 31  1  0  0  0  0
  9 21  1  0  0  0  0
  9 10  2  0  0  0  0
 10 11  1  0  0  0  0
 10 32  1  0  0  0  0
 11 12  2  0  0  0  0
 11 47  1  0  0  0  0
 12 13  1  0  0  0  0
 12 19  1  0  0  0  0
 13 18  1  0  0  0  0
 13 14  1  0  0  0  0
 14 15  1  0  0  0  0
 14 33  1  0  0  0  0
 14 34  1  0  0  0  0
 15 16  1  0  0  0  0
 15 35  1  0  0  0  0
 15 36  1  0  0  0  0
 16 17  1  0  0  0  0
 16 37  1  0  0  0  0
 16 38  1  0  0  0  0
 17 18  1  0  0  0  0
 17 39  1  0  0  0  0
 17 40  1  0  0  0  0
 18 41  1  0  0  0  0
 18 42  1  0  0  0  0
 19 20  1  0  0  0  0
 19 21  2  0  0  0  0
 20 43  1  0  0  0  0
 20 44  1  0  0  0  0
 20 45  1  0  0  0  0
 21 46  1  0  0  0  0
M  CHG  1  11   1
M  END
> <s_m_source_file>
AV-unprocessed.smi

> <i_m_source_file_index>
2459

> <i_lp_mmshare_version>
43012

> <i_f3d_flags>
0

> <s_epik_input>
W0NIM11PQyhbQ0gzXSkoW0NIM10pQyg9TylbTkhdYzFbY0hdbmMoYyhbQ0gzXSlbY0hdMSlOMltDSDJdW0NIMl1bQ0gyXVtDSDJdW0NIMl0y

> <s_epik_cmdline>
J2VwaWtfcHl0aG9uJywgJy1waCcsICc3LjAnLCAnLXRuJywgJzgnLCAnLW1hJywgJzIwMCcsICctbWV0YWxfYmluZGluZycsICctaW1hZScsICc8aW5maWxlLm1hZT4nLCAnLW9tYWUnLCAnPG91dGZpbGUubWFlPic=

> <r_lp_tautomer_probability>
0.999994

> <r_epik_Ionization_Penalty>
1.22605

> <r_epik_Ionization_Penalty_Charging>
1.22604

> <r_epik_Ionization_Penalty_Neutral>
3.07462e-06

> <r_epik_State_Penalty>
0.10642

> <r_epik_Charging_Adjusted_Penalty>
1.33246

> <i_epik_Tot_Q>
1

> <i_epik_Tot_abs_Q>
1

> <r_epik_Metal_State_Penalty>
0.12082

> <b_epik_Metal_Only>
0

> <s_lp_Force_Field>
OPLS_2005

> <r_lp_Energy>
38.0416

> <b_lp_Chiralities_Consistent>
1

> <s_lp_Variant>
AV-unprocessed.smi:2459-1

> <Gold.Version>
5.8.1

> <Gold.Id.Protein>
6NUR|6NUR_protein|mol2

> <Gold.PLP.Fitness>
33.8795

> <Gold.PLP.PLP>
-31.3767

> <Gold.PLP.part.hbond>
-1.0000

> <Gold.PLP.part.metal>
0.0000

> <Gold.PLP.part.buried>
-4.8380

> <Gold.PLP.part.nonpolar>
-25.8001

> <Gold.PLP.part.repulsive>
0.3888

> <Gold.PLP.ligand.clash>
0.0000

> <Gold.PLP.ligand.torsion>
0.4008

> <Gold.PLP.Chemscore.Hbond>
1.0000

> <Gold.PLP.Chemscore.CHOScore>
0.0000

> <Gold.PLP.Chemscore.Metal>
0.0000

> <Gold.Chemscore.Hbonds>
donor molecule, donor type, donor heavy atom, donor atom, acceptor molecule, acceptor atom, score
      L1  H     8    31       P1 10175  1.00

> <Gold.PLP.Chemscore.Internal.Correction>
0.3044

> <Gold.Rescore>
     Score         DG    S(hbond)    S(metal)    S(lipo)     H(rot)  DE(clash)    DE(int)     intcor
     12.85     -14.44       0.96        0.00      78.41       1.34       0.16       1.44       ----

> <Gold.Chemscore.Fitness>
12.8475

> <Gold.Chemscore.DG>
-14.4408

> <Gold.Chemscore.ZeroCoef>
-5.4800

> <Gold.Chemscore.Hbond>
0.9643

> <Gold.Chemscore.Metal>
0.0000

> <Gold.Chemscore.Lipo>
78.4140

> <Gold.Chemscore.Internal_Hbond>
0.0000

> <Gold.Chemscore.DEClash>
0.1573

> <Gold.Chemscore.DEInternal>
1.4360

> <Gold.Chemscore.Rot>
1.3416

> <Gold.Chemscore.Internal.Correction>
   9.000000E+99

> <Gold.Chemscore.Hbonds>
donor molecule, donor type, donor heavy atom, donor atom, acceptor molecule, acceptor atom, score
      L1  H     8    31       P1 10175  0.92

> <Gold.Chemscore.Hbond.Weighted>
-3.2209

> <Gold.Chemscore.Metal.Weighted>
-0.0000

> <Gold.Chemscore.Lipo.Weighted>
-9.1744

> <Gold.Chemscore.Internal_Hbond.Weighted>
0.0000

> <Gold.Chemscore.DEClash.Weighted>
0.1573

> <Gold.Chemscore.DEInternal.Weighted>
1.4360

> <Gold.Chemscore.Rot.Weighted>
3.4346

> <Gold.Chemscore.Internal.Correction.Weighted>
   9.000000E+99

> <Gold.Protein.RotatedTorsions>
[ 6907 6896 6895 6894 ] final  108.60 input  -60.11 | X-H torsion
[ 7974 7965 7964 7962 ] final  -52.09 input  175.53 | X-H torsion
[ 8008 7997 7996 7995 ] final   72.09 input   59.86 | X-H torsion
[ 10167 10162 10161 10158 ] final  -68.53 input  -65.29 | X-H torsion
[ 10718 10713 10712 10709 ] final   30.62 input   66.30 | X-H torsion
[ 10763 10752 10751 10750 ] final  120.59 input  -60.55 | X-H torsion
[ 11005 11000 10999 10996 ] final   70.38 input  -57.11 | X-H torsion

> <Gold.Protein.ActiveResidues>
 VAL166  LYS551  ARG553  GLY616  TRP617  ASP618  TYR619  PRO620  LYS621  CYS622 
 ASP623  PHE694  ASN695  SER759  ASP760  ASP761  ALA762  ILE779  LEU786  VAL792 
 PHE793  MET794  SER795  GLU796  ALA797  LYS798  CYS799  TRP800  GLU811  SER814 

> <Gold.Protein.RotatedAtoms>
  152.5105  133.9066  159.7466 H   0  0  0  0  0  0  0  0  0  0  0  0  # atno 6907 bound_to 6896
  150.9469  133.6584  159.2786 H   0  0  0  0  0  0  0  0  0  0  0  0  # atno 6908 bound_to 6896
  151.3876  135.0955  159.9569 H   0  0  0  0  0  0  0  0  0  0  0  0  # atno 6909 bound_to 6896
  145.9117  140.7909  142.9692 H   0  0  0  0  0  0  0  0  0  0  0  0  # atno 7974 bound_to 7965
  155.7636  140.3486  155.5211 H   0  0  0  0  0  0  0  0  0  0  0  0  # atno 8008 bound_to 7997
  155.8890  140.1014  157.1453 H   0  0  0  0  0  0  0  0  0  0  0  0  # atno 8009 bound_to 7997
  154.4031  140.1308  156.4278 H   0  0  0  0  0  0  0  0  0  0  0  0  # atno 8010 bound_to 7997
  140.5500  143.2312  151.6929 H   0  0  0  0  0  0  0  0  0  0  0  0  # atno 10167 bound_to 10162
  157.2619  130.7165  149.6458 H   0  0  0  0  0  0  0  0  0  0  0  0  # atno 10718 bound_to 10713
  153.6009  135.3448  155.2945 H   0  0  0  0  0  0  0  0  0  0  0  0  # atno 10763 bound_to 10752
  154.8636  135.4227  154.2413 H   0  0  0  0  0  0  0  0  0  0  0  0  # atno 10764 bound_to 10752
  153.3242  135.7040  153.7075 H   0  0  0  0  0  0  0  0  0  0  0  0  # atno 10765 bound_to 10752
  139.9601  134.7076  156.0666 H   0  0  0  0  0  0  0  0  0  0  0  0  # atno 11005 bound_to 11000
  144.6744  140.1837  143.7403 LP  0  0  0  0  0  0  0  0  0  0  0  0  # atno 17320 bound_to 7965
  145.8662  139.2248  143.1687 LP  0  0  0  0  0  0  0  0  0  0  0  0  # atno 17321 bound_to 7965
  139.5023  144.3833  152.0354 LP  0  0  0  0  0  0  0  0  0  0  0  0  # atno 17342 bound_to 10162
  140.2949  144.3712  150.6077 LP  0  0  0  0  0  0  0  0  0  0  0  0  # atno 17343 bound_to 10162
  155.9664  130.4394  150.5259 LP  0  0  0  0  0  0  0  0  0  0  0  0  # atno 17370 bound_to 10713
  157.3165  131.0674  151.1963 LP  0  0  0  0  0  0  0  0  0  0  0  0  # atno 17371 bound_to 10713
  141.1277  133.6595  156.3380 LP  0  0  0  0  0  0  0  0  0  0  0  0  # atno 17394 bound_to 11000
  140.5520  134.6018  157.5410 LP  0  0  0  0  0  0  0  0  0  0  0  0  # atno 17395 bound_to 11000

$$$$
