AV-unprocessed.smi:2280|AV-procd|sdf|9192|dock4
  -GOLD-   2272012403D 1   1.00000     0.00000
 Structure written by MMmdl.
 41 42  0  0  0  0  0  0  0  0  1 V2000
  153.5009  143.0503  163.3218 C   0  0  0  0  0  0  0  0  0  0  0  0
  153.0385  143.1516  161.8789 C   0  0  0  0  0  0  0  0  0  0  0  0
  152.2368  144.2565  161.5780 N   0  0  0  0  0  0  0  0  0  0  0  0
  151.7974  144.4253  160.3739 C   0  0  0  0  0  0  0  0  0  0  0  0
  152.1073  143.5246  159.3419 N   0  0  0  0  0  0  0  0  0  0  0  0
  151.5435  143.8316  158.0163 C   0  0  0  0  0  0  0  0  0  0  0  0
  150.8981  142.5909  157.3573 C   0  0  1  0  0  0  0  0  0  0  0  0
  149.4938  142.7448  157.4256 O   0  0  0  0  0  0  0  0  0  0  0  0
  151.2689  142.4712  155.8693 C   0  0  0  0  0  0  0  0  0  0  0  0
  151.1012  141.1186  155.4664 O   0  0  0  0  0  0  0  0  0  0  0  0
  149.9612  140.7690  154.7720 C   0  0  0  0  0  0  0  0  0  0  0  0
  148.9499  141.6964  154.4116 C   0  0  0  0  0  0  0  0  0  0  0  0
  147.8103  141.2743  153.7025 C   0  0  0  0  0  0  0  0  0  0  0  0
  147.6652  139.9235  153.3435 C   0  0  0  0  0  0  0  0  0  0  0  0
  148.6614  138.9948  153.6942 C   0  0  0  0  0  0  0  0  0  0  0  0
  149.8100  139.4081  154.4070 C   0  0  0  0  0  0  0  0  0  0  0  0
  150.8870  138.3949  154.7828 C   0  0  0  0  0  0  0  0  0  0  0  0
  150.5678  137.1598  154.3939 F   0  0  0  0  0  0  0  0  0  0  0  0
  152.0409  138.7275  154.2035 F   0  0  0  0  0  0  0  0  0  0  0  0
  151.0552  138.3826  156.1052 F   0  0  0  0  0  0  0  0  0  0  0  0
  152.8753  142.4161  159.5511 C   0  0  0  0  0  0  0  0  0  0  0  0
  153.1298  141.6247  158.6411 O   0  0  0  0  0  0  0  0  0  0  0  0
  153.3687  142.2372  160.9262 C   0  0  0  0  0  0  0  0  0  0  0  0
  154.2373  141.0148  161.1954 C   0  0  0  0  0  0  0  0  0  0  0  0
  154.5901  143.0437  163.3753 H   0  0  0  0  0  0  0  0  0  0  0  0
  153.1227  142.1360  163.7802 H   0  0  0  0  0  0  0  0  0  0  0  0
  153.1428  143.8936  163.9139 H   0  0  0  0  0  0  0  0  0  0  0  0
  151.1630  145.2664  160.0888 H   0  0  0  0  0  0  0  0  0  0  0  0
  150.8346  144.6619  158.0517 H   0  0  0  0  0  0  0  0  0  0  0  0
  152.3520  144.2030  157.3840 H   0  0  0  0  0  0  0  0  0  0  0  0
  151.1985  141.6813  157.8794 H   0  0  0  0  0  0  0  0  0  0  0  0
  149.2345  143.4180  156.8154 H   0  0  0  0  0  0  0  0  0  0  0  0
  150.6698  143.1527  155.2625 H   0  0  0  0  0  0  0  0  0  0  0  0
  152.3186  142.7363  155.7333 H   0  0  0  0  0  0  0  0  0  0  0  0
  149.0236  142.7424  154.6665 H   0  0  0  0  0  0  0  0  0  0  0  0
  147.0468  141.9893  153.4338 H   0  0  0  0  0  0  0  0  0  0  0  0
  146.7907  139.5993  152.7989 H   0  0  0  0  0  0  0  0  0  0  0  0
  148.5326  137.9614  153.4087 H   0  0  0  0  0  0  0  0  0  0  0  0
  153.6957  140.1041  160.9374 H   0  0  0  0  0  0  0  0  0  0  0  0
  154.5462  140.9275  162.2358 H   0  0  0  0  0  0  0  0  0  0  0  0
  155.1408  141.0555  160.5859 H   0  0  0  0  0  0  0  0  0  0  0  0
  1  2  1  0  0  0  0
  1 25  1  0  0  0  0
  1 26  1  0  0  0  0
  1 27  1  0  0  0  0
  2 23  2  0  0  0  0
  2  3  1  0  0  0  0
  3  4  2  0  0  0  0
  4  5  1  0  0  0  0
  4 28  1  0  0  0  0
  5  6  1  0  0  0  0
  5 21  1  0  0  0  0
  6  7  1  0  0  0  0
  6 29  1  0  0  0  0
  6 30  1  0  0  0  0
  7  8  1  0  0  0  0
  7  9  1  0  0  0  0
  7 31  1  0  0  0  0
  8 32  1  0  0  0  0
  9 10  1  0  0  0  0
  9 33  1  0  0  0  0
  9 34  1  0  0  0  0
 10 11  1  0  0  0  0
 11 16  1  0  0  0  0
 11 12  2  0  0  0  0
 12 13  1  0  0  0  0
 12 35  1  0  0  0  0
 13 14  2  0  0  0  0
 13 36  1  0  0  0  0
 14 15  1  0  0  0  0
 14 37  1  0  0  0  0
 15 16  2  0  0  0  0
 15 38  1  0  0  0  0
 16 17  1  0  0  0  0
 17 18  1  0  0  0  0
 17 19  1  0  0  0  0
 17 20  1  0  0  0  0
 21 22  2  0  0  0  0
 21 23  1  0  0  0  0
 23 24  1  0  0  0  0
 24 39  1  0  0  0  0
 24 40  1  0  0  0  0
 24 41  1  0  0  0  0
M  END
> <s_m_source_file>
AV-unprocessed.smi

> <i_m_source_file_index>
2280

> <i_lp_mmshare_version>
43012

> <i_f3d_flags>
0

> <s_epik_input>
W0NIM11jMW5bY0hdbihjKD1PKWMxW0NIM10pW0NIMl1bQ0BIXShbT0hdKVtDSDJdT2MyW2NIXVtjSF1bY0hdW2NIXWMyQyhGKShGKUY=

> <s_epik_cmdline>
J2VwaWtfcHl0aG9uJywgJy1waCcsICc3LjAnLCAnLXRuJywgJzgnLCAnLW1hJywgJzIwMCcsICctbWV0YWxfYmluZGluZycsICctaW1hZScsICc8aW5maWxlLm1hZT4nLCAnLW9tYWUnLCAnPG91dGZpbGUubWFlPic=

> <r_lp_tautomer_probability>
1

> <r_epik_Ionization_Penalty>
3.7476e-05

> <r_epik_Ionization_Penalty_Charging>
8.44705e-08

> <r_epik_Ionization_Penalty_Neutral>
3.73915e-05

> <r_epik_State_Penalty>
-0

> <r_epik_Charging_Adjusted_Penalty>
8.44705e-08

> <i_epik_Tot_Q>
0

> <i_epik_Tot_abs_Q>
0

> <r_epik_Metal_State_Penalty>
-0

> <b_epik_Metal_Only>
0

> <s_lp_Force_Field>
OPLS_2005

> <r_lp_Energy>
26.5065

> <b_lp_Chiralities_Consistent>
1

> <s_lp_Variant>
AV-unprocessed.smi:2280-2

> <Gold.Version>
5.8.1

> <Gold.Id.Protein>
6NUR|6NUR_protein|mol2

> <Gold.PLP.Fitness>
54.7836

> <Gold.PLP.PLP>
-54.3033

> <Gold.PLP.part.hbond>
-2.0000

> <Gold.PLP.part.metal>
0.0000

> <Gold.PLP.part.buried>
-1.7941

> <Gold.PLP.part.nonpolar>
-47.2551

> <Gold.PLP.part.repulsive>
0.2389

> <Gold.PLP.ligand.clash>
0.4733

> <Gold.PLP.ligand.torsion>
1.3406

> <Gold.PLP.Chemscore.Hbond>
1.0000

> <Gold.PLP.Chemscore.CHOScore>
0.0000

> <Gold.PLP.Chemscore.Metal>
0.0000

> <Gold.Chemscore.Hbonds>
donor molecule, donor type, donor heavy atom, donor atom, acceptor molecule, acceptor atom, score
      L1  H     8    32       P1  8028  1.00

> <Gold.PLP.Chemscore.Internal.Correction>
0.6348

> <Gold.Rescore>
     Score         DG    S(hbond)    S(metal)    S(lipo)     H(rot)  DE(clash)    DE(int)     intcor
      8.80     -15.50       0.93        0.00     118.75       2.73       1.46       5.24       ----

> <Gold.Chemscore.Fitness>
8.8002

> <Gold.Chemscore.DG>
-15.5007

> <Gold.Chemscore.ZeroCoef>
-5.4800

> <Gold.Chemscore.Hbond>
0.9329

> <Gold.Chemscore.Metal>
0.0000

> <Gold.Chemscore.Lipo>
118.7491

> <Gold.Chemscore.Internal_Hbond>
0.0000

> <Gold.Chemscore.DEClash>
1.4639

> <Gold.Chemscore.DEInternal>
5.2365

> <Gold.Chemscore.Rot>
2.7300

> <Gold.Chemscore.Internal.Correction>
   9.000000E+99

> <Gold.Chemscore.Hbonds>
donor molecule, donor type, donor heavy atom, donor atom, acceptor molecule, acceptor atom, score
      L1  H     8    32       P1  8028  0.94

> <Gold.Chemscore.Hbond.Weighted>
-3.1158

> <Gold.Chemscore.Metal.Weighted>
-0.0000

> <Gold.Chemscore.Lipo.Weighted>
-13.8936

> <Gold.Chemscore.Internal_Hbond.Weighted>
0.0000

> <Gold.Chemscore.DEClash.Weighted>
1.4639

> <Gold.Chemscore.DEInternal.Weighted>
5.2365

> <Gold.Chemscore.Rot.Weighted>
6.9888

> <Gold.Chemscore.Internal.Correction.Weighted>
   9.000000E+99

> <Gold.Protein.RotatedTorsions>
[ 6907 6896 6895 6894 ] final   71.87 input  -60.11 | X-H torsion
[ 7974 7965 7964 7962 ] final  -35.09 input  175.53 | X-H torsion
[ 8008 7997 7996 7995 ] final  131.19 input   59.86 | X-H torsion
[ 10167 10162 10161 10158 ] final  -31.19 input  -65.29 | X-H torsion
[ 10718 10713 10712 10709 ] final  134.18 input   66.30 | X-H torsion
[ 10763 10752 10751 10750 ] final  -10.46 input  -60.55 | X-H torsion
[ 11005 11000 10999 10996 ] final  148.15 input  -57.11 | X-H torsion

> <Gold.Protein.ActiveResidues>
 VAL166  LYS551  ARG553  GLY616  TRP617  ASP618  TYR619  PRO620  LYS621  CYS622 
 ASP623  PHE694  ASN695  SER759  ASP760  ASP761  ALA762  ILE779  LEU786  VAL792 
 PHE793  MET794  SER795  GLU796  ALA797  LYS798  CYS799  TRP800  GLU811  SER814 

> <Gold.Protein.RotatedAtoms>
  152.4835  134.4655  159.9618 H   0  0  0  0  0  0  0  0  0  0  0  0  # atno 6907 bound_to 6896
  151.4656  133.3576  159.2823 H   0  0  0  0  0  0  0  0  0  0  0  0  # atno 6908 bound_to 6896
  150.8927  134.8357  159.7365 H   0  0  0  0  0  0  0  0  0  0  0  0  # atno 6909 bound_to 6896
  146.0775  140.6118  142.8924 H   0  0  0  0  0  0  0  0  0  0  0  0  # atno 7974 bound_to 7965
  156.2966  140.2577  156.2885 H   0  0  0  0  0  0  0  0  0  0  0  0  # atno 8008 bound_to 7997
  154.9532  140.0394  157.2173 H   0  0  0  0  0  0  0  0  0  0  0  0  # atno 8009 bound_to 7997
  154.8016  140.2829  155.5922 H   0  0  0  0  0  0  0  0  0  0  0  0  # atno 8010 bound_to 7997
  140.7239  143.3790  151.1636 H   0  0  0  0  0  0  0  0  0  0  0  0  # atno 10167 bound_to 10162
  157.4698  131.1079  150.9817 H   0  0  0  0  0  0  0  0  0  0  0  0  # atno 10718 bound_to 10713
  153.4695  135.7016  153.6002 H   0  0  0  0  0  0  0  0  0  0  0  0  # atno 10763 bound_to 10752
  153.4262  135.3813  155.2142 H   0  0  0  0  0  0  0  0  0  0  0  0  # atno 10764 bound_to 10752
  154.8725  135.3940  154.4131 H   0  0  0  0  0  0  0  0  0  0  0  0  # atno 10765 bound_to 10752
  140.0935  134.9026  157.1688 H   0  0  0  0  0  0  0  0  0  0  0  0  # atno 11005 bound_to 11000
  144.7271  140.4558  143.6965 LP  0  0  0  0  0  0  0  0  0  0  0  0  # atno 17320 bound_to 7965
  145.6279  139.1532  143.2985 LP  0  0  0  0  0  0  0  0  0  0  0  0  # atno 17321 bound_to 7965
  139.7375  143.8976  152.3039 LP  0  0  0  0  0  0  0  0  0  0  0  0  # atno 17342 bound_to 10162
  139.8786  144.7030  150.8904 LP  0  0  0  0  0  0  0  0  0  0  0  0  # atno 17343 bound_to 10162
  157.0585  130.5816  149.5382 LP  0  0  0  0  0  0  0  0  0  0  0  0  # atno 17370 bound_to 10713
  156.0068  130.5155  150.7856 LP  0  0  0  0  0  0  0  0  0  0  0  0  # atno 17371 bound_to 10713
  140.3318  134.2801  155.7226 LP  0  0  0  0  0  0  0  0  0  0  0  0  # atno 17394 bound_to 11000
  141.2085  133.7775  157.0054 LP  0  0  0  0  0  0  0  0  0  0  0  0  # atno 17395 bound_to 11000

$$$$
