AV-unprocessed.smi:1791|AV-procd|sdf|7219|dock3
  -GOLD-   22720 8463D 1   1.00000     0.00000
 Structure written by MMmdl.
 38 39  0  0  0  0  0  0  0  0  1 V2000
  150.1947  144.8353  159.4341 C   0  0  0  0  0  0  0  0  0  0  0  0
  151.0887  143.8712  158.8884 O   0  0  0  0  0  0  0  0  0  0  0  0
  152.0296  143.3042  159.7236 C   0  0  0  0  0  0  0  0  0  0  0  0
  153.0103  142.4617  159.1631 C   0  0  0  0  0  0  0  0  0  0  0  0
  153.9758  141.8817  160.0084 C   0  0  0  0  0  0  0  0  0  0  0  0
  153.9336  142.1701  161.3937 C   0  0  0  0  0  0  0  0  0  0  0  0
  154.8367  141.6419  162.3562 N   0  0  0  0  0  0  0  0  0  0  0  0
  155.5086  140.4779  162.3341 C   0  0  0  0  0  0  0  0  0  0  0  0
  155.4443  139.6352  161.4397 O   0  0  0  0  0  0  0  0  0  0  0  0
  156.2862  140.3536  163.4195 N   0  0  0  0  0  0  0  0  0  0  0  0
  157.1573  139.2206  163.7252 C   0  0  1  0  0  0  0  0  0  0  0  0
  157.6539  139.3572  165.1730 C   0  0  0  0  0  0  0  0  0  0  0  0
  156.3893  137.9052  163.4902 C   0  0  2  0  0  0  0  0  0  0  0  0
  155.4085  137.5291  164.6029 C   0  0  0  0  0  0  0  0  0  0  0  0
  155.3170  136.0132  164.5116 C   0  0  0  0  0  0  0  0  0  0  0  0
  156.4841  135.6220  163.6023 C   0  0  0  0  0  0  0  0  0  0  0  0
  157.2754  136.7961  163.4953 O   0  0  0  0  0  0  0  0  0  0  0  0
  152.9031  143.0144  161.8557 C   0  0  0  0  0  0  0  0  0  0  0  0
  151.9753  143.5741  161.0511 N   0  0  0  0  0  0  0  0  0  0  0  0
  149.5197  145.1851  158.6533 H   0  0  0  0  0  0  0  0  0  0  0  0
  150.7317  145.7033  159.8196 H   0  0  0  0  0  0  0  0  0  0  0  0
  149.5846  144.4085  160.2313 H   0  0  0  0  0  0  0  0  0  0  0  0
  153.0202  142.2610  158.1018 H   0  0  0  0  0  0  0  0  0  0  0  0
  154.7141  141.2241  159.5775 H   0  0  0  0  0  0  0  0  0  0  0  0
  155.0438  142.2545  163.1313 H   0  0  0  0  0  0  0  0  0  0  0  0
  156.2698  141.1012  164.0973 H   0  0  0  0  0  0  0  0  0  0  0  0
  158.0320  139.2296  163.0727 H   0  0  0  0  0  0  0  0  0  0  0  0
  158.3483  138.5578  165.4322 H   0  0  0  0  0  0  0  0  0  0  0  0
  156.8267  139.3226  165.8827 H   0  0  0  0  0  0  0  0  0  0  0  0
  158.1787  140.3019  165.3189 H   0  0  0  0  0  0  0  0  0  0  0  0
  155.8678  137.9330  162.5310 H   0  0  0  0  0  0  0  0  0  0  0  0
  155.8148  137.8097  165.5756 H   0  0  0  0  0  0  0  0  0  0  0  0
  154.4400  138.0174  164.4905 H   0  0  0  0  0  0  0  0  0  0  0  0
  155.4090  135.5611  165.4998 H   0  0  0  0  0  0  0  0  0  0  0  0
  154.3679  135.6913  164.0824 H   0  0  0  0  0  0  0  0  0  0  0  0
  157.0654  134.7896  163.9992 H   0  0  0  0  0  0  0  0  0  0  0  0
  156.1214  135.3429  162.6120 H   0  0  0  0  0  0  0  0  0  0  0  0
  152.8214  143.2550  162.9056 H   0  0  0  0  0  0  0  0  0  0  0  0
  1  2  1  0  0  0  0
  1 20  1  0  0  0  0
  1 21  1  0  0  0  0
  1 22  1  0  0  0  0
  2  3  1  0  0  0  0
  3 19  1  0  0  0  0
  3  4  2  0  0  0  0
  4  5  1  0  0  0  0
  4 23  1  0  0  0  0
  5  6  2  0  0  0  0
  5 24  1  0  0  0  0
  6  7  1  0  0  0  0
  6 18  1  0  0  0  0
  7  8  1  0  0  0  0
  7 25  1  0  0  0  0
  8  9  2  0  0  0  0
  8 10  1  0  0  0  0
 10 11  1  0  0  0  0
 10 26  1  0  0  0  0
 11 12  1  0  0  0  0
 11 13  1  0  0  0  0
 11 27  1  0  0  0  0
 12 28  1  0  0  0  0
 12 29  1  0  0  0  0
 12 30  1  0  0  0  0
 13 17  1  0  0  0  0
 13 14  1  0  0  0  0
 13 31  1  0  0  0  0
 14 15  1  0  0  0  0
 14 32  1  0  0  0  0
 14 33  1  0  0  0  0
 15 16  1  0  0  0  0
 15 34  1  0  0  0  0
 15 35  1  0  0  0  0
 16 17  1  0  0  0  0
 16 36  1  0  0  0  0
 16 37  1  0  0  0  0
 18 19  2  0  0  0  0
 18 38  1  0  0  0  0
M  END
> <s_m_source_file>
AV-unprocessed.smi

> <i_m_source_file_index>
1791

> <i_lp_mmshare_version>
43012

> <i_f3d_flags>
0

> <s_epik_input>
W0NIM11PYzFbY0hdW2NIXWMoW2NIXW4xKVtOSF1DKD1PKVtOSF1bQ0BIXShbQ0gzXSlbQ0BASF0yW0NIMl1bQ0gyXVtDSDJdTzI=

> <s_epik_cmdline>
J2VwaWtfcHl0aG9uJywgJy1waCcsICc3LjAnLCAnLXRuJywgJzgnLCAnLW1hJywgJzIwMCcsICctbWV0YWxfYmluZGluZycsICctaW1hZScsICc8aW5maWxlLm1hZT4nLCAnLW9tYWUnLCAnPG91dGZpbGUubWFlPic=

> <r_lp_tautomer_probability>
1

> <r_epik_Ionization_Penalty>
9.18737e-05

> <r_epik_Ionization_Penalty_Charging>
0

> <r_epik_Ionization_Penalty_Neutral>
9.18737e-05

> <r_epik_State_Penalty>
-0

> <r_epik_Charging_Adjusted_Penalty>
0

> <i_epik_Tot_Q>
0

> <i_epik_Tot_abs_Q>
0

> <r_epik_Metal_State_Penalty>
-0

> <b_epik_Metal_Only>
0

> <s_lp_Force_Field>
OPLS_2005

> <r_lp_Energy>
20.9022

> <b_lp_Chiralities_Consistent>
1

> <s_lp_Variant>
AV-unprocessed.smi:1791-2

> <Gold.Version>
5.8.1

> <Gold.Id.Protein>
6NUR|6NUR_protein|mol2

> <Gold.PLP.Fitness>
39.2955

> <Gold.PLP.PLP>
-40.4156

> <Gold.PLP.part.hbond>
-1.0000

> <Gold.PLP.part.metal>
0.0000

> <Gold.PLP.part.buried>
-6.1281

> <Gold.PLP.part.nonpolar>
-33.2066

> <Gold.PLP.part.repulsive>
0.2295

> <Gold.PLP.ligand.clash>
0.0000

> <Gold.PLP.ligand.torsion>
0.5803

> <Gold.PLP.Chemscore.Hbond>
0.0000

> <Gold.PLP.Chemscore.CHOScore>
0.0000

> <Gold.PLP.Chemscore.Metal>
0.0000

> <Gold.PLP.Chemscore.Internal.Correction>
0.0404

> <Gold.Rescore>
     Score         DG    S(hbond)    S(metal)    S(lipo)     H(rot)  DE(clash)    DE(int)     intcor
      9.90     -12.73       0.00        0.00      94.10       1.47       0.14       2.69       ----

> <Gold.Chemscore.Fitness>
9.8983

> <Gold.Chemscore.DG>
-12.7290

> <Gold.Chemscore.ZeroCoef>
-5.4800

> <Gold.Chemscore.Hbond>
0.0000

> <Gold.Chemscore.Metal>
0.0000

> <Gold.Chemscore.Lipo>
94.1049

> <Gold.Chemscore.Internal_Hbond>
0.0000

> <Gold.Chemscore.DEClash>
0.1423

> <Gold.Chemscore.DEInternal>
2.6884

> <Gold.Chemscore.Rot>
1.4693

> <Gold.Chemscore.Internal.Correction>
   9.000000E+99

> <Gold.Chemscore.Hbond.Weighted>
-0.0000

> <Gold.Chemscore.Metal.Weighted>
-0.0000

> <Gold.Chemscore.Lipo.Weighted>
-11.0103

> <Gold.Chemscore.Internal_Hbond.Weighted>
0.0000

> <Gold.Chemscore.DEClash.Weighted>
0.1423

> <Gold.Chemscore.DEInternal.Weighted>
2.6884

> <Gold.Chemscore.Rot.Weighted>
3.7613

> <Gold.Chemscore.Internal.Correction.Weighted>
   9.000000E+99

> <Gold.Protein.RotatedTorsions>
[ 6907 6896 6895 6894 ] final  156.44 input  -60.11 | X-H torsion
[ 7974 7965 7964 7962 ] final  -45.04 input  175.53 | X-H torsion
[ 8008 7997 7996 7995 ] final  -33.65 input   59.86 | X-H torsion
[ 10167 10162 10161 10158 ] final   32.88 input  -65.29 | X-H torsion
[ 10718 10713 10712 10709 ] final  130.52 input   66.30 | X-H torsion
[ 10763 10752 10751 10750 ] final  132.33 input  -60.55 | X-H torsion
[ 11005 11000 10999 10996 ] final  118.22 input  -57.11 | X-H torsion

> <Gold.Protein.ActiveResidues>
 VAL166  LYS551  ARG553  GLY616  TRP617  ASP618  TYR619  PRO620  LYS621  CYS622 
 ASP623  PHE694  ASN695  SER759  ASP760  ASP761  ALA762  ILE779  LEU786  VAL792 
 PHE793  MET794  SER795  GLU796  ALA797  LYS798  CYS799  TRP800  GLU811  SER814 

> <Gold.Protein.RotatedAtoms>
  152.0296  133.3932  159.4291 H   0  0  0  0  0  0  0  0  0  0  0  0  # atno 6907 bound_to 6896
  150.6883  134.3536  159.4929 H   0  0  0  0  0  0  0  0  0  0  0  0  # atno 6908 bound_to 6896
  152.1320  134.9127  160.0609 H   0  0  0  0  0  0  0  0  0  0  0  0  # atno 6909 bound_to 6896
  145.9861  140.7232  142.9340 H   0  0  0  0  0  0  0  0  0  0  0  0  # atno 7974 bound_to 7965
  154.4143  140.1705  156.1922 H   0  0  0  0  0  0  0  0  0  0  0  0  # atno 8008 bound_to 7997
  155.9594  140.3394  155.6453 H   0  0  0  0  0  0  0  0  0  0  0  0  # atno 8009 bound_to 7997
  155.6768  140.0718  157.2490 H   0  0  0  0  0  0  0  0  0  0  0  0  # atno 8010 bound_to 7997
  140.4458  144.1121  150.6182 H   0  0  0  0  0  0  0  0  0  0  0  0  # atno 10167 bound_to 10162
  157.5054  131.1095  150.9368 H   0  0  0  0  0  0  0  0  0  0  0  0  # atno 10718 bound_to 10713
  153.7889  135.3158  155.3376 H   0  0  0  0  0  0  0  0  0  0  0  0  # atno 10763 bound_to 10752
  154.8133  135.4653  154.0578 H   0  0  0  0  0  0  0  0  0  0  0  0  # atno 10764 bound_to 10752
  153.1890  135.6905  153.8464 H   0  0  0  0  0  0  0  0  0  0  0  0  # atno 10765 bound_to 10752
  139.9102  134.9618  156.7470 H   0  0  0  0  0  0  0  0  0  0  0  0  # atno 11005 bound_to 11000
  144.6875  140.2990  143.7266 LP  0  0  0  0  0  0  0  0  0  0  0  0  # atno 17320 bound_to 7965
  145.7699  139.1853  143.2218 LP  0  0  0  0  0  0  0  0  0  0  0  0  # atno 17321 bound_to 7965
  140.4265  143.2587  151.9649 LP  0  0  0  0  0  0  0  0  0  0  0  0  # atno 17342 bound_to 10162
  139.4792  144.5783  151.7975 LP  0  0  0  0  0  0  0  0  0  0  0  0  # atno 17343 bound_to 10162
  157.0026  130.5605  149.5313 LP  0  0  0  0  0  0  0  0  0  0  0  0  # atno 17370 bound_to 10713
  156.0255  130.5349  150.8394 LP  0  0  0  0  0  0  0  0  0  0  0  0  # atno 17371 bound_to 10713
  140.6804  133.9479  155.7907 LP  0  0  0  0  0  0  0  0  0  0  0  0  # atno 17394 bound_to 11000
  141.0514  134.0479  157.3778 LP  0  0  0  0  0  0  0  0  0  0  0  0  # atno 17395 bound_to 11000

$$$$
