AV-unprocessed.smi:2962|AV-procd|sdf|11315|dock2
  -GOLD-   2272016213D 1   1.00000     0.00000
 Structure written by MMmdl.
 36 37  0  0  0  0  0  0  0  0  1 V2000
  153.7881  136.8769  161.7975 C   0  0  0  0  0  0  0  0  0  0  0  0
  153.1398  136.7050  160.5471 O   0  0  0  0  0  0  0  0  0  0  0  0
  152.4494  137.8637  160.1014 C   0  0  0  0  0  0  0  0  0  0  0  0
  153.4108  139.0305  159.8150 C   0  0  0  0  0  0  0  0  0  0  0  0
  152.7610  140.1048  159.0767 N   0  0  0  0  0  0  0  0  0  0  0  0
  152.1835  140.0625  157.8497 C   0  0  0  0  0  0  0  0  0  0  0  0
  152.1135  138.5913  156.8824 S   0  0  0  0  0  0  0  0  0  0  0  0
  150.7851  139.0826  155.7412 C   0  0  2  0  0  0  0  0  0  0  0  0
  149.5029  139.4035  156.5282 C   0  0  0  0  0  0  0  0  0  0  0  0
  150.5533  138.0216  154.6561 C   0  0  0  0  0  0  0  0  0  0  0  0
  149.6279  138.2931  153.7319 N   0  0  0  0  0  0  0  0  0  0  0  0
  151.1899  136.9695  154.6455 O   0  0  0  0  0  0  0  0  0  0  0  0
  151.6646  141.2106  157.4149 N   0  0  0  0  0  0  0  0  0  0  0  0
  151.9270  142.0785  158.4561 C   0  0  0  0  0  0  0  0  0  0  0  0
  151.6244  143.4507  158.6074 C   0  0  0  0  0  0  0  0  0  0  0  0
  151.9987  144.1389  159.7802 C   0  0  0  0  0  0  0  0  0  0  0  0
  152.6789  143.4665  160.8161 C   0  0  0  0  0  0  0  0  0  0  0  0
  152.9892  142.0992  160.6857 C   0  0  0  0  0  0  0  0  0  0  0  0
  152.6128  141.4171  159.5132 C   0  0  0  0  0  0  0  0  0  0  0  0
  154.2603  135.9406  162.0944 H   0  0  0  0  0  0  0  0  0  0  0  0
  153.0893  137.1623  162.5838 H   0  0  0  0  0  0  0  0  0  0  0  0
  154.5662  137.6383  161.7326 H   0  0  0  0  0  0  0  0  0  0  0  0
  151.8344  137.6417  159.2279 H   0  0  0  0  0  0  0  0  0  0  0  0
  151.7577  138.1588  160.8910 H   0  0  0  0  0  0  0  0  0  0  0  0
  153.8417  139.4193  160.7361 H   0  0  0  0  0  0  0  0  0  0  0  0
  154.2524  138.6725  159.2217 H   0  0  0  0  0  0  0  0  0  0  0  0
  151.0884  140.0020  155.2386 H   0  0  0  0  0  0  0  0  0  0  0  0
  148.6901  139.6979  155.8632 H   0  0  0  0  0  0  0  0  0  0  0  0
  149.6698  140.2275  157.2222 H   0  0  0  0  0  0  0  0  0  0  0  0
  149.1655  138.5460  157.1118 H   0  0  0  0  0  0  0  0  0  0  0  0
  149.4221  137.6186  153.0094 H   0  0  0  0  0  0  0  0  0  0  0  0
  149.1211  139.1654  153.7728 H   0  0  0  0  0  0  0  0  0  0  0  0
  151.1041  143.9752  157.8194 H   0  0  0  0  0  0  0  0  0  0  0  0
  151.7634  145.1880  159.8855 H   0  0  0  0  0  0  0  0  0  0  0  0
  152.9628  144.0010  161.7109 H   0  0  0  0  0  0  0  0  0  0  0  0
  153.5110  141.5815  161.4768 H   0  0  0  0  0  0  0  0  0  0  0  0
  1  2  1  0  0  0  0
  1 20  1  0  0  0  0
  1 21  1  0  0  0  0
  1 22  1  0  0  0  0
  2  3  1  0  0  0  0
  3  4  1  0  0  0  0
  3 23  1  0  0  0  0
  3 24  1  0  0  0  0
  4  5  1  0  0  0  0
  4 25  1  0  0  0  0
  4 26  1  0  0  0  0
  5 19  1  0  0  0  0
  5  6  1  0  0  0  0
  6  7  1  0  0  0  0
  6 13  2  0  0  0  0
  7  8  1  0  0  0  0
  8  9  1  0  0  0  0
  8 10  1  0  0  0  0
  8 27  1  0  0  0  0
  9 28  1  0  0  0  0
  9 29  1  0  0  0  0
  9 30  1  0  0  0  0
 10 11  1  0  0  0  0
 10 12  2  0  0  0  0
 11 31  1  0  0  0  0
 11 32  1  0  0  0  0
 13 14  1  0  0  0  0
 14 19  2  0  0  0  0
 14 15  1  0  0  0  0
 15 16  2  0  0  0  0
 15 33  1  0  0  0  0
 16 17  1  0  0  0  0
 16 34  1  0  0  0  0
 17 18  2  0  0  0  0
 17 35  1  0  0  0  0
 18 19  1  0  0  0  0
 18 36  1  0  0  0  0
M  END
> <s_m_source_file>
AV-unprocessed.smi

> <i_m_source_file_index>
2962

> <i_lp_mmshare_version>
43012

> <i_f3d_flags>
0

> <s_epik_input>
W2NIXTFbY0hdW2NIXVtjSF1jKGMxMiluKFtDSDJdW0NIMl1PW0NIM10pYyhuMilTW0NASF0oW0NIM10pQyg9TylbTkgyXQ==

> <s_epik_cmdline>
J2VwaWtfcHl0aG9uJywgJy1waCcsICc3LjAnLCAnLXRuJywgJzgnLCAnLW1hJywgJzIwMCcsICctbWV0YWxfYmluZGluZycsICctaW1hZScsICc8aW5maWxlLm1hZT4nLCAnLW9tYWUnLCAnPG91dGZpbGUubWFlPic=

> <r_epik_Ionization_Penalty>
0.0199986

> <r_epik_Ionization_Penalty_Charging>
0

> <r_epik_Ionization_Penalty_Neutral>
0.0199986

> <r_epik_State_Penalty>
0.0160044

> <r_epik_Charging_Adjusted_Penalty>
0.0160044

> <i_epik_Tot_Q>
0

> <i_epik_Tot_abs_Q>
0

> <r_epik_Metal_State_Penalty>
0.015472

> <b_epik_Metal_Only>
0

> <s_lp_Force_Field>
OPLS_2005

> <r_lp_Energy>
7.16755

> <b_lp_Chiralities_Consistent>
1

> <s_lp_Variant>
AV-unprocessed.smi:2962-1

> <Gold.Version>
5.8.1

> <Gold.Id.Protein>
6NUR|6NUR_protein|mol2

> <Gold.PLP.Fitness>
46.7204

> <Gold.PLP.PLP>
-38.5412

> <Gold.PLP.part.hbond>
-3.8852

> <Gold.PLP.part.metal>
0.0000

> <Gold.PLP.part.buried>
-3.2811

> <Gold.PLP.part.nonpolar>
-30.6661

> <Gold.PLP.part.repulsive>
0.2573

> <Gold.PLP.ligand.clash>
0.0000

> <Gold.PLP.ligand.torsion>
0.3167

> <Gold.PLP.Chemscore.Hbond>
2.8925

> <Gold.PLP.Chemscore.CHOScore>
0.0000

> <Gold.PLP.Chemscore.Metal>
0.0000

> <Gold.Chemscore.Hbonds>
donor molecule, donor type, donor heavy atom, donor atom, acceptor molecule, acceptor atom, score
      L1  H    11    31       P1  7948  1.00
      P1  H  6896  6909       L1     2  0.98
      P1  H 10752 10763       L1    12  0.54

> <Gold.PLP.Chemscore.Internal.Correction>
0.1350

> <Gold.Rescore>
     Score         DG    S(hbond)    S(metal)    S(lipo)     H(rot)  DE(clash)    DE(int)     intcor
     19.44     -19.98       2.90        0.00      95.94       2.50       0.06       0.48       ----

> <Gold.Chemscore.Fitness>
19.4357

> <Gold.Chemscore.DG>
-19.9752

> <Gold.Chemscore.ZeroCoef>
-5.4800

> <Gold.Chemscore.Hbond>
2.8974

> <Gold.Chemscore.Metal>
0.0000

> <Gold.Chemscore.Lipo>
95.9390

> <Gold.Chemscore.Internal_Hbond>
0.0000

> <Gold.Chemscore.DEClash>
0.0638

> <Gold.Chemscore.DEInternal>
0.4757

> <Gold.Chemscore.Rot>
2.5027

> <Gold.Chemscore.Internal.Correction>
   9.000000E+99

> <Gold.Chemscore.Hbonds>
donor molecule, donor type, donor heavy atom, donor atom, acceptor molecule, acceptor atom, score
      L1  H    11    31       P1  7948  0.91
      P1  H  6896  6909       L1     2  0.74
      P1  H 10752 10763       L1    12  0.54

> <Gold.Chemscore.Hbond.Weighted>
-9.6774

> <Gold.Chemscore.Metal.Weighted>
-0.0000

> <Gold.Chemscore.Lipo.Weighted>
-11.2249

> <Gold.Chemscore.Internal_Hbond.Weighted>
0.0000

> <Gold.Chemscore.DEClash.Weighted>
0.0638

> <Gold.Chemscore.DEInternal.Weighted>
0.4757

> <Gold.Chemscore.Rot.Weighted>
6.4070

> <Gold.Chemscore.Internal.Correction.Weighted>
   9.000000E+99

> <Gold.Protein.RotatedTorsions>
[ 6907 6896 6895 6894 ] final  154.81 input  -60.11 | X-H torsion
[ 7974 7965 7964 7962 ] final  -25.08 input  175.53 | X-H torsion
[ 8008 7997 7996 7995 ] final  112.50 input   59.86 | X-H torsion
[ 10167 10162 10161 10158 ] final  -65.21 input  -65.29 | X-H torsion
[ 10718 10713 10712 10709 ] final  -73.89 input   66.30 | X-H torsion
[ 10763 10752 10751 10750 ] final   41.25 input  -60.55 | X-H torsion
[ 11005 11000 10999 10996 ] final -167.85 input  -57.11 | X-H torsion

> <Gold.Protein.ActiveResidues>
 VAL166  LYS551  ARG553  GLY616  TRP617  ASP618  TYR619  PRO620  LYS621  CYS622 
 ASP623  PHE694  ASN695  SER759  ASP760  ASP761  ALA762  ILE779  LEU786  VAL792 
 PHE793  MET794  SER795  GLU796  ALA797  LYS798  CYS799  TRP800  GLU811  SER814 

> <Gold.Protein.RotatedAtoms>
  152.0532  133.4028  159.4385 H   0  0  0  0  0  0  0  0  0  0  0  0  # atno 6907 bound_to 6896
  150.6869  134.3284  159.4826 H   0  0  0  0  0  0  0  0  0  0  0  0  # atno 6908 bound_to 6896
  152.1096  134.9283  160.0617 H   0  0  0  0  0  0  0  0  0  0  0  0  # atno 6909 bound_to 6896
  146.1514  140.4838  142.8610 H   0  0  0  0  0  0  0  0  0  0  0  0  # atno 7974 bound_to 7965
  156.2197  140.2998  155.9922 H   0  0  0  0  0  0  0  0  0  0  0  0  # atno 8008 bound_to 7997
  155.2515  140.0426  157.3004 H   0  0  0  0  0  0  0  0  0  0  0  0  # atno 8009 bound_to 7997
  154.5821  140.2378  155.8047 H   0  0  0  0  0  0  0  0  0  0  0  0  # atno 8010 bound_to 7997
  140.5746  143.2320  151.6469 H   0  0  0  0  0  0  0  0  0  0  0  0  # atno 10167 bound_to 10162
  156.0263  130.4404  150.2811 H   0  0  0  0  0  0  0  0  0  0  0  0  # atno 10718 bound_to 10713
  152.9913  135.6167  154.2757 H   0  0  0  0  0  0  0  0  0  0  0  0  # atno 10763 bound_to 10752
  154.2488  135.2786  155.2826 H   0  0  0  0  0  0  0  0  0  0  0  0  # atno 10764 bound_to 10752
  154.5306  135.5789  153.6813 H   0  0  0  0  0  0  0  0  0  0  0  0  # atno 10765 bound_to 10752
  140.5486  134.5451  157.5117 H   0  0  0  0  0  0  0  0  0  0  0  0  # atno 11005 bound_to 11000
  144.7908  140.6028  143.6542 LP  0  0  0  0  0  0  0  0  0  0  0  0  # atno 17320 bound_to 7965
  145.4814  139.1495  143.3759 LP  0  0  0  0  0  0  0  0  0  0  0  0  # atno 17321 bound_to 7965
  139.5135  144.3440  152.0714 LP  0  0  0  0  0  0  0  0  0  0  0  0  # atno 17342 bound_to 10162
  140.2581  144.4096  150.6196 LP  0  0  0  0  0  0  0  0  0  0  0  0  # atno 17343 bound_to 10162
  157.0914  131.0171  151.3120 LP  0  0  0  0  0  0  0  0  0  0  0  0  # atno 17370 bound_to 10713
  157.4851  130.7788  149.7452 LP  0  0  0  0  0  0  0  0  0  0  0  0  # atno 17371 bound_to 10713
  139.9467  134.7690  156.0546 LP  0  0  0  0  0  0  0  0  0  0  0  0  # atno 17394 bound_to 11000
  141.1185  133.6620  156.3154 LP  0  0  0  0  0  0  0  0  0  0  0  0  # atno 17395 bound_to 11000

$$$$
