AV-unprocessed.smi:1535|AV-procd|sdf|6180|dock1
  -GOLD-   22720 6333D 1   1.00000     0.00000
 Structure written by MMmdl.
 47 48  0  0  0  0  0  0  0  0  2 V2000
  152.3992  143.2433  160.6503 C   0  0  0  0  0  0  0  0  0  0  0  0
  151.9482  142.4699  159.4236 C   0  0  0  0  0  0  0  0  0  0  0  0
  152.6523  141.3031  159.0499 C   0  0  0  0  0  0  0  0  0  0  0  0
  152.2652  140.5556  157.9163 C   0  0  0  0  0  0  0  0  0  0  0  0
  152.8034  139.4014  157.3739 N   0  0  0  0  0  0  0  0  0  0  0  0
  152.0071  139.1987  156.3288 C   0  0  0  0  0  0  0  0  0  0  0  0
  151.0233  140.0955  156.1206 N   0  0  0  0  0  0  0  0  0  0  0  0
  150.0487  140.0925  155.0451 C   0  0  0  0  0  0  0  0  0  0  0  0
  149.8455  138.6907  154.4365 C   0  0  2  0  0  0  0  0  0  0  0  0
  149.1246  138.8393  153.2301 O   0  0  0  0  0  0  0  0  0  0  0  0
  149.0703  137.7220  155.3545 C   0  0  0  0  0  0  0  0  0  0  0  0
  149.0492  136.3444  154.7996 N   0  3  1  0  0  0  0  0  0  0  0  0
  150.3618  135.6670  154.9172 C   0  0  0  0  0  0  0  0  0  0  0  0
  147.9415  135.5124  155.3328 C   0  0  0  0  0  0  0  0  0  0  0  0
  147.5150  134.4046  154.3498 C   0  0  2  0  0  0  0  0  0  0  0  0
  146.1661  133.7908  154.7453 C   0  0  0  0  0  0  0  0  0  0  0  0
  148.5499  133.3642  154.2359 C   0  0  0  0  0  0  0  0  0  0  0  0
  149.3640  132.5486  154.1425 N   0  0  0  0  0  0  0  0  0  0  0  0
  151.1462  141.0117  157.1598 C   0  0  0  0  0  0  0  0  0  0  0  0
  150.4344  142.1681  157.5248 C   0  0  0  0  0  0  0  0  0  0  0  0
  150.8349  142.9033  158.6598 C   0  0  0  0  0  0  0  0  0  0  0  0
  150.0615  144.1522  159.0446 C   0  0  0  0  0  0  0  0  0  0  0  0
  153.2752  142.7852  161.1104 H   0  0  0  0  0  0  0  0  0  0  0  0
  151.6051  143.2708  161.3969 H   0  0  0  0  0  0  0  0  0  0  0  0
  152.6599  144.2676  160.3829 H   0  0  0  0  0  0  0  0  0  0  0  0
  153.4984  140.9709  159.6334 H   0  0  0  0  0  0  0  0  0  0  0  0
  152.1548  138.3556  155.6698 H   0  0  0  0  0  0  0  0  0  0  0  0
  149.1040  140.4780  155.4322 H   0  0  0  0  0  0  0  0  0  0  0  0
  150.3845  140.7950  154.2811 H   0  0  0  0  0  0  0  0  0  0  0  0
  150.8208  138.2713  154.1910 H   0  0  0  0  0  0  0  0  0  0  0  0
  148.9032  137.9805  152.9017 H   0  0  0  0  0  0  0  0  0  0  0  0
  149.5062  137.6857  156.3537 H   0  0  0  0  0  0  0  0  0  0  0  0
  148.0601  138.1071  155.4928 H   0  0  0  0  0  0  0  0  0  0  0  0
  150.6122  135.4794  155.9624 H   0  0  0  0  0  0  0  0  0  0  0  0
  151.1593  136.2682  154.4803 H   0  0  0  0  0  0  0  0  0  0  0  0
  150.3498  134.7108  154.3931 H   0  0  0  0  0  0  0  0  0  0  0  0
  148.2637  135.0361  156.2601 H   0  0  0  0  0  0  0  0  0  0  0  0
  147.0960  136.1515  155.5922 H   0  0  0  0  0  0  0  0  0  0  0  0
  147.4048  134.8232  153.3503 H   0  0  0  0  0  0  0  0  0  0  0  0
  145.8623  133.0248  154.0314 H   0  0  0  0  0  0  0  0  0  0  0  0
  145.3816  134.5476  154.7717 H   0  0  0  0  0  0  0  0  0  0  0  0
  146.2168  133.3255  155.7302 H   0  0  0  0  0  0  0  0  0  0  0  0
  149.5863  142.4873  156.9374 H   0  0  0  0  0  0  0  0  0  0  0  0
  149.2277  144.3296  158.3646 H   0  0  0  0  0  0  0  0  0  0  0  0
  150.7104  145.0276  159.0136 H   0  0  0  0  0  0  0  0  0  0  0  0
  149.6558  144.0562  160.0521 H   0  0  0  0  0  0  0  0  0  0  0  0
  148.8676  136.4414  153.8101 H   0  0  0  0  0  0  0  0  0  0  0  0
  1  2  1  0  0  0  0
  1 23  1  0  0  0  0
  1 24  1  0  0  0  0
  1 25  1  0  0  0  0
  2 21  1  0  0  0  0
  2  3  2  0  0  0  0
  3  4  1  0  0  0  0
  3 26  1  0  0  0  0
  4 19  2  0  0  0  0
  4  5  1  0  0  0  0
  5  6  2  0  0  0  0
  6  7  1  0  0  0  0
  6 27  1  0  0  0  0
  7  8  1  0  0  0  0
  7 19  1  0  0  0  0
  8  9  1  0  0  0  0
  8 28  1  0  0  0  0
  8 29  1  0  0  0  0
  9 10  1  0  0  0  0
  9 11  1  0  0  0  0
  9 30  1  0  0  0  0
 10 31  1  0  0  0  0
 11 12  1  0  0  0  0
 11 32  1  0  0  0  0
 11 33  1  0  0  0  0
 12 13  1  0  0  0  0
 12 14  1  0  0  0  0
 12 47  1  0  0  0  0
 13 34  1  0  0  0  0
 13 35  1  0  0  0  0
 13 36  1  0  0  0  0
 14 15  1  0  0  0  0
 14 37  1  0  0  0  0
 14 38  1  0  0  0  0
 15 16  1  0  0  0  0
 15 17  1  0  0  0  0
 15 39  1  0  0  0  0
 16 40  1  0  0  0  0
 16 41  1  0  0  0  0
 16 42  1  0  0  0  0
 17 18  3  0  0  0  0
 19 20  1  0  0  0  0
 20 21  2  0  0  0  0
 20 43  1  0  0  0  0
 21 22  1  0  0  0  0
 22 44  1  0  0  0  0
 22 45  1  0  0  0  0
 22 46  1  0  0  0  0
M  CHG  1  12   1
M  END
> <s_m_source_file>
AV-unprocessed.smi

> <i_m_source_file_index>
1535

> <i_lp_mmshare_version>
43012

> <i_f3d_flags>
0

> <s_epik_input>
W0NIM11jKFtjSF0xKWMoW0NIM10pW2NIXWMoYzEyKW4oW2NIXW4yKVtDSDJdW0NASF0oW09IXSlbQ0gyXU4oW0NIM10pW0NIMl1bQ0BIXShbQ0gzXSlDI04=

> <s_epik_cmdline>
J2VwaWtfcHl0aG9uJywgJy1waCcsICc3LjAnLCAnLXRuJywgJzgnLCAnLW1hJywgJzIwMCcsICctbWV0YWxfYmluZGluZycsICctaW1hZScsICc8aW5maWxlLm1hZT4nLCAnLW9tYWUnLCAnPG91dGZpbGUubWFlPic=

> <r_epik_Ionization_Penalty>
2.21058

> <r_epik_Ionization_Penalty_Charging>
2.12381

> <r_epik_Ionization_Penalty_Neutral>
0.0867699

> <r_epik_State_Penalty>
2.36208

> <r_epik_Charging_Adjusted_Penalty>
4.48589

> <i_epik_Tot_Q>
1

> <i_epik_Tot_abs_Q>
1

> <r_epik_Metal_State_Penalty>
2.2818

> <b_epik_Metal_Only>
0

> <s_lp_Force_Field>
OPLS_2005

> <r_lp_Energy>
13.2218

> <b_lp_Chiralities_Consistent>
1

> <s_lp_Variant>
AV-unprocessed.smi:1535-11

> <Gold.Version>
5.8.1

> <Gold.Id.Protein>
6NUR|6NUR_protein|mol2

> <Gold.PLP.Fitness>
49.5296

> <Gold.PLP.PLP>
-38.7104

> <Gold.PLP.part.hbond>
-3.4856

> <Gold.PLP.part.metal>
0.0000

> <Gold.PLP.part.buried>
-4.7427

> <Gold.PLP.part.nonpolar>
-30.7424

> <Gold.PLP.part.repulsive>
0.1048

> <Gold.PLP.ligand.clash>
0.0000

> <Gold.PLP.ligand.torsion>
0.8893

> <Gold.PLP.Chemscore.Hbond>
4.0000

> <Gold.PLP.Chemscore.CHOScore>
0.0000

> <Gold.PLP.Chemscore.Metal>
0.0000

> <Gold.Chemscore.Hbonds>
donor molecule, donor type, donor heavy atom, donor atom, acceptor molecule, acceptor atom, score
      L1  H    10    31       P1  7948  1.00
      L1  H    12    47       P1  7948  2.00
      P1  H  7997  8008       L1     5  0.95

> <Gold.PLP.Chemscore.Internal.Correction>
0.5978

> <Gold.Rescore>
     Score         DG    S(hbond)    S(metal)    S(lipo)     H(rot)  DE(clash)    DE(int)     intcor
     17.75     -18.78       2.72        0.00      92.87       2.60       0.02       1.01       ----

> <Gold.Chemscore.Fitness>
17.7497

> <Gold.Chemscore.DG>
-18.7786

> <Gold.Chemscore.ZeroCoef>
-5.4800

> <Gold.Chemscore.Hbond>
2.7234

> <Gold.Chemscore.Metal>
0.0000

> <Gold.Chemscore.Lipo>
92.8747

> <Gold.Chemscore.Internal_Hbond>
0.0000

> <Gold.Chemscore.DEClash>
0.0160

> <Gold.Chemscore.DEInternal>
1.0129

> <Gold.Chemscore.Rot>
2.6031

> <Gold.Chemscore.Internal.Correction>
   9.000000E+99

> <Gold.Chemscore.Hbonds>
donor molecule, donor type, donor heavy atom, donor atom, acceptor molecule, acceptor atom, score
      L1  H    10    31       P1  7948  0.95
      L1  H    12    47       P1  7948  0.99
      P1  H  7997  8008       L1     5  0.19

> <Gold.Chemscore.Hbond.Weighted>
-9.0962

> <Gold.Chemscore.Metal.Weighted>
-0.0000

> <Gold.Chemscore.Lipo.Weighted>
-10.8663

> <Gold.Chemscore.Internal_Hbond.Weighted>
0.0000

> <Gold.Chemscore.DEClash.Weighted>
0.0160

> <Gold.Chemscore.DEInternal.Weighted>
1.0129

> <Gold.Chemscore.Rot.Weighted>
6.6640

> <Gold.Chemscore.Internal.Correction.Weighted>
   9.000000E+99

> <Gold.Protein.RotatedTorsions>
[ 6907 6896 6895 6894 ] final   11.82 input  -60.11 | X-H torsion
[ 7974 7965 7964 7962 ] final -176.83 input  175.53 | X-H torsion
[ 8008 7997 7996 7995 ] final  -78.78 input   59.86 | X-H torsion
[ 10167 10162 10161 10158 ] final  -28.10 input  -65.29 | X-H torsion
[ 10718 10713 10712 10709 ] final -122.19 input   66.30 | X-H torsion
[ 10763 10752 10751 10750 ] final  -34.64 input  -60.55 | X-H torsion
[ 11005 11000 10999 10996 ] final  -90.57 input  -57.11 | X-H torsion

> <Gold.Protein.ActiveResidues>
 VAL166  LYS551  ARG553  GLY616  TRP617  ASP618  TYR619  PRO620  LYS621  CYS622 
 ASP623  PHE694  ASN695  SER759  ASP760  ASP761  ALA762  ILE779  LEU786  VAL792 
 PHE793  MET794  SER795  GLU796  ALA797  LYS798  CYS799  TRP800  GLU811  SER814 

> <Gold.Protein.RotatedAtoms>
  151.7605  135.0811  160.0344 H   0  0  0  0  0  0  0  0  0  0  0  0  # atno 6907 bound_to 6896
  152.3356  133.6004  159.5849 H   0  0  0  0  0  0  0  0  0  0  0  0  # atno 6908 bound_to 6896
  150.7448  133.9717  159.3589 H   0  0  0  0  0  0  0  0  0  0  0  0  # atno 6909 bound_to 6896
  144.7127  140.1112  143.6411 H   0  0  0  0  0  0  0  0  0  0  0  0  # atno 7974 bound_to 7965
  154.5722  140.0689  156.8981 H   0  0  0  0  0  0  0  0  0  0  0  0  # atno 8008 bound_to 7997
  155.2613  140.3358  155.4255 H   0  0  0  0  0  0  0  0  0  0  0  0  # atno 8009 bound_to 7997
  156.2127  140.1765  156.7644 H   0  0  0  0  0  0  0  0  0  0  0  0  # atno 8010 bound_to 7997
  140.7272  143.4038  151.1220 H   0  0  0  0  0  0  0  0  0  0  0  0  # atno 10167 bound_to 10162
  156.1398  130.6458  150.9754 H   0  0  0  0  0  0  0  0  0  0  0  0  # atno 10718 bound_to 10713
  153.8501  135.6850  153.4793 H   0  0  0  0  0  0  0  0  0  0  0  0  # atno 10763 bound_to 10752
  153.1402  135.4660  154.9482 H   0  0  0  0  0  0  0  0  0  0  0  0  # atno 10764 bound_to 10752
  154.7806  135.3267  154.7945 H   0  0  0  0  0  0  0  0  0  0  0  0  # atno 10765 bound_to 10752
  141.1563  133.7700  156.9756 H   0  0  0  0  0  0  0  0  0  0  0  0  # atno 11005 bound_to 11000
  145.9453  139.2697  143.1244 LP  0  0  0  0  0  0  0  0  0  0  0  0  # atno 17320 bound_to 7965
  145.9380  140.9000  143.0322 LP  0  0  0  0  0  0  0  0  0  0  0  0  # atno 17321 bound_to 7965
  139.7661  143.8563  152.3111 LP  0  0  0  0  0  0  0  0  0  0  0  0  # atno 17342 bound_to 10162
  139.8465  144.7185  150.9266 LP  0  0  0  0  0  0  0  0  0  0  0  0  # atno 17343 bound_to 10162
  157.6566  131.0888  150.7934 LP  0  0  0  0  0  0  0  0  0  0  0  0  # atno 17370 bound_to 10713
  156.8010  130.4921  149.5370 LP  0  0  0  0  0  0  0  0  0  0  0  0  # atno 17371 bound_to 10713
  140.1100  134.9483  157.2051 LP  0  0  0  0  0  0  0  0  0  0  0  0  # atno 17394 bound_to 11000
  140.3206  134.2920  155.7247 LP  0  0  0  0  0  0  0  0  0  0  0  0  # atno 17395 bound_to 11000

$$$$
