AV-unprocessed.smi:276|AV-procd|sdf|2073|dock4
  -GOLD-   2262021333D 1   1.00000     0.00000
 Structure written by MMmdl.
 57 61  0  0  0  0  0  0  0  0  1 V2000
  152.1538  137.9702  159.3598 C   0  0  0  0  0  0  0  0  0  0  0  0
  152.0160  138.5160  158.0597 O   0  0  0  0  0  0  0  0  0  0  0  0
  150.6673  138.5440  157.6203 C   0  0  1  0  0  0  0  0  0  0  0  0
  149.8324  139.6930  158.1989 C   0  0  0  0  0  0  0  0  0  0  0  0
  149.2028  139.8824  156.8046 C   0  0  2  0  0  0  0  0  0  0  0  0
  147.9488  139.1262  156.6706 N   0  0  0  0  0  0  0  0  0  0  0  0
  146.8640  139.5173  157.5650 C   0  0  0  0  0  0  0  0  0  0  0  0
  147.4742  138.9989  155.4118 C   0  0  0  0  0  0  0  0  0  0  0  0
  147.8279  139.9578  154.5205 N   0  0  0  0  0  0  0  0  0  0  0  0
  147.3674  139.9071  153.2671 C   0  0  0  0  0  0  0  0  0  0  0  0
  146.5573  139.0038  152.7109 N   0  0  0  0  0  0  0  0  0  0  0  0
  146.2143  138.0292  153.6016 C   0  0  0  0  0  0  0  0  0  0  0  0
  146.6346  137.9414  154.9583 C   0  0  0  0  0  0  0  0  0  0  0  0
  146.0951  136.8043  155.5478 N   0  0  0  0  0  0  0  0  0  0  0  0
  145.3802  136.2622  154.6006 C   0  0  0  0  0  0  0  0  0  0  0  0
  145.3732  136.9479  153.4071 N   0  0  0  0  0  0  0  0  0  0  0  0
  144.6500  136.5835  152.2022 C   0  0  0  0  0  0  0  0  0  0  0  0
  145.4222  135.6038  151.2881 C   0  0  2  0  0  0  0  0  0  0  0  0
  145.0216  135.9223  149.9707 O   0  0  0  0  0  0  0  0  0  0  0  0
  145.1190  134.1022  151.5077 C   0  0  2  0  0  0  0  0  0  0  0  0
  145.8837  133.1161  150.6157 C   0  0  0  0  0  0  0  0  0  0  0  0
  144.9502  131.9236  150.4746 C   0  0  0  0  0  0  0  0  0  0  0  0
  143.6296  132.4197  151.0595 C   0  0  0  0  0  0  0  0  0  0  0  0
  143.7808  133.8292  151.1157 O   0  0  0  0  0  0  0  0  0  0  0  0
  150.4749  139.1923  156.2377 C   0  0  0  0  0  0  0  0  0  0  0  0
  151.5959  140.0588  155.6342 C   0  0  0  0  0  0  0  0  0  0  0  0
  151.9841  138.8580  154.7674 C   0  0  0  0  0  0  0  0  0  0  0  0
  150.5521  138.3502  154.9488 C   0  0  0  0  0  0  0  0  0  0  0  0
  153.2058  137.9649  159.6445 H   0  0  0  0  0  0  0  0  0  0  0  0
  151.7903  136.9426  159.3951 H   0  0  0  0  0  0  0  0  0  0  0  0
  151.6090  138.5596  160.0981 H   0  0  0  0  0  0  0  0  0  0  0  0
  150.1647  137.5768  157.6878 H   0  0  0  0  0  0  0  0  0  0  0  0
  149.1620  139.3944  159.0042 H   0  0  0  0  0  0  0  0  0  0  0  0
  150.4443  140.5464  158.4960 H   0  0  0  0  0  0  0  0  0  0  0  0
  149.1189  140.9350  156.5338 H   0  0  0  0  0  0  0  0  0  0  0  0
  145.9169  139.0550  157.2820 H   0  0  0  0  0  0  0  0  0  0  0  0
  146.7290  140.5993  157.5545 H   0  0  0  0  0  0  0  0  0  0  0  0
  147.0769  139.2103  158.5883 H   0  0  0  0  0  0  0  0  0  0  0  0
  147.6879  140.7099  152.6194 H   0  0  0  0  0  0  0  0  0  0  0  0
  144.8215  135.3502  154.7531 H   0  0  0  0  0  0  0  0  0  0  0  0
  143.6825  136.1621  152.4778 H   0  0  0  0  0  0  0  0  0  0  0  0
  144.4409  137.5093  151.6641 H   0  0  0  0  0  0  0  0  0  0  0  0
  146.4944  135.7848  151.3708 H   0  0  0  0  0  0  0  0  0  0  0  0
  145.4855  135.3576  149.3714 H   0  0  0  0  0  0  0  0  0  0  0  0
  145.2542  133.8292  152.5565 H   0  0  0  0  0  0  0  0  0  0  0  0
  146.0593  133.5481  149.6300 H   0  0  0  0  0  0  0  0  0  0  0  0
  146.8468  132.8326  151.0388 H   0  0  0  0  0  0  0  0  0  0  0  0
  144.8389  131.6485  149.4256 H   0  0  0  0  0  0  0  0  0  0  0  0
  145.3165  131.0507  151.0158 H   0  0  0  0  0  0  0  0  0  0  0  0
  142.7676  132.1348  150.4559 H   0  0  0  0  0  0  0  0  0  0  0  0
  143.4845  132.0317  152.0689 H   0  0  0  0  0  0  0  0  0  0  0  0
  151.2095  140.8916  155.0438 H   0  0  0  0  0  0  0  0  0  0  0  0
  152.3656  140.3896  156.3318 H   0  0  0  0  0  0  0  0  0  0  0  0
  152.2580  139.1034  153.7415 H   0  0  0  0  0  0  0  0  0  0  0  0
  152.7253  138.2137  155.2430 H   0  0  0  0  0  0  0  0  0  0  0  0
  150.4630  137.2737  155.0957 H   0  0  0  0  0  0  0  0  0  0  0  0
  149.9074  138.7023  154.1445 H   0  0  0  0  0  0  0  0  0  0  0  0
  1  2  1  0  0  0  0
  1 29  1  0  0  0  0
  1 30  1  0  0  0  0
  1 31  1  0  0  0  0
  2  3  1  0  0  0  0
  3 25  1  0  0  0  0
  3  4  1  0  0  0  0
  3 32  1  0  0  0  0
  4  5  1  0  0  0  0
  4 33  1  0  0  0  0
  4 34  1  0  0  0  0
  5  6  1  0  0  0  0
  5 25  1  0  0  0  0
  5 35  1  0  0  0  0
  6  7  1  0  0  0  0
  6  8  1  0  0  0  0
  7 36  1  0  0  0  0
  7 37  1  0  0  0  0
  7 38  1  0  0  0  0
  8 13  1  0  0  0  0
  8  9  2  0  0  0  0
  9 10  1  0  0  0  0
 10 11  2  0  0  0  0
 10 39  1  0  0  0  0
 11 12  1  0  0  0  0
 12 16  1  0  0  0  0
 12 13  2  0  0  0  0
 13 14  1  0  0  0  0
 14 15  2  0  0  0  0
 15 16  1  0  0  0  0
 15 40  1  0  0  0  0
 16 17  1  0  0  0  0
 17 18  1  0  0  0  0
 17 41  1  0  0  0  0
 17 42  1  0  0  0  0
 18 19  1  0  0  0  0
 18 20  1  0  0  0  0
 18 43  1  0  0  0  0
 19 44  1  0  0  0  0
 20 24  1  0  0  0  0
 20 21  1  0  0  0  0
 20 45  1  0  0  0  0
 21 22  1  0  0  0  0
 21 46  1  0  0  0  0
 21 47  1  0  0  0  0
 22 23  1  0  0  0  0
 22 48  1  0  0  0  0
 22 49  1  0  0  0  0
 23 24  1  0  0  0  0
 23 50  1  0  0  0  0
 23 51  1  0  0  0  0
 25 28  1  0  0  0  0
 25 26  1  0  0  0  0
 26 27  1  0  0  0  0
 26 52  1  0  0  0  0
 26 53  1  0  0  0  0
 27 28  1  0  0  0  0
 27 54  1  0  0  0  0
 27 55  1  0  0  0  0
 28 56  1  0  0  0  0
 28 57  1  0  0  0  0
M  END
> <s_m_source_file>
AV-unprocessed.smi

> <i_m_source_file_index>
276

> <i_lp_mmshare_version>
43012

> <i_f3d_flags>
0

> <s_epik_input>
W0NIMl0xW0NIMl1bQ0gyXUMxMltDQEhdKE9bQ0gzXSlbQ0gyXVtDQEhdMk4oW0NIM10pYyhuW2NIXW4zKWMoYzM0KW5bY0hdbjRbQ0gyXVtDQEhdKFtPSF0pW0NAQEhdNVtDSDJdW0NIMl1bQ0gyXU81

> <s_epik_cmdline>
J2VwaWtfcHl0aG9uJywgJy1waCcsICc3LjAnLCAnLXRuJywgJzgnLCAnLW1hJywgJzIwMCcsICctbWV0YWxfYmluZGluZycsICctaW1hZScsICc8aW5maWxlLm1hZT4nLCAnLW9tYWUnLCAnPG91dGZpbGUubWFlPic=

> <r_lp_tautomer_probability>
1

> <r_epik_Ionization_Penalty>
0.00204117

> <r_epik_Ionization_Penalty_Charging>
0

> <r_epik_Ionization_Penalty_Neutral>
0.00204117

> <r_epik_State_Penalty>
0.00127401

> <r_epik_Charging_Adjusted_Penalty>
0.00127401

> <i_epik_Tot_Q>
0

> <i_epik_Tot_abs_Q>
0

> <r_epik_Metal_State_Penalty>
-0

> <b_epik_Metal_Only>
0

> <s_lp_Force_Field>
OPLS_2005

> <r_lp_Energy>
57.8978

> <b_lp_Chiralities_Consistent>
1

> <s_lp_Variant>
AV-unprocessed.smi:276-4

> <Gold.Version>
5.8.1

> <Gold.Id.Protein>
6NUR|6NUR_protein|mol2

> <Gold.PLP.Fitness>
38.4516

> <Gold.PLP.PLP>
-35.8669

> <Gold.PLP.part.hbond>
-2.0000

> <Gold.PLP.part.metal>
0.0000

> <Gold.PLP.part.buried>
-5.8375

> <Gold.PLP.part.nonpolar>
-28.8701

> <Gold.PLP.part.repulsive>
0.5732

> <Gold.PLP.ligand.clash>
0.0000

> <Gold.PLP.ligand.torsion>
1.5679

> <Gold.PLP.Chemscore.Hbond>
1.0000

> <Gold.PLP.Chemscore.CHOScore>
0.6287

> <Gold.PLP.Chemscore.Metal>
0.0000

> <Gold.Chemscore.Hbonds>
donor molecule, donor type, donor heavy atom, donor atom, acceptor molecule, acceptor atom, score
      L1  H    19    44       P1  7921  1.00
      L1  C    10    39       P1  7957  0.66

> <Gold.PLP.Chemscore.Internal.Correction>
0.8344

> <Gold.Rescore>
     Score         DG    S(hbond)    S(metal)    S(lipo)     H(rot)  DE(clash)    DE(int)     intcor
     10.02     -11.78       0.99        0.00      85.11       2.72       0.18       1.58       ----

> <Gold.Chemscore.Fitness>
10.0215

> <Gold.Chemscore.DG>
-11.7838

> <Gold.Chemscore.ZeroCoef>
-5.4800

> <Gold.Chemscore.Hbond>
0.9885

> <Gold.Chemscore.Metal>
0.0000

> <Gold.Chemscore.Lipo>
85.1131

> <Gold.Chemscore.Internal_Hbond>
0.0000

> <Gold.Chemscore.DEClash>
0.1811

> <Gold.Chemscore.DEInternal>
1.5812

> <Gold.Chemscore.Rot>
2.7172

> <Gold.Chemscore.Internal.Correction>
   9.000000E+99

> <Gold.Chemscore.Hbonds>
donor molecule, donor type, donor heavy atom, donor atom, acceptor molecule, acceptor atom, score
      L1  H    19    44       P1  7921  0.97

> <Gold.Chemscore.Hbond.Weighted>
-3.3016

> <Gold.Chemscore.Metal.Weighted>
-0.0000

> <Gold.Chemscore.Lipo.Weighted>
-9.9582

> <Gold.Chemscore.Internal_Hbond.Weighted>
0.0000

> <Gold.Chemscore.DEClash.Weighted>
0.1811

> <Gold.Chemscore.DEInternal.Weighted>
1.5812

> <Gold.Chemscore.Rot.Weighted>
6.9560

> <Gold.Chemscore.Internal.Correction.Weighted>
   9.000000E+99

> <Gold.Protein.RotatedTorsions>
[ 6907 6896 6895 6894 ] final  178.69 input  -60.11 | X-H torsion
[ 7974 7965 7964 7962 ] final -113.45 input  175.53 | X-H torsion
[ 8008 7997 7996 7995 ] final   -4.45 input   59.86 | X-H torsion
[ 10167 10162 10161 10158 ] final   40.61 input  -65.29 | X-H torsion
[ 10718 10713 10712 10709 ] final  142.22 input   66.30 | X-H torsion
[ 10763 10752 10751 10750 ] final  111.01 input  -60.55 | X-H torsion
[ 11005 11000 10999 10996 ] final  126.06 input  -57.11 | X-H torsion

> <Gold.Protein.ActiveResidues>
 VAL166  LYS551  ARG553  GLY616  TRP617  ASP618  TYR619  PRO620  LYS621  CYS622 
 ASP623  PHE694  ASN695  SER759  ASP760  ASP761  ALA762  ILE779  LEU786  VAL792 
 PHE793  MET794  SER795  GLU796  ALA797  LYS798  CYS799  TRP800  GLU811  SER814 

> <Gold.Protein.RotatedAtoms>
  151.6837  133.3311  159.3225 H   0  0  0  0  0  0  0  0  0  0  0  0  # atno 6907 bound_to 6896
  150.7811  134.6758  159.6426 H   0  0  0  0  0  0  0  0  0  0  0  0  # atno 6908 bound_to 6896
  152.3868  134.6508  160.0174 H   0  0  0  0  0  0  0  0  0  0  0  0  # atno 6909 bound_to 6896
  145.1319  140.8729  143.3753 H   0  0  0  0  0  0  0  0  0  0  0  0  # atno 7974 bound_to 7965
  154.6141  140.2483  155.7631 H   0  0  0  0  0  0  0  0  0  0  0  0  # atno 8008 bound_to 7997
  156.2388  140.2940  156.0337 H   0  0  0  0  0  0  0  0  0  0  0  0  # atno 8009 bound_to 7997
  155.2003  140.0394  157.2906 H   0  0  0  0  0  0  0  0  0  0  0  0  # atno 8010 bound_to 7997
  140.3725  144.2087  150.6132 H   0  0  0  0  0  0  0  0  0  0  0  0  # atno 10167 bound_to 10162
  157.3831  131.0995  151.0720 H   0  0  0  0  0  0  0  0  0  0  0  0  # atno 10718 bound_to 10713
  153.4572  135.3730  155.2318 H   0  0  0  0  0  0  0  0  0  0  0  0  # atno 10763 bound_to 10752
  154.8757  135.3900  154.3967 H   0  0  0  0  0  0  0  0  0  0  0  0  # atno 10764 bound_to 10752
  153.4536  135.7086  153.6158 H   0  0  0  0  0  0  0  0  0  0  0  0  # atno 10765 bound_to 10752
  139.9437  134.9632  156.8651 H   0  0  0  0  0  0  0  0  0  0  0  0  # atno 11005 bound_to 11000
  145.0626  139.3093  143.5872 LP  0  0  0  0  0  0  0  0  0  0  0  0  # atno 17320 bound_to 7965
  146.3513  140.0073  142.8670 LP  0  0  0  0  0  0  0  0  0  0  0  0  # atno 17321 bound_to 7965
  140.5019  143.2315  151.8665 LP  0  0  0  0  0  0  0  0  0  0  0  0  # atno 17342 bound_to 10162
  139.4802  144.5049  151.9011 LP  0  0  0  0  0  0  0  0  0  0  0  0  # atno 17343 bound_to 10162
  157.1781  130.6297  149.5662 LP  0  0  0  0  0  0  0  0  0  0  0  0  # atno 17370 bound_to 10713
  155.9780  130.4762  150.6630 LP  0  0  0  0  0  0  0  0  0  0  0  0  # atno 17371 bound_to 10713
  140.5887  134.0282  155.7491 LP  0  0  0  0  0  0  0  0  0  0  0  0  # atno 17394 bound_to 11000
  141.1080  133.9662  157.2961 LP  0  0  0  0  0  0  0  0  0  0  0  0  # atno 17395 bound_to 11000

$$$$
