AV-unprocessed.smi:1007|AV-procd|sdf|4399|dock1
  -GOLD-   22720 2333D 1   1.00000     0.00000
 Structure written by MMmdl.
 56 58  0  0  0  0  0  0  0  0  2 V2000
  146.4293  133.4623  154.1365 C   0  0  0  0  0  0  0  0  0  0  0  0
  146.5098  134.2496  155.3120 O   0  0  0  0  0  0  0  0  0  0  0  0
  145.7093  135.4169  155.2399 C   0  0  0  0  0  0  0  0  0  0  0  0
  146.1704  136.2514  154.0356 C   0  0  0  0  0  0  0  0  0  0  0  0
  145.1865  137.2193  153.5396 N   0  0  0  0  0  0  0  0  0  0  0  0
  144.8587  138.2484  154.5256 C   0  0  0  0  0  0  0  0  0  0  0  0
  146.0003  139.2601  154.7523 C   0  0  0  0  0  0  0  0  0  0  0  0
  146.3860  139.9064  153.4712 N   0  3  0  0  0  0  0  0  0  0  0  0
  147.4398  140.9354  153.6592 C   0  0  0  0  0  0  0  0  0  0  0  0
  148.6602  140.4176  154.4526 C   0  0  1  0  0  0  0  0  0  0  0  0
  149.6007  139.8866  153.5390 O   0  0  0  0  0  0  0  0  0  0  0  0
  149.3428  141.5098  155.3061 C   0  0  0  0  0  0  0  0  0  0  0  0
  150.0784  140.9861  156.4463 N   0  0  0  0  0  0  0  0  0  0  0  0
  150.1115  139.7089  156.8745 C   0  0  0  0  0  0  0  0  0  0  0  0
  150.8627  139.4420  157.9385 N   0  0  0  0  0  0  0  0  0  0  0  0
  151.3716  140.6928  158.2420 C   0  0  0  0  0  0  0  0  0  0  0  0
  152.2506  141.1008  159.2689 C   0  0  0  0  0  0  0  0  0  0  0  0
  152.6463  142.4518  159.3904 C   0  0  0  0  0  0  0  0  0  0  0  0
  153.5950  142.8459  160.5089 C   0  0  0  0  0  0  0  0  0  0  0  0
  152.1598  143.4195  158.4754 C   0  0  0  0  0  0  0  0  0  0  0  0
  152.5722  144.8765  158.5847 C   0  0  0  0  0  0  0  0  0  0  0  0
  151.2787  143.0298  157.4454 C   0  0  0  0  0  0  0  0  0  0  0  0
  150.8955  141.6815  157.3320 C   0  0  0  0  0  0  0  0  0  0  0  0
  146.7239  138.8813  152.4473 C   0  0  0  0  0  0  0  0  0  0  0  0
  145.5612  137.8804  152.2871 C   0  0  0  0  0  0  0  0  0  0  0  0
  147.0630  132.5816  154.2411 H   0  0  0  0  0  0  0  0  0  0  0  0
  146.7701  134.0201  153.2632 H   0  0  0  0  0  0  0  0  0  0  0  0
  145.4081  133.1228  153.9585 H   0  0  0  0  0  0  0  0  0  0  0  0
  144.6620  135.1310  155.1389 H   0  0  0  0  0  0  0  0  0  0  0  0
  145.8108  135.9964  156.1590 H   0  0  0  0  0  0  0  0  0  0  0  0
  147.0664  136.7938  154.3404 H   0  0  0  0  0  0  0  0  0  0  0  0
  146.4892  135.5816  153.2376 H   0  0  0  0  0  0  0  0  0  0  0  0
  143.9705  138.7880  154.1938 H   0  0  0  0  0  0  0  0  0  0  0  0
  144.5841  137.7812  155.4721 H   0  0  0  0  0  0  0  0  0  0  0  0
  145.6673  140.0213  155.4588 H   0  0  0  0  0  0  0  0  0  0  0  0
  146.8687  138.7758  155.2007 H   0  0  0  0  0  0  0  0  0  0  0  0
  147.7764  141.2776  152.6795 H   0  0  0  0  0  0  0  0  0  0  0  0
  147.0041  141.8046  154.1539 H   0  0  0  0  0  0  0  0  0  0  0  0
  148.3624  139.6148  155.1256 H   0  0  0  0  0  0  0  0  0  0  0  0
  149.2475  139.9596  152.6648 H   0  0  0  0  0  0  0  0  0  0  0  0
  150.0345  142.0833  154.6878 H   0  0  0  0  0  0  0  0  0  0  0  0
  148.6013  142.2216  155.6717 H   0  0  0  0  0  0  0  0  0  0  0  0
  149.5584  138.9294  156.3712 H   0  0  0  0  0  0  0  0  0  0  0  0
  152.6207  140.3633  159.9661 H   0  0  0  0  0  0  0  0  0  0  0  0
  153.1495  143.6186  161.1356 H   0  0  0  0  0  0  0  0  0  0  0  0
  154.5301  143.2279  160.0990 H   0  0  0  0  0  0  0  0  0  0  0  0
  153.8321  141.9948  161.1476 H   0  0  0  0  0  0  0  0  0  0  0  0
  152.1426  145.4734  157.7796 H   0  0  0  0  0  0  0  0  0  0  0  0
  153.6567  144.9727  158.5286 H   0  0  0  0  0  0  0  0  0  0  0  0
  152.2347  145.2984  159.5316 H   0  0  0  0  0  0  0  0  0  0  0  0
  150.9004  143.7585  156.7443 H   0  0  0  0  0  0  0  0  0  0  0  0
  146.9085  139.3565  151.4850 H   0  0  0  0  0  0  0  0  0  0  0  0
  147.6452  138.3663  152.7214 H   0  0  0  0  0  0  0  0  0  0  0  0
  145.8059  137.1434  151.5233 H   0  0  0  0  0  0  0  0  0  0  0  0
  144.6931  138.4159  151.9002 H   0  0  0  0  0  0  0  0  0  0  0  0
  145.5641  140.3943  153.1436 H   0  0  0  0  0  0  0  0  0  0  0  0
  1  2  1  0  0  0  0
  1 26  1  0  0  0  0
  1 27  1  0  0  0  0
  1 28  1  0  0  0  0
  2  3  1  0  0  0  0
  3  4  1  0  0  0  0
  3 29  1  0  0  0  0
  3 30  1  0  0  0  0
  4  5  1  0  0  0  0
  4 31  1  0  0  0  0
  4 32  1  0  0  0  0
  5 25  1  0  0  0  0
  5  6  1  0  0  0  0
  6  7  1  0  0  0  0
  6 33  1  0  0  0  0
  6 34  1  0  0  0  0
  7  8  1  0  0  0  0
  7 35  1  0  0  0  0
  7 36  1  0  0  0  0
  8  9  1  0  0  0  0
  8 24  1  0  0  0  0
  8 56  1  0  0  0  0
  9 10  1  0  0  0  0
  9 37  1  0  0  0  0
  9 38  1  0  0  0  0
 10 11  1  0  0  0  0
 10 12  1  0  0  0  0
 10 39  1  0  0  0  0
 11 40  1  0  0  0  0
 12 13  1  0  0  0  0
 12 41  1  0  0  0  0
 12 42  1  0  0  0  0
 13 23  1  0  0  0  0
 13 14  1  0  0  0  0
 14 15  2  0  0  0  0
 14 43  1  0  0  0  0
 15 16  1  0  0  0  0
 16 23  2  0  0  0  0
 16 17  1  0  0  0  0
 17 18  2  0  0  0  0
 17 44  1  0  0  0  0
 18 19  1  0  0  0  0
 18 20  1  0  0  0  0
 19 45  1  0  0  0  0
 19 46  1  0  0  0  0
 19 47  1  0  0  0  0
 20 21  1  0  0  0  0
 20 22  2  0  0  0  0
 21 48  1  0  0  0  0
 21 49  1  0  0  0  0
 21 50  1  0  0  0  0
 22 23  1  0  0  0  0
 22 51  1  0  0  0  0
 24 25  1  0  0  0  0
 24 52  1  0  0  0  0
 24 53  1  0  0  0  0
 25 54  1  0  0  0  0
 25 55  1  0  0  0  0
M  CHG  1   8   1
M  END
> <s_m_source_file>
AV-unprocessed.smi

> <i_m_source_file_index>
1007

> <i_lp_mmshare_version>
43012

> <i_f3d_flags>
0

> <s_epik_input>
W0NIM11PW0NIMl1bQ0gyXU4xW0NIMl1bQ0gyXU4oW0NIMl1bQ0gyXTEpW0NIMl1bQ0BIXShbT0hdKVtDSDJdbihbY0hdbjIpYyhjMjMpW2NIXWMoW0NIM10pYyhbY0hdMylbQ0gzXQ==

> <s_epik_cmdline>
J2VwaWtfcHl0aG9uJywgJy1waCcsICc3LjAnLCAnLXRuJywgJzgnLCAnLW1hJywgJzIwMCcsICctbWV0YWxfYmluZGluZycsICctaW1hZScsICc8aW5maWxlLm1hZT4nLCAnLW9tYWUnLCAnPG91dGZpbGUubWFlPic=

> <r_epik_Ionization_Penalty>
0.102698

> <r_epik_Ionization_Penalty_Charging>
0.00226046

> <r_epik_Ionization_Penalty_Neutral>
0.100438

> <r_epik_State_Penalty>
0.191223

> <r_epik_Charging_Adjusted_Penalty>
0.193484

> <i_epik_Tot_Q>
1

> <i_epik_Tot_abs_Q>
1

> <r_epik_Metal_State_Penalty>
0.102154

> <b_epik_Metal_Only>
0

> <s_lp_Force_Field>
OPLS_2005

> <r_lp_Energy>
31.116

> <b_lp_Chiralities_Consistent>
1

> <s_lp_Variant>
AV-unprocessed.smi:1007-2

> <Gold.Version>
5.8.1

> <Gold.Id.Protein>
6NUR|6NUR_protein|mol2

> <Gold.PLP.Fitness>
51.5388

> <Gold.PLP.PLP>
-42.6251

> <Gold.PLP.part.hbond>
-2.5458

> <Gold.PLP.part.metal>
0.0000

> <Gold.PLP.part.buried>
-3.4757

> <Gold.PLP.part.nonpolar>
-38.6090

> <Gold.PLP.part.repulsive>
0.2027

> <Gold.PLP.ligand.clash>
0.0000

> <Gold.PLP.ligand.torsion>
0.8892

> <Gold.PLP.Chemscore.Hbond>
3.4862

> <Gold.PLP.Chemscore.CHOScore>
0.0000

> <Gold.PLP.Chemscore.Metal>
0.0000

> <Gold.Chemscore.Hbonds>
donor molecule, donor type, donor heavy atom, donor atom, acceptor molecule, acceptor atom, score
      L1  H     8    56       P1 10175  2.00
      L1  H    11    40       P1  7957  0.90
      P1  H  7989  7998       L1    11  0.32

> <Gold.PLP.Chemscore.Internal.Correction>
0.2336

> <Gold.Rescore>
     Score         DG    S(hbond)    S(metal)    S(lipo)     H(rot)  DE(clash)    DE(int)     intcor
     18.64     -19.66       1.92        0.00     122.31       2.56       0.18       0.84       ----

> <Gold.Chemscore.Fitness>
18.6386

> <Gold.Chemscore.DG>
-19.6609

> <Gold.Chemscore.ZeroCoef>
-5.4800

> <Gold.Chemscore.Hbond>
1.9231

> <Gold.Chemscore.Metal>
0.0000

> <Gold.Chemscore.Lipo>
122.3069

> <Gold.Chemscore.Internal_Hbond>
0.0000

> <Gold.Chemscore.DEClash>
0.1848

> <Gold.Chemscore.DEInternal>
0.8375

> <Gold.Chemscore.Rot>
2.5594

> <Gold.Chemscore.Internal.Correction>
   9.000000E+99

> <Gold.Chemscore.Hbonds>
donor molecule, donor type, donor heavy atom, donor atom, acceptor molecule, acceptor atom, score
      L1  H     8    56       P1 10175  0.90
      L1  H    11    40       P1  7957  0.84
      P1  H  7989  7998       L1    11  0.16

> <Gold.Chemscore.Hbond.Weighted>
-6.4232

> <Gold.Chemscore.Metal.Weighted>
-0.0000

> <Gold.Chemscore.Lipo.Weighted>
-14.3099

> <Gold.Chemscore.Internal_Hbond.Weighted>
0.0000

> <Gold.Chemscore.DEClash.Weighted>
0.1848

> <Gold.Chemscore.DEInternal.Weighted>
0.8375

> <Gold.Chemscore.Rot.Weighted>
6.5522

> <Gold.Chemscore.Internal.Correction.Weighted>
   9.000000E+99

> <Gold.Protein.RotatedTorsions>
[ 6907 6896 6895 6894 ] final  176.52 input  -60.11 | X-H torsion
[ 7974 7965 7964 7962 ] final  -95.98 input  175.53 | X-H torsion
[ 8008 7997 7996 7995 ] final   47.63 input   59.86 | X-H torsion
[ 10167 10162 10161 10158 ] final   14.11 input  -65.29 | X-H torsion
[ 10718 10713 10712 10709 ] final  -18.81 input   66.30 | X-H torsion
[ 10763 10752 10751 10750 ] final  164.08 input  -60.55 | X-H torsion
[ 11005 11000 10999 10996 ] final   17.30 input  -57.11 | X-H torsion

> <Gold.Protein.ActiveResidues>
 VAL166  LYS551  ARG553  GLY616  TRP617  ASP618  TYR619  PRO620  LYS621  CYS622 
 ASP623  PHE694  ASN695  SER759  ASP760  ASP761  ALA762  ILE779  LEU786  VAL792 
 PHE793  MET794  SER795  GLU796  ALA797  LYS798  CYS799  TRP800  GLU811  SER814 

> <Gold.Protein.RotatedAtoms>
  151.7188  133.3314  159.3309 H   0  0  0  0  0  0  0  0  0  0  0  0  # atno 6907 bound_to 6896
  150.7662  134.6466  159.6275 H   0  0  0  0  0  0  0  0  0  0  0  0  # atno 6908 bound_to 6896
  152.3665  134.6799  160.0242 H   0  0  0  0  0  0  0  0  0  0  0  0  # atno 6909 bound_to 6896
  145.3529  140.9479  143.2544 H   0  0  0  0  0  0  0  0  0  0  0  0  # atno 7974 bound_to 7965
  155.3722  140.3424  155.4243 H   0  0  0  0  0  0  0  0  0  0  0  0  # atno 8008 bound_to 7997
  156.1656  140.1615  156.8571 H   0  0  0  0  0  0  0  0  0  0  0  0  # atno 8009 bound_to 7997
  154.5182  140.0773  156.8104 H   0  0  0  0  0  0  0  0  0  0  0  0  # atno 8010 bound_to 7997
  140.5957  143.8706  150.6916 H   0  0  0  0  0  0  0  0  0  0  0  0  # atno 10167 bound_to 10162
  156.5544  130.4710  149.6436 H   0  0  0  0  0  0  0  0  0  0  0  0  # atno 10718 bound_to 10713
  154.3035  135.2758  155.2600 H   0  0  0  0  0  0  0  0  0  0  0  0  # atno 10763 bound_to 10752
  154.5027  135.5804  153.6546 H   0  0  0  0  0  0  0  0  0  0  0  0  # atno 10764 bound_to 10752
  152.9897  135.6161  154.3207 H   0  0  0  0  0  0  0  0  0  0  0  0  # atno 10765 bound_to 10752
  140.4375  134.1356  155.7687 H   0  0  0  0  0  0  0  0  0  0  0  0  # atno 11005 bound_to 11000
  144.8704  139.5046  143.6770 LP  0  0  0  0  0  0  0  0  0  0  0  0  # atno 17320 bound_to 7965
  146.2960  139.7281  142.9126 LP  0  0  0  0  0  0  0  0  0  0  0  0  # atno 17321 bound_to 7965
  140.2240  143.3787  152.1620 LP  0  0  0  0  0  0  0  0  0  0  0  0  # atno 17342 bound_to 10162
  139.5257  144.7099  151.5240 LP  0  0  0  0  0  0  0  0  0  0  0  0  # atno 17343 bound_to 10162
  156.2855  130.7095  151.1930 LP  0  0  0  0  0  0  0  0  0  0  0  0  # atno 17370 bound_to 10713
  157.7381  131.0544  150.5315 LP  0  0  0  0  0  0  0  0  0  0  0  0  # atno 17371 bound_to 10713
  141.1720  133.8590  157.1542 LP  0  0  0  0  0  0  0  0  0  0  0  0  # atno 17394 bound_to 11000
  140.0092  134.9995  157.0359 LP  0  0  0  0  0  0  0  0  0  0  0  0  # atno 17395 bound_to 11000

$$$$
