#       Name:                AV-unprocessed.smi:1308
#       Creating user name   scv26
#       Creation time:       Fri Mar 27 05:01:11 2020


#       File generated by GOLD software.
#

@<TRIPOS>MOLECULE
AV-unprocessed.smi:1308
    50    50     1
SMALL
NO_CHARGES


@<TRIPOS>ATOM
      1 ****        -3.1418  -2.5469   2.6389 C.3            1 S1                 0.0000
      2 ****        -2.8911  -1.6702   1.4308 C.2            1 S1                 0.0000
      3 ****        -2.6282  -0.4311   1.6011 N.2            1 S1                 0.0000
      4 ****        -2.3880   0.3849   0.4830 C.2            1 S1                 0.0000
      5 ****        -2.0524   1.8352   0.7840 C.3            1 S1                 0.0000
      6 ****        -2.4364  -0.1202  -0.7835 C.2            1 S1                 0.0000
      7 ****        -2.1481   0.7183  -2.0303 C.3            1 S1                 0.0000
      8 ****        -0.6657   0.9859  -2.2907 C.2            1 S1                 0.0000
      9 ****        -0.2656   2.1410  -2.4320 O.2            1 S1                 0.0000
     10 ****         0.1351  -0.0938  -2.3044 N.am           1 S1                 0.0000
     11 ****         1.5985  -0.1151  -2.2754 C.3            1 S1                 0.0000
     12 ****         2.2106   0.5116  -3.5407 C.3            1 S1                 0.0000
     13 ****         2.1598   0.5013  -0.9734 C.3            1 S1                 0.0000
     14 ****         1.6325  -0.1711   0.3123 C.3            1 S1                 0.0000
     15 ****         2.0626   0.5341   1.6136 C.3            1 S1                 0.0000
     16 ****         3.5741   0.4196   1.8719 C.3            1 S1                 0.0000
     17 ****         1.2675  -0.0072   2.8118 C.3            1 S1                 0.0000
     18 ****        -2.7448  -1.5535  -0.9360 C.2            1 S1                 0.0000
     19 ****        -2.7860  -2.0643  -2.0546 O.2            1 S1                 0.0000
     20 ****        -2.9648  -2.2778   0.1976 N.pl3          1 S1                -1.0000
     21 ****        -2.9501  -2.0043   3.5656 H              1 S1                 0.0000
     22 ****        -2.4899  -3.4208   2.6152 H              1 S1                 0.0000
     23 ****        -4.1775  -2.8874   2.6482 H              1 S1                 0.0000
     24 ****        -2.7510   2.5054   0.2831 H              1 S1                 0.0000
     25 ****        -1.0416   2.0704   0.4501 H              1 S1                 0.0000
     26 ****        -2.1038   2.0381   1.8543 H              1 S1                 0.0000
     27 ****        -2.5820   0.2661  -2.9223 H              1 S1                 0.0000
     28 ****        -2.6609   1.6750  -1.9285 H              1 S1                 0.0000
     29 ****        -0.3172  -0.9910  -2.1984 H              1 S1                 0.0000
     30 ****         1.8717  -1.1708  -2.2792 H              1 S1                 0.0000
     31 ****         3.2890   0.3547  -3.5676 H              1 S1                 0.0000
     32 ****         2.0376   1.5865  -3.5885 H              1 S1                 0.0000
     33 ****         1.7917   0.0644  -4.4427 H              1 S1                 0.0000
     34 ****         3.2471   0.4293  -0.9969 H              1 S1                 0.0000
     35 ****         1.9323   1.5673  -0.9440 H              1 S1                 0.0000
     36 ****         0.5432  -0.1860   0.2861 H              1 S1                 0.0000
     37 ****         1.9422  -1.2166   0.3351 H              1 S1                 0.0000
     38 ****         1.8170   1.5928   1.5198 H              1 S1                 0.0000
     39 ****         3.8874  -0.6230   1.9353 H              1 S1                 0.0000
     40 ****         3.8489   0.9057   2.8083 H              1 S1                 0.0000
     41 ****         4.1543   0.8956   1.0818 H              1 S1                 0.0000
     42 ****         1.4574  -1.0695   2.9672 H              1 S1                 0.0000
     43 ****         0.1945   0.1200   2.6630 H              1 S1                 0.0000
     44 ****         1.5332   0.5173   3.7299 H              1 S1                 0.0000
     45 ****        -2.5938  -0.0454   2.5231 LP             1 S1                 0.0000
     46 ****        -0.9100   2.9037  -2.3764 LP             1 S1                 0.0000
     47 ****         0.7039   2.3170  -2.6023 LP             1 S1                 0.0000
     48 ****        -2.6098  -1.5066  -2.8657 LP             1 S1                 0.0000
     49 ****        -2.9957  -3.0371  -2.1526 LP             1 S1                 0.0000
     50 ****        -3.1801  -3.2522   0.1334 LP             1 S1                 0.0000
@<TRIPOS>BOND
    1    1    2 1     
    2    1   21 1     
    3    1   22 1     
    4    1   23 1     
    5    2   20 1     
    6    2    3 2     
    7    3    4 1     
    8    4    5 1     
    9    4    6 2     
   10    5   24 1     
   11    5   25 1     
   12    5   26 1     
   13    6    7 1     
   14    6   18 1     
   15    7    8 1     
   16    7   27 1     
   17    7   28 1     
   18    8    9 2     
   19    8   10 am    
   20   10   11 1     
   21   10   29 1     
   22   11   12 1     
   23   11   13 1     
   24   11   30 1     
   25   12   31 1     
   26   12   32 1     
   27   12   33 1     
   28   13   14 1     
   29   13   34 1     
   30   13   35 1     
   31   14   15 1     
   32   14   36 1     
   33   14   37 1     
   34   15   16 1     
   35   15   17 1     
   36   15   38 1     
   37   16   39 1     
   38   16   40 1     
   39   16   41 1     
   40   17   42 1     
   41   17   43 1     
   42   17   44 1     
   43   18   19 2     
   44   18   20 1     
   45    3   45 1     
   46    9   46 1     
   47    9   47 1     
   48   19   48 1     
   49   19   49 1     
   50   20   50 1     
@<TRIPOS>SUBSTRUCTURE
      1 S1             1
@<TRIPOS>SET
LONE_PAIRS      STATIC     ATOMS    <user>   **** ""
6 45 46 47 48 49 50
DONOR_HYDROGENS      STATIC     ATOMS    <user>   **** ""
1 29
ATOM$BLUE        STATIC     ATOMS    COLORGROUP SYSTEM
6 45 46 47 48 49 50
ATOM$RED        STATIC     ATOMS    COLORGROUP SYSTEM
1 29
