AV-unprocessed.smi:3228|AV-procd|sdf|12321|dock6
  -GOLD-   2272018173D 1   1.00000     0.00000
 Structure written by MMmdl.
 31 32  0  0  0  0  0  0  0  0  1 V2000
  145.3622  138.4529  152.8819 O   0  0  0  0  0  0  0  0  0  0  0  0
  146.3813  137.8516  152.5410 C   0  0  0  0  0  0  0  0  0  0  0  0
  146.3639  136.6970  151.8596 N   0  0  0  0  0  0  0  0  0  0  0  0
  145.1566  135.9949  151.4358 C   0  0  0  0  0  0  0  0  0  0  0  0
  145.2398  134.4765  151.7019 C   0  0  2  0  0  0  0  0  0  0  0  0
  146.4504  133.7903  151.0587 C   0  0  0  0  0  0  0  0  0  0  0  0
  146.0788  132.3033  150.9511 C   0  0  0  0  0  0  0  0  0  0  0  0
  144.5784  132.2013  151.2685 C   0  0  0  0  0  0  0  0  0  0  0  0
  144.0406  133.6357  151.2351 C   0  0  2  0  0  0  0  0  0  0  0  0
  143.6682  133.9561  149.9072 O   0  0  0  0  0  0  0  0  0  0  0  0
  147.6404  138.2519  152.7912 N   0  0  0  0  0  0  0  0  0  0  0  0
  148.0696  139.4065  153.4973 C   0  0  0  0  0  0  0  0  0  0  0  0
  149.2614  139.5271  154.0939 N   0  0  0  0  0  0  0  0  0  0  0  0
  149.4167  140.7717  154.7093 C   0  0  0  0  0  0  0  0  0  0  0  0
  148.3251  141.5923  154.5707 C   0  0  0  0  0  0  0  0  0  0  0  0
  147.0511  140.8301  153.6564 S   0  0  0  0  0  0  0  0  0  0  0  0
  147.2472  136.2696  151.6224 H   0  0  0  0  0  0  0  0  0  0  0  0
  144.3078  136.4295  151.9641 H   0  0  0  0  0  0  0  0  0  0  0  0
  144.9769  136.1790  150.3752 H   0  0  0  0  0  0  0  0  0  0  0  0
  145.3318  134.3287  152.7795 H   0  0  0  0  0  0  0  0  0  0  0  0
  146.6217  134.1938  150.0598 H   0  0  0  0  0  0  0  0  0  0  0  0
  147.3629  133.9476  151.6346 H   0  0  0  0  0  0  0  0  0  0  0  0
  146.2908  131.9332  149.9476 H   0  0  0  0  0  0  0  0  0  0  0  0
  146.6586  131.6992  151.6495 H   0  0  0  0  0  0  0  0  0  0  0  0
  144.0488  131.5306  150.5903 H   0  0  0  0  0  0  0  0  0  0  0  0
  144.4570  131.7999  152.2754 H   0  0  0  0  0  0  0  0  0  0  0  0
  143.1739  133.7592  151.8850 H   0  0  0  0  0  0  0  0  0  0  0  0
  142.7370  134.1140  149.8866 H   0  0  0  0  0  0  0  0  0  0  0  0
  148.3786  137.6586  152.4424 H   0  0  0  0  0  0  0  0  0  0  0  0
  150.3395  140.9903  155.2261 H   0  0  0  0  0  0  0  0  0  0  0  0
  148.1939  142.5950  154.9493 H   0  0  0  0  0  0  0  0  0  0  0  0
  1  2  2  0  0  0  0
  2  3  1  0  0  0  0
  2 11  1  0  0  0  0
  3  4  1  0  0  0  0
  3 17  1  0  0  0  0
  4  5  1  0  0  0  0
  4 18  1  0  0  0  0
  4 19  1  0  0  0  0
  5  9  1  0  0  0  0
  5  6  1  0  0  0  0
  5 20  1  0  0  0  0
  6  7  1  0  0  0  0
  6 21  1  0  0  0  0
  6 22  1  0  0  0  0
  7  8  1  0  0  0  0
  7 23  1  0  0  0  0
  7 24  1  0  0  0  0
  8  9  1  0  0  0  0
  8 25  1  0  0  0  0
  8 26  1  0  0  0  0
  9 10  1  0  0  0  0
  9 27  1  0  0  0  0
 10 28  1  0  0  0  0
 11 12  1  0  0  0  0
 11 29  1  0  0  0  0
 12 16  1  0  0  0  0
 12 13  2  0  0  0  0
 13 14  1  0  0  0  0
 14 15  2  0  0  0  0
 14 30  1  0  0  0  0
 15 16  1  0  0  0  0
 15 31  1  0  0  0  0
M  END
> <s_m_source_file>
AV-unprocessed.smi

> <i_m_source_file_index>
3228

> <i_lp_mmshare_version>
43012

> <i_f3d_flags>
0

> <s_epik_input>
czFbY0hdW2NIXW5jMVtOSF1DKD1PKVtOSF1bQ0gyXVtDQEBIXTJbQ0gyXVtDSDJdW0NIMl1bQ0BIXTJbT0hd

> <s_epik_cmdline>
J2VwaWtfcHl0aG9uJywgJy1waCcsICc3LjAnLCAnLXRuJywgJzgnLCAnLW1hJywgJzIwMCcsICctbWV0YWxfYmluZGluZycsICctaW1hZScsICc8aW5maWxlLm1hZT4nLCAnLW9tYWUnLCAnPG91dGZpbGUubWFlPic=

> <r_lp_tautomer_probability>
0.999

> <r_epik_Ionization_Penalty>
0.000399498

> <r_epik_Ionization_Penalty_Charging>
0

> <r_epik_Ionization_Penalty_Neutral>
0.000399498

> <r_epik_State_Penalty>
0.000177984

> <r_epik_Charging_Adjusted_Penalty>
0.000177984

> <i_epik_Tot_Q>
0

> <i_epik_Tot_abs_Q>
0

> <r_epik_Metal_State_Penalty>
0.0060793

> <b_epik_Metal_Only>
0

> <s_lp_Force_Field>
OPLS_2005

> <r_lp_Energy>
23.3722

> <b_lp_Chiralities_Consistent>
1

> <s_lp_Variant>
AV-unprocessed.smi:3228-3

> <Gold.Version>
5.8.1

> <Gold.Id.Protein>
6NUR|6NUR_protein|mol2

> <Gold.PLP.Fitness>
39.2716

> <Gold.PLP.PLP>
-27.7198

> <Gold.PLP.part.hbond>
-4.5761

> <Gold.PLP.part.metal>
0.0000

> <Gold.PLP.part.buried>
-1.9439

> <Gold.PLP.part.nonpolar>
-25.9893

> <Gold.PLP.part.repulsive>
4.4474

> <Gold.PLP.ligand.clash>
0.0000

> <Gold.PLP.ligand.torsion>
0.2246

> <Gold.PLP.Chemscore.Hbond>
3.0000

> <Gold.PLP.Chemscore.CHOScore>
1.0000

> <Gold.PLP.Chemscore.Metal>
0.0000

> <Gold.Chemscore.Hbonds>
donor molecule, donor type, donor heavy atom, donor atom, acceptor molecule, acceptor atom, score
      L1  H     3    17       P1  7948  0.98
      L1  H    10    28       P1 10186  1.00
      L1  H    11    29       P1  7948  1.00
      L1  C    15    31       P1  8028  1.00

> <Gold.PLP.Chemscore.Internal.Correction>
0.0011

> <Gold.Rescore>
     Score         DG    S(hbond)    S(metal)    S(lipo)     H(rot)  DE(clash)    DE(int)     intcor
     14.39     -17.14       2.86        0.00      59.10       1.88       1.48       1.27       ----

> <Gold.Chemscore.Fitness>
14.3860

> <Gold.Chemscore.DG>
-17.1378

> <Gold.Chemscore.ZeroCoef>
-5.4800

> <Gold.Chemscore.Hbond>
2.8599

> <Gold.Chemscore.Metal>
0.0000

> <Gold.Chemscore.Lipo>
59.1023

> <Gold.Chemscore.Internal_Hbond>
0.0000

> <Gold.Chemscore.DEClash>
1.4785

> <Gold.Chemscore.DEInternal>
1.2733

> <Gold.Chemscore.Rot>
1.8786

> <Gold.Chemscore.Internal.Correction>
   9.000000E+99

> <Gold.Chemscore.Hbonds>
donor molecule, donor type, donor heavy atom, donor atom, acceptor molecule, acceptor atom, score
      L1  H     3    17       P1  7948  0.93
      L1  H    10    28       P1 10186  1.00
      L1  H    11    29       P1  7948  0.97

> <Gold.Chemscore.Hbond.Weighted>
-9.5519

> <Gold.Chemscore.Metal.Weighted>
-0.0000

> <Gold.Chemscore.Lipo.Weighted>
-6.9150

> <Gold.Chemscore.Internal_Hbond.Weighted>
0.0000

> <Gold.Chemscore.DEClash.Weighted>
1.4785

> <Gold.Chemscore.DEInternal.Weighted>
1.2733

> <Gold.Chemscore.Rot.Weighted>
4.8091

> <Gold.Chemscore.Internal.Correction.Weighted>
   9.000000E+99

> <Gold.Protein.RotatedTorsions>
[ 6907 6896 6895 6894 ] final  142.89 input  -60.11 | X-H torsion
[ 7974 7965 7964 7962 ] final  173.36 input  175.53 | X-H torsion
[ 8008 7997 7996 7995 ] final  155.85 input   59.86 | X-H torsion
[ 10167 10162 10161 10158 ] final  -25.01 input  -65.29 | X-H torsion
[ 10718 10713 10712 10709 ] final -131.19 input   66.30 | X-H torsion
[ 10763 10752 10751 10750 ] final  112.26 input  -60.55 | X-H torsion
[ 11005 11000 10999 10996 ] final  108.42 input  -57.11 | X-H torsion

> <Gold.Protein.ActiveResidues>
 VAL166  LYS551  ARG553  GLY616  TRP617  ASP618  TYR619  PRO620  LYS621  CYS622 
 ASP623  PHE694  ASN695  SER759  ASP760  ASP761  ALA762  ILE779  LEU786  VAL792 
 PHE793  MET794  SER795  GLU796  ALA797  LYS798  CYS799  TRP800  GLU811  SER814 

> <Gold.Protein.RotatedAtoms>
  152.2131  133.4926  159.5120 H   0  0  0  0  0  0  0  0  0  0  0  0  # atno 6907 bound_to 6896
  150.6995  134.1440  159.4125 H   0  0  0  0  0  0  0  0  0  0  0  0  # atno 6908 bound_to 6896
  151.9360  135.0235  160.0583 H   0  0  0  0  0  0  0  0  0  0  0  0  # atno 6909 bound_to 6896
  144.7246  139.9635  143.6435 H   0  0  0  0  0  0  0  0  0  0  0  0  # atno 7974 bound_to 7965
  156.2455  140.1928  156.6865 H   0  0  0  0  0  0  0  0  0  0  0  0  # atno 8008 bound_to 7997
  154.6283  140.0599  156.9727 H   0  0  0  0  0  0  0  0  0  0  0  0  # atno 8009 bound_to 7997
  155.1751  140.3271  155.4388 H   0  0  0  0  0  0  0  0  0  0  0  0  # atno 8010 bound_to 7997
  140.7287  143.4302  151.0813 H   0  0  0  0  0  0  0  0  0  0  0  0  # atno 10167 bound_to 10162
  156.2219  130.6984  151.0765 H   0  0  0  0  0  0  0  0  0  0  0  0  # atno 10718 bound_to 10713
  153.4753  135.3691  155.2413 H   0  0  0  0  0  0  0  0  0  0  0  0  # atno 10763 bound_to 10752
  154.8756  135.3941  154.3764 H   0  0  0  0  0  0  0  0  0  0  0  0  # atno 10764 bound_to 10752
  153.4359  135.7083  153.6265 H   0  0  0  0  0  0  0  0  0  0  0  0  # atno 10765 bound_to 10752
  139.8844  134.9430  156.5970 H   0  0  0  0  0  0  0  0  0  0  0  0  # atno 11005 bound_to 11000
  146.0618  139.3611  143.0576 LP  0  0  0  0  0  0  0  0  0  0  0  0  # atno 17320 bound_to 7965
  145.8082  140.9738  143.0963 LP  0  0  0  0  0  0  0  0  0  0  0  0  # atno 17321 bound_to 7965
  139.7958  143.8153  152.3157 LP  0  0  0  0  0  0  0  0  0  0  0  0  # atno 17342 bound_to 10162
  139.8153  144.7319  150.9644 LP  0  0  0  0  0  0  0  0  0  0  0  0  # atno 17343 bound_to 10162
  157.7092  131.0742  150.6562 LP  0  0  0  0  0  0  0  0  0  0  0  0  # atno 17370 bound_to 10713
  156.6625  130.4516  149.5683 LP  0  0  0  0  0  0  0  0  0  0  0  0  # atno 17371 bound_to 10713
  140.7913  133.8580  155.8648 LP  0  0  0  0  0  0  0  0  0  0  0  0  # atno 17394 bound_to 11000
  140.9675  134.1575  157.4604 LP  0  0  0  0  0  0  0  0  0  0  0  0  # atno 17395 bound_to 11000

$$$$
