AV-unprocessed.smi:915|AV-procd|sdf|4155|dock2
  -GOLD-   22720 2 63D 1   1.00000     0.00000
 Structure written by MMmdl.
 34 35  0  0  0  0  0  0  0  0  1 V2000
  150.9836  142.1458  156.5678 C   0  0  0  0  0  0  0  0  0  0  0  0
  150.9554  140.7695  155.8944 C   0  0  0  0  0  0  0  0  0  0  0  0
  149.7182  140.5614  155.0746 C   0  0  0  0  0  0  0  0  0  0  0  0
  148.7702  141.5039  154.7577 C   0  0  0  0  0  0  0  0  0  0  0  0
  147.4876  140.8391  153.7817 S   0  0  0  0  0  0  0  0  0  0  0  0
  148.2993  139.2825  153.8445 C   0  0  0  0  0  0  0  0  0  0  0  0
  147.7770  138.1349  153.1925 N   0  0  0  0  0  0  0  0  0  0  0  0
  146.4969  137.7297  153.1251 C   0  0  0  0  0  0  0  0  0  0  0  0
  145.5330  138.3295  153.6024 O   0  0  0  0  0  0  0  0  0  0  0  0
  146.3888  136.5703  152.4610 N   0  0  0  0  0  0  0  0  0  0  0  0
  145.1391  135.8544  152.2251 C   0  0  0  0  0  0  0  0  0  0  0  0
  145.2427  134.8770  151.0388 C   0  0  1  0  0  0  0  0  0  0  0  0
  146.4782  133.9716  151.1210 C   0  0  0  0  0  0  0  0  0  0  0  0
  146.1975  132.7581  150.2341 C   0  0  0  0  0  0  0  0  0  0  0  0
  144.7778  132.2989  150.5679 C   0  0  0  0  0  0  0  0  0  0  0  0
  143.7971  133.7826  150.9114 S   0  0  0  0  0  0  0  0  0  0  0  0
  149.4370  139.2969  154.5481 N   0  0  0  0  0  0  0  0  0  0  0  0
  151.8912  142.2701  157.1585 H   0  0  0  0  0  0  0  0  0  0  0  0
  150.1315  142.2761  157.2357 H   0  0  0  0  0  0  0  0  0  0  0  0
  150.9556  142.9455  155.8272 H   0  0  0  0  0  0  0  0  0  0  0  0
  151.8416  140.6596  155.2685 H   0  0  0  0  0  0  0  0  0  0  0  0
  151.0313  139.9942  156.6578 H   0  0  0  0  0  0  0  0  0  0  0  0
  148.7495  142.5465  155.0385 H   0  0  0  0  0  0  0  0  0  0  0  0
  148.4584  137.5484  152.7341 H   0  0  0  0  0  0  0  0  0  0  0  0
  147.2314  136.1422  152.1062 H   0  0  0  0  0  0  0  0  0  0  0  0
  144.8489  135.3185  153.1305 H   0  0  0  0  0  0  0  0  0  0  0  0
  144.3548  136.5884  152.0383 H   0  0  0  0  0  0  0  0  0  0  0  0
  145.2990  135.4350  150.1031 H   0  0  0  0  0  0  0  0  0  0  0  0
  147.3830  134.4971  150.8144 H   0  0  0  0  0  0  0  0  0  0  0  0
  146.6305  133.6378  152.1484 H   0  0  0  0  0  0  0  0  0  0  0  0
  146.2513  133.0529  149.1852 H   0  0  0  0  0  0  0  0  0  0  0  0
  146.9269  131.9624  150.3866 H   0  0  0  0  0  0  0  0  0  0  0  0
  144.3347  131.7111  149.7638 H   0  0  0  0  0  0  0  0  0  0  0  0
  144.7858  131.6820  151.4670 H   0  0  0  0  0  0  0  0  0  0  0  0
  1  2  1  0  0  0  0
  1 18  1  0  0  0  0
  1 19  1  0  0  0  0
  1 20  1  0  0  0  0
  2  3  1  0  0  0  0
  2 21  1  0  0  0  0
  2 22  1  0  0  0  0
  3 17  1  0  0  0  0
  3  4  2  0  0  0  0
  4  5  1  0  0  0  0
  4 23  1  0  0  0  0
  5  6  1  0  0  0  0
  6  7  1  0  0  0  0
  6 17  2  0  0  0  0
  7  8  1  0  0  0  0
  7 24  1  0  0  0  0
  8  9  2  0  0  0  0
  8 10  1  0  0  0  0
 10 11  1  0  0  0  0
 10 25  1  0  0  0  0
 11 12  1  0  0  0  0
 11 26  1  0  0  0  0
 11 27  1  0  0  0  0
 12 16  1  0  0  0  0
 12 13  1  0  0  0  0
 12 28  1  0  0  0  0
 13 14  1  0  0  0  0
 13 29  1  0  0  0  0
 13 30  1  0  0  0  0
 14 15  1  0  0  0  0
 14 31  1  0  0  0  0
 14 32  1  0  0  0  0
 15 16  1  0  0  0  0
 15 33  1  0  0  0  0
 15 34  1  0  0  0  0
M  END
> <s_m_source_file>
AV-unprocessed.smi

> <i_m_source_file_index>
915

> <i_lp_mmshare_version>
43012

> <i_f3d_flags>
0

> <s_epik_input>
W0NIM11bQ0gyXWMxW2NIXXNjKG4xKVtOSF1DKD1PKVtOSF1bQ0gyXVtDQEBIXTJbQ0gyXVtDSDJdW0NIMl1TMg==

> <s_epik_cmdline>
J2VwaWtfcHl0aG9uJywgJy1waCcsICc3LjAnLCAnLXRuJywgJzgnLCAnLW1hJywgJzIwMCcsICctbWV0YWxfYmluZGluZycsICctaW1hZScsICc8aW5maWxlLm1hZT4nLCAnLW9tYWUnLCAnPG91dGZpbGUubWFlPic=

> <r_lp_tautomer_probability>
0.999

> <r_epik_Ionization_Penalty>
0.000460048

> <r_epik_Ionization_Penalty_Charging>
0

> <r_epik_Ionization_Penalty_Neutral>
0.000460048

> <r_epik_State_Penalty>
0.000177984

> <r_epik_Charging_Adjusted_Penalty>
0.000177984

> <i_epik_Tot_Q>
0

> <i_epik_Tot_abs_Q>
0

> <r_epik_Metal_State_Penalty>
0.00612978

> <b_epik_Metal_Only>
0

> <s_lp_Force_Field>
OPLS_2005

> <r_lp_Energy>
6.6865

> <b_lp_Chiralities_Consistent>
1

> <s_lp_Variant>
AV-unprocessed.smi:915-2

> <Gold.Version>
5.8.1

> <Gold.Id.Protein>
6NUR|6NUR_protein|mol2

> <Gold.PLP.Fitness>
39.7145

> <Gold.PLP.PLP>
-31.9119

> <Gold.PLP.part.hbond>
-2.0916

> <Gold.PLP.part.metal>
0.0000

> <Gold.PLP.part.buried>
-2.9278

> <Gold.PLP.part.nonpolar>
-27.6761

> <Gold.PLP.part.repulsive>
0.8933

> <Gold.PLP.ligand.clash>
0.0000

> <Gold.PLP.ligand.torsion>
0.6028

> <Gold.PLP.Chemscore.Hbond>
1.9920

> <Gold.PLP.Chemscore.CHOScore>
1.0000

> <Gold.PLP.Chemscore.Metal>
0.0000

> <Gold.Chemscore.Hbonds>
donor molecule, donor type, donor heavy atom, donor atom, acceptor molecule, acceptor atom, score
      L1  H     7    24       P1  7948  1.00
      L1  H    10    25       P1  7948  0.99
      L1  C     4    23       P1  8028  1.00

> <Gold.PLP.Chemscore.Internal.Correction>
0.0321

> <Gold.Rescore>
     Score         DG    S(hbond)    S(metal)    S(lipo)     H(rot)  DE(clash)    DE(int)     intcor
     16.76     -17.45       1.90        0.00      77.91       1.36       0.18       0.51       ----

> <Gold.Chemscore.Fitness>
16.7612

> <Gold.Chemscore.DG>
-17.4499

> <Gold.Chemscore.ZeroCoef>
-5.4800

> <Gold.Chemscore.Hbond>
1.8971

> <Gold.Chemscore.Metal>
0.0000

> <Gold.Chemscore.Lipo>
77.9132

> <Gold.Chemscore.Internal_Hbond>
0.0000

> <Gold.Chemscore.DEClash>
0.1804

> <Gold.Chemscore.DEInternal>
0.5082

> <Gold.Chemscore.Rot>
1.3603

> <Gold.Chemscore.Internal.Correction>
   9.000000E+99

> <Gold.Chemscore.Hbonds>
donor molecule, donor type, donor heavy atom, donor atom, acceptor molecule, acceptor atom, score
      L1  H     7    24       P1  7948  0.98
      L1  H    10    25       P1  7948  0.94

> <Gold.Chemscore.Hbond.Weighted>
-6.3365

> <Gold.Chemscore.Metal.Weighted>
-0.0000

> <Gold.Chemscore.Lipo.Weighted>
-9.1158

> <Gold.Chemscore.Internal_Hbond.Weighted>
0.0000

> <Gold.Chemscore.DEClash.Weighted>
0.1804

> <Gold.Chemscore.DEInternal.Weighted>
0.5082

> <Gold.Chemscore.Rot.Weighted>
3.4824

> <Gold.Chemscore.Internal.Correction.Weighted>
   9.000000E+99

> <Gold.Protein.RotatedTorsions>
[ 6907 6896 6895 6894 ] final  113.14 input  -60.11 | X-H torsion
[ 7974 7965 7964 7962 ] final   61.38 input  175.53 | X-H torsion
[ 8008 7997 7996 7995 ] final -105.48 input   59.86 | X-H torsion
[ 10167 10162 10161 10158 ] final   18.00 input  -65.29 | X-H torsion
[ 10718 10713 10712 10709 ] final  151.74 input   66.30 | X-H torsion
[ 10763 10752 10751 10750 ] final  129.65 input  -60.55 | X-H torsion
[ 11005 11000 10999 10996 ] final  -48.78 input  -57.11 | X-H torsion

> <Gold.Protein.ActiveResidues>
 VAL166  LYS551  ARG553  GLY616  TRP617  ASP618  TYR619  PRO620  LYS621  CYS622 
 ASP623  PHE694  ASN695  SER759  ASP760  ASP761  ALA762  ILE779  LEU786  VAL792 
 PHE793  MET794  SER795  GLU796  ALA797  LYS798  CYS799  TRP800  GLU811  SER814 

> <Gold.Protein.RotatedAtoms>
  152.4877  133.8417  159.7155 H   0  0  0  0  0  0  0  0  0  0  0  0  # atno 6907 bound_to 6896
  150.8979  133.7148  159.2893 H   0  0  0  0  0  0  0  0  0  0  0  0  # atno 6908 bound_to 6896
  151.4599  135.1041  159.9774 H   0  0  0  0  0  0  0  0  0  0  0  0  # atno 6909 bound_to 6896
  145.8853  139.3472  143.0681 H   0  0  0  0  0  0  0  0  0  0  0  0  # atno 7974 bound_to 7965
  154.9005  140.0413  157.1890 H   0  0  0  0  0  0  0  0  0  0  0  0  # atno 8008 bound_to 7997
  154.8448  140.2920  155.5615 H   0  0  0  0  0  0  0  0  0  0  0  0  # atno 8009 bound_to 7997
  156.2994  140.2476  156.3397 H   0  0  0  0  0  0  0  0  0  0  0  0  # atno 8010 bound_to 7997
  140.5685  143.9205  150.6695 H   0  0  0  0  0  0  0  0  0  0  0  0  # atno 10167 bound_to 10162
  157.2668  131.0809  151.1627 H   0  0  0  0  0  0  0  0  0  0  0  0  # atno 10718 bound_to 10713
  153.7452  135.3218  155.3311 H   0  0  0  0  0  0  0  0  0  0  0  0  # atno 10763 bound_to 10752
  154.8281  135.4554  154.0986 H   0  0  0  0  0  0  0  0  0  0  0  0  # atno 10764 bound_to 10752
  153.2173  135.6943  153.8124 H   0  0  0  0  0  0  0  0  0  0  0  0  # atno 10765 bound_to 10752
  141.0721  133.6676  156.3490 H   0  0  0  0  0  0  0  0  0  0  0  0  # atno 11005 bound_to 11000
  145.8974  140.9265  143.0521 LP  0  0  0  0  0  0  0  0  0  0  0  0  # atno 17320 bound_to 7965
  144.6728  140.0986  143.7461 LP  0  0  0  0  0  0  0  0  0  0  0  0  # atno 17321 bound_to 7965
  140.2674  143.3480  152.1268 LP  0  0  0  0  0  0  0  0  0  0  0  0  # atno 17342 bound_to 10162
  139.5105  144.6885  151.5822 LP  0  0  0  0  0  0  0  0  0  0  0  0  # atno 17343 bound_to 10162
  157.3115  130.6892  149.6218 LP  0  0  0  0  0  0  0  0  0  0  0  0  # atno 17370 bound_to 10713
  155.9663  130.4362  150.5124 LP  0  0  0  0  0  0  0  0  0  0  0  0  # atno 17371 bound_to 10713
  140.5652  134.5895  157.5444 LP  0  0  0  0  0  0  0  0  0  0  0  0  # atno 17394 bound_to 11000
  139.9533  134.7578  156.0397 LP  0  0  0  0  0  0  0  0  0  0  0  0  # atno 17395 bound_to 11000

$$$$
