AV-unprocessed.smi:3060|AV-procd|sdf|11678|dock9
  -GOLD-   2272017 83D 1   1.00000     0.00000
 Structure written by MMmdl.
 42 43  0  0  0  0  0  0  0  0  1 V2000
  148.3381  138.5208  157.8769 C   0  0  0  0  0  0  0  0  0  0  0  0
  149.6749  138.1508  158.5278 C   0  0  0  0  0  0  0  0  0  0  0  0
  150.4663  137.1819  157.7070 C   0  0  0  0  0  0  0  0  0  0  0  0
  150.8773  135.9900  158.1203 N   0  0  0  0  0  0  0  0  0  0  0  0
  151.5692  135.4853  157.0356 N   0  0  0  0  0  0  0  0  0  0  0  0
  151.5767  136.3289  156.0440 N   0  0  0  0  0  0  0  0  0  0  0  0
  150.8822  137.4193  156.4540 N   0  0  0  0  0  0  0  0  0  0  0  0
  150.7017  138.5635  155.5719 C   0  0  0  0  0  0  0  0  0  0  0  0
  151.5994  139.7472  155.9514 C   0  0  0  0  0  0  0  0  0  0  0  0
  152.5756  140.0166  155.2525 O   0  0  0  0  0  0  0  0  0  0  0  0
  151.2786  140.4290  157.0644 N   0  0  0  0  0  0  0  0  0  0  0  0
  151.9950  141.5805  157.6070 C   0  0  0  0  0  0  0  0  0  0  0  0
  152.3622  141.2775  159.0805 C   0  0  0  0  0  0  0  0  0  0  0  0
  153.3103  142.2950  159.7463 C   0  0  0  0  0  0  0  0  0  0  0  0
  152.6396  143.3018  160.7012 C   0  0  0  0  0  0  0  0  0  0  0  0
  151.3221  143.9406  160.2263 C   0  0  0  0  0  0  0  0  0  0  0  0
  151.4081  144.8513  158.9884 C   0  0  0  0  0  0  0  0  0  0  0  0
  151.8039  144.1829  157.6575 C   0  0  0  0  0  0  0  0  0  0  0  0
  151.1199  142.8327  157.3618 C   0  0  0  0  0  0  0  0  0  0  0  0
  147.7879  139.2295  158.4962 H   0  0  0  0  0  0  0  0  0  0  0  0
  147.7102  137.6400  157.7399 H   0  0  0  0  0  0  0  0  0  0  0  0
  148.4903  138.9802  156.8997 H   0  0  0  0  0  0  0  0  0  0  0  0
  150.2731  139.0510  158.6728 H   0  0  0  0  0  0  0  0  0  0  0  0
  149.5058  137.7354  159.5214 H   0  0  0  0  0  0  0  0  0  0  0  0
  150.9096  138.2641  154.5446 H   0  0  0  0  0  0  0  0  0  0  0  0
  149.6547  138.8691  155.6045 H   0  0  0  0  0  0  0  0  0  0  0  0
  150.4608  140.1310  157.5758 H   0  0  0  0  0  0  0  0  0  0  0  0
  152.9203  141.7133  157.0434 H   0  0  0  0  0  0  0  0  0  0  0  0
  151.4671  141.1227  159.6836 H   0  0  0  0  0  0  0  0  0  0  0  0
  152.8757  140.3148  159.0954 H   0  0  0  0  0  0  0  0  0  0  0  0
  154.0428  141.7409  160.3347 H   0  0  0  0  0  0  0  0  0  0  0  0
  153.9096  142.8093  158.9971 H   0  0  0  0  0  0  0  0  0  0  0  0
  152.4312  142.7852  161.6389 H   0  0  0  0  0  0  0  0  0  0  0  0
  153.3550  144.0852  160.9528 H   0  0  0  0  0  0  0  0  0  0  0  0
  150.5592  143.1768  160.0840 H   0  0  0  0  0  0  0  0  0  0  0  0
  150.9435  144.5486  161.0486 H   0  0  0  0  0  0  0  0  0  0  0  0
  150.4279  145.3103  158.8535 H   0  0  0  0  0  0  0  0  0  0  0  0
  152.0912  145.6772  159.1895 H   0  0  0  0  0  0  0  0  0  0  0  0
  151.5371  144.8795  156.8618 H   0  0  0  0  0  0  0  0  0  0  0  0
  152.8853  144.0913  157.5752 H   0  0  0  0  0  0  0  0  0  0  0  0
  150.8574  142.8388  156.3025 H   0  0  0  0  0  0  0  0  0  0  0  0
  150.1654  142.7534  157.8827 H   0  0  0  0  0  0  0  0  0  0  0  0
  1  2  1  0  0  0  0
  1 20  1  0  0  0  0
  1 21  1  0  0  0  0
  1 22  1  0  0  0  0
  2  3  1  0  0  0  0
  2 23  1  0  0  0  0
  2 24  1  0  0  0  0
  3  7  1  0  0  0  0
  3  4  2  0  0  0  0
  4  5  1  0  0  0  0
  5  6  2  0  0  0  0
  6  7  1  0  0  0  0
  7  8  1  0  0  0  0
  8  9  1  0  0  0  0
  8 25  1  0  0  0  0
  8 26  1  0  0  0  0
  9 10  2  0  0  0  0
  9 11  1  0  0  0  0
 11 12  1  0  0  0  0
 11 27  1  0  0  0  0
 12 19  1  0  0  0  0
 12 13  1  0  0  0  0
 12 28  1  0  0  0  0
 13 14  1  0  0  0  0
 13 29  1  0  0  0  0
 13 30  1  0  0  0  0
 14 15  1  0  0  0  0
 14 31  1  0  0  0  0
 14 32  1  0  0  0  0
 15 16  1  0  0  0  0
 15 33  1  0  0  0  0
 15 34  1  0  0  0  0
 16 17  1  0  0  0  0
 16 35  1  0  0  0  0
 16 36  1  0  0  0  0
 17 18  1  0  0  0  0
 17 37  1  0  0  0  0
 17 38  1  0  0  0  0
 18 19  1  0  0  0  0
 18 39  1  0  0  0  0
 18 40  1  0  0  0  0
 19 41  1  0  0  0  0
 19 42  1  0  0  0  0
M  END
> <s_m_source_file>
AV-unprocessed.smi

> <i_m_source_file_index>
3060

> <i_lp_mmshare_version>
43012

> <i_f3d_flags>
0

> <s_epik_input>
W0NIM11bQ0gyXWMxbm5ubjFbQ0gyXUMoPU8pW05IXVtDSF0yW0NIMl1bQ0gyXVtDSDJdW0NIMl1bQ0gyXVtDSDJdW0NIMl0y

> <s_epik_cmdline>
J2VwaWtfcHl0aG9uJywgJy1waCcsICc3LjAnLCAnLXRuJywgJzgnLCAnLW1hJywgJzIwMCcsICctbWV0YWxfYmluZGluZycsICctaW1hZScsICc8aW5maWxlLm1hZT4nLCAnLW9tYWUnLCAnPG91dGZpbGUubWFlPic=

> <r_lp_tautomer_probability>
1

> <r_epik_Ionization_Penalty>
4.54698e-07

> <r_epik_Ionization_Penalty_Charging>
0

> <r_epik_Ionization_Penalty_Neutral>
4.54698e-07

> <r_epik_State_Penalty>
-0

> <r_epik_Charging_Adjusted_Penalty>
0

> <i_epik_Tot_Q>
0

> <i_epik_Tot_abs_Q>
0

> <r_epik_Metal_State_Penalty>
-0

> <b_epik_Metal_Only>
0

> <s_lp_Force_Field>
OPLS_2005

> <r_lp_Energy>
19.51

> <b_lp_Chiralities_Consistent>
1

> <s_lp_Variant>
AV-unprocessed.smi:3060-1

> <Gold.Version>
5.8.1

> <Gold.Id.Protein>
6NUR|6NUR_protein|mol2

> <Gold.PLP.Fitness>
43.3888

> <Gold.PLP.PLP>
-35.4449

> <Gold.PLP.part.hbond>
-4.6323

> <Gold.PLP.part.metal>
0.0000

> <Gold.PLP.part.buried>
-4.9972

> <Gold.PLP.part.nonpolar>
-26.0877

> <Gold.PLP.part.repulsive>
0.1011

> <Gold.PLP.ligand.clash>
0.0000

> <Gold.PLP.ligand.torsion>
0.4302

> <Gold.PLP.Chemscore.Hbond>
2.9257

> <Gold.PLP.Chemscore.CHOScore>
0.0000

> <Gold.PLP.Chemscore.Metal>
0.0000

> <Gold.Chemscore.Hbonds>
donor molecule, donor type, donor heavy atom, donor atom, acceptor molecule, acceptor atom, score
      P1  H  6896  6907       L1     4  0.56
      P1  H  7989  7998       L1    10  0.41
      P1  H  7997  8008       L1    10  0.98
      P1  H 10752 10763       L1     6  1.00

> <Gold.PLP.Chemscore.Internal.Correction>
0.0274

> <Gold.Rescore>
     Score         DG    S(hbond)    S(metal)    S(lipo)     H(rot)  DE(clash)    DE(int)     intcor
     19.09     -19.76       2.30        0.00      92.72       1.66       0.17       0.49       ----

> <Gold.Chemscore.Fitness>
19.0899

> <Gold.Chemscore.DG>
-19.7576

> <Gold.Chemscore.ZeroCoef>
-5.4800

> <Gold.Chemscore.Hbond>
2.2996

> <Gold.Chemscore.Metal>
0.0000

> <Gold.Chemscore.Lipo>
92.7246

> <Gold.Chemscore.Internal_Hbond>
0.0000

> <Gold.Chemscore.DEClash>
0.1745

> <Gold.Chemscore.DEInternal>
0.4932

> <Gold.Chemscore.Rot>
1.6609

> <Gold.Chemscore.Internal.Correction>
   9.000000E+99

> <Gold.Chemscore.Hbonds>
donor molecule, donor type, donor heavy atom, donor atom, acceptor molecule, acceptor atom, score
      P1  H  6896  6907       L1     4  0.51
      P1  H  7989  7998       L1    10  0.16
      P1  H  7997  8008       L1    10  0.81
      P1  H 10752 10763       L1     6  0.24

> <Gold.Chemscore.Hbond.Weighted>
-7.6807

> <Gold.Chemscore.Metal.Weighted>
-0.0000

> <Gold.Chemscore.Lipo.Weighted>
-10.8488

> <Gold.Chemscore.Internal_Hbond.Weighted>
0.0000

> <Gold.Chemscore.DEClash.Weighted>
0.1745

> <Gold.Chemscore.DEInternal.Weighted>
0.4932

> <Gold.Chemscore.Rot.Weighted>
4.2518

> <Gold.Chemscore.Internal.Correction.Weighted>
   9.000000E+99

> <Gold.Protein.RotatedTorsions>
[ 6907 6896 6895 6894 ] final  -47.61 input  -60.11 | X-H torsion
[ 7974 7965 7964 7962 ] final -136.60 input  175.53 | X-H torsion
[ 8008 7997 7996 7995 ] final  -39.96 input   59.86 | X-H torsion
[ 10167 10162 10161 10158 ] final  -54.68 input  -65.29 | X-H torsion
[ 10718 10713 10712 10709 ] final -102.23 input   66.30 | X-H torsion
[ 10763 10752 10751 10750 ] final   78.46 input  -60.55 | X-H torsion
[ 11005 11000 10999 10996 ] final  -91.21 input  -57.11 | X-H torsion

> <Gold.Protein.ActiveResidues>
 VAL166  LYS551  ARG553  GLY616  TRP617  ASP618  TYR619  PRO620  LYS621  CYS622 
 ASP623  PHE694  ASN695  SER759  ASP760  ASP761  ALA762  ILE779  LEU786  VAL792 
 PHE793  MET794  SER795  GLU796  ALA797  LYS798  CYS799  TRP800  GLU811  SER814 

> <Gold.Protein.RotatedAtoms>
  150.8990  134.8401  159.7346 H   0  0  0  0  0  0  0  0  0  0  0  0  # atno 6907 bound_to 6896
  152.4881  134.4531  159.9591 H   0  0  0  0  0  0  0  0  0  0  0  0  # atno 6908 bound_to 6896
  151.4585  133.3560  159.2841 H   0  0  0  0  0  0  0  0  0  0  0  0  # atno 6909 bound_to 6896
  144.8913  140.6645  143.5144 H   0  0  0  0  0  0  0  0  0  0  0  0  # atno 7974 bound_to 7965
  154.4017  140.1538  156.2948 H   0  0  0  0  0  0  0  0  0  0  0  0  # atno 8008 bound_to 7997
  155.8753  140.3446  155.5828 H   0  0  0  0  0  0  0  0  0  0  0  0  # atno 8009 bound_to 7997
  155.7729  140.0833  157.2089 H   0  0  0  0  0  0  0  0  0  0  0  0  # atno 8010 bound_to 7997
  140.6417  143.2512  151.4970 H   0  0  0  0  0  0  0  0  0  0  0  0  # atno 10167 bound_to 10162
  156.0222  130.5410  150.7079 H   0  0  0  0  0  0  0  0  0  0  0  0  # atno 10718 bound_to 10713
  153.0876  135.4876  154.8627 H   0  0  0  0  0  0  0  0  0  0  0  0  # atno 10763 bound_to 10752
  154.7229  135.3043  154.9020 H   0  0  0  0  0  0  0  0  0  0  0  0  # atno 10764 bound_to 10752
  153.9678  135.6805  153.4799 H   0  0  0  0  0  0  0  0  0  0  0  0  # atno 10765 bound_to 10752
  141.1549  133.7741  156.9847 H   0  0  0  0  0  0  0  0  0  0  0  0  # atno 11005 bound_to 11000
  145.3779  139.1643  143.4297 LP  0  0  0  0  0  0  0  0  0  0  0  0  # atno 17320 bound_to 7965
  146.3055  140.3857  142.8689 LP  0  0  0  0  0  0  0  0  0  0  0  0  # atno 17321 bound_to 7965
  139.5626  144.2118  152.1716 LP  0  0  0  0  0  0  0  0  0  0  0  0  # atno 17342 bound_to 10162
  140.1391  144.5219  150.6755 LP  0  0  0  0  0  0  0  0  0  0  0  0  # atno 17343 bound_to 10162
  157.4724  131.0894  151.0628 LP  0  0  0  0  0  0  0  0  0  0  0  0  # atno 17370 bound_to 10713
  157.1084  130.6011  149.5476 LP  0  0  0  0  0  0  0  0  0  0  0  0  # atno 17371 bound_to 10713
  140.1042  134.9517  157.1969 LP  0  0  0  0  0  0  0  0  0  0  0  0  # atno 17394 bound_to 11000
  140.3278  134.2844  155.7233 LP  0  0  0  0  0  0  0  0  0  0  0  0  # atno 17395 bound_to 11000

$$$$
