AV-unprocessed.smi:333|AV-procd|sdf|2361|dock8
  -GOLD-   2262022273D 1   1.00000     0.00000
 Structure written by MMmdl.
 26 26  0  0  0  0  0  0  0  0  1 V2000
  153.1786  138.3129  159.7884 N   0  0  0  0  0  0  0  0  0  0  0  0
  153.8138  139.3553  160.3383 C   0  0  0  0  0  0  0  0  0  0  0  0
  154.6247  139.1508  161.2414 O   0  0  0  0  0  0  0  0  0  0  0  0
  153.4384  140.6654  159.7649 C   0  0  0  0  0  0  0  0  0  0  0  0
  152.5372  140.8099  158.7599 C   0  0  0  0  0  0  0  0  0  0  0  0
  152.1871  142.1109  158.2174 C   0  0  0  0  0  0  0  0  0  0  0  0
  151.1705  142.2012  157.0864 C   0  0  0  0  0  0  0  0  0  0  0  0
  150.2378  140.9805  157.0159 C   0  0  0  0  0  0  0  0  0  0  0  0
  150.5251  140.1932  155.8797 O   0  0  0  0  0  0  0  0  0  0  0  0
  152.8151  143.1888  158.7421 C   0  0  0  0  0  0  0  0  0  0  0  0
  152.6114  144.6422  158.3184 C   0  0  0  0  0  0  0  0  0  0  0  0
  153.0233  144.8217  157.0636 F   0  0  0  0  0  0  0  0  0  0  0  0
  151.3248  144.9805  158.3930 F   0  0  0  0  0  0  0  0  0  0  0  0
  153.2966  145.4858  159.0938 F   0  0  0  0  0  0  0  0  0  0  0  0
  153.7425  143.0293  159.7817 N   0  0  0  0  0  0  0  0  0  0  0  0
  154.1064  141.8548  160.3425 C   0  0  0  0  0  0  0  0  0  0  0  0
  154.9329  141.8633  161.2550 O   0  0  0  0  0  0  0  0  0  0  0  0
  154.1674  143.8752  160.1341 H   0  0  0  0  0  0  0  0  0  0  0  0
  153.3714  137.3792  160.1212 H   0  0  0  0  0  0  0  0  0  0  0  0
  152.5091  138.4612  159.0479 H   0  0  0  0  0  0  0  0  0  0  0  0
  152.0460  139.9527  158.3241 H   0  0  0  0  0  0  0  0  0  0  0  0
  150.5786  143.1126  157.1527 H   0  0  0  0  0  0  0  0  0  0  0  0
  151.7244  142.2802  156.1504 H   0  0  0  0  0  0  0  0  0  0  0  0
  150.3634  140.3631  157.9057 H   0  0  0  0  0  0  0  0  0  0  0  0
  149.1921  141.2873  156.9854 H   0  0  0  0  0  0  0  0  0  0  0  0
  150.9790  139.4132  156.1604 H   0  0  0  0  0  0  0  0  0  0  0  0
  1  2  1  0  0  0  0
  1 19  1  0  0  0  0
  1 20  1  0  0  0  0
  2  3  2  0  0  0  0
  2  4  1  0  0  0  0
  4 16  1  0  0  0  0
  4  5  2  0  0  0  0
  5  6  1  0  0  0  0
  5 21  1  0  0  0  0
  6  7  1  0  0  0  0
  6 10  2  0  0  0  0
  7  8  1  0  0  0  0
  7 22  1  0  0  0  0
  7 23  1  0  0  0  0
  8  9  1  0  0  0  0
  8 24  1  0  0  0  0
  8 25  1  0  0  0  0
  9 26  1  0  0  0  0
 10 11  1  0  0  0  0
 10 15  1  0  0  0  0
 11 12  1  0  0  0  0
 11 13  1  0  0  0  0
 11 14  1  0  0  0  0
 15 18  1  0  0  0  0
 15 16  1  0  0  0  0
 16 17  2  0  0  0  0
M  END
> <s_m_source_file>
AV-unprocessed.smi

> <i_m_source_file_index>
333

> <i_lp_mmshare_version>
43012

> <i_f3d_flags>
0

> <s_epik_input>
W05IMl1DKD1PKWMxW2NIXWMoW0NIMl1bQ0gyXVtPSF0pYyhDKEYpKEYpRilbbkhdYzE9Tw==

> <s_epik_cmdline>
J2VwaWtfcHl0aG9uJywgJy1waCcsICc3LjAnLCAnLXRuJywgJzgnLCAnLW1hJywgJzIwMCcsICctbWV0YWxfYmluZGluZycsICctaW1hZScsICc8aW5maWxlLm1hZT4nLCAnLW9tYWUnLCAnPG91dGZpbGUubWFlPic=

> <r_lp_tautomer_probability>
0.999

> <r_epik_Ionization_Penalty>
1.33848

> <r_epik_Ionization_Penalty_Charging>
1.33848

> <r_epik_Ionization_Penalty_Neutral>
1.5599e-06

> <r_epik_State_Penalty>
1.41551

> <r_epik_Charging_Adjusted_Penalty>
2.75399

> <i_epik_Tot_Q>
0

> <i_epik_Tot_abs_Q>
0

> <r_epik_Metal_State_Penalty>
1.47649

> <b_epik_Metal_Only>
0

> <s_lp_Force_Field>
OPLS_2005

> <r_lp_Energy>
21.6261

> <b_lp_Chiralities_Consistent>
1

> <s_lp_Variant>
AV-unprocessed.smi:333-2

> <Gold.Version>
5.8.1

> <Gold.Id.Protein>
6NUR|6NUR_protein|mol2

> <Gold.PLP.Fitness>
38.4651

> <Gold.PLP.PLP>
-37.1240

> <Gold.PLP.part.hbond>
-2.0000

> <Gold.PLP.part.metal>
0.0000

> <Gold.PLP.part.buried>
-6.5148

> <Gold.PLP.part.nonpolar>
-28.7872

> <Gold.PLP.part.repulsive>
0.1084

> <Gold.PLP.ligand.clash>
0.0000

> <Gold.PLP.ligand.torsion>
0.7280

> <Gold.PLP.Chemscore.Hbond>
0.9280

> <Gold.PLP.Chemscore.CHOScore>
0.0000

> <Gold.PLP.Chemscore.Metal>
0.0000

> <Gold.PLP.Chemscore.Internal.Correction>
0.0130

> <Gold.Rescore>
     Score         DG    S(hbond)    S(metal)    S(lipo)     H(rot)  DE(clash)    DE(int)     intcor
      7.17     -10.32       0.94        0.00      61.19       2.13       1.09       2.06       ----

> <Gold.Chemscore.Fitness>
7.1668

> <Gold.Chemscore.DG>
-10.3161

> <Gold.Chemscore.ZeroCoef>
-5.4800

> <Gold.Chemscore.Hbond>
0.9367

> <Gold.Chemscore.Metal>
0.0000

> <Gold.Chemscore.Lipo>
61.1865

> <Gold.Chemscore.Internal_Hbond>
0.0000

> <Gold.Chemscore.DEClash>
1.0916

> <Gold.Chemscore.DEInternal>
2.0577

> <Gold.Chemscore.Rot>
2.1294

> <Gold.Chemscore.Internal.Correction>
   9.000000E+99

> <Gold.Chemscore.Hbond.Weighted>
-3.1284

> <Gold.Chemscore.Metal.Weighted>
-0.0000

> <Gold.Chemscore.Lipo.Weighted>
-7.1588

> <Gold.Chemscore.Internal_Hbond.Weighted>
0.0000

> <Gold.Chemscore.DEClash.Weighted>
1.0916

> <Gold.Chemscore.DEInternal.Weighted>
2.0577

> <Gold.Chemscore.Rot.Weighted>
5.4512

> <Gold.Chemscore.Internal.Correction.Weighted>
   9.000000E+99

> <Gold.Protein.RotatedTorsions>
[ 6907 6896 6895 6894 ] final   45.20 input  -60.11 | X-H torsion
[ 7974 7965 7964 7962 ] final  -34.42 input  175.53 | X-H torsion
[ 8008 7997 7996 7995 ] final    3.10 input   59.86 | X-H torsion
[ 10167 10162 10161 10158 ] final -111.85 input  -65.29 | X-H torsion
[ 10718 10713 10712 10709 ] final  -98.66 input   66.30 | X-H torsion
[ 10763 10752 10751 10750 ] final   84.43 input  -60.55 | X-H torsion
[ 11005 11000 10999 10996 ] final -134.34 input  -57.11 | X-H torsion

> <Gold.Protein.ActiveResidues>
 VAL166  LYS551  ARG553  GLY616  TRP617  ASP618  TYR619  PRO620  LYS621  CYS622 
 ASP623  PHE694  ASN695  SER759  ASP760  ASP761  ALA762  ILE779  LEU786  VAL792 
 PHE793  MET794  SER795  GLU796  ALA797  LYS798  CYS799  TRP800  GLU811  SER814 

> <Gold.Protein.RotatedAtoms>
  152.2417  134.8222  160.0459 H   0  0  0  0  0  0  0  0  0  0  0  0  # atno 6907 bound_to 6896
  151.8934  133.3516  159.3814 H   0  0  0  0  0  0  0  0  0  0  0  0  # atno 6908 bound_to 6896
  150.7056  134.4827  159.5522 H   0  0  0  0  0  0  0  0  0  0  0  0  # atno 6909 bound_to 6896
  146.0831  140.6036  142.8899 H   0  0  0  0  0  0  0  0  0  0  0  0  # atno 7974 bound_to 7965
  154.6996  140.2670  155.6733 H   0  0  0  0  0  0  0  0  0  0  0  0  # atno 8008 bound_to 7997
  156.2760  140.2775  156.1525 H   0  0  0  0  0  0  0  0  0  0  0  0  # atno 8009 bound_to 7997
  155.0783  140.0372  157.2621 H   0  0  0  0  0  0  0  0  0  0  0  0  # atno 8010 bound_to 7997
  140.1291  143.4376  152.1639 H   0  0  0  0  0  0  0  0  0  0  0  0  # atno 10167 bound_to 10162
  156.0113  130.5248  150.6556 H   0  0  0  0  0  0  0  0  0  0  0  0  # atno 10718 bound_to 10713
  153.1381  135.4654  154.9454 H   0  0  0  0  0  0  0  0  0  0  0  0  # atno 10763 bound_to 10752
  154.7724  135.3163  154.8165 H   0  0  0  0  0  0  0  0  0  0  0  0  # atno 10764 bound_to 10752
  153.8693  135.6905  153.4830 H   0  0  0  0  0  0  0  0  0  0  0  0  # atno 10765 bound_to 10752
  140.8998  134.1705  157.4468 H   0  0  0  0  0  0  0  0  0  0  0  0  # atno 11005 bound_to 11000
  144.7307  140.4662  143.6940 LP  0  0  0  0  0  0  0  0  0  0  0  0  # atno 17320 bound_to 7965
  145.6181  139.1521  143.3038 LP  0  0  0  0  0  0  0  0  0  0  0  0  # atno 17321 bound_to 7965
  139.5529  144.7351  151.4382 LP  0  0  0  0  0  0  0  0  0  0  0  0  # atno 17342 bound_to 10162
  140.6827  143.8045  150.7143 LP  0  0  0  0  0  0  0  0  0  0  0  0  # atno 17343 bound_to 10162
  157.4309  131.0849  151.1040 LP  0  0  0  0  0  0  0  0  0  0  0  0  # atno 17370 bound_to 10713
  157.1613  130.6227  149.5611 LP  0  0  0  0  0  0  0  0  0  0  0  0  # atno 17371 bound_to 10713
  139.8740  134.9893  156.5452 LP  0  0  0  0  0  0  0  0  0  0  0  0  # atno 17394 bound_to 11000
  140.8244  133.8328  155.8925 LP  0  0  0  0  0  0  0  0  0  0  0  0  # atno 17395 bound_to 11000

$$$$
