#       Name:                AV-unprocessed.smi:3204
#       Creating user name   scv26
#       Creation time:       Fri Mar 27 18:08:47 2020


#       File generated by GOLD software.
#

@<TRIPOS>MOLECULE
AV-unprocessed.smi:3204
    36    37     1
SMALL
NO_CHARGES


@<TRIPOS>ATOM
      1 ****        -3.4895  -3.0902  -1.5716 C.3            1 S1                 0.0000
      2 ****        -3.1379  -2.5622  -0.1762 C.3            1 S1                 0.0000
      3 ****        -2.3006  -1.2981  -0.2347 C.ar           1 S1                 0.0000
      4 ****        -2.9650  -0.1378  -0.4347 N.ar           1 S1                 0.0000
      5 ****        -2.2280   0.9734  -0.5024 C.ar           1 S1                 0.0000
      6 ****        -0.8993   1.0585  -0.3958 N.ar           1 S1                 0.0000
      7 ****        -0.2185  -0.0956  -0.1981 C.ar           1 S1                 0.0000
      8 ****         1.1790  -0.0649  -0.0875 N.pl3          1 S1                 0.0000
      9 ****         1.9185   1.1938  -0.0944 C.3            1 S1                 0.0000
     10 ****         3.4248   1.0190  -0.2355 C.3            1 S1                 0.0000
     11 ****         3.9318   2.2924   0.1390 O.3            1 S1                 0.0000
     12 ****         3.0841   2.8741   1.1297 C.3            1 S1                 0.0000
     13 ****         1.8176   2.0085   1.1908 C.3            1 S1                 0.0000
     14 ****         1.8755   1.1937   2.3487 O.3            1 S1                 0.0000
     15 ****        -0.8944  -1.3315  -0.1080 C.ar           1 S1                 0.0000
     16 ****        -0.2239  -2.4938   0.0843 F              1 S1                 0.0000
     17 ****        -4.0917  -3.9963  -1.5039 H              1 S1                 0.0000
     18 ****        -2.5892  -3.3302  -2.1380 H              1 S1                 0.0000
     19 ****        -4.0575  -2.3538  -2.1406 H              1 S1                 0.0000
     20 ****        -4.0531  -2.3580   0.3812 H              1 S1                 0.0000
     21 ****        -2.6044  -3.3289   0.3861 H              1 S1                 0.0000
     22 ****        -2.7613   1.8990  -0.6603 H              1 S1                 0.0000
     23 ****         1.6830  -0.9241   0.0789 H              1 S1                 0.0000
     24 ****         1.5760   1.8053  -0.9307 H              1 S1                 0.0000
     25 ****         3.8041   0.2626   0.4536 H              1 S1                 0.0000
     26 ****         3.7278   0.7472  -1.2469 H              1 S1                 0.0000
     27 ****         3.5971   2.9387   2.0904 H              1 S1                 0.0000
     28 ****         2.8430   3.8906   0.8172 H              1 S1                 0.0000
     29 ****         0.9095   2.6108   1.2284 H              1 S1                 0.0000
     30 ****         1.1413   0.5992   2.3304 H              1 S1                 0.0000
     31 ****        -3.9603  -0.1131  -0.5274 LP             1 S1                 0.0000
     32 ****        -0.4269   1.9375  -0.4593 LP             1 S1                 0.0000
     33 ****         3.9621   2.8876  -0.6640 LP             1 S1                 0.0000
     34 ****         4.8542   2.1870   0.5107 LP             1 S1                 0.0000
     35 ****         1.8270   1.7657   3.1675 LP             1 S1                 0.0000
     36 ****         2.7305   0.6750   2.3547 LP             1 S1                 0.0000
@<TRIPOS>BOND
    1    1    2 1     
    2    1   17 1     
    3    1   18 1     
    4    1   19 1     
    5    2    3 1     
    6    2   20 1     
    7    2   21 1     
    8    3   15 ar    
    9    3    4 ar    
   10    4    5 ar    
   11    5    6 ar    
   12    5   22 1     
   13    6    7 ar    
   14    7    8 1     
   15    7   15 ar    
   16    8    9 1     
   17    8   23 1     
   18    9   13 1     
   19    9   10 1     
   20    9   24 1     
   21   10   11 1     
   22   10   25 1     
   23   10   26 1     
   24   11   12 1     
   25   12   13 1     
   26   12   27 1     
   27   12   28 1     
   28   13   14 1     
   29   13   29 1     
   30   14   30 1     
   31   15   16 1     
   32    4   31 1     
   33    6   32 1     
   34   11   33 1     
   35   11   34 1     
   36   14   35 1     
   37   14   36 1     
@<TRIPOS>SUBSTRUCTURE
      1 S1             1
@<TRIPOS>SET
LONE_PAIRS      STATIC     ATOMS    <user>   **** ""
6 31 32 33 34 35 36
DONOR_HYDROGENS      STATIC     ATOMS    <user>   **** ""
2 23 30
ATOM$BLUE        STATIC     ATOMS    COLORGROUP SYSTEM
6 31 32 33 34 35 36
ATOM$RED        STATIC     ATOMS    COLORGROUP SYSTEM
2 23 30
