#       Name:                AV-unprocessed.smi:1244
#       Creating user name   scv26
#       Creation time:       Fri Mar 27 04:33:17 2020


#       File generated by GOLD software.
#

@<TRIPOS>MOLECULE
AV-unprocessed.smi:1244
    60    62     1
SMALL
NO_CHARGES


@<TRIPOS>ATOM
      1 ****        -2.4922   0.6015  -0.6377 C.3            1 S1                 0.0000
      2 ****        -3.2573   0.3530   0.6739 C.3            1 S1                 0.0000
      3 ****        -2.8031  -0.9254   1.4059 C.3            1 S1                 0.0000
      4 ****        -1.4912  -0.7714   2.0207 N.3            1 S1                 0.0000
      5 ****        -1.0470  -2.0071   2.6679 C.3            1 S1                 0.0000
      6 ****         0.4346  -2.0179   3.1018 C.3            1 S1                 0.0000
      7 ****         1.3028  -1.4945   2.0527 N.am           1 S1                 0.0000
      8 ****         1.5907  -2.1258   0.9074 C.2            1 S1                 0.0000
      9 ****         1.3203  -3.3054   0.6813 O.2            1 S1                 0.0000
     10 ****         2.1625  -1.2907   0.0281 N.am           1 S1                 0.0000
     11 ****         2.3460  -1.5498  -1.3526 C.ar           1 S1                 0.0000
     12 ****         3.0526  -2.7078  -1.7585 C.ar           1 S1                 0.0000
     13 ****         3.2310  -2.9728  -3.1290 C.ar           1 S1                 0.0000
     14 ****         2.6993  -2.0721  -4.0681 C.ar           1 S1                 0.0000
     15 ****         2.0369  -0.9748  -3.6448 N.pl3          1 S1                 1.0000
     16 ****         1.8385  -0.6571  -2.3408 C.ar           1 S1                 0.0000
     17 ****         1.1101   0.5201  -2.0442 N.pl3          1 S1                 0.0000
     18 ****         1.6390   1.4660  -1.0677 C.3            1 S1                 0.0000
     19 ****         0.9033   2.7813  -1.3208 C.3            1 S1                 0.0000
     20 ****         0.6081   2.7302  -2.8145 C.3            1 S1                 0.0000
     21 ****         0.3730   1.2423  -3.0818 C.3            1 S1                 0.0000
     22 ****        -1.5185   0.3692   2.9285 C.3            1 S1                 0.0000
     23 ****        -1.9190   1.6636   2.1972 C.3            1 S1                 0.0000
     24 ****        -2.0445   2.8530   3.1551 C.3            1 S1                 0.0000
     25 ****        -3.1785   1.4778   1.5523 O.3            1 S1                 0.0000
     26 ****        -2.6567  -0.2128  -1.3437 H              1 S1                 0.0000
     27 ****        -1.4176   0.6752  -0.4742 H              1 S1                 0.0000
     28 ****        -2.8226   1.5247  -1.1137 H              1 S1                 0.0000
     29 ****        -4.3100   0.2376   0.4144 H              1 S1                 0.0000
     30 ****        -3.5364  -1.1776   2.1739 H              1 S1                 0.0000
     31 ****        -2.7926  -1.7610   0.7047 H              1 S1                 0.0000
     32 ****        -1.6831  -2.2306   3.5255 H              1 S1                 0.0000
     33 ****        -1.1895  -2.8345   1.9711 H              1 S1                 0.0000
     34 ****         0.5712  -1.4035   3.9916 H              1 S1                 0.0000
     35 ****         0.7420  -3.0276   3.3781 H              1 S1                 0.0000
     36 ****         1.5879  -0.5308   2.1477 H              1 S1                 0.0000
     37 ****         2.2395  -0.3260   0.3144 H              1 S1                 0.0000
     38 ****         3.4561  -3.3927  -1.0268 H              1 S1                 0.0000
     39 ****         3.7647  -3.8543  -3.4531 H              1 S1                 0.0000
     40 ****         2.7825  -2.1940  -5.1383 H              1 S1                 0.0000
     41 ****         1.4708   1.1394  -0.0422 H              1 S1                 0.0000
     42 ****         2.7123   1.5869  -1.2220 H              1 S1                 0.0000
     43 ****        -0.0330   2.7971  -0.7611 H              1 S1                 0.0000
     44 ****         1.4850   3.6562  -1.0289 H              1 S1                 0.0000
     45 ****        -0.2396   3.3518  -3.1039 H              1 S1                 0.0000
     46 ****         1.4818   3.0712  -3.3715 H              1 S1                 0.0000
     47 ****         0.6582   0.9938  -4.1033 H              1 S1                 0.0000
     48 ****        -0.6848   1.0027  -2.9727 H              1 S1                 0.0000
     49 ****        -2.2160   0.1747   3.7450 H              1 S1                 0.0000
     50 ****        -0.5383   0.5130   3.3827 H              1 S1                 0.0000
     51 ****        -1.1632   1.9052   1.4490 H              1 S1                 0.0000
     52 ****        -1.1012   3.0472   3.6661 H              1 S1                 0.0000
     53 ****        -2.8056   2.6694   3.9143 H              1 S1                 0.0000
     54 ****        -2.3231   3.7590   2.6163 H              1 S1                 0.0000
     55 ****         1.6631  -0.3425  -4.3528 H              1 S1                 0.0000
     56 ****        -0.8114  -0.5865   1.3111 LP             1 S1                 0.0000
     57 ****         0.8564  -3.8542   1.3767 LP             1 S1                 0.0000
     58 ****         1.5646  -3.7148  -0.1977 LP             1 S1                 0.0000
     59 ****        -3.8745   1.3648   2.2614 LP             1 S1                 0.0000
     60 ****        -3.3763   2.3002   1.0190 LP             1 S1                 0.0000
@<TRIPOS>BOND
    1    1    2 1     
    2    1   26 1     
    3    1   27 1     
    4    1   28 1     
    5    2   25 1     
    6    2    3 1     
    7    2   29 1     
    8    3    4 1     
    9    3   30 1     
   10    3   31 1     
   11    4    5 1     
   12    4   22 1     
   13    5    6 1     
   14    5   32 1     
   15    5   33 1     
   16    6    7 1     
   17    6   34 1     
   18    6   35 1     
   19    7    8 am    
   20    7   36 1     
   21    8    9 2     
   22    8   10 am    
   23   10   11 1     
   24   10   37 1     
   25   11   16 ar    
   26   11   12 ar    
   27   12   13 ar    
   28   12   38 1     
   29   13   14 ar    
   30   13   39 1     
   31   14   15 ar    
   32   14   40 1     
   33   15   16 ar    
   34   15   55 1     
   35   16   17 1     
   36   17   21 1     
   37   17   18 1     
   38   18   19 1     
   39   18   41 1     
   40   18   42 1     
   41   19   20 1     
   42   19   43 1     
   43   19   44 1     
   44   20   21 1     
   45   20   45 1     
   46   20   46 1     
   47   21   47 1     
   48   21   48 1     
   49   22   23 1     
   50   22   49 1     
   51   22   50 1     
   52   23   24 1     
   53   23   25 1     
   54   23   51 1     
   55   24   52 1     
   56   24   53 1     
   57   24   54 1     
   58    4   56 1     
   59    9   57 1     
   60    9   58 1     
   61   25   59 1     
   62   25   60 1     
@<TRIPOS>SUBSTRUCTURE
      1 S1             1
@<TRIPOS>SET
LONE_PAIRS      STATIC     ATOMS    <user>   **** ""
5 56 57 58 59 60
DONOR_HYDROGENS      STATIC     ATOMS    <user>   **** ""
3 36 37 55
ATOM$BLUE        STATIC     ATOMS    COLORGROUP SYSTEM
5 56 57 58 59 60
ATOM$RED        STATIC     ATOMS    COLORGROUP SYSTEM
3 36 37 55
