AV-unprocessed.smi:273|AV-procd|sdf|2056|dock5
  -GOLD-   2262021293D 1   1.00000     0.00000
 Structure written by MMmdl.
 59 62  0  0  0  0  0  0  0  0  1 V2000
  144.1741  132.7410  149.0696 C   0  0  0  0  0  0  0  0  0  0  0  0
  143.9040  132.6292  150.5732 C   0  0  0  0  0  0  0  0  0  0  0  0
  144.1194  133.9121  151.2268 N   0  0  0  0  0  0  0  0  0  0  0  0
  145.3172  134.4952  151.3912 C   0  0  0  0  0  0  0  0  0  0  0  0
  146.3607  133.9807  150.9881 O   0  0  0  0  0  0  0  0  0  0  0  0
  145.3651  135.8664  152.0948 C   0  0  0  0  0  0  0  0  0  0  0  0
  146.1846  136.8879  151.2761 C   0  0  0  0  0  0  0  0  0  0  0  0
  146.2157  138.2631  151.9622 C   0  0  0  0  0  0  0  0  0  0  0  0
  146.6940  138.1522  153.3392 N   0  0  0  0  0  0  0  0  0  0  0  0
  147.0680  139.3316  153.8971 C   0  0  0  0  0  0  0  0  0  0  0  0
  146.1870  140.3667  153.9550 N   0  0  0  0  0  0  0  0  0  0  0  0
  146.5531  141.5368  154.4864 C   0  0  0  0  0  0  0  0  0  0  0  0
  147.7305  141.8836  155.0094 N   0  0  0  0  0  0  0  0  0  0  0  0
  148.6151  140.8471  154.9632 C   0  0  0  0  0  0  0  0  0  0  0  0
  148.3691  139.5496  154.4320 C   0  0  0  0  0  0  0  0  0  0  0  0
  149.5042  138.7589  154.5732 N   0  0  0  0  0  0  0  0  0  0  0  0
  150.3737  139.5468  155.1448 C   0  0  0  0  0  0  0  0  0  0  0  0
  149.9246  140.8213  155.4065 N   0  0  0  0  0  0  0  0  0  0  0  0
  150.6736  141.9015  156.0234 C   0  0  0  0  0  0  0  0  0  0  0  0
  151.1957  141.5473  157.4380 C   0  0  2  0  0  0  0  0  0  0  0  0
  150.1418  140.8035  158.2940 C   0  0  0  0  0  0  0  0  0  0  0  0
  150.7523  139.9980  159.2814 O   0  0  0  0  0  0  0  0  0  0  0  0
  151.7733  142.7908  158.1594 C   0  0  1  0  0  0  0  0  0  0  0  0
  150.7480  143.8454  158.5383 C   0  0  0  0  0  0  0  0  0  0  0  0
  151.4838  144.6504  159.6048 C   0  0  0  0  0  0  0  0  0  0  0  0
  152.3660  143.7346  160.2442 O   0  0  0  0  0  0  0  0  0  0  0  0
  152.3863  142.5015  159.5333 C   0  0  0  0  0  0  0  0  0  0  0  0
  145.9435  137.2156  154.1761 C   0  0  0  0  0  0  0  0  0  0  0  0
  145.9115  135.8159  153.5421 C   0  0  0  0  0  0  0  0  0  0  0  0
  144.0254  131.7801  148.5766 H   0  0  0  0  0  0  0  0  0  0  0  0
  145.1987  133.0596  148.8749 H   0  0  0  0  0  0  0  0  0  0  0  0
  143.5025  133.4617  148.6019 H   0  0  0  0  0  0  0  0  0  0  0  0
  142.8787  132.2958  150.7413 H   0  0  0  0  0  0  0  0  0  0  0  0
  144.5647  131.8825  151.0165 H   0  0  0  0  0  0  0  0  0  0  0  0
  143.3037  134.3915  151.5795 H   0  0  0  0  0  0  0  0  0  0  0  0
  144.3338  136.2194  152.1392 H   0  0  0  0  0  0  0  0  0  0  0  0
  147.2064  136.5265  151.1489 H   0  0  0  0  0  0  0  0  0  0  0  0
  145.7695  137.0013  150.2737 H   0  0  0  0  0  0  0  0  0  0  0  0
  146.8373  138.9402  151.3775 H   0  0  0  0  0  0  0  0  0  0  0  0
  145.2135  138.6937  151.9740 H   0  0  0  0  0  0  0  0  0  0  0  0
  145.7950  142.3063  154.4902 H   0  0  0  0  0  0  0  0  0  0  0  0
  151.3754  139.2210  155.3853 H   0  0  0  0  0  0  0  0  0  0  0  0
  151.5006  142.1499  155.3580 H   0  0  0  0  0  0  0  0  0  0  0  0
  150.0361  142.7855  156.0647 H   0  0  0  0  0  0  0  0  0  0  0  0
  152.0219  140.8479  157.3013 H   0  0  0  0  0  0  0  0  0  0  0  0
  149.4681  141.5068  158.7834 H   0  0  0  0  0  0  0  0  0  0  0  0
  149.5090  140.1728  157.6702 H   0  0  0  0  0  0  0  0  0  0  0  0
  151.5453  139.6306  158.9215 H   0  0  0  0  0  0  0  0  0  0  0  0
  152.5352  143.2578  157.5330 H   0  0  0  0  0  0  0  0  0  0  0  0
  150.4330  144.4632  157.6967 H   0  0  0  0  0  0  0  0  0  0  0  0
  149.8617  143.3779  158.9697 H   0  0  0  0  0  0  0  0  0  0  0  0
  152.0787  145.4397  159.1437 H   0  0  0  0  0  0  0  0  0  0  0  0
  150.8026  145.1127  160.3194 H   0  0  0  0  0  0  0  0  0  0  0  0
  151.7801  141.7799  160.0830 H   0  0  0  0  0  0  0  0  0  0  0  0
  153.4005  142.1071  159.4656 H   0  0  0  0  0  0  0  0  0  0  0  0
  146.3966  137.1528  155.1666 H   0  0  0  0  0  0  0  0  0  0  0  0
  144.9259  137.5861  154.3093 H   0  0  0  0  0  0  0  0  0  0  0  0
  145.2981  135.1625  154.1638 H   0  0  0  0  0  0  0  0  0  0  0  0
  146.9201  135.3990  153.5467 H   0  0  0  0  0  0  0  0  0  0  0  0
  1  2  1  0  0  0  0
  1 30  1  0  0  0  0
  1 31  1  0  0  0  0
  1 32  1  0  0  0  0
  2  3  1  0  0  0  0
  2 33  1  0  0  0  0
  2 34  1  0  0  0  0
  3  4  1  0  0  0  0
  3 35  1  0  0  0  0
  4  5  2  0  0  0  0
  4  6  1  0  0  0  0
  6 29  1  0  0  0  0
  6  7  1  0  0  0  0
  6 36  1  0  0  0  0
  7  8  1  0  0  0  0
  7 37  1  0  0  0  0
  7 38  1  0  0  0  0
  8  9  1  0  0  0  0
  8 39  1  0  0  0  0
  8 40  1  0  0  0  0
  9 10  1  0  0  0  0
  9 28  1  0  0  0  0
 10 15  1  0  0  0  0
 10 11  2  0  0  0  0
 11 12  1  0  0  0  0
 12 13  2  0  0  0  0
 12 41  1  0  0  0  0
 13 14  1  0  0  0  0
 14 18  1  0  0  0  0
 14 15  2  0  0  0  0
 15 16  1  0  0  0  0
 16 17  2  0  0  0  0
 17 18  1  0  0  0  0
 17 42  1  0  0  0  0
 18 19  1  0  0  0  0
 19 20  1  0  0  0  0
 19 43  1  0  0  0  0
 19 44  1  0  0  0  0
 20 21  1  0  0  0  0
 20 23  1  0  0  0  0
 20 45  1  0  0  0  0
 21 22  1  0  0  0  0
 21 46  1  0  0  0  0
 21 47  1  0  0  0  0
 22 48  1  0  0  0  0
 23 27  1  0  0  0  0
 23 24  1  0  0  0  0
 23 49  1  0  0  0  0
 24 25  1  0  0  0  0
 24 50  1  0  0  0  0
 24 51  1  0  0  0  0
 25 26  1  0  0  0  0
 25 52  1  0  0  0  0
 25 53  1  0  0  0  0
 26 27  1  0  0  0  0
 27 54  1  0  0  0  0
 27 55  1  0  0  0  0
 28 29  1  0  0  0  0
 28 56  1  0  0  0  0
 28 57  1  0  0  0  0
 29 58  1  0  0  0  0
 29 59  1  0  0  0  0
M  END
> <s_m_source_file>
AV-unprocessed.smi

> <i_m_source_file_index>
273

> <i_lp_mmshare_version>
43012

> <i_f3d_flags>
0

> <s_epik_input>
W0NIM11bQ0gyXVtOSF1DKD1PKVtDSF0xW0NIMl1bQ0gyXU4oW0NIMl1bQ0gyXTEpYyhuW2NIXW4yKWMoYzIzKW5bY0hdbjNbQ0gyXVtDQEhdKFtDSDJdW09IXSlbQ0BASF00W0NIMl1bQ0gyXU9bQ0gyXTQ=

> <s_epik_cmdline>
J2VwaWtfcHl0aG9uJywgJy1waCcsICc3LjAnLCAnLXRuJywgJzgnLCAnLW1hJywgJzIwMCcsICctbWV0YWxfYmluZGluZycsICctaW1hZScsICc8aW5maWxlLm1hZT4nLCAnLW9tYWUnLCAnPG91dGZpbGUubWFlPic=

> <r_lp_tautomer_probability>
1

> <r_epik_Ionization_Penalty>
0.00226556

> <r_epik_Ionization_Penalty_Charging>
0

> <r_epik_Ionization_Penalty_Neutral>
0.00226556

> <r_epik_State_Penalty>
0.00139883

> <r_epik_Charging_Adjusted_Penalty>
0.00139883

> <i_epik_Tot_Q>
0

> <i_epik_Tot_abs_Q>
0

> <r_epik_Metal_State_Penalty>
-0

> <b_epik_Metal_Only>
0

> <s_lp_Force_Field>
OPLS_2005

> <r_lp_Energy>
43.2491

> <b_lp_Chiralities_Consistent>
1

> <s_lp_Variant>
AV-unprocessed.smi:273-3

> <Gold.Version>
5.8.1

> <Gold.Id.Protein>
6NUR|6NUR_protein|mol2

> <Gold.PLP.Fitness>
43.6014

> <Gold.PLP.PLP>
-44.9685

> <Gold.PLP.part.hbond>
-0.0625

> <Gold.PLP.part.metal>
0.0000

> <Gold.PLP.part.buried>
-4.8034

> <Gold.PLP.part.nonpolar>
-42.8571

> <Gold.PLP.part.repulsive>
2.3550

> <Gold.PLP.ligand.clash>
0.0000

> <Gold.PLP.ligand.torsion>
0.9909

> <Gold.PLP.Chemscore.Hbond>
0.0000

> <Gold.PLP.Chemscore.CHOScore>
0.0000

> <Gold.PLP.Chemscore.Metal>
0.0000

> <Gold.PLP.Chemscore.Internal.Correction>
0.6148

> <Gold.Rescore>
     Score         DG    S(hbond)    S(metal)    S(lipo)     H(rot)  DE(clash)    DE(int)     intcor
      8.23     -10.21       0.00        0.00     110.97       3.22       0.73       1.25       ----

> <Gold.Chemscore.Fitness>
8.2326

> <Gold.Chemscore.DG>
-10.2089

> <Gold.Chemscore.ZeroCoef>
-5.4800

> <Gold.Chemscore.Hbond>
0.0000

> <Gold.Chemscore.Metal>
0.0000

> <Gold.Chemscore.Lipo>
110.9696

> <Gold.Chemscore.Internal_Hbond>
0.0000

> <Gold.Chemscore.DEClash>
0.7259

> <Gold.Chemscore.DEInternal>
1.2504

> <Gold.Chemscore.Rot>
3.2244

> <Gold.Chemscore.Internal.Correction>
   9.000000E+99

> <Gold.Chemscore.Hbond.Weighted>
-0.0000

> <Gold.Chemscore.Metal.Weighted>
-0.0000

> <Gold.Chemscore.Lipo.Weighted>
-12.9834

> <Gold.Chemscore.Internal_Hbond.Weighted>
0.0000

> <Gold.Chemscore.DEClash.Weighted>
0.7259

> <Gold.Chemscore.DEInternal.Weighted>
1.2504

> <Gold.Chemscore.Rot.Weighted>
8.2545

> <Gold.Chemscore.Internal.Correction.Weighted>
   9.000000E+99

> <Gold.Protein.RotatedTorsions>
[ 6907 6896 6895 6894 ] final -156.45 input  -60.11 | X-H torsion
[ 7974 7965 7964 7962 ] final  -16.47 input  175.53 | X-H torsion
[ 8008 7997 7996 7995 ] final  -81.40 input   59.86 | X-H torsion
[ 10167 10162 10161 10158 ] final   69.75 input  -65.29 | X-H torsion
[ 10718 10713 10712 10709 ] final  -98.75 input   66.30 | X-H torsion
[ 10763 10752 10751 10750 ] final -163.48 input  -60.55 | X-H torsion
[ 11005 11000 10999 10996 ] final -178.14 input  -57.11 | X-H torsion

> <Gold.Protein.ActiveResidues>
 VAL166  LYS551  ARG553  GLY616  TRP617  ASP618  TYR619  PRO620  LYS621  CYS622 
 ASP623  PHE694  ASN695  SER759  ASP760  ASP761  ALA762  ILE779  LEU786  VAL792 
 PHE793  MET794  SER795  GLU796  ALA797  LYS798  CYS799  TRP800  GLU811  SER814 

> <Gold.Protein.RotatedAtoms>
  151.2879  133.4179  159.2630 H   0  0  0  0  0  0  0  0  0  0  0  0  # atno 6907 bound_to 6896
  151.0303  134.9535  159.8118 H   0  0  0  0  0  0  0  0  0  0  0  0  # atno 6908 bound_to 6896
  152.5344  134.2840  159.9070 H   0  0  0  0  0  0  0  0  0  0  0  0  # atno 6909 bound_to 6896
  146.1986  140.3641  142.8431 H   0  0  0  0  0  0  0  0  0  0  0  0  # atno 7974 bound_to 7965
  154.5980  140.0648  156.9329 H   0  0  0  0  0  0  0  0  0  0  0  0  # atno 8008 bound_to 7997
  155.2181  140.3328  155.4301 H   0  0  0  0  0  0  0  0  0  0  0  0  # atno 8009 bound_to 7997
  156.2300  140.1836  156.7252 H   0  0  0  0  0  0  0  0  0  0  0  0  # atno 8010 bound_to 7997
  140.0644  144.5206  150.7271 H   0  0  0  0  0  0  0  0  0  0  0  0  # atno 10167 bound_to 10162
  156.0115  130.5252  150.6568 H   0  0  0  0  0  0  0  0  0  0  0  0  # atno 10718 bound_to 10713
  154.7119  135.3008  154.9184 H   0  0  0  0  0  0  0  0  0  0  0  0  # atno 10763 bound_to 10752
  154.0083  135.6698  153.4767 H   0  0  0  0  0  0  0  0  0  0  0  0  # atno 10764 bound_to 10752
  153.0762  135.5034  154.8322 H   0  0  0  0  0  0  0  0  0  0  0  0  # atno 10765 bound_to 10752
  140.4330  134.6501  157.4721 H   0  0  0  0  0  0  0  0  0  0  0  0  # atno 11005 bound_to 11000
  144.8633  140.7171  143.6093 LP  0  0  0  0  0  0  0  0  0  0  0  0  # atno 17320 bound_to 7965
  145.3561  139.1694  143.4408 LP  0  0  0  0  0  0  0  0  0  0  0  0  # atno 17321 bound_to 7965
  140.7156  143.2542  151.4443 LP  0  0  0  0  0  0  0  0  0  0  0  0  # atno 17342 bound_to 10162
  139.5874  144.1574  152.2046 LP  0  0  0  0  0  0  0  0  0  0  0  0  # atno 17343 bound_to 10162
  157.4319  131.0850  151.1030 LP  0  0  0  0  0  0  0  0  0  0  0  0  # atno 17370 bound_to 10713
  157.1601  130.6222  149.5608 LP  0  0  0  0  0  0  0  0  0  0  0  0  # atno 17371 bound_to 10713
  140.0121  134.6675  155.9365 LP  0  0  0  0  0  0  0  0  0  0  0  0  # atno 17394 bound_to 11000
  141.1737  133.6539  156.4749 LP  0  0  0  0  0  0  0  0  0  0  0  0  # atno 17395 bound_to 11000

$$$$
