AV-unprocessed.smi:1164|AV-procd|sdf|4926|dock5
  -GOLD-   22720 3503D 1   1.00000     0.00000
 Structure written by MMmdl.
 30 30  0  0  0  0  0  0  0  0  2 V2000
  152.2660  143.4801  160.3474 C   0  0  0  0  0  0  0  0  0  0  0  0
  151.6499  144.1298  159.0956 C   0  0  0  0  0  0  0  0  0  0  0  0
  150.6530  145.2218  159.5382 C   0  0  0  0  0  0  0  0  0  0  0  0
  152.7798  144.7394  158.2391 C   0  0  0  0  0  0  0  0  0  0  0  0
  150.9601  143.0644  158.3585 N   0  0  0  0  0  0  0  0  0  0  0  0
  151.4080  141.8349  158.0473 C   0  0  0  0  0  0  0  0  0  0  0  0
  152.5264  141.4182  158.3526 O   0  0  0  0  0  0  0  0  0  0  0  0
  150.4210  140.9583  157.2597 C   0  0  0  0  0  0  0  0  0  0  0  0
  150.9419  139.6290  156.9071 N   0  0  0  0  0  0  0  0  0  0  0  0
  151.2150  138.7773  158.0613 N   0  5  0  0  0  0  0  0  0  0  0  0
  151.6806  137.5162  157.8586 C   0  0  0  0  0  0  0  0  0  0  0  0
  151.9147  136.7361  158.7789 O   0  0  0  0  0  0  0  0  0  0  0  0
  151.9119  137.0837  156.4902 C   0  0  0  0  0  0  0  0  0  0  0  0
  151.6727  137.8997  155.4447 C   0  0  0  0  0  0  0  0  0  0  0  0
  151.1659  139.2560  155.6145 C   0  0  0  0  0  0  0  0  0  0  0  0
  150.9523  140.0094  154.6643 O   0  0  0  0  0  0  0  0  0  0  0  0
  152.8056  144.2115  160.9499 H   0  0  0  0  0  0  0  0  0  0  0  0
  152.9712  142.6916  160.0813 H   0  0  0  0  0  0  0  0  0  0  0  0
  151.4993  143.0347  160.9829 H   0  0  0  0  0  0  0  0  0  0  0  0
  149.8231  144.7958  160.1033 H   0  0  0  0  0  0  0  0  0  0  0  0
  150.2315  145.7613  158.6902 H   0  0  0  0  0  0  0  0  0  0  0  0
  151.1384  145.9609  160.1762 H   0  0  0  0  0  0  0  0  0  0  0  0
  153.3567  145.4671  158.8106 H   0  0  0  0  0  0  0  0  0  0  0  0
  152.3947  145.2569  157.3604 H   0  0  0  0  0  0  0  0  0  0  0  0
  153.4728  143.9719  157.8918 H   0  0  0  0  0  0  0  0  0  0  0  0
  150.0263  143.2890  158.0470 H   0  0  0  0  0  0  0  0  0  0  0  0
  149.5045  140.8478  157.8420 H   0  0  0  0  0  0  0  0  0  0  0  0
  150.1295  141.5014  156.3589 H   0  0  0  0  0  0  0  0  0  0  0  0
  152.2864  136.0871  156.3087 H   0  0  0  0  0  0  0  0  0  0  0  0
  151.8602  137.5373  154.4450 H   0  0  0  0  0  0  0  0  0  0  0  0
  1  2  1  0  0  0  0
  1 17  1  0  0  0  0
  1 18  1  0  0  0  0
  1 19  1  0  0  0  0
  2  3  1  0  0  0  0
  2  4  1  0  0  0  0
  2  5  1  0  0  0  0
  3 20  1  0  0  0  0
  3 21  1  0  0  0  0
  3 22  1  0  0  0  0
  4 23  1  0  0  0  0
  4 24  1  0  0  0  0
  4 25  1  0  0  0  0
  5  6  1  0  0  0  0
  5 26  1  0  0  0  0
  6  7  2  0  0  0  0
  6  8  1  0  0  0  0
  8 27  1  0  0  0  0
  8 28  1  0  0  0  0
  8  9  1  0  0  0  0
  9 10  1  0  0  0  0
  9 15  1  0  0  0  0
 10 11  1  0  0  0  0
 11 12  2  0  0  0  0
 11 13  1  0  0  0  0
 13 29  1  0  0  0  0
 13 14  2  0  0  0  0
 14 30  1  0  0  0  0
 14 15  1  0  0  0  0
 15 16  2  0  0  0  0
M  CHG  1  10  -1
M  END
> <s_m_source_file>
AV-unprocessed.smi

> <i_m_source_file_index>
1164

> <i_lp_mmshare_version>
43012

> <i_f3d_flags>
0

> <s_epik_input>
W0NIM11DKFtDSDNdKShbQ0gzXSlbTkhdQyg9TylbQ0gyXW4xW25IXWMoPU8pW2NIXVtjSF1jMT1P

> <s_epik_cmdline>
J2VwaWtfcHl0aG9uJywgJy1waCcsICc3LjAnLCAnLXRuJywgJzgnLCAnLW1hJywgJzIwMCcsICctbWV0YWxfYmluZGluZycsICctaW1hZScsICc8aW5maWxlLm1hZT4nLCAnLW9tYWUnLCAnPG91dGZpbGUubWFlPic=

> <r_lp_tautomer_probability>
1

> <r_epik_Ionization_Penalty>
0.098909

> <r_epik_Ionization_Penalty_Charging>
0.0989089

> <r_epik_Ionization_Penalty_Neutral>
2.46306e-08

> <r_epik_State_Penalty>
0.0348838

> <r_epik_Charging_Adjusted_Penalty>
0.133793

> <i_epik_Tot_Q>
-1

> <i_epik_Tot_abs_Q>
1

> <r_epik_Metal_State_Penalty>
0.0348839

> <b_epik_Metal_Only>
0

> <s_lp_Force_Field>
OPLS_2005

> <r_lp_Energy>
18.541

> <b_lp_Chiralities_Consistent>
1

> <s_lp_Variant>
AV-unprocessed.smi:1164-1

> <Gold.Version>
5.8.1

> <Gold.Id.Protein>
6NUR|6NUR_protein|mol2

> <Gold.PLP.Fitness>
34.5842

> <Gold.PLP.PLP>
-29.5949

> <Gold.PLP.part.hbond>
-2.0000

> <Gold.PLP.part.metal>
0.0000

> <Gold.PLP.part.buried>
-5.3780

> <Gold.PLP.part.nonpolar>
-22.3613

> <Gold.PLP.part.repulsive>
0.1230

> <Gold.PLP.ligand.clash>
0.0000

> <Gold.PLP.ligand.torsion>
0.2565

> <Gold.PLP.Chemscore.Hbond>
1.8320

> <Gold.PLP.Chemscore.CHOScore>
0.0000

> <Gold.PLP.Chemscore.Metal>
0.0000

> <Gold.Chemscore.Hbonds>
donor molecule, donor type, donor heavy atom, donor atom, acceptor molecule, acceptor atom, score
      P1  H  6896  6908       L1    12  0.80
      P1  H  7989  7998       L1    16  1.00

> <Gold.PLP.Chemscore.Internal.Correction>
0.0063

> <Gold.Rescore>
     Score         DG    S(hbond)    S(metal)    S(lipo)     H(rot)  DE(clash)    DE(int)     intcor
     13.88     -15.41       1.99        0.00      65.03       1.70       0.05       1.48       ----

> <Gold.Chemscore.Fitness>
13.8798

> <Gold.Chemscore.DG>
-15.4055

> <Gold.Chemscore.ZeroCoef>
-5.4800

> <Gold.Chemscore.Hbond>
1.9928

> <Gold.Chemscore.Metal>
0.0000

> <Gold.Chemscore.Lipo>
65.0325

> <Gold.Chemscore.Internal_Hbond>
0.0000

> <Gold.Chemscore.DEClash>
0.0483

> <Gold.Chemscore.DEInternal>
1.4774

> <Gold.Chemscore.Rot>
1.6950

> <Gold.Chemscore.Internal.Correction>
   9.000000E+99

> <Gold.Chemscore.Hbonds>
donor molecule, donor type, donor heavy atom, donor atom, acceptor molecule, acceptor atom, score
      P1  H  6896  6908       L1    12  0.76
      P1  H  7989  7998       L1    16  0.99

> <Gold.Chemscore.Hbond.Weighted>
-6.6560

> <Gold.Chemscore.Metal.Weighted>
-0.0000

> <Gold.Chemscore.Lipo.Weighted>
-7.6088

> <Gold.Chemscore.Internal_Hbond.Weighted>
0.0000

> <Gold.Chemscore.DEClash.Weighted>
0.0483

> <Gold.Chemscore.DEInternal.Weighted>
1.4774

> <Gold.Chemscore.Rot.Weighted>
4.3393

> <Gold.Chemscore.Internal.Correction.Weighted>
   9.000000E+99

> <Gold.Protein.RotatedTorsions>
[ 6907 6896 6895 6894 ] final -124.04 input  -60.11 | X-H torsion
[ 7974 7965 7964 7962 ] final -170.01 input  175.53 | X-H torsion
[ 8008 7997 7996 7995 ] final   -8.79 input   59.86 | X-H torsion
[ 10167 10162 10161 10158 ] final  -89.64 input  -65.29 | X-H torsion
[ 10718 10713 10712 10709 ] final -118.81 input   66.30 | X-H torsion
[ 10763 10752 10751 10750 ] final -177.56 input  -60.55 | X-H torsion
[ 11005 11000 10999 10996 ] final   61.22 input  -57.11 | X-H torsion

> <Gold.Protein.ActiveResidues>
 VAL166  LYS551  ARG553  GLY616  TRP617  ASP618  TYR619  PRO620  LYS621  CYS622 
 ASP623  PHE694  ASN695  SER759  ASP760  ASP761  ALA762  ILE779  LEU786  VAL792 
 PHE793  MET794  SER795  GLU796  ALA797  LYS798  CYS799  TRP800  GLU811  SER814 

> <Gold.Protein.RotatedAtoms>
  150.8729  133.7480  159.2955 H   0  0  0  0  0  0  0  0  0  0  0  0  # atno 6907 bound_to 6896
  151.5086  135.1063  159.9857 H   0  0  0  0  0  0  0  0  0  0  0  0  # atno 6908 bound_to 6896
  152.4708  133.7979  159.6993 H   0  0  0  0  0  0  0  0  0  0  0  0  # atno 6909 bound_to 6896
  144.7176  140.2136  143.6324 H   0  0  0  0  0  0  0  0  0  0  0  0  # atno 7974 bound_to 7965
  154.5707  140.2372  155.8195 H   0  0  0  0  0  0  0  0  0  0  0  0  # atno 8008 bound_to 7997
  156.2105  140.3027  155.9679 H   0  0  0  0  0  0  0  0  0  0  0  0  # atno 8009 bound_to 7997
  155.2717  140.0418  157.2998 H   0  0  0  0  0  0  0  0  0  0  0  0  # atno 8010 bound_to 7997
  140.3628  143.2833  151.9594 H   0  0  0  0  0  0  0  0  0  0  0  0  # atno 10167 bound_to 10162
  156.1134  130.6266  150.9338 H   0  0  0  0  0  0  0  0  0  0  0  0  # atno 10718 bound_to 10713
  154.5586  135.2818  155.0941 H   0  0  0  0  0  0  0  0  0  0  0  0  # atno 10763 bound_to 10752
  154.2359  135.6366  153.5194 H   0  0  0  0  0  0  0  0  0  0  0  0  # atno 10764 bound_to 10752
  153.0022  135.5548  154.6173 H   0  0  0  0  0  0  0  0  0  0  0  0  # atno 10765 bound_to 10752
  140.0176  134.6201  155.9687 H   0  0  0  0  0  0  0  0  0  0  0  0  # atno 11005 bound_to 11000
  145.8568  139.2202  143.1740 LP  0  0  0  0  0  0  0  0  0  0  0  0  # atno 17320 bound_to 7965
  146.0210  140.8347  142.9923 LP  0  0  0  0  0  0  0  0  0  0  0  0  # atno 17321 bound_to 7965
  139.4812  144.5977  151.7661 LP  0  0  0  0  0  0  0  0  0  0  0  0  # atno 17342 bound_to 10162
  140.5110  144.1025  150.5995 LP  0  0  0  0  0  0  0  0  0  0  0  0  # atno 17343 bound_to 10162
  157.6316  131.0920  150.8430 LP  0  0  0  0  0  0  0  0  0  0  0  0  # atno 17370 bound_to 10713
  156.8537  130.5089  149.5309 LP  0  0  0  0  0  0  0  0  0  0  0  0  # atno 17371 bound_to 10713
  141.1753  133.6540  156.4805 LP  0  0  0  0  0  0  0  0  0  0  0  0  # atno 17394 bound_to 11000
  140.4443  134.6986  157.5008 LP  0  0  0  0  0  0  0  0  0  0  0  0  # atno 17395 bound_to 11000

$$$$
