AV-unprocessed.smi:1507|AV-procd|sdf|6083|dock5
  -GOLD-   22720 6203D 1   1.00000     0.00000
 Structure written by MMmdl.
 33 34  0  0  0  0  0  0  0  0  2 V2000
  149.0519  135.1009  154.4730 N   0  5  0  0  0  0  0  0  0  0  0  0
  149.9874  135.9768  155.4547 S   0  0  0  0  0  0  0  0  0  0  0  0
  149.2443  136.9996  156.2069 O   0  0  0  0  0  0  0  0  0  0  0  0
  150.9925  135.1690  156.1625 O   0  0  0  0  0  0  0  0  0  0  0  0
  150.8485  136.8197  154.2199 N   0  0  0  0  0  0  0  0  0  0  0  0
  150.6059  138.2377  153.9542 C   0  0  0  0  0  0  0  0  0  0  0  0
  151.0247  139.1200  155.1128 C   0  0  0  0  0  0  0  0  0  0  0  0
  150.1299  140.0491  155.6770 C   0  0  0  0  0  0  0  0  0  0  0  0
  150.5672  140.8498  156.7497 C   0  0  0  0  0  0  0  0  0  0  0  0
  151.8910  140.7008  157.2292 C   0  0  0  0  0  0  0  0  0  0  0  0
  152.3501  141.4918  158.3052 N   0  0  0  0  0  0  0  0  0  0  0  0
  152.1622  142.9330  158.1570 C   0  0  0  0  0  0  0  0  0  0  0  0
  152.9667  143.6912  159.2272 C   0  0  0  0  0  0  0  0  0  0  0  0
  152.6144  143.2172  160.5226 O   0  0  0  0  0  0  0  0  0  0  0  0
  152.9140  141.8344  160.6791 C   0  0  0  0  0  0  0  0  0  0  0  0
  152.1036  141.0114  159.6639 C   0  0  0  0  0  0  0  0  0  0  0  0
  152.7509  139.8109  156.6732 N   0  0  0  0  0  0  0  0  0  0  0  0
  152.3261  139.0443  155.6465 C   0  0  0  0  0  0  0  0  0  0  0  0
  149.0185  135.5692  153.5596 H   0  0  0  0  0  0  0  0  0  0  0  0
  151.1129  136.2526  153.4152 H   0  0  0  0  0  0  0  0  0  0  0  0
  151.1511  138.5405  153.0597 H   0  0  0  0  0  0  0  0  0  0  0  0
  149.5470  138.3836  153.7397 H   0  0  0  0  0  0  0  0  0  0  0  0
  149.1252  140.1513  155.2934 H   0  0  0  0  0  0  0  0  0  0  0  0
  149.8912  141.5748  157.1777 H   0  0  0  0  0  0  0  0  0  0  0  0
  152.4683  143.2819  157.1720 H   0  0  0  0  0  0  0  0  0  0  0  0
  151.1004  143.1609  158.2580 H   0  0  0  0  0  0  0  0  0  0  0  0
  154.0391  143.5725  159.0638 H   0  0  0  0  0  0  0  0  0  0  0  0
  152.7528  144.7586  159.1703 H   0  0  0  0  0  0  0  0  0  0  0  0
  153.9846  141.6660  160.5506 H   0  0  0  0  0  0  0  0  0  0  0  0
  152.6635  141.5292  161.6952 H   0  0  0  0  0  0  0  0  0  0  0  0
  151.0383  141.0882  159.8871 H   0  0  0  0  0  0  0  0  0  0  0  0
  152.3812  139.9600  159.7489 H   0  0  0  0  0  0  0  0  0  0  0  0
  153.0478  138.3517  155.2389 H   0  0  0  0  0  0  0  0  0  0  0  0
  1  2  1  0  0  0  0
  1 19  1  0  0  0  0
  2  3  2  0  0  0  0
  2  4  2  0  0  0  0
  2  5  1  0  0  0  0
  5  6  1  0  0  0  0
  5 20  1  0  0  0  0
  6  7  1  0  0  0  0
  6 21  1  0  0  0  0
  6 22  1  0  0  0  0
  7 18  1  0  0  0  0
  7  8  2  0  0  0  0
  8  9  1  0  0  0  0
  8 23  1  0  0  0  0
  9 10  2  0  0  0  0
  9 24  1  0  0  0  0
 10 11  1  0  0  0  0
 10 17  1  0  0  0  0
 11 16  1  0  0  0  0
 11 12  1  0  0  0  0
 12 13  1  0  0  0  0
 12 25  1  0  0  0  0
 12 26  1  0  0  0  0
 13 14  1  0  0  0  0
 13 27  1  0  0  0  0
 13 28  1  0  0  0  0
 14 15  1  0  0  0  0
 15 16  1  0  0  0  0
 15 29  1  0  0  0  0
 15 30  1  0  0  0  0
 16 31  1  0  0  0  0
 16 32  1  0  0  0  0
 17 18  2  0  0  0  0
 18 33  1  0  0  0  0
M  CHG  1   1  -1
M  END
> <s_m_source_file>
AV-unprocessed.smi

> <i_m_source_file_index>
1507

> <i_lp_mmshare_version>
43012

> <i_f3d_flags>
0

> <s_epik_input>
W05IMl1TKD1PKSg9TylbTkhdW0NIMl1jMVtjSF1bY0hdYyhuW2NIXTEpTjJbQ0gyXVtDSDJdT1tDSDJdW0NIMl0y

> <s_epik_cmdline>
J2VwaWtfcHl0aG9uJywgJy1waCcsICc3LjAnLCAnLXRuJywgJzgnLCAnLW1hJywgJzIwMCcsICctbWV0YWxfYmluZGluZycsICctaW1hZScsICc8aW5maWxlLm1hZT4nLCAnLW9tYWUnLCAnPG91dGZpbGUubWFlPic=

> <r_lp_tautomer_probability>
1

> <r_epik_Ionization_Penalty>
2.76303

> <r_epik_Ionization_Penalty_Charging>
2.75358

> <r_epik_Ionization_Penalty_Neutral>
0.00945218

> <r_epik_State_Penalty>
2.93489

> <r_epik_Charging_Adjusted_Penalty>
5.68847

> <i_epik_Tot_Q>
-1

> <i_epik_Tot_abs_Q>
1

> <r_epik_Metal_State_Penalty>
0.838637

> <b_epik_Metal_Only>
1

> <s_lp_Force_Field>
OPLS_2005

> <r_lp_Energy>
17.9143

> <b_lp_Chiralities_Consistent>
1

> <s_lp_Variant>
AV-unprocessed.smi:1507-4

> <Gold.Version>
5.8.1

> <Gold.Id.Protein>
6NUR|6NUR_protein|mol2

> <Gold.PLP.Fitness>
43.3847

> <Gold.PLP.PLP>
-32.0064

> <Gold.PLP.part.hbond>
-5.0000

> <Gold.PLP.part.metal>
0.0000

> <Gold.PLP.part.buried>
-2.7907

> <Gold.PLP.part.nonpolar>
-24.7619

> <Gold.PLP.part.repulsive>
0.1799

> <Gold.PLP.ligand.clash>
0.0000

> <Gold.PLP.ligand.torsion>
1.0072

> <Gold.PLP.Chemscore.Hbond>
4.0000

> <Gold.PLP.Chemscore.CHOScore>
0.0000

> <Gold.PLP.Chemscore.Metal>
0.0000

> <Gold.Chemscore.Hbonds>
donor molecule, donor type, donor heavy atom, donor atom, acceptor molecule, acceptor atom, score
      L1  H     1    19       P1  7948  1.00
      L1  H     5    20       P1  7949  1.00
      P1  H  7997  8010       L1    17  1.00
      P1  H 10752 10764       L1     4  0.03

> <Gold.PLP.Chemscore.Internal.Correction>
1.3928

> <Gold.Rescore>
     Score         DG    S(hbond)    S(metal)    S(lipo)     H(rot)  DE(clash)    DE(int)     intcor
     17.28     -19.26       2.93        0.00      75.20       1.88       0.13       1.85       ----

> <Gold.Chemscore.Fitness>
17.2779

> <Gold.Chemscore.DG>
-19.2571

> <Gold.Chemscore.ZeroCoef>
-5.4800

> <Gold.Chemscore.Hbond>
2.9328

> <Gold.Chemscore.Metal>
0.0000

> <Gold.Chemscore.Lipo>
75.1978

> <Gold.Chemscore.Internal_Hbond>
0.0000

> <Gold.Chemscore.DEClash>
0.1308

> <Gold.Chemscore.DEInternal>
1.8484

> <Gold.Chemscore.Rot>
1.8814

> <Gold.Chemscore.Internal.Correction>
   9.000000E+99

> <Gold.Chemscore.Hbonds>
donor molecule, donor type, donor heavy atom, donor atom, acceptor molecule, acceptor atom, score
      L1  H     1    19       P1  7948  0.78
      L1  H     5    20       P1  7949  0.33
      P1  H  7997  8010       L1    17  0.49
      P1  H 10752 10764       L1     4  0.05

> <Gold.Chemscore.Hbond.Weighted>
-9.7954

> <Gold.Chemscore.Metal.Weighted>
-0.0000

> <Gold.Chemscore.Lipo.Weighted>
-8.7981

> <Gold.Chemscore.Internal_Hbond.Weighted>
0.0000

> <Gold.Chemscore.DEClash.Weighted>
0.1308

> <Gold.Chemscore.DEInternal.Weighted>
1.8484

> <Gold.Chemscore.Rot.Weighted>
4.8165

> <Gold.Chemscore.Internal.Correction.Weighted>
   9.000000E+99

> <Gold.Protein.RotatedTorsions>
[ 6907 6896 6895 6894 ] final  154.60 input  -60.11 | X-H torsion
[ 7974 7965 7964 7962 ] final  -53.03 input  175.53 | X-H torsion
[ 8008 7997 7996 7995 ] final   79.03 input   59.86 | X-H torsion
[ 10167 10162 10161 10158 ] final  -74.98 input  -65.29 | X-H torsion
[ 10718 10713 10712 10709 ] final   24.60 input   66.30 | X-H torsion
[ 10763 10752 10751 10750 ] final  -36.97 input  -60.55 | X-H torsion
[ 11005 11000 10999 10996 ] final -133.96 input  -57.11 | X-H torsion

> <Gold.Protein.ActiveResidues>
 VAL166  LYS551  ARG553  GLY616  TRP617  ASP618  TYR619  PRO620  LYS621  CYS622 
 ASP623  PHE694  ASN695  SER759  ASP760  ASP761  ALA762  ILE779  LEU786  VAL792 
 PHE793  MET794  SER795  GLU796  ALA797  LYS798  CYS799  TRP800  GLU811  SER814 

> <Gold.Protein.RotatedAtoms>
  152.0561  133.4041  159.4397 H   0  0  0  0  0  0  0  0  0  0  0  0  # atno 6907 bound_to 6896
  150.6868  134.3253  159.4813 H   0  0  0  0  0  0  0  0  0  0  0  0  # atno 6908 bound_to 6896
  152.1069  134.9302  160.0618 H   0  0  0  0  0  0  0  0  0  0  0  0  # atno 6909 bound_to 6896
  145.9014  140.7991  142.9741 H   0  0  0  0  0  0  0  0  0  0  0  0  # atno 7974 bound_to 7965
  155.8641  140.3452  155.5776 H   0  0  0  0  0  0  0  0  0  0  0  0  # atno 8008 bound_to 7997
  155.7901  140.0870  157.2033 H   0  0  0  0  0  0  0  0  0  0  0  0  # atno 8009 bound_to 7997
  154.4013  140.1485  156.3140 H   0  0  0  0  0  0  0  0  0  0  0  0  # atno 8010 bound_to 7997
  140.4981  143.2366  151.7797 H   0  0  0  0  0  0  0  0  0  0  0  0  # atno 10167 bound_to 10162
  157.1819  130.6807  149.6116 H   0  0  0  0  0  0  0  0  0  0  0  0  # atno 10718 bound_to 10713
  153.8886  135.6814  153.4762 H   0  0  0  0  0  0  0  0  0  0  0  0  # atno 10763 bound_to 10752
  153.1194  135.4747  154.9167 H   0  0  0  0  0  0  0  0  0  0  0  0  # atno 10764 bound_to 10752
  154.7634  135.3217  154.8287 H   0  0  0  0  0  0  0  0  0  0  0  0  # atno 10765 bound_to 10752
  140.9033  134.1662  157.4444 H   0  0  0  0  0  0  0  0  0  0  0  0  # atno 11005 bound_to 11000
  144.6736  140.1683  143.7416 LP  0  0  0  0  0  0  0  0  0  0  0  0  # atno 17320 bound_to 7965
  145.8786  139.2311  143.1618 LP  0  0  0  0  0  0  0  0  0  0  0  0  # atno 17321 bound_to 7965
  139.4866  144.4559  151.9599 LP  0  0  0  0  0  0  0  0  0  0  0  0  # atno 17342 bound_to 10162
  140.3647  144.2929  150.5928 LP  0  0  0  0  0  0  0  0  0  0  0  0  # atno 17343 bound_to 10162
  155.9723  130.4643  150.6215 LP  0  0  0  0  0  0  0  0  0  0  0  0  # atno 17370 bound_to 10713
  157.3944  131.0800  151.1365 LP  0  0  0  0  0  0  0  0  0  0  0  0  # atno 17371 bound_to 10713
  139.8745  134.9907  156.5514 LP  0  0  0  0  0  0  0  0  0  0  0  0  # atno 17394 bound_to 11000
  140.8202  133.8360  155.8889 LP  0  0  0  0  0  0  0  0  0  0  0  0  # atno 17395 bound_to 11000

$$$$
