#       Name:                AV-unprocessed.smi:2063
#       Creating user name   scv26
#       Creation time:       Fri Mar 27 11:10:43 2020


#       File generated by GOLD software.
#

@<TRIPOS>MOLECULE
AV-unprocessed.smi:2063
    45    46     1
SMALL
NO_CHARGES


@<TRIPOS>ATOM
      1 ****        -6.2072   0.4901   0.1761 C.3            1 S1                 0.0000
      2 ****        -5.2751   1.7038   0.0495 C.3            1 S1                 0.0000
      3 ****        -5.9198   2.8846  -0.6912 C.3            1 S1                 0.0000
      4 ****        -3.9439   1.3353  -0.5277 C.2            1 S1                 0.0000
      5 ****        -3.7895   0.8711  -1.7717 N.2            1 S1                 0.0000
      6 ****        -2.4614   0.6066  -2.0720 N.2            1 S1                 0.0000
      7 ****        -1.6309   0.8634  -1.0518 C.2            1 S1                 0.0000
      8 ****        -0.3031   0.6797  -1.1377 N.pl3          1 S1                -1.0000
      9 ****         0.2551  -0.4561  -0.6607 C.2            1 S1                 0.0000
     10 ****        -0.3439  -1.4041  -0.1482 O.2            1 S1                 0.0000
     11 ****         1.5898  -0.4898  -0.7829 N.am           1 S1                 0.0000
     12 ****         2.4778  -1.5636  -0.3396 C.3            1 S1                 0.0000
     13 ****         2.7433  -2.5284  -1.5056 C.3            1 S1                 0.0000
     14 ****         3.7801  -0.9594   0.2187 C.3            1 S1                 0.0000
     15 ****         3.5832   0.0081   1.3897 C.3            1 S1                 0.0000
     16 ****         4.8776  -0.1029   2.1820 C.3            1 S1                 0.0000
     17 ****         5.5963  -1.3023   1.5604 C.3            1 S1                 0.0000
     18 ****         4.6010  -1.9642   0.7944 O.3            1 S1                 0.0000
     19 ****        -2.4486   1.4840   0.3814 S.3            1 S1                 0.0000
     20 ****        -5.7511  -0.2928   0.7829 H              1 S1                 0.0000
     21 ****        -6.4372   0.0635  -0.8007 H              1 S1                 0.0000
     22 ****        -7.1501   0.7669   0.6482 H              1 S1                 0.0000
     23 ****        -5.0830   2.0491   1.0662 H              1 S1                 0.0000
     24 ****        -5.2596   3.7525  -0.6934 H              1 S1                 0.0000
     25 ****        -6.8556   3.1821  -0.2173 H              1 S1                 0.0000
     26 ****        -6.1394   2.6296  -1.7285 H              1 S1                 0.0000
     27 ****         2.0295   0.3100  -1.2137 H              1 S1                 0.0000
     28 ****         2.0003  -2.1237   0.4662 H              1 S1                 0.0000
     29 ****         3.3887  -3.3508  -1.1965 H              1 S1                 0.0000
     30 ****         3.2278  -2.0196  -2.3396 H              1 S1                 0.0000
     31 ****         1.8139  -2.9628  -1.8750 H              1 S1                 0.0000
     32 ****         4.3399  -0.4626  -0.5765 H              1 S1                 0.0000
     33 ****         3.3760   1.0258   1.0577 H              1 S1                 0.0000
     34 ****         2.7478  -0.3158   2.0121 H              1 S1                 0.0000
     35 ****         5.4830   0.8004   2.1020 H              1 S1                 0.0000
     36 ****         4.6643  -0.2720   3.2380 H              1 S1                 0.0000
     37 ****         6.3955  -0.9689   0.8968 H              1 S1                 0.0000
     38 ****         6.0292  -1.9672   2.3080 H              1 S1                 0.0000
     39 ****        -4.5446   0.7307  -2.4121 LP             1 S1                 0.0000
     40 ****        -2.1550   0.2600  -2.9585 LP             1 S1                 0.0000
     41 ****         0.2729   1.3830  -1.5545 LP             1 S1                 0.0000
     42 ****        -1.3391  -1.3752  -0.0550 LP             1 S1                 0.0000
     43 ****         0.1655  -2.2019   0.1743 LP             1 S1                 0.0000
     44 ****         5.0292  -2.5111   0.0750 LP             1 S1                 0.0000
     45 ****         4.0535  -2.5584   1.3836 LP             1 S1                 0.0000
@<TRIPOS>BOND
    1    1    2 1     
    2    1   20 1     
    3    1   21 1     
    4    1   22 1     
    5    2    3 1     
    6    2    4 1     
    7    2   23 1     
    8    3   24 1     
    9    3   25 1     
   10    3   26 1     
   11    4   19 1     
   12    4    5 2     
   13    5    6 1     
   14    6    7 2     
   15    7    8 1     
   16    7   19 1     
   17    8    9 1     
   18    9   10 2     
   19    9   11 am    
   20   11   12 1     
   21   11   27 1     
   22   12   13 1     
   23   12   14 1     
   24   12   28 1     
   25   13   29 1     
   26   13   30 1     
   27   13   31 1     
   28   14   18 1     
   29   14   15 1     
   30   14   32 1     
   31   15   16 1     
   32   15   33 1     
   33   15   34 1     
   34   16   17 1     
   35   16   35 1     
   36   16   36 1     
   37   17   18 1     
   38   17   37 1     
   39   17   38 1     
   40    5   39 1     
   41    6   40 1     
   42    8   41 1     
   43   10   42 1     
   44   10   43 1     
   45   18   44 1     
   46   18   45 1     
@<TRIPOS>SUBSTRUCTURE
      1 S1             1
@<TRIPOS>SET
LONE_PAIRS      STATIC     ATOMS    <user>   **** ""
7 39 40 41 42 43 44 45
DONOR_HYDROGENS      STATIC     ATOMS    <user>   **** ""
1 27
ATOM$BLUE        STATIC     ATOMS    COLORGROUP SYSTEM
7 39 40 41 42 43 44 45
ATOM$RED        STATIC     ATOMS    COLORGROUP SYSTEM
1 27
