#       Name:                AV-unprocessed.smi:234
#       Creating user name   scv26
#       Creation time:       Thu Mar 26 20:34:28 2020


#       File generated by GOLD software.
#

@<TRIPOS>MOLECULE
AV-unprocessed.smi:234
    69    72     1
SMALL
NO_CHARGES


@<TRIPOS>ATOM
      1 ****        -6.8079   1.6739   0.5235 C.3            1 S1                 0.0000
      2 ****        -5.5265   2.1467  -0.1761 C.3            1 S1                 0.0000
      3 ****        -4.5311   2.5195   0.7666 O.3            1 S1                 0.0000
      4 ****        -3.8023   1.4260   1.3164 C.3            1 S1                 0.0000
      5 ****        -2.6244   1.0193   0.4263 C.3            1 S1                 0.0000
      6 ****        -1.7981   2.0543   1.2032 C.3            1 S1                 0.0000
      7 ****        -0.4170   1.6393   1.4737 N.3            1 S1                 0.0000
      8 ****         0.3537   2.4300   2.4270 C.3            1 S1                 0.0000
      9 ****         0.3447   1.2583   0.4178 C.ar           1 S1                 0.0000
     10 ****         0.1367   1.8059  -0.8096 N.ar           1 S1                 0.0000
     11 ****         0.8995   1.4444  -1.8453 C.ar           1 S1                 0.0000
     12 ****         1.9084   0.5714  -1.8742 N.ar           1 S1                 0.0000
     13 ****         2.1222   0.0205  -0.6451 C.ar           1 S1                 0.0000
     14 ****         1.3963   0.3093   0.5445 C.ar           1 S1                 0.0000
     15 ****         1.8981  -0.4406   1.6011 N.2            1 S1                 0.0000
     16 ****         2.8684  -1.1311   1.0674 C.2            1 S1                 0.0000
     17 ****         3.0659  -0.9240  -0.2796 N.pl3          1 S1                 0.0000
     18 ****         4.0685  -1.5629  -1.1189 C.3            1 S1                 0.0000
     19 ****         3.6017  -2.9151  -1.7198 C.3            1 S1                 0.0000
     20 ****         3.2994  -3.7900  -0.6453 O.3            1 S1                 0.0000
     21 ****         2.3543  -2.8008  -2.5917 C.3            1 S1                 0.0000
     22 ****         2.5148  -3.9527  -3.5715 C.3            1 S1                 0.0000
     23 ****         3.9018  -3.9167  -3.8556 O.3            1 S1                 0.0000
     24 ****         4.6127  -3.6435  -2.6506 C.3            1 S1                 0.0000
     25 ****         5.8865  -2.8716  -3.0286 C.3            1 S1                 0.0000
     26 ****        -2.7821   1.8743   2.3938 C.3            1 S1                 0.0000
     27 ****        -3.1564   3.1356   3.1781 C.3            1 S1                 0.0000
     28 ****        -2.4535   0.7885   3.4323 C.3            1 S1                 0.0000
     29 ****        -7.5922   1.4691  -0.2053 H              1 S1                 0.0000
     30 ****        -7.1814   2.4352   1.2085 H              1 S1                 0.0000
     31 ****        -6.6459   0.7600   1.0944 H              1 S1                 0.0000
     32 ****        -5.1547   1.3896  -0.8677 H              1 S1                 0.0000
     33 ****        -5.7573   3.0275  -0.7753 H              1 S1                 0.0000
     34 ****        -4.4294   0.5938   1.6379 H              1 S1                 0.0000
     35 ****        -2.3064  -0.0121   0.5878 H              1 S1                 0.0000
     36 ****        -2.7443   1.2396  -0.6346 H              1 S1                 0.0000
     37 ****        -1.8764   3.0475   0.7565 H              1 S1                 0.0000
     38 ****         1.0087   3.1374   1.9161 H              1 S1                 0.0000
     39 ****         0.9687   1.7810   3.0504 H              1 S1                 0.0000
     40 ****        -0.2955   3.0026   3.0869 H              1 S1                 0.0000
     41 ****         0.6691   1.9243  -2.7851 H              1 S1                 0.0000
     42 ****         3.4675  -1.8211   1.6442 H              1 S1                 0.0000
     43 ****         4.3344  -0.8621  -1.9106 H              1 S1                 0.0000
     44 ****         4.9678  -1.7058  -0.5183 H              1 S1                 0.0000
     45 ****         2.5950  -3.4119  -0.1417 H              1 S1                 0.0000
     46 ****         1.4178  -2.8362  -2.0333 H              1 S1                 0.0000
     47 ****         2.3722  -1.8657  -3.1524 H              1 S1                 0.0000
     48 ****         2.2549  -4.9056  -3.1081 H              1 S1                 0.0000
     49 ****         1.9153  -3.8283  -4.4733 H              1 S1                 0.0000
     50 ****         4.9078  -4.6009  -2.2165 H              1 S1                 0.0000
     51 ****         6.4899  -2.6431  -2.1502 H              1 S1                 0.0000
     52 ****         5.6519  -1.9360  -3.5368 H              1 S1                 0.0000
     53 ****         6.5060  -3.4624  -3.7036 H              1 S1                 0.0000
     54 ****        -2.3970   3.4004   3.9134 H              1 S1                 0.0000
     55 ****        -4.0969   3.0038   3.7139 H              1 S1                 0.0000
     56 ****        -3.2766   3.9977   2.5216 H              1 S1                 0.0000
     57 ****        -1.6482   1.0958   4.1000 H              1 S1                 0.0000
     58 ****        -2.1414  -0.1459   2.9650 H              1 S1                 0.0000
     59 ****        -3.3201   0.5607   4.0539 H              1 S1                 0.0000
     60 ****        -4.9778   3.0066   1.5171 LP             1 S1                 0.0000
     61 ****        -3.8829   3.1304   0.3120 LP             1 S1                 0.0000
     62 ****        -0.6479   0.7935   1.9545 LP             1 S1                 0.0000
     63 ****        -0.5895   2.4814  -0.9373 LP             1 S1                 0.0000
     64 ****         2.4395   0.3497  -2.6920 LP             1 S1                 0.0000
     65 ****         1.5874  -0.4492   2.5516 LP             1 S1                 0.0000
     66 ****         4.1060  -3.9037  -0.0652 LP             1 S1                 0.0000
     67 ****         3.0184  -4.6802  -1.0035 LP             1 S1                 0.0000
     68 ****         4.0887  -3.1984  -4.5258 LP             1 S1                 0.0000
     69 ****         4.1922  -4.7999  -4.2238 LP             1 S1                 0.0000
@<TRIPOS>BOND
    1    1    2 1     
    2    1   29 1     
    3    1   30 1     
    4    1   31 1     
    5    2    3 1     
    6    2   32 1     
    7    2   33 1     
    8    3    4 1     
    9    4   26 1     
   10    4    5 1     
   11    4   34 1     
   12    5    6 1     
   13    5   35 1     
   14    5   36 1     
   15    6    7 1     
   16    6   26 1     
   17    6   37 1     
   18    7    8 1     
   19    7    9 1     
   20    8   38 1     
   21    8   39 1     
   22    8   40 1     
   23    9   14 ar    
   24    9   10 ar    
   25   10   11 ar    
   26   11   12 ar    
   27   11   41 1     
   28   12   13 ar    
   29   13   17 1     
   30   13   14 ar    
   31   14   15 1     
   32   15   16 2     
   33   16   17 1     
   34   16   42 1     
   35   17   18 1     
   36   18   19 1     
   37   18   43 1     
   38   18   44 1     
   39   19   24 1     
   40   19   20 1     
   41   19   21 1     
   42   20   45 1     
   43   21   22 1     
   44   21   46 1     
   45   21   47 1     
   46   22   23 1     
   47   22   48 1     
   48   22   49 1     
   49   23   24 1     
   50   24   25 1     
   51   24   50 1     
   52   25   51 1     
   53   25   52 1     
   54   25   53 1     
   55   26   27 1     
   56   26   28 1     
   57   27   54 1     
   58   27   55 1     
   59   27   56 1     
   60   28   57 1     
   61   28   58 1     
   62   28   59 1     
   63    3   60 1     
   64    3   61 1     
   65    7   62 1     
   66   10   63 1     
   67   12   64 1     
   68   15   65 1     
   69   20   66 1     
   70   20   67 1     
   71   23   68 1     
   72   23   69 1     
@<TRIPOS>SUBSTRUCTURE
      1 S1             1
@<TRIPOS>SET
LONE_PAIRS      STATIC     ATOMS    <user>   **** ""
10 60 61 62 63 64 65 66 67 68 69
DONOR_HYDROGENS      STATIC     ATOMS    <user>   **** ""
1 45
ATOM$BLUE        STATIC     ATOMS    COLORGROUP SYSTEM
10 60 61 62 63 64 65 66 67 68 69
ATOM$RED        STATIC     ATOMS    COLORGROUP SYSTEM
1 45
