AV-unprocessed.smi:362|AV-procd|sdf|2422|dock3
  -GOLD-   2262022363D 1   1.00000     0.00000
 Structure written by MMmdl.
 35 37  0  0  0  0  0  0  0  0  2 V2000
  151.9306  139.7755  154.9641 O   0  0  0  0  0  0  0  0  0  0  0  0
  151.0228  138.9903  154.6877 C   0  0  0  0  0  0  0  0  0  0  0  0
  151.3395  137.5311  154.3352 C   0  0  0  0  0  0  0  0  0  0  0  0
  150.8153  136.5840  155.3320 N   0  0  0  0  0  0  0  0  0  0  0  0
  149.4968  136.1237  155.1690 C   0  0  0  0  0  0  0  0  0  0  0  0
  148.9336  135.2607  156.0359 C   0  0  0  0  0  0  0  0  0  0  0  0
  149.7290  134.8013  157.1678 C   0  0  0  0  0  0  0  0  0  0  0  0
  149.2332  134.0078  157.9655 O   0  0  0  0  0  0  0  0  0  0  0  0
  151.0017  135.2814  157.2859 N   0  5  0  0  0  0  0  0  0  0  0  0
  151.5602  136.1616  156.3983 C   0  0  0  0  0  0  0  0  0  0  0  0
  152.7100  136.5851  156.5251 O   0  0  0  0  0  0  0  0  0  0  0  0
  149.7227  139.3265  154.6931 N   0  0  0  0  0  0  0  0  0  0  0  0
  149.1627  140.6492  154.9608 C   0  0  0  0  0  0  0  0  0  0  0  0
  149.4858  141.1771  156.3508 C   0  0  0  0  0  0  0  0  0  0  0  0
  150.8534  141.7224  156.6855 C   0  0  0  0  0  0  0  0  0  0  0  0
  150.3926  140.4114  157.2832 C   0  0  0  0  0  0  0  0  0  0  0  0
  147.6734  140.7608  154.6691 C   0  0  0  0  0  0  0  0  0  0  0  0
  147.1494  140.7396  153.2535 C   0  0  0  0  0  0  0  0  0  0  0  0
  147.0859  142.0143  154.0651 C   0  0  0  0  0  0  0  0  0  0  0  0
  150.9209  137.3216  153.3501 H   0  0  0  0  0  0  0  0  0  0  0  0
  152.4174  137.3973  154.2231 H   0  0  0  0  0  0  0  0  0  0  0  0
  148.9748  136.5174  154.3093 H   0  0  0  0  0  0  0  0  0  0  0  0
  147.9179  134.9197  155.8991 H   0  0  0  0  0  0  0  0  0  0  0  0
  149.0600  138.6029  154.4552 H   0  0  0  0  0  0  0  0  0  0  0  0
  149.6704  141.3049  154.2522 H   0  0  0  0  0  0  0  0  0  0  0  0
  148.6524  141.6901  156.8272 H   0  0  0  0  0  0  0  0  0  0  0  0
  151.6235  141.6775  155.9182 H   0  0  0  0  0  0  0  0  0  0  0  0
  150.9003  142.5874  157.3437 H   0  0  0  0  0  0  0  0  0  0  0  0
  150.1288  140.4007  158.3386 H   0  0  0  0  0  0  0  0  0  0  0  0
  150.8498  139.4982  156.9076 H   0  0  0  0  0  0  0  0  0  0  0  0
  147.0456  140.2691  155.4099 H   0  0  0  0  0  0  0  0  0  0  0  0
  147.8755  140.6956  152.4441 H   0  0  0  0  0  0  0  0  0  0  0  0
  146.2165  140.2095  153.0727 H   0  0  0  0  0  0  0  0  0  0  0  0
  146.1106  142.3346  154.4256 H   0  0  0  0  0  0  0  0  0  0  0  0
  147.7674  142.8162  153.7891 H   0  0  0  0  0  0  0  0  0  0  0  0
  1  2  2  0  0  0  0
  2  3  1  0  0  0  0
  2 12  1  0  0  0  0
  3  4  1  0  0  0  0
  3 20  1  0  0  0  0
  3 21  1  0  0  0  0
  4 10  1  0  0  0  0
  4  5  1  0  0  0  0
  5  6  2  0  0  0  0
  5 22  1  0  0  0  0
  6  7  1  0  0  0  0
  6 23  1  0  0  0  0
  7  8  2  0  0  0  0
  7  9  1  0  0  0  0
  9 10  1  0  0  0  0
 10 11  2  0  0  0  0
 12 13  1  0  0  0  0
 12 24  1  0  0  0  0
 13 14  1  0  0  0  0
 13 17  1  0  0  0  0
 13 25  1  0  0  0  0
 14 16  1  0  0  0  0
 14 15  1  0  0  0  0
 14 26  1  0  0  0  0
 15 16  1  0  0  0  0
 15 27  1  0  0  0  0
 15 28  1  0  0  0  0
 16 29  1  0  0  0  0
 16 30  1  0  0  0  0
 17 19  1  0  0  0  0
 17 18  1  0  0  0  0
 17 31  1  0  0  0  0
 18 19  1  0  0  0  0
 18 32  1  0  0  0  0
 18 33  1  0  0  0  0
 19 34  1  0  0  0  0
 19 35  1  0  0  0  0
M  CHG  1   9  -1
M  END
> <s_m_source_file>
AV-unprocessed.smi

> <i_m_source_file_index>
362

> <i_lp_mmshare_version>
43012

> <i_f3d_flags>
0

> <s_epik_input>
W0NIMl0xW0NIMl1bQ0hdMVtDSF0oW0NIXTJbQ0gyXVtDSDJdMilbTkhdQyg9TylbQ0gyXW4zW2NIXVtjSF1jKD1PKVtuSF1jMz1P

> <s_epik_cmdline>
J2VwaWtfcHl0aG9uJywgJy1waCcsICc3LjAnLCAnLXRuJywgJzgnLCAnLW1hJywgJzIwMCcsICctbWV0YWxfYmluZGluZycsICctaW1hZScsICc8aW5maWxlLm1hZT4nLCAnLW9tYWUnLCAnPG91dGZpbGUubWFlPic=

> <r_lp_tautomer_probability>
0.999537

> <r_epik_Ionization_Penalty>
3.10326

> <r_epik_Ionization_Penalty_Charging>
2.95532e-08

> <r_epik_Ionization_Penalty_Neutral>
3.10326

> <r_epik_State_Penalty>
3.10233

> <r_epik_Charging_Adjusted_Penalty>
3.10233

> <i_epik_Tot_Q>
-1

> <i_epik_Tot_abs_Q>
1

> <r_epik_Metal_State_Penalty>
0.461987

> <b_epik_Metal_Only>
1

> <s_lp_Force_Field>
OPLS_2005

> <r_lp_Energy>
32.875

> <b_lp_Chiralities_Consistent>
1

> <s_lp_Variant>
AV-unprocessed.smi:362-2

> <Gold.Version>
5.8.1

> <Gold.Id.Protein>
6NUR|6NUR_protein|mol2

> <Gold.PLP.Fitness>
40.5820

> <Gold.PLP.PLP>
-30.8271

> <Gold.PLP.part.hbond>
-4.0000

> <Gold.PLP.part.metal>
0.0000

> <Gold.PLP.part.buried>
-5.4516

> <Gold.PLP.part.nonpolar>
-23.4958

> <Gold.PLP.part.repulsive>
0.1174

> <Gold.PLP.ligand.clash>
0.0000

> <Gold.PLP.ligand.torsion>
1.9028

> <Gold.PLP.Chemscore.Hbond>
2.7864

> <Gold.PLP.Chemscore.CHOScore>
1.0000

> <Gold.PLP.Chemscore.Metal>
0.0000

> <Gold.Chemscore.Hbonds>
donor molecule, donor type, donor heavy atom, donor atom, acceptor molecule, acceptor atom, score
      P1  H  6896  6908       L1     8  0.93
      P1  H  7989  7998       L1     1  0.70
      P1  H 10752 10765       L1    11  0.84
      L1  C     5    22       P1  7948  1.00

> <Gold.PLP.Chemscore.Internal.Correction>
2.2013

> <Gold.Rescore>
     Score         DG    S(hbond)    S(metal)    S(lipo)     H(rot)  DE(clash)    DE(int)     intcor
      9.98     -13.57       2.26        0.00      50.46       2.09       0.31       3.28       ----

> <Gold.Chemscore.Fitness>
9.9799

> <Gold.Chemscore.DG>
-13.5660

> <Gold.Chemscore.ZeroCoef>
-5.4800

> <Gold.Chemscore.Hbond>
2.2574

> <Gold.Chemscore.Metal>
0.0000

> <Gold.Chemscore.Lipo>
50.4618

> <Gold.Chemscore.Internal_Hbond>
0.0000

> <Gold.Chemscore.DEClash>
0.3066

> <Gold.Chemscore.DEInternal>
3.2795

> <Gold.Chemscore.Rot>
2.0929

> <Gold.Chemscore.Internal.Correction>
   9.000000E+99

> <Gold.Chemscore.Hbonds>
donor molecule, donor type, donor heavy atom, donor atom, acceptor molecule, acceptor atom, score
      P1  H  6896  6908       L1     8  0.22
      P1  H  7989  7998       L1     1  0.09
      P1  H 10752 10765       L1    11  0.14

> <Gold.Chemscore.Hbond.Weighted>
-7.5399

> <Gold.Chemscore.Metal.Weighted>
-0.0000

> <Gold.Chemscore.Lipo.Weighted>
-5.9040

> <Gold.Chemscore.Internal_Hbond.Weighted>
0.0000

> <Gold.Chemscore.DEClash.Weighted>
0.3066

> <Gold.Chemscore.DEInternal.Weighted>
3.2795

> <Gold.Chemscore.Rot.Weighted>
5.3579

> <Gold.Chemscore.Internal.Correction.Weighted>
   9.000000E+99

> <Gold.Protein.RotatedTorsions>
[ 6907 6896 6895 6894 ] final  115.81 input  -60.11 | X-H torsion
[ 7974 7965 7964 7962 ] final   92.23 input  175.53 | X-H torsion
[ 8008 7997 7996 7995 ] final  120.09 input   59.86 | X-H torsion
[ 10167 10162 10161 10158 ] final -178.35 input  -65.29 | X-H torsion
[ 10718 10713 10712 10709 ] final -126.36 input   66.30 | X-H torsion
[ 10763 10752 10751 10750 ] final -122.05 input  -60.55 | X-H torsion
[ 11005 11000 10999 10996 ] final   70.34 input  -57.11 | X-H torsion

> <Gold.Protein.ActiveResidues>
 VAL166  LYS551  ARG553  GLY616  TRP617  ASP618  TYR619  PRO620  LYS621  CYS622 
 ASP623  PHE694  ASN695  SER759  ASP760  ASP761  ALA762  ILE779  LEU786  VAL792 
 PHE793  MET794  SER795  GLU796  ALA797  LYS798  CYS799  TRP800  GLU811  SER814 

> <Gold.Protein.RotatedAtoms>
  152.4718  133.8046  159.6970 H   0  0  0  0  0  0  0  0  0  0  0  0  # atno 6907 bound_to 6896
  150.8711  133.7494  159.2967 H   0  0  0  0  0  0  0  0  0  0  0  0  # atno 6908 bound_to 6896
  151.5029  135.1066  159.9885 H   0  0  0  0  0  0  0  0  0  0  0  0  # atno 6909 bound_to 6896
  145.4951  139.2276  143.2808 H   0  0  0  0  0  0  0  0  0  0  0  0  # atno 7974 bound_to 7965
  156.2627  140.2838  156.1095 H   0  0  0  0  0  0  0  0  0  0  0  0  # atno 8008 bound_to 7997
  155.1273  140.0393  157.2783 H   0  0  0  0  0  0  0  0  0  0  0  0  # atno 8009 bound_to 7997
  154.6626  140.2570  155.7099 H   0  0  0  0  0  0  0  0  0  0  0  0  # atno 8010 bound_to 7997
  139.5436  144.2295  152.0945 H   0  0  0  0  0  0  0  0  0  0  0  0  # atno 10167 bound_to 10162
  156.1758  130.6699  151.0241 H   0  0  0  0  0  0  0  0  0  0  0  0  # atno 10718 bound_to 10713
  154.8681  135.4146  154.2718 H   0  0  0  0  0  0  0  0  0  0  0  0  # atno 10763 bound_to 10752
  153.3627  135.7004  153.6705 H   0  0  0  0  0  0  0  0  0  0  0  0  # atno 10764 bound_to 10752
  153.5599  135.3612  155.2767 H   0  0  0  0  0  0  0  0  0  0  0  0  # atno 10765 bound_to 10752
  139.9603  134.7072  156.0661 H   0  0  0  0  0  0  0  0  0  0  0  0  # atno 11005 bound_to 11000
  146.2261  140.5747  142.8996 LP  0  0  0  0  0  0  0  0  0  0  0  0  # atno 17320 bound_to 7965
  144.7812  140.5844  143.6604 LP  0  0  0  0  0  0  0  0  0  0  0  0  # atno 17321 bound_to 7965
  140.1778  144.4874  150.6545 LP  0  0  0  0  0  0  0  0  0  0  0  0  # atno 17342 bound_to 10162
  140.6676  143.2273  151.5704 LP  0  0  0  0  0  0  0  0  0  0  0  0  # atno 17343 bound_to 10162
  157.6835  131.0831  150.7306 LP  0  0  0  0  0  0  0  0  0  0  0  0  # atno 17370 bound_to 10713
  156.7364  130.4725  149.5487 LP  0  0  0  0  0  0  0  0  0  0  0  0  # atno 17371 bound_to 10713
  141.1279  133.6594  156.3386 LP  0  0  0  0  0  0  0  0  0  0  0  0  # atno 17394 bound_to 11000
  140.5515  134.6023  157.5409 LP  0  0  0  0  0  0  0  0  0  0  0  0  # atno 17395 bound_to 11000

$$$$
