AV-unprocessed.smi:244|AV-procd|sdf|1870|dock2
  -GOLD-   2262020503D 1   1.00000     0.00000
 Structure written by MMmdl.
 57 61  0  0  0  0  0  0  0  0  2 V2000
  148.8177  142.9979  158.6519 C   0  0  0  0  0  0  0  0  0  0  0  0
  150.0573  143.5701  158.0775 N   0  3  1  0  0  0  0  0  0  0  0  0
  150.7304  144.5488  158.9709 C   0  0  0  0  0  0  0  0  0  0  0  0
  151.5065  143.8597  160.1091 C   0  0  0  0  0  0  0  0  0  0  0  0
  152.4990  142.8372  159.5415 C   0  0  1  0  0  0  0  0  0  0  0  0
  153.1652  142.1700  160.6076 O   0  0  0  0  0  0  0  0  0  0  0  0
  154.1454  141.2561  160.1255 C   0  0  0  0  0  0  0  0  0  0  0  0
  153.4632  140.1828  159.2618 C   0  0  0  0  0  0  0  0  0  0  0  0
  152.7012  140.8048  158.1826 N   0  0  0  0  0  0  0  0  0  0  0  0
  152.1746  139.8894  157.3385 C   0  0  0  0  0  0  0  0  0  0  0  0
  152.9296  139.3752  156.3318 N   0  0  0  0  0  0  0  0  0  0  0  0
  152.4129  138.4472  155.5202 C   0  0  0  0  0  0  0  0  0  0  0  0
  151.1964  137.8975  155.5482 N   0  0  0  0  0  0  0  0  0  0  0  0
  150.4422  138.4102  156.5630 C   0  0  0  0  0  0  0  0  0  0  0  0
  150.8500  139.4065  157.4922 C   0  0  0  0  0  0  0  0  0  0  0  0
  149.8215  139.6823  158.3830 N   0  0  0  0  0  0  0  0  0  0  0  0
  148.8550  138.8933  157.9992 C   0  0  0  0  0  0  0  0  0  0  0  0
  149.1490  138.0791  156.9275 N   0  0  0  0  0  0  0  0  0  0  0  0
  148.2685  137.0994  156.3101 C   0  0  0  0  0  0  0  0  0  0  0  0
  147.8548  137.4382  154.8548 C   0  0  0  0  0  0  0  0  0  0  0  0
  149.0055  137.1838  154.0697 O   0  0  0  0  0  0  0  0  0  0  0  0
  146.7043  136.5496  154.3344 C   0  0  0  0  0  0  0  0  0  0  0  0
  146.2494  136.9667  152.9243 C   0  0  0  0  0  0  0  0  0  0  0  0
  145.8793  138.3406  152.9197 O   0  0  0  0  0  0  0  0  0  0  0  0
  146.9624  139.2060  153.2400 C   0  0  0  0  0  0  0  0  0  0  0  0
  147.4587  138.9195  154.6687 C   0  0  0  0  0  0  0  0  0  0  0  0
  151.7493  141.8040  158.6740 C   0  0  2  0  0  0  0  0  0  0  0  0
  150.9915  142.5452  157.5424 C   0  0  0  0  0  0  0  0  0  0  0  0
  149.0188  142.3948  159.5372 H   0  0  0  0  0  0  0  0  0  0  0  0
  148.3136  142.3662  157.9200 H   0  0  0  0  0  0  0  0  0  0  0  0
  148.1255  143.7919  158.9334 H   0  0  0  0  0  0  0  0  0  0  0  0
  151.4220  145.1396  158.3686 H   0  0  0  0  0  0  0  0  0  0  0  0
  150.0006  145.2513  159.3751 H   0  0  0  0  0  0  0  0  0  0  0  0
  152.0390  144.6066  160.6984 H   0  0  0  0  0  0  0  0  0  0  0  0
  150.8143  143.3671  160.7926 H   0  0  0  0  0  0  0  0  0  0  0  0
  153.2388  143.3664  158.9370 H   0  0  0  0  0  0  0  0  0  0  0  0
  154.9082  141.7879  159.5549 H   0  0  0  0  0  0  0  0  0  0  0  0
  154.6482  140.7926  160.9744 H   0  0  0  0  0  0  0  0  0  0  0  0
  154.2137  139.5087  158.8460 H   0  0  0  0  0  0  0  0  0  0  0  0
  152.8003  139.5815  159.8857 H   0  0  0  0  0  0  0  0  0  0  0  0
  153.0688  138.0908  154.7395 H   0  0  0  0  0  0  0  0  0  0  0  0
  147.8977  138.8718  158.5000 H   0  0  0  0  0  0  0  0  0  0  0  0
  148.7715  136.1318  156.3409 H   0  0  0  0  0  0  0  0  0  0  0  0
  147.3819  136.9983  156.9381 H   0  0  0  0  0  0  0  0  0  0  0  0
  148.7274  136.9320  153.2023 H   0  0  0  0  0  0  0  0  0  0  0  0
  146.9980  135.4991  154.3405 H   0  0  0  0  0  0  0  0  0  0  0  0
  145.8438  136.6317  154.9980 H   0  0  0  0  0  0  0  0  0  0  0  0
  147.0323  136.7861  152.1863 H   0  0  0  0  0  0  0  0  0  0  0  0
  145.3880  136.3718  152.6203 H   0  0  0  0  0  0  0  0  0  0  0  0
  147.7654  139.0896  152.5107 H   0  0  0  0  0  0  0  0  0  0  0  0
  146.6183  140.2377  153.1660 H   0  0  0  0  0  0  0  0  0  0  0  0
  146.6523  139.1774  155.3546 H   0  0  0  0  0  0  0  0  0  0  0  0
  148.2946  139.5750  154.9162 H   0  0  0  0  0  0  0  0  0  0  0  0
  151.0257  141.2845  159.3042 H   0  0  0  0  0  0  0  0  0  0  0  0
  150.4285  141.8531  156.9153 H   0  0  0  0  0  0  0  0  0  0  0  0
  151.7075  143.0401  156.8845 H   0  0  0  0  0  0  0  0  0  0  0  0
  149.7474  144.1008  157.2757 H   0  0  0  0  0  0  0  0  0  0  0  0
  1  2  1  0  0  0  0
  1 29  1  0  0  0  0
  1 30  1  0  0  0  0
  1 31  1  0  0  0  0
  2 28  1  0  0  0  0
  2  3  1  0  0  0  0
  2 57  1  0  0  0  0
  3  4  1  0  0  0  0
  3 32  1  0  0  0  0
  3 33  1  0  0  0  0
  4  5  1  0  0  0  0
  4 34  1  0  0  0  0
  4 35  1  0  0  0  0
  5 27  1  0  0  0  0
  5  6  1  0  0  0  0
  5 36  1  0  0  0  0
  6  7  1  0  0  0  0
  7  8  1  0  0  0  0
  7 37  1  0  0  0  0
  7 38  1  0  0  0  0
  8  9  1  0  0  0  0
  8 39  1  0  0  0  0
  8 40  1  0  0  0  0
  9 10  1  0  0  0  0
  9 27  1  0  0  0  0
 10 15  1  0  0  0  0
 10 11  2  0  0  0  0
 11 12  1  0  0  0  0
 12 13  2  0  0  0  0
 12 41  1  0  0  0  0
 13 14  1  0  0  0  0
 14 18  1  0  0  0  0
 14 15  2  0  0  0  0
 15 16  1  0  0  0  0
 16 17  2  0  0  0  0
 17 18  1  0  0  0  0
 17 42  1  0  0  0  0
 18 19  1  0  0  0  0
 19 20  1  0  0  0  0
 19 43  1  0  0  0  0
 19 44  1  0  0  0  0
 20 26  1  0  0  0  0
 20 21  1  0  0  0  0
 20 22  1  0  0  0  0
 21 45  1  0  0  0  0
 22 23  1  0  0  0  0
 22 46  1  0  0  0  0
 22 47  1  0  0  0  0
 23 24  1  0  0  0  0
 23 48  1  0  0  0  0
 23 49  1  0  0  0  0
 24 25  1  0  0  0  0
 25 26  1  0  0  0  0
 25 50  1  0  0  0  0
 25 51  1  0  0  0  0
 26 52  1  0  0  0  0
 26 53  1  0  0  0  0
 27 28  1  0  0  0  0
 27 54  1  0  0  0  0
 28 55  1  0  0  0  0
 28 56  1  0  0  0  0
M  CHG  1   2   1
M  END
> <s_m_source_file>
AV-unprocessed.smi

> <i_m_source_file_index>
244

> <i_lp_mmshare_version>
43012

> <i_f3d_flags>
0

> <s_epik_input>
W0NIMl0xW0NIMl1OKFtDSDNdKVtDSDJdW0NAQEhdKFtDQEhdMTIpTihbQ0gyXVtDSDJdTzIpYyhuW2NIXW4zKWMoYzM0KW5bY0hdbjRbQ0gyXUM1KFtPSF0pW0NIMl1bQ0gyXU9bQ0gyXVtDSDJdNQ==

> <s_epik_cmdline>
J2VwaWtfcHl0aG9uJywgJy1waCcsICc3LjAnLCAnLXRuJywgJzgnLCAnLW1hJywgJzIwMCcsICctbWV0YWxfYmluZGluZycsICctaW1hZScsICc8aW5maWxlLm1hZT4nLCAnLW9tYWUnLCAnPG91dGZpbGUubWFlPic=

> <r_lp_tautomer_probability>
1

> <r_epik_Ionization_Penalty>
0.0136215

> <r_epik_Ionization_Penalty_Charging>
0.0131385

> <r_epik_Ionization_Penalty_Neutral>
0.000483022

> <r_epik_State_Penalty>
0.0104001

> <r_epik_Charging_Adjusted_Penalty>
0.0235387

> <i_epik_Tot_Q>
1

> <i_epik_Tot_abs_Q>
1

> <r_epik_Metal_State_Penalty>
0.0104469

> <b_epik_Metal_Only>
0

> <s_lp_Force_Field>
OPLS_2005

> <r_lp_Energy>
43.6006

> <b_lp_Chiralities_Consistent>
1

> <s_lp_Variant>
AV-unprocessed.smi:244-7

> <Gold.Version>
5.8.1

> <Gold.Id.Protein>
6NUR|6NUR_protein|mol2

> <Gold.PLP.Fitness>
44.3203

> <Gold.PLP.PLP>
-33.9415

> <Gold.PLP.part.hbond>
-3.4912

> <Gold.PLP.part.metal>
0.0000

> <Gold.PLP.part.buried>
-4.4034

> <Gold.PLP.part.nonpolar>
-27.4827

> <Gold.PLP.part.repulsive>
0.8364

> <Gold.PLP.ligand.clash>
0.0000

> <Gold.PLP.ligand.torsion>
0.8715

> <Gold.PLP.Chemscore.Hbond>
4.0000

> <Gold.PLP.Chemscore.CHOScore>
0.0000

> <Gold.PLP.Chemscore.Metal>
0.0000

> <Gold.Chemscore.Hbonds>
donor molecule, donor type, donor heavy atom, donor atom, acceptor molecule, acceptor atom, score
      L1  H     2    57       P1  8028  2.00
      L1  H    21    45       P1  7948  0.98
      P1  H  7997  8010       L1    11  1.00

> <Gold.PLP.Chemscore.Internal.Correction>
0.1218

> <Gold.Rescore>
     Score         DG    S(hbond)    S(metal)    S(lipo)     H(rot)  DE(clash)    DE(int)     intcor
     15.96     -18.66       2.62        0.00      83.53       2.09       0.55       2.16       ----

> <Gold.Chemscore.Fitness>
15.9573

> <Gold.Chemscore.DG>
-18.6599

> <Gold.Chemscore.ZeroCoef>
-5.4800

> <Gold.Chemscore.Hbond>
2.6229

> <Gold.Chemscore.Metal>
0.0000

> <Gold.Chemscore.Lipo>
83.5253

> <Gold.Chemscore.Internal_Hbond>
0.0000

> <Gold.Chemscore.DEClash>
0.5473

> <Gold.Chemscore.DEInternal>
2.1552

> <Gold.Chemscore.Rot>
2.0911

> <Gold.Chemscore.Internal.Correction>
   9.000000E+99

> <Gold.Chemscore.Hbonds>
donor molecule, donor type, donor heavy atom, donor atom, acceptor molecule, acceptor atom, score
      L1  H     2    57       P1  8028  0.55
      L1  H    21    45       P1  7948  0.87
      P1  H  7997  8010       L1    11  0.29

> <Gold.Chemscore.Hbond.Weighted>
-8.7605

> <Gold.Chemscore.Metal.Weighted>
-0.0000

> <Gold.Chemscore.Lipo.Weighted>
-9.7725

> <Gold.Chemscore.Internal_Hbond.Weighted>
0.0000

> <Gold.Chemscore.DEClash.Weighted>
0.5473

> <Gold.Chemscore.DEInternal.Weighted>
2.1552

> <Gold.Chemscore.Rot.Weighted>
5.3531

> <Gold.Chemscore.Internal.Correction.Weighted>
   9.000000E+99

> <Gold.Protein.RotatedTorsions>
[ 6907 6896 6895 6894 ] final -118.65 input  -60.11 | X-H torsion
[ 7974 7965 7964 7962 ] final -172.75 input  175.53 | X-H torsion
[ 8008 7997 7996 7995 ] final   58.49 input   59.86 | X-H torsion
[ 10167 10162 10161 10158 ] final -111.15 input  -65.29 | X-H torsion
[ 10718 10713 10712 10709 ] final  143.57 input   66.30 | X-H torsion
[ 10763 10752 10751 10750 ] final  101.11 input  -60.55 | X-H torsion
[ 11005 11000 10999 10996 ] final  -29.02 input  -57.11 | X-H torsion

> <Gold.Protein.ActiveResidues>
 VAL166  LYS551  ARG553  GLY616  TRP617  ASP618  TYR619  PRO620  LYS621  CYS622 
 ASP623  PHE694  ASN695  SER759  ASP760  ASP761  ALA762  ILE779  LEU786  VAL792 
 PHE793  MET794  SER795  GLU796  ALA797  LYS798  CYS799  TRP800  GLU811  SER814 

> <Gold.Protein.RotatedAtoms>
  150.8238  133.8208  159.3127 H   0  0  0  0  0  0  0  0  0  0  0  0  # atno 6907 bound_to 6896
  151.5958  135.1049  160.0058 H   0  0  0  0  0  0  0  0  0  0  0  0  # atno 6908 bound_to 6896
  152.4324  133.7261  159.6617 H   0  0  0  0  0  0  0  0  0  0  0  0  # atno 6909 bound_to 6896
  144.7143  140.1726  143.6366 H   0  0  0  0  0  0  0  0  0  0  0  0  # atno 7974 bound_to 7965
  155.5509  140.3486  155.4468 H   0  0  0  0  0  0  0  0  0  0  0  0  # atno 8008 bound_to 7997
  156.0584  140.1334  156.9996 H   0  0  0  0  0  0  0  0  0  0  0  0  # atno 8009 bound_to 7997
  154.4467  140.0990  156.6465 H   0  0  0  0  0  0  0  0  0  0  0  0  # atno 8010 bound_to 7997
  140.1367  143.4314  152.1590 H   0  0  0  0  0  0  0  0  0  0  0  0  # atno 10167 bound_to 10162
  157.3674  131.0974  151.0860 H   0  0  0  0  0  0  0  0  0  0  0  0  # atno 10718 bound_to 10713
  153.3225  135.4056  155.1428 H   0  0  0  0  0  0  0  0  0  0  0  0  # atno 10763 bound_to 10752
  154.8604  135.3591  154.5578 H   0  0  0  0  0  0  0  0  0  0  0  0  # atno 10764 bound_to 10752
  153.6012  135.7071  153.5443 H   0  0  0  0  0  0  0  0  0  0  0  0  # atno 10765 bound_to 10752
  140.9259  133.7369  156.0867 H   0  0  0  0  0  0  0  0  0  0  0  0  # atno 11005 bound_to 11000
  145.8930  139.2386  143.1538 LP  0  0  0  0  0  0  0  0  0  0  0  0  # atno 17320 bound_to 7965
  145.9885  140.8623  143.0078 LP  0  0  0  0  0  0  0  0  0  0  0  0  # atno 17321 bound_to 7965
  139.5492  144.7324  151.4488 LP  0  0  0  0  0  0  0  0  0  0  0  0  # atno 17342 bound_to 10162
  140.6784  143.8136  150.7089 LP  0  0  0  0  0  0  0  0  0  0  0  0  # atno 17343 bound_to 10162
  157.1977  130.6380  149.5727 LP  0  0  0  0  0  0  0  0  0  0  0  0  # atno 17370 bound_to 10713
  155.9749  130.4701  150.6419 LP  0  0  0  0  0  0  0  0  0  0  0  0  # atno 17371 bound_to 10713
  140.7926  134.3600  157.5460 LP  0  0  0  0  0  0  0  0  0  0  0  0  # atno 17394 bound_to 11000
  139.8785  134.9150  156.3119 LP  0  0  0  0  0  0  0  0  0  0  0  0  # atno 17395 bound_to 11000

$$$$
