#       Name:                AV-unprocessed.smi:1013
#       Creating user name   scv26
#       Creation time:       Fri Mar 27 02:38:32 2020


#       File generated by GOLD software.
#

@<TRIPOS>MOLECULE
AV-unprocessed.smi:1013
    35    36     1
SMALL
NO_CHARGES


@<TRIPOS>ATOM
      1 ****        -0.8383  -1.6048  -3.7328 O.co2          1 S1                 0.0000
      2 ****        -0.6938  -2.0519  -2.5725 C.2            1 S1                 0.0000
      3 ****        -0.7692  -3.2579  -2.2512 O.co2          1 S1                -1.0000
      4 ****        -0.3883  -1.0560  -1.4452 C.3            1 S1                 0.0000
      5 ****         1.1438  -0.8640  -1.3391 C.3            1 S1                 0.0000
      6 ****         1.5631  -0.1956  -0.1212 N.pl3          1 S1                 0.0000
      7 ****         2.1286   1.0531   0.0182 C.2            1 S1                 0.0000
      8 ****         2.3588   1.2471   1.3498 C.2            1 S1                 0.0000
      9 ****         1.9031   0.0420   1.9596 C.2            1 S1                 0.0000
     10 ****         1.9042  -0.3249   3.4200 C.3            1 S1                 0.0000
     11 ****         2.6432  -1.4169   3.6153 F              1 S1                 0.0000
     12 ****         2.4117   0.6710   4.1465 F              1 S1                 0.0000
     13 ****         0.6588  -0.5630   3.8313 F              1 S1                 0.0000
     14 ****         1.4329  -0.8202   1.0686 N.2            1 S1                 0.0000
     15 ****        -1.0911   0.2180  -1.6779 N.3            1 S1                 0.0000
     16 ****        -1.5085   0.8336  -0.4306 C.3            1 S1                 0.0000
     17 ****        -2.8339   0.4043   0.1519 C.3            1 S1                 0.0000
     18 ****        -2.6942   1.7657  -0.4890 C.3            1 S1                 0.0000
     19 ****        -0.7666  -1.5121  -0.5285 H              1 S1                 0.0000
     20 ****         1.6521  -1.8295  -1.3703 H              1 S1                 0.0000
     21 ****         1.5154  -0.2962  -2.1936 H              1 S1                 0.0000
     22 ****         2.3123   1.6937  -0.8317 H              1 S1                 0.0000
     23 ****         2.7890   2.1193   1.8189 H              1 S1                 0.0000
     24 ****        -1.9017   0.0682  -2.2621 H              1 S1                 0.0000
     25 ****        -0.7512   1.1139   0.2972 H              1 S1                 0.0000
     26 ****        -3.4061  -0.3493  -0.3862 H              1 S1                 0.0000
     27 ****        -2.9128   0.3623   1.2363 H              1 S1                 0.0000
     28 ****        -2.6840   2.6319   0.1693 H              1 S1                 0.0000
     29 ****        -3.1771   1.9185  -1.4524 H              1 S1                 0.0000
     30 ****        -1.0303  -2.2300  -4.4892 LP             1 S1                 0.0000
     31 ****        -0.7618  -0.6224  -3.9032 LP             1 S1                 0.0000
     32 ****        -0.9584  -3.9500  -2.9477 LP             1 S1                 0.0000
     33 ****        -0.6403  -3.5303  -1.2976 LP             1 S1                 0.0000
     34 ****         1.0629  -1.7332   1.2404 LP             1 S1                 0.0000
     35 ****        -0.4504   0.8338  -2.1364 LP             1 S1                 0.0000
@<TRIPOS>BOND
    1    1    2 ar    
    2    2    3 ar    
    3    2    4 1     
    4    4    5 1     
    5    4   15 1     
    6    4   19 1     
    7    5    6 1     
    8    5   20 1     
    9    5   21 1     
   10    6   14 1     
   11    6    7 1     
   12    7    8 2     
   13    7   22 1     
   14    8    9 1     
   15    8   23 1     
   16    9   10 1     
   17    9   14 2     
   18   10   11 1     
   19   10   12 1     
   20   10   13 1     
   21   15   16 1     
   22   15   24 1     
   23   16   18 1     
   24   16   17 1     
   25   16   25 1     
   26   17   18 1     
   27   17   26 1     
   28   17   27 1     
   29   18   28 1     
   30   18   29 1     
   31    1   30 1     
   32    1   31 1     
   33    3   32 1     
   34    3   33 1     
   35   14   34 1     
   36   15   35 1     
@<TRIPOS>SUBSTRUCTURE
      1 S1             1
@<TRIPOS>SET
LONE_PAIRS      STATIC     ATOMS    <user>   **** ""
6 30 31 32 33 34 35
DONOR_HYDROGENS      STATIC     ATOMS    <user>   **** ""
1 24
ATOM$BLUE        STATIC     ATOMS    COLORGROUP SYSTEM
6 30 31 32 33 34 35
ATOM$RED        STATIC     ATOMS    COLORGROUP SYSTEM
1 24
