AV-unprocessed.smi:2955|AV-procd|sdf|11302|dock4
  -GOLD-   2272016203D 1   1.00000     0.00000
 Structure written by MMmdl.
 45 47  0  0  0  0  0  0  0  0  1 V2000
  146.7817  138.6834  151.9956 C   0  0  0  0  0  0  0  0  0  0  0  0
  147.2380  139.6582  153.0619 C   0  0  0  0  0  0  0  0  0  0  0  0
  146.7889  140.9936  153.0411 C   0  0  0  0  0  0  0  0  0  0  0  0
  147.2129  141.8926  154.0366 C   0  0  0  0  0  0  0  0  0  0  0  0
  148.0841  141.4581  155.0532 C   0  0  0  0  0  0  0  0  0  0  0  0
  148.5421  140.1250  155.0909 C   0  0  0  0  0  0  0  0  0  0  0  0
  149.3903  139.7834  156.1225 O   0  0  0  0  0  0  0  0  0  0  0  0
  150.1265  140.8194  156.7589 C   0  0  0  0  0  0  0  0  0  0  0  0
  151.5487  140.3357  157.0740 C   0  0  0  0  0  0  0  0  0  0  0  0
  152.0711  140.9115  158.3064 N   0  0  0  0  0  0  0  0  0  0  0  0
  152.6910  140.2974  159.3501 C   0  0  0  0  0  0  0  0  0  0  0  0
  152.9588  138.8135  159.3930 C   0  0  1  0  0  0  0  0  0  0  0  0
  153.8189  138.3431  158.2111 C   0  0  0  0  0  0  0  0  0  0  0  0
  153.6173  138.5022  160.6571 N   0  0  0  0  0  0  0  0  0  0  0  0
  153.9826  137.2696  161.0311 C   0  0  0  0  0  0  0  0  0  0  0  0
  153.7947  136.2731  160.3380 O   0  0  0  0  0  0  0  0  0  0  0  0
  153.0239  141.0951  160.3687 N   0  0  0  0  0  0  0  0  0  0  0  0
  152.6159  142.3393  159.9344 C   0  0  0  0  0  0  0  0  0  0  0  0
  152.7033  143.6041  160.5588 C   0  0  0  0  0  0  0  0  0  0  0  0
  152.2109  144.7556  159.9103 C   0  0  0  0  0  0  0  0  0  0  0  0
  151.6259  144.6585  158.6313 C   0  0  0  0  0  0  0  0  0  0  0  0
  151.5275  143.4071  157.9932 C   0  0  0  0  0  0  0  0  0  0  0  0
  152.0197  142.2604  158.6453 C   0  0  0  0  0  0  0  0  0  0  0  0
  148.1101  139.2259  154.0824 C   0  0  0  0  0  0  0  0  0  0  0  0
  146.3788  139.2067  151.1279 H   0  0  0  0  0  0  0  0  0  0  0  0
  146.0050  138.0294  152.3928 H   0  0  0  0  0  0  0  0  0  0  0  0
  147.6139  138.0639  151.6601 H   0  0  0  0  0  0  0  0  0  0  0  0
  146.1190  141.3320  152.2640 H   0  0  0  0  0  0  0  0  0  0  0  0
  146.8693  142.9164  154.0211 H   0  0  0  0  0  0  0  0  0  0  0  0
  148.4046  142.1574  155.8110 H   0  0  0  0  0  0  0  0  0  0  0  0
  150.1764  141.6984  156.1141 H   0  0  0  0  0  0  0  0  0  0  0  0
  149.6336  141.1106  157.6877 H   0  0  0  0  0  0  0  0  0  0  0  0
  151.5452  139.2506  157.1803 H   0  0  0  0  0  0  0  0  0  0  0  0
  152.2273  140.5427  156.2476 H   0  0  0  0  0  0  0  0  0  0  0  0
  152.0258  138.2553  159.3403 H   0  0  0  0  0  0  0  0  0  0  0  0
  153.3467  138.5959  157.2621 H   0  0  0  0  0  0  0  0  0  0  0  0
  153.9600  137.2623  158.2342 H   0  0  0  0  0  0  0  0  0  0  0  0
  154.8056  138.8078  158.2217 H   0  0  0  0  0  0  0  0  0  0  0  0
  153.7849  139.2682  161.2934 H   0  0  0  0  0  0  0  0  0  0  0  0
  154.4630  137.2655  162.0222 H   0  0  0  0  0  0  0  0  0  0  0  0
  153.1507  143.6889  161.5383 H   0  0  0  0  0  0  0  0  0  0  0  0
  152.2829  145.7174  160.3965 H   0  0  0  0  0  0  0  0  0  0  0  0
  151.2520  145.5451  158.1406 H   0  0  0  0  0  0  0  0  0  0  0  0
  151.0800  143.3305  157.0135 H   0  0  0  0  0  0  0  0  0  0  0  0
  148.4340  138.1962  154.0721 H   0  0  0  0  0  0  0  0  0  0  0  0
  1  2  1  0  0  0  0
  1 25  1  0  0  0  0
  1 26  1  0  0  0  0
  1 27  1  0  0  0  0
  2 24  1  0  0  0  0
  2  3  2  0  0  0  0
  3  4  1  0  0  0  0
  3 28  1  0  0  0  0
  4  5  2  0  0  0  0
  4 29  1  0  0  0  0
  5  6  1  0  0  0  0
  5 30  1  0  0  0  0
  6  7  1  0  0  0  0
  6 24  2  0  0  0  0
  7  8  1  0  0  0  0
  8  9  1  0  0  0  0
  8 31  1  0  0  0  0
  8 32  1  0  0  0  0
  9 10  1  0  0  0  0
  9 33  1  0  0  0  0
  9 34  1  0  0  0  0
 10 23  1  0  0  0  0
 10 11  1  0  0  0  0
 11 12  1  0  0  0  0
 11 17  2  0  0  0  0
 12 13  1  0  0  0  0
 12 14  1  0  0  0  0
 12 35  1  0  0  0  0
 13 36  1  0  0  0  0
 13 37  1  0  0  0  0
 13 38  1  0  0  0  0
 14 15  1  0  0  0  0
 14 39  1  0  0  0  0
 15 16  2  0  0  0  0
 15 40  1  0  0  0  0
 17 18  1  0  0  0  0
 18 23  2  0  0  0  0
 18 19  1  0  0  0  0
 19 20  2  0  0  0  0
 19 41  1  0  0  0  0
 20 21  1  0  0  0  0
 20 42  1  0  0  0  0
 21 22  2  0  0  0  0
 21 43  1  0  0  0  0
 22 23  1  0  0  0  0
 22 44  1  0  0  0  0
 24 45  1  0  0  0  0
M  END
> <s_m_source_file>
AV-unprocessed.smi

> <i_m_source_file_index>
2955

> <i_lp_mmshare_version>
43012

> <i_f3d_flags>
0

> <s_epik_input>
W0NIM11jMVtjSF1bY0hdW2NIXWMoW2NIXTEpT1tDSDJdW0NIMl1uKGMobjIpW0NASF0oW0NIM10pW05IXVtDSF09TyljKGMyMylbY0hdW2NIXVtjSF1bY0hdMw==

> <s_epik_cmdline>
J2VwaWtfcHl0aG9uJywgJy1waCcsICc3LjAnLCAnLXRuJywgJzgnLCAnLW1hJywgJzIwMCcsICctbWV0YWxfYmluZGluZycsICctaW1hZScsICc8aW5maWxlLm1hZT4nLCAnLW9tYWUnLCAnPG91dGZpbGUubWFlPic=

> <r_lp_tautomer_probability>
1

> <r_epik_Ionization_Penalty>
0.0917757

> <r_epik_Ionization_Penalty_Charging>
0

> <r_epik_Ionization_Penalty_Neutral>
0.0917757

> <r_epik_State_Penalty>
0.0820948

> <r_epik_Charging_Adjusted_Penalty>
0.0820948

> <i_epik_Tot_Q>
0

> <i_epik_Tot_abs_Q>
0

> <r_epik_Metal_State_Penalty>
0.0709956

> <b_epik_Metal_Only>
0

> <s_lp_Force_Field>
OPLS_2005

> <r_lp_Energy>
12.9149

> <b_lp_Chiralities_Consistent>
1

> <s_lp_Variant>
AV-unprocessed.smi:2955-2

> <Gold.Version>
5.8.1

> <Gold.Id.Protein>
6NUR|6NUR_protein|mol2

> <Gold.PLP.Fitness>
48.2400

> <Gold.PLP.PLP>
-47.5764

> <Gold.PLP.part.hbond>
-1.0000

> <Gold.PLP.part.metal>
0.0000

> <Gold.PLP.part.buried>
-3.8308

> <Gold.PLP.part.nonpolar>
-43.4096

> <Gold.PLP.part.repulsive>
0.0420

> <Gold.PLP.ligand.clash>
0.4892

> <Gold.PLP.ligand.torsion>
0.9703

> <Gold.PLP.Chemscore.Hbond>
1.0000

> <Gold.PLP.Chemscore.CHOScore>
0.0000

> <Gold.PLP.Chemscore.Metal>
0.0000

> <Gold.Chemscore.Hbonds>
donor molecule, donor type, donor heavy atom, donor atom, acceptor molecule, acceptor atom, score
      P1  H  6896  6908       L1    16  0.81

> <Gold.PLP.Chemscore.Internal.Correction>
0.0935

> <Gold.Rescore>
     Score         DG    S(hbond)    S(metal)    S(lipo)     H(rot)  DE(clash)    DE(int)     intcor
     17.76     -18.96       0.99        0.00     136.56       2.26       0.25       0.96       ----

> <Gold.Chemscore.Fitness>
17.7565

> <Gold.Chemscore.DG>
-18.9609

> <Gold.Chemscore.ZeroCoef>
-5.4800

> <Gold.Chemscore.Hbond>
0.9862

> <Gold.Chemscore.Metal>
0.0000

> <Gold.Chemscore.Lipo>
136.5618

> <Gold.Chemscore.Internal_Hbond>
0.0000

> <Gold.Chemscore.DEClash>
0.2467

> <Gold.Chemscore.DEInternal>
0.9577

> <Gold.Chemscore.Rot>
2.2619

> <Gold.Chemscore.Internal.Correction>
   9.000000E+99

> <Gold.Chemscore.Hbonds>
donor molecule, donor type, donor heavy atom, donor atom, acceptor molecule, acceptor atom, score
      P1  H  6896  6908       L1    16  0.80

> <Gold.Chemscore.Hbond.Weighted>
-3.2938

> <Gold.Chemscore.Metal.Weighted>
-0.0000

> <Gold.Chemscore.Lipo.Weighted>
-15.9777

> <Gold.Chemscore.Internal_Hbond.Weighted>
0.0000

> <Gold.Chemscore.DEClash.Weighted>
0.2467

> <Gold.Chemscore.DEInternal.Weighted>
0.9577

> <Gold.Chemscore.Rot.Weighted>
5.7906

> <Gold.Chemscore.Internal.Correction.Weighted>
   9.000000E+99

> <Gold.Protein.RotatedTorsions>
[ 6907 6896 6895 6894 ] final  -60.82 input  -60.11 | X-H torsion
[ 7974 7965 7964 7962 ] final  -25.71 input  175.53 | X-H torsion
[ 8008 7997 7996 7995 ] final   24.85 input   59.86 | X-H torsion
[ 10167 10162 10161 10158 ] final   69.17 input  -65.29 | X-H torsion
[ 10718 10713 10712 10709 ] final  143.89 input   66.30 | X-H torsion
[ 10763 10752 10751 10750 ] final   65.98 input  -60.55 | X-H torsion
[ 11005 11000 10999 10996 ] final   43.45 input  -57.11 | X-H torsion

> <Gold.Protein.ActiveResidues>
 VAL166  LYS551  ARG553  GLY616  TRP617  ASP618  TYR619  PRO620  LYS621  CYS622 
 ASP623  PHE694  ASN695  SER759  ASP760  ASP761  ALA762  ILE779  LEU786  VAL792 
 PHE793  MET794  SER795  GLU796  ALA797  LYS798  CYS799  TRP800  GLU811  SER814 

> <Gold.Protein.RotatedAtoms>
  150.7829  134.6787  159.6431 H   0  0  0  0  0  0  0  0  0  0  0  0  # atno 6907 bound_to 6896
  152.3918  134.6426  160.0113 H   0  0  0  0  0  0  0  0  0  0  0  0  # atno 6908 bound_to 6896
  151.6724  133.3277  159.3236 H   0  0  0  0  0  0  0  0  0  0  0  0  # atno 6909 bound_to 6896
  146.1473  140.4922  142.8626 H   0  0  0  0  0  0  0  0  0  0  0  0  # atno 7974 bound_to 7965
  155.0027  140.3127  155.4861 H   0  0  0  0  0  0  0  0  0  0  0  0  # atno 8008 bound_to 7997
  156.2922  140.2229  156.5079 H   0  0  0  0  0  0  0  0  0  0  0  0  # atno 8009 bound_to 7997
  154.7604  140.0459  157.0957 H   0  0  0  0  0  0  0  0  0  0  0  0  # atno 8010 bound_to 7997
  140.0707  144.5155  150.7229 H   0  0  0  0  0  0  0  0  0  0  0  0  # atno 10167 bound_to 10162
  157.3636  131.0969  151.0893 H   0  0  0  0  0  0  0  0  0  0  0  0  # atno 10718 bound_to 10713
  153.0120  135.5337  154.6753 H   0  0  0  0  0  0  0  0  0  0  0  0  # atno 10763 bound_to 10752
  154.5927  135.2860  155.0621 H   0  0  0  0  0  0  0  0  0  0  0  0  # atno 10764 bound_to 10752
  154.1708  135.6532  153.5061 H   0  0  0  0  0  0  0  0  0  0  0  0  # atno 10765 bound_to 10752
  140.1644  134.4301  155.8297 H   0  0  0  0  0  0  0  0  0  0  0  0  # atno 11005 bound_to 11000
  144.7862  140.5941  143.6572 LP  0  0  0  0  0  0  0  0  0  0  0  0  # atno 17320 bound_to 7965
  145.4906  139.1489  143.3712 LP  0  0  0  0  0  0  0  0  0  0  0  0  # atno 17321 bound_to 7965
  140.7127  143.2518  151.4532 LP  0  0  0  0  0  0  0  0  0  0  0  0  # atno 17342 bound_to 10162
  139.5838  144.1651  152.2002 LP  0  0  0  0  0  0  0  0  0  0  0  0  # atno 17343 bound_to 10162
  157.2023  130.6400  149.5743 LP  0  0  0  0  0  0  0  0  0  0  0  0  # atno 17370 bound_to 10713
  155.9742  130.4687  150.6368 LP  0  0  0  0  0  0  0  0  0  0  0  0  # atno 17371 bound_to 10713
  141.2212  133.6927  156.7651 LP  0  0  0  0  0  0  0  0  0  0  0  0  # atno 17394 bound_to 11000
  140.2452  134.8583  157.3613 LP  0  0  0  0  0  0  0  0  0  0  0  0  # atno 17395 bound_to 11000

$$$$
