AV-unprocessed.smi:788|AV-procd|sdf|3735|dock1
  -GOLD-   22720 1173D 1   1.00000     0.00000
 Structure written by MMmdl.
 34 35  0  0  0  0  0  0  0  0  2 V2000
  153.7788  140.9432  161.0675 C   0  0  0  0  0  0  0  0  0  0  0  0
  153.2532  142.3277  160.6457 C   0  0  2  0  0  0  0  0  0  0  0  0
  152.7230  143.0987  161.8706 C   0  0  0  0  0  0  0  0  0  0  0  0
  152.1970  144.4896  161.4890 C   0  0  0  0  0  0  0  0  0  0  0  0
  151.1171  144.3939  160.4004 C   0  0  0  0  0  0  0  0  0  0  0  0
  151.6130  143.6392  159.1511 C   0  0  1  0  0  0  0  0  0  0  0  0
  152.5943  144.4888  158.3163 C   0  0  0  0  0  0  0  0  0  0  0  0
  152.1629  142.2411  159.5462 C   0  0  1  0  0  0  0  0  0  0  0  0
  152.6733  141.5220  158.3795 N   0  0  0  0  0  0  0  0  0  0  0  0
  152.1787  140.3851  157.8522 C   0  0  0  0  0  0  0  0  0  0  0  0
  151.1821  139.8750  158.3621 O   0  0  0  0  0  0  0  0  0  0  0  0
  152.8157  139.8600  156.7725 N   0  5  0  0  0  0  0  0  0  0  0  0
  152.2304  138.9697  155.9500 C   0  0  0  0  0  0  0  0  0  0  0  0
  152.7071  137.7263  155.7763 N   0  0  0  0  0  0  0  0  0  0  0  0
  151.9481  136.9692  154.8944 N   0  0  0  0  0  0  0  0  0  0  0  0
  150.9199  137.6684  154.4140 C   0  0  0  0  0  0  0  0  0  0  0  0
  150.7840  139.3135  154.9974 S   0  0  0  0  0  0  0  0  0  0  0  0
  152.9730  140.3127  161.4442 H   0  0  0  0  0  0  0  0  0  0  0  0
  154.5271  141.0323  161.8554 H   0  0  0  0  0  0  0  0  0  0  0  0
  154.2501  140.4192  160.2357 H   0  0  0  0  0  0  0  0  0  0  0  0
  154.1029  142.8826  160.2461 H   0  0  0  0  0  0  0  0  0  0  0  0
  151.9236  142.5282  162.3454 H   0  0  0  0  0  0  0  0  0  0  0  0
  153.5114  143.2019  162.6171 H   0  0  0  0  0  0  0  0  0  0  0  0
  151.7884  144.9836  162.3708 H   0  0  0  0  0  0  0  0  0  0  0  0
  153.0216  145.1138  161.1438 H   0  0  0  0  0  0  0  0  0  0  0  0
  150.2494  143.8746  160.8089 H   0  0  0  0  0  0  0  0  0  0  0  0
  150.7701  145.3914  160.1281 H   0  0  0  0  0  0  0  0  0  0  0  0
  150.7399  143.4793  158.5169 H   0  0  0  0  0  0  0  0  0  0  0  0
  153.5278  144.6770  158.8455 H   0  0  0  0  0  0  0  0  0  0  0  0
  152.1570  145.4562  158.0687 H   0  0  0  0  0  0  0  0  0  0  0  0
  152.8430  144.0017  157.3732 H   0  0  0  0  0  0  0  0  0  0  0  0
  151.3364  141.6619  159.9628 H   0  0  0  0  0  0  0  0  0  0  0  0
  153.4841  141.9204  157.9295 H   0  0  0  0  0  0  0  0  0  0  0  0
  150.2381  137.2130  153.7114 H   0  0  0  0  0  0  0  0  0  0  0  0
  1  2  1  0  0  0  0
  1 18  1  0  0  0  0
  1 19  1  0  0  0  0
  1 20  1  0  0  0  0
  2  8  1  0  0  0  0
  2  3  1  0  0  0  0
  2 21  1  0  0  0  0
  3  4  1  0  0  0  0
  3 22  1  0  0  0  0
  3 23  1  0  0  0  0
  4  5  1  0  0  0  0
  4 24  1  0  0  0  0
  4 25  1  0  0  0  0
  5  6  1  0  0  0  0
  5 26  1  0  0  0  0
  5 27  1  0  0  0  0
  6  7  1  0  0  0  0
  6  8  1  0  0  0  0
  6 28  1  0  0  0  0
  7 29  1  0  0  0  0
  7 30  1  0  0  0  0
  7 31  1  0  0  0  0
  8  9  1  0  0  0  0
  8 32  1  0  0  0  0
  9 10  1  0  0  0  0
  9 33  1  0  0  0  0
 10 11  2  0  0  0  0
 10 12  1  0  0  0  0
 12 13  1  0  0  0  0
 13 17  1  0  0  0  0
 13 14  2  0  0  0  0
 14 15  1  0  0  0  0
 15 16  2  0  0  0  0
 16 17  1  0  0  0  0
 16 34  1  0  0  0  0
M  CHG  1  12  -1
M  END
> <s_m_source_file>
AV-unprocessed.smi

> <i_m_source_file_index>
788

> <i_lp_mmshare_version>
43012

> <i_f3d_flags>
0

> <s_epik_input>
W0NIM11bQ0BASF0xW0NIMl1bQ0gyXVtDSDJdW0NAQEhdKFtDSDNdKVtDQEhdMVtOSF1DKD1PKVtOSF1jMm5uW2NIXXMy

> <s_epik_cmdline>
J2VwaWtfcHl0aG9uJywgJy1waCcsICc3LjAnLCAnLXRuJywgJzgnLCAnLW1hJywgJzIwMCcsICctbWV0YWxfYmluZGluZycsICctaW1hZScsICc8aW5maWxlLm1hZT4nLCAnLW9tYWUnLCAnPG91dGZpbGUubWFlPic=

> <r_lp_tautomer_probability>
1

> <r_epik_Ionization_Penalty>
4.58638

> <r_epik_Ionization_Penalty_Charging>
4.53816

> <r_epik_Ionization_Penalty_Neutral>
0.048215

> <r_epik_State_Penalty>
4.53788

> <r_epik_Charging_Adjusted_Penalty>
9.07605

> <i_epik_Tot_Q>
-1

> <i_epik_Tot_abs_Q>
1

> <r_epik_Metal_State_Penalty>
0.838628

> <b_epik_Metal_Only>
1

> <s_lp_Force_Field>
OPLS_2005

> <r_lp_Energy>
12.907

> <b_lp_Chiralities_Consistent>
1

> <s_lp_Variant>
AV-unprocessed.smi:788-5

> <Gold.Version>
5.8.1

> <Gold.Id.Protein>
6NUR|6NUR_protein|mol2

> <Gold.PLP.Fitness>
51.5767

> <Gold.PLP.PLP>
-40.5790

> <Gold.PLP.part.hbond>
-2.7038

> <Gold.PLP.part.metal>
0.0000

> <Gold.PLP.part.buried>
-0.3737

> <Gold.PLP.part.nonpolar>
-35.9867

> <Gold.PLP.part.repulsive>
0.2097

> <Gold.PLP.ligand.clash>
0.0000

> <Gold.PLP.ligand.torsion>
0.6722

> <Gold.PLP.Chemscore.Hbond>
3.0000

> <Gold.PLP.Chemscore.CHOScore>
1.1017

> <Gold.PLP.Chemscore.Metal>
0.0000

> <Gold.Chemscore.Hbonds>
donor molecule, donor type, donor heavy atom, donor atom, acceptor molecule, acceptor atom, score
      P1  H  7997  8008       L1    12  2.00
      P1  H 10752 10764       L1    15  1.00
      L1  C    16    34       P1  7948  0.95
      L1  C    16    34       P1  7949  0.13

> <Gold.PLP.Chemscore.Internal.Correction>
0.0369

> <Gold.Rescore>
     Score         DG    S(hbond)    S(metal)    S(lipo)     H(rot)  DE(clash)    DE(int)     intcor
     20.07     -20.87       1.73        0.00     103.91       1.00       0.10       0.70       ----

> <Gold.Chemscore.Fitness>
20.0685

> <Gold.Chemscore.DG>
-20.8718

> <Gold.Chemscore.ZeroCoef>
-5.4800

> <Gold.Chemscore.Hbond>
1.7348

> <Gold.Chemscore.Metal>
0.0000

> <Gold.Chemscore.Lipo>
103.9105

> <Gold.Chemscore.Internal_Hbond>
0.0000

> <Gold.Chemscore.DEClash>
0.1015

> <Gold.Chemscore.DEInternal>
0.7019

> <Gold.Chemscore.Rot>
1.0000

> <Gold.Chemscore.Internal.Correction>
   9.000000E+99

> <Gold.Chemscore.Hbonds>
donor molecule, donor type, donor heavy atom, donor atom, acceptor molecule, acceptor atom, score
      P1  H  7997  8008       L1    12  0.89
      P1  H 10752 10764       L1    15  0.43

> <Gold.Chemscore.Hbond.Weighted>
-5.7943

> <Gold.Chemscore.Metal.Weighted>
-0.0000

> <Gold.Chemscore.Lipo.Weighted>
-12.1575

> <Gold.Chemscore.Internal_Hbond.Weighted>
0.0000

> <Gold.Chemscore.DEClash.Weighted>
0.1015

> <Gold.Chemscore.DEInternal.Weighted>
0.7019

> <Gold.Chemscore.Rot.Weighted>
2.5600

> <Gold.Chemscore.Internal.Correction.Weighted>
   9.000000E+99

> <Gold.Protein.RotatedTorsions>
[ 6907 6896 6895 6894 ] final -163.94 input  -60.11 | X-H torsion
[ 7974 7965 7964 7962 ] final  -22.53 input  175.53 | X-H torsion
[ 8008 7997 7996 7995 ] final  -60.61 input   59.86 | X-H torsion
[ 10167 10162 10161 10158 ] final -110.95 input  -65.29 | X-H torsion
[ 10718 10713 10712 10709 ] final   60.38 input   66.30 | X-H torsion
[ 10763 10752 10751 10750 ] final  -62.40 input  -60.55 | X-H torsion
[ 11005 11000 10999 10996 ] final   90.95 input  -57.11 | X-H torsion

> <Gold.Protein.ActiveResidues>
 VAL166  LYS551  ARG553  GLY616  TRP617  ASP618  TYR619  PRO620  LYS621  CYS622 
 ASP623  PHE694  ASN695  SER759  ASP760  ASP761  ALA762  ILE779  LEU786  VAL792 
 PHE793  MET794  SER795  GLU796  ALA797  LYS798  CYS799  TRP800  GLU811  SER814 

> <Gold.Protein.RotatedAtoms>
  151.4040  133.3748  159.2735 H   0  0  0  0  0  0  0  0  0  0  0  0  # atno 6907 bound_to 6896
  150.9412  134.8822  159.7624 H   0  0  0  0  0  0  0  0  0  0  0  0  # atno 6908 bound_to 6896
  152.5072  134.3990  159.9462 H   0  0  0  0  0  0  0  0  0  0  0  0  # atno 6909 bound_to 6896
  146.1670  140.4492  142.8548 H   0  0  0  0  0  0  0  0  0  0  0  0  # atno 7974 bound_to 7965
  154.4407  140.1036  156.6300 H   0  0  0  0  0  0  0  0  0  0  0  0  # atno 8008 bound_to 7997
  155.5615  140.3487  155.4474 H   0  0  0  0  0  0  0  0  0  0  0  0  # atno 8009 bound_to 7997
  156.0456  140.1292  157.0096 H   0  0  0  0  0  0  0  0  0  0  0  0  # atno 8010 bound_to 7997
  140.1389  143.4296  152.1576 H   0  0  0  0  0  0  0  0  0  0  0  0  # atno 10167 bound_to 10162
  157.5748  130.8935  149.9328 H   0  0  0  0  0  0  0  0  0  0  0  0  # atno 10718 bound_to 10713
  154.2993  135.6238  153.5418 H   0  0  0  0  0  0  0  0  0  0  0  0  # atno 10763 bound_to 10752
  152.9842  135.5674  154.5302 H   0  0  0  0  0  0  0  0  0  0  0  0  # atno 10764 bound_to 10752
  154.4929  135.2868  155.1458 H   0  0  0  0  0  0  0  0  0  0  0  0  # atno 10765 bound_to 10752
  139.8847  134.8645  156.3358 H   0  0  0  0  0  0  0  0  0  0  0  0  # atno 11005 bound_to 11000
  144.8107  140.6380  143.6417 LP  0  0  0  0  0  0  0  0  0  0  0  0  # atno 17320 bound_to 7965
  145.4441  139.1532  143.3954 LP  0  0  0  0  0  0  0  0  0  0  0  0  # atno 17321 bound_to 7965
  139.5482  144.7316  151.4518 LP  0  0  0  0  0  0  0  0  0  0  0  0  # atno 17342 bound_to 10162
  140.6772  143.8163  150.7074 LP  0  0  0  0  0  0  0  0  0  0  0  0  # atno 17343 bound_to 10162
  156.0793  130.3675  150.0614 LP  0  0  0  0  0  0  0  0  0  0  0  0  # atno 17370 bound_to 10713
  156.8761  130.9541  151.3604 LP  0  0  0  0  0  0  0  0  0  0  0  0  # atno 17371 bound_to 10713
  140.9692  133.7338  156.0510 LP  0  0  0  0  0  0  0  0  0  0  0  0  # atno 17394 bound_to 11000
  140.7892  134.3637  157.5469 LP  0  0  0  0  0  0  0  0  0  0  0  0  # atno 17395 bound_to 11000

$$$$
