#       Name:                AV-unprocessed.smi:1803
#       Creating user name   scv26
#       Creation time:       Fri Mar 27 08:54:54 2020


#       File generated by GOLD software.
#

@<TRIPOS>MOLECULE
AV-unprocessed.smi:1803
    40    42     1
SMALL
NO_CHARGES


@<TRIPOS>ATOM
      1 ****        -2.1340  -1.6425  -2.2530 O.2            1 S1                 0.0000
      2 ****        -0.9302  -1.8128  -2.0661 C.2            1 S1                 0.0000
      3 ****        -0.3104  -3.0094  -2.2352 N.pl3          1 S1                -1.0000
      4 ****         0.9839  -3.2057  -1.9219 C.2            1 S1                 0.0000
      5 ****         1.9726  -3.0803  -2.8215 N.2            1 S1                 0.0000
      6 ****         3.2306  -3.3201  -2.2859 N.2            1 S1                 0.0000
      7 ****         3.1569  -3.6341  -0.9927 C.2            1 S1                 0.0000
      8 ****         1.5452  -3.6548  -0.3092 S.3            1 S1                 0.0000
      9 ****        -0.1783  -0.7707  -1.6611 N.am           1 S1                 0.0000
     10 ****        -0.6504   0.5781  -1.3568 C.3            1 S1                 0.0000
     11 ****         0.4146   1.6540  -1.6482 C.3            1 S1                 0.0000
     12 ****         0.3790   2.5844  -0.4316 C.3            1 S1                 0.0000
     13 ****         0.0038   1.6836   0.6645 N.4            1 S1                 1.0000
     14 ****        -0.3762   2.2785   1.9622 C.3            1 S1                 0.0000
     15 ****        -0.5593   1.1412   2.9893 C.3            1 S1                 0.0000
     16 ****        -1.5320   0.0522   2.4846 C.3            1 S1                 0.0000
     17 ****        -1.1497  -0.4419   1.0736 C.3            1 S1                 0.0000
     18 ****        -1.0217   0.7706   0.1319 C.3            1 S1                 0.0000
     19 ****         4.0569  -3.8534  -0.4377 H              1 S1                 0.0000
     20 ****         0.8086  -0.9425  -1.5362 H              1 S1                 0.0000
     21 ****        -1.5290   0.7998  -1.9655 H              1 S1                 0.0000
     22 ****         1.4035   1.1989  -1.7234 H              1 S1                 0.0000
     23 ****         0.2285   2.1856  -2.5819 H              1 S1                 0.0000
     24 ****         1.3355   3.0747  -0.2484 H              1 S1                 0.0000
     25 ****        -0.3868   3.3516  -0.5572 H              1 S1                 0.0000
     26 ****         0.4036   2.9642   2.2952 H              1 S1                 0.0000
     27 ****        -1.2945   2.8578   1.8555 H              1 S1                 0.0000
     28 ****         0.4100   0.6837   3.1921 H              1 S1                 0.0000
     29 ****        -0.9112   1.5464   3.9384 H              1 S1                 0.0000
     30 ****        -1.5518  -0.7858   3.1820 H              1 S1                 0.0000
     31 ****        -2.5445   0.4574   2.4622 H              1 S1                 0.0000
     32 ****        -0.2097  -0.9942   1.1151 H              1 S1                 0.0000
     33 ****        -1.9083  -1.1335   0.7062 H              1 S1                 0.0000
     34 ****        -1.9739   1.3054   0.1434 H              1 S1                 0.0000
     35 ****         0.8192   1.1127   0.8357 H              1 S1                 0.0000
     36 ****        -2.7079  -2.4077  -2.5446 LP             1 S1                 0.0000
     37 ****        -2.5388  -0.7388  -2.1133 LP             1 S1                 0.0000
     38 ****        -0.8361  -3.7745  -2.6069 LP             1 S1                 0.0000
     39 ****         1.8185  -2.8388  -3.7795 LP             1 S1                 0.0000
     40 ****         4.0838  -3.2643  -2.8044 LP             1 S1                 0.0000
@<TRIPOS>BOND
    1    1    2 2     
    2    2    3 1     
    3    2    9 am    
    4    3    4 1     
    5    4    8 1     
    6    4    5 2     
    7    5    6 1     
    8    6    7 2     
    9    7    8 1     
   10    7   19 1     
   11    9   10 1     
   12    9   20 1     
   13   10   18 1     
   14   10   11 1     
   15   10   21 1     
   16   11   12 1     
   17   11   22 1     
   18   11   23 1     
   19   12   13 1     
   20   12   24 1     
   21   12   25 1     
   22   13   18 1     
   23   13   14 1     
   24   13   35 1     
   25   14   15 1     
   26   14   26 1     
   27   14   27 1     
   28   15   16 1     
   29   15   28 1     
   30   15   29 1     
   31   16   17 1     
   32   16   30 1     
   33   16   31 1     
   34   17   18 1     
   35   17   32 1     
   36   17   33 1     
   37   18   34 1     
   38    1   36 1     
   39    1   37 1     
   40    3   38 1     
   41    5   39 1     
   42    6   40 1     
@<TRIPOS>SUBSTRUCTURE
      1 S1             1
@<TRIPOS>SET
LONE_PAIRS      STATIC     ATOMS    <user>   **** ""
5 36 37 38 39 40
DONOR_HYDROGENS      STATIC     ATOMS    <user>   **** ""
2 20 35
ATOM$BLUE        STATIC     ATOMS    COLORGROUP SYSTEM
5 36 37 38 39 40
ATOM$RED        STATIC     ATOMS    COLORGROUP SYSTEM
2 20 35
