#       Name:                AV-unprocessed.smi:270
#       Creating user name   scv26
#       Creation time:       Thu Mar 26 21:27:27 2020


#       File generated by GOLD software.
#

@<TRIPOS>MOLECULE
AV-unprocessed.smi:270
    66    69     1
SMALL
NO_CHARGES


@<TRIPOS>ATOM
      1 ****        -7.2531  -0.0009   0.4663 C.3            1 S1                 0.0000
      2 ****        -6.2265  -1.1340   0.6279 C.3            1 S1                 0.0000
      3 ****        -6.4689  -1.8676   1.8281 O.3            1 S1                 0.0000
      4 ****        -5.3111  -1.8546   2.6511 C.3            1 S1                 0.0000
      5 ****        -4.1560  -1.6829   1.6733 C.3            1 S1                 0.0000
      6 ****        -4.7360  -0.7206   0.6461 C.3            1 S1                 0.0000
      7 ****        -4.5831   0.6016   1.1383 O.3            1 S1                 0.0000
      8 ****        -4.0677  -0.8083  -0.7464 C.3            1 S1                 0.0000
      9 ****        -2.6377  -0.5438  -0.7176 N.pl3          1 S1                 0.0000
     10 ****        -1.6317  -1.4659  -0.5408 C.2            1 S1                 0.0000
     11 ****        -0.4222  -0.9764  -0.5482 N.2            1 S1                 0.0000
     12 ****        -0.6039   0.3872  -0.7517 C.ar           1 S1                 0.0000
     13 ****         0.2864   1.4956  -0.8610 C.ar           1 S1                 0.0000
     14 ****         1.7058   1.3935  -0.7817 N.3            1 S1                 0.0000
     15 ****         2.2286   0.5411   0.2761 C.3            1 S1                 0.0000
     16 ****         3.2522   1.6450   0.5591 C.3            1 S1                 0.0000
     17 ****         4.5440   1.3822   0.0338 O.3            1 S1                 0.0000
     18 ****         5.3055   0.5112   0.8552 C.3            1 S1                 0.0000
     19 ****         6.6579   0.2490   0.1817 C.2            1 S1                 0.0000
     20 ****         7.6650   0.7528   0.6811 O.2            1 S1                 0.0000
     21 ****         6.7074  -0.5244  -0.9283 N.am           1 S1                 0.0000
     22 ****         5.5203  -1.1389  -1.5309 C.3            1 S1                 0.0000
     23 ****         7.9891  -0.7903  -1.5872 C.3            1 S1                 0.0000
     24 ****         2.4426   2.5744  -0.3459 C.3            1 S1                 0.0000
     25 ****        -0.2882   2.7054  -1.1001 N.ar           1 S1                 0.0000
     26 ****        -1.6146   2.8363  -1.1920 C.ar           1 S1                 0.0000
     27 ****        -2.5529   1.8952  -1.0896 N.ar           1 S1                 0.0000
     28 ****        -1.9945   0.6718  -0.8719 C.ar           1 S1                 0.0000
     29 ****        -7.0628   0.5741  -0.4402 H              1 S1                 0.0000
     30 ****        -7.2313   0.6855   1.3132 H              1 S1                 0.0000
     31 ****        -8.2642  -0.4026   0.3981 H              1 S1                 0.0000
     32 ****        -6.3829  -1.8477  -0.1821 H              1 S1                 0.0000
     33 ****        -5.3676  -1.0058   3.3342 H              1 S1                 0.0000
     34 ****        -5.2313  -2.7656   3.2444 H              1 S1                 0.0000
     35 ****        -3.2418  -1.3238   2.1483 H              1 S1                 0.0000
     36 ****        -3.9358  -2.6445   1.2073 H              1 S1                 0.0000
     37 ****        -3.6625   0.8148   1.1469 H              1 S1                 0.0000
     38 ****        -4.2155  -1.8009  -1.1739 H              1 S1                 0.0000
     39 ****        -4.5377  -0.1065  -1.4368 H              1 S1                 0.0000
     40 ****        -1.8247  -2.5194  -0.3996 H              1 S1                 0.0000
     41 ****         1.5306   0.3893   1.1008 H              1 S1                 0.0000
     42 ****         2.6512  -0.3931  -0.0942 H              1 S1                 0.0000
     43 ****         3.2632   1.9799   1.5978 H              1 S1                 0.0000
     44 ****         5.4685   0.9750   1.8295 H              1 S1                 0.0000
     45 ****         4.7843  -0.4295   1.0352 H              1 S1                 0.0000
     46 ****         5.0239  -1.8016  -0.8215 H              1 S1                 0.0000
     47 ****         5.7563  -1.7379  -2.4104 H              1 S1                 0.0000
     48 ****         4.8072  -0.3773  -1.8481 H              1 S1                 0.0000
     49 ****         8.4625   0.1437  -1.8935 H              1 S1                 0.0000
     50 ****         7.8916  -1.4096  -2.4788 H              1 S1                 0.0000
     51 ****         8.6678  -1.3064  -0.9065 H              1 S1                 0.0000
     52 ****         3.0196   3.0442  -1.1428 H              1 S1                 0.0000
     53 ****         1.8489   3.2935   0.2205 H              1 S1                 0.0000
     54 ****        -1.9747   3.8384  -1.3730 H              1 S1                 0.0000
     55 ****        -6.6997  -2.8128   1.5970 LP             1 S1                 0.0000
     56 ****        -7.2309  -1.4498   2.3228 LP             1 S1                 0.0000
     57 ****        -4.9514   0.6606   2.0661 LP             1 S1                 0.0000
     58 ****        -5.0716   1.2409   0.5445 LP             1 S1                 0.0000
     59 ****         0.4399  -1.4699  -0.4335 LP             1 S1                 0.0000
     60 ****         1.8345   1.1043  -1.7303 LP             1 S1                 0.0000
     61 ****         5.0353   2.2487  -0.0545 LP             1 S1                 0.0000
     62 ****         4.4427   0.9631  -0.8684 LP             1 S1                 0.0000
     63 ****         7.5870   1.3155   1.5041 LP             1 S1                 0.0000
     64 ****         8.5606   0.5990   0.2636 LP             1 S1                 0.0000
     65 ****         0.2931   3.5117  -1.2091 LP             1 S1                 0.0000
     66 ****        -3.5357   2.0646  -1.1628 LP             1 S1                 0.0000
@<TRIPOS>BOND
    1    1    2 1     
    2    1   29 1     
    3    1   30 1     
    4    1   31 1     
    5    2    6 1     
    6    2    3 1     
    7    2   32 1     
    8    3    4 1     
    9    4    5 1     
   10    4   33 1     
   11    4   34 1     
   12    5    6 1     
   13    5   35 1     
   14    5   36 1     
   15    6    7 1     
   16    6    8 1     
   17    7   37 1     
   18    8    9 1     
   19    8   38 1     
   20    8   39 1     
   21    9   28 1     
   22    9   10 1     
   23   10   11 2     
   24   10   40 1     
   25   11   12 1     
   26   12   28 ar    
   27   12   13 ar    
   28   13   14 1     
   29   13   25 ar    
   30   14   24 1     
   31   14   15 1     
   32   15   16 1     
   33   15   41 1     
   34   15   42 1     
   35   16   17 1     
   36   16   24 1     
   37   16   43 1     
   38   17   18 1     
   39   18   19 1     
   40   18   44 1     
   41   18   45 1     
   42   19   20 2     
   43   19   21 am    
   44   21   22 1     
   45   21   23 1     
   46   22   46 1     
   47   22   47 1     
   48   22   48 1     
   49   23   49 1     
   50   23   50 1     
   51   23   51 1     
   52   24   52 1     
   53   24   53 1     
   54   25   26 ar    
   55   26   27 ar    
   56   26   54 1     
   57   27   28 ar    
   58    3   55 1     
   59    3   56 1     
   60    7   57 1     
   61    7   58 1     
   62   11   59 1     
   63   14   60 1     
   64   17   61 1     
   65   17   62 1     
   66   20   63 1     
   67   20   64 1     
   68   25   65 1     
   69   27   66 1     
@<TRIPOS>SUBSTRUCTURE
      1 S1             1
@<TRIPOS>SET
LONE_PAIRS      STATIC     ATOMS    <user>   **** ""
12 55 56 57 58 59 60 61 62 63 64 65 66
DONOR_HYDROGENS      STATIC     ATOMS    <user>   **** ""
1 37
ATOM$BLUE        STATIC     ATOMS    COLORGROUP SYSTEM
12 55 56 57 58 59 60 61 62 63 64 65 66
ATOM$RED        STATIC     ATOMS    COLORGROUP SYSTEM
1 37
