#       Name:                AV-unprocessed.smi:883
#       Creating user name   scv26
#       Creation time:       Fri Mar 27 01:53:14 2020


#       File generated by GOLD software.
#

@<TRIPOS>MOLECULE
AV-unprocessed.smi:883
    33    35     1
SMALL
NO_CHARGES


@<TRIPOS>ATOM
      1 ****        -6.5238  -0.3687   0.1107 N.1            1 S1                 0.0000
      2 ****        -5.3810  -0.4158  -0.0634 C.1            1 S1                 0.0000
      3 ****        -3.9460  -0.4754  -0.2818 C.ar           1 S1                 0.0000
      4 ****        -3.2936  -1.7107  -0.4634 C.ar           1 S1                 0.0000
      5 ****        -1.8996  -1.7175  -0.6668 C.ar           1 S1                 0.0000
      6 ****        -1.2071  -0.4883  -0.6821 C.ar           1 S1                 0.0000
      7 ****         0.1803  -0.5040  -0.8837 N.pl3          1 S1                 0.0000
      8 ****         0.9859   0.7018  -0.7154 C.3            1 S1                 0.0000
      9 ****         2.4443   0.5128  -1.1397 C.3            1 S1                 0.0000
     10 ****         3.2002   0.9870   0.1096 C.3            1 S1                 0.0000
     11 ****         3.1322  -0.0513   1.2367 C.3            1 S1                 0.0000
     12 ****         1.6804   0.0807   1.6924 C.3            1 S1                 0.0000
     13 ****         1.1465   1.1692   0.7455 C.3            1 S1                 0.0000
     14 ****         2.3090   1.9694   0.6106 O.3            1 S1                 0.0000
     15 ****        -1.8346   0.7002  -0.5130 N.ar           1 S1                 0.0000
     16 ****        -3.1708   0.7013  -0.3166 C.ar           1 S1                 0.0000
     17 ****        -3.8456  -2.6396  -0.4464 H              1 S1                 0.0000
     18 ****        -1.3753  -2.6517  -0.8062 H              1 S1                 0.0000
     19 ****         0.6560  -1.3903  -0.9705 H              1 S1                 0.0000
     20 ****         0.5550   1.5088  -1.3100 H              1 S1                 0.0000
     21 ****         2.6977  -0.5153  -1.4028 H              1 S1                 0.0000
     22 ****         2.6725   1.1463  -1.9975 H              1 S1                 0.0000
     23 ****         4.2069   1.3527  -0.0940 H              1 S1                 0.0000
     24 ****         3.3801  -1.0558   0.8928 H              1 S1                 0.0000
     25 ****         3.8123   0.2101   2.0483 H              1 S1                 0.0000
     26 ****         1.1253  -0.8551   1.6262 H              1 S1                 0.0000
     27 ****         1.6393   0.4214   2.7276 H              1 S1                 0.0000
     28 ****         0.2827   1.7071   1.1370 H              1 S1                 0.0000
     29 ****        -3.6284   1.6710  -0.1829 H              1 S1                 0.0000
     30 ****        -7.5116  -0.3280   0.2611 LP             1 S1                 0.0000
     31 ****         2.1747   2.7189  -0.0377 LP             1 S1                 0.0000
     32 ****         2.6136   2.3386   1.4886 LP             1 S1                 0.0000
     33 ****        -1.3201   1.5574  -0.5332 LP             1 S1                 0.0000
@<TRIPOS>BOND
    1    1    2 3     
    2    2    3 1     
    3    3   16 ar    
    4    3    4 ar    
    5    4    5 ar    
    6    4   17 1     
    7    5    6 ar    
    8    5   18 1     
    9    6    7 1     
   10    6   15 ar    
   11    7    8 1     
   12    7   19 1     
   13    8   13 1     
   14    8    9 1     
   15    8   20 1     
   16    9   10 1     
   17    9   21 1     
   18    9   22 1     
   19   10   14 1     
   20   10   11 1     
   21   10   23 1     
   22   11   12 1     
   23   11   24 1     
   24   11   25 1     
   25   12   13 1     
   26   12   26 1     
   27   12   27 1     
   28   13   14 1     
   29   13   28 1     
   30   15   16 ar    
   31   16   29 1     
   32    1   30 1     
   33   14   31 1     
   34   14   32 1     
   35   15   33 1     
@<TRIPOS>SUBSTRUCTURE
      1 S1             1
@<TRIPOS>SET
LONE_PAIRS      STATIC     ATOMS    <user>   **** ""
4 30 31 32 33
DONOR_HYDROGENS      STATIC     ATOMS    <user>   **** ""
1 19
ATOM$BLUE        STATIC     ATOMS    COLORGROUP SYSTEM
4 30 31 32 33
ATOM$RED        STATIC     ATOMS    COLORGROUP SYSTEM
1 19
