AV-unprocessed.smi:290|AV-procd|sdf|2235|dock5
  -GOLD-   2262022103D 1   1.00000     0.00000
 Structure written by MMmdl.
 59 62  0  0  0  0  0  0  0  0  2 V2000
  150.6144  141.3767  156.6224 C   0  0  0  0  0  0  0  0  0  0  0  0
  151.4184  140.3795  155.7752 C   0  0  2  0  0  0  0  0  0  0  0  0
  150.7260  140.0690  154.5688 O   0  0  0  0  0  0  0  0  0  0  0  0
  150.9787  138.7187  154.1903 C   0  0  0  0  0  0  0  0  0  0  0  0
  152.0292  138.2041  155.1702 C   0  0  0  0  0  0  0  0  0  0  0  0
  151.7434  139.0207  156.4246 C   0  0  1  0  0  0  0  0  0  0  0  0
  152.9296  139.1123  157.1902 O   0  0  0  0  0  0  0  0  0  0  0  0
  150.5958  138.4496  157.3029 C   0  0  0  0  0  0  0  0  0  0  0  0
  149.3586  138.2038  156.5790 N   0  0  0  0  0  0  0  0  0  0  0  0
  148.5366  139.1500  156.0106 C   0  0  0  0  0  0  0  0  0  0  0  0
  147.4760  138.6795  155.4136 N   0  0  0  0  0  0  0  0  0  0  0  0
  147.5617  137.3046  155.6008 C   0  0  0  0  0  0  0  0  0  0  0  0
  146.7549  136.1926  155.2239 C   0  0  0  0  0  0  0  0  0  0  0  0
  145.6118  136.2606  154.5054 N   0  0  0  0  0  0  0  0  0  0  0  0
  145.6924  136.7930  153.1466 C   0  0  0  0  0  0  0  0  0  0  0  0
  144.9730  135.7886  152.2386 C   0  0  0  0  0  0  0  0  0  0  0  0
  144.9781  134.4923  153.0590 C   0  0  2  0  0  0  0  0  0  0  0  0
  143.9730  133.4639  152.6588 N   0  3  1  0  0  0  0  0  0  0  0  0
  142.6709  134.0579  152.2607 C   0  0  0  0  0  0  0  0  0  0  0  0
  144.5014  132.5349  151.6213 C   0  0  0  0  0  0  0  0  0  0  0  0
  145.9593  132.1085  151.8716 C   0  0  0  0  0  0  0  0  0  0  0  0
  146.7642  132.4403  150.7610 O   0  0  0  0  0  0  0  0  0  0  0  0
  144.8256  135.0320  154.4972 C   0  0  2  0  0  0  0  0  0  0  0  0
  143.3741  135.3414  154.9111 C   0  0  0  0  0  0  0  0  0  0  0  0
  147.1783  134.9536  155.5727 N   0  0  0  0  0  0  0  0  0  0  0  0
  148.3092  134.8040  156.2687 C   0  0  0  0  0  0  0  0  0  0  0  0
  149.1553  135.7424  156.6987 N   0  0  0  0  0  0  0  0  0  0  0  0
  148.7417  136.9896  156.3324 C   0  0  0  0  0  0  0  0  0  0  0  0
  145.9657  134.0405  152.9567 H   0  0  0  0  0  0  0  0  0  0  0  0
  145.2389  134.3142  155.2078 H   0  0  0  0  0  0  0  0  0  0  0  0
  151.1211  141.5893  157.5641 H   0  0  0  0  0  0  0  0  0  0  0  0
  149.6168  141.0017  156.8508 H   0  0  0  0  0  0  0  0  0  0  0  0
  150.4928  142.3208  156.0910 H   0  0  0  0  0  0  0  0  0  0  0  0
  152.3528  140.8573  155.4737 H   0  0  0  0  0  0  0  0  0  0  0  0
  150.0531  138.1503  154.2854 H   0  0  0  0  0  0  0  0  0  0  0  0
  151.3122  138.6519  153.1546 H   0  0  0  0  0  0  0  0  0  0  0  0
  151.9973  137.1242  155.3082 H   0  0  0  0  0  0  0  0  0  0  0  0
  153.0195  138.4479  154.7811 H   0  0  0  0  0  0  0  0  0  0  0  0
  153.2843  138.2429  157.2987 H   0  0  0  0  0  0  0  0  0  0  0  0
  150.9022  137.5104  157.7649 H   0  0  0  0  0  0  0  0  0  0  0  0
  150.3728  139.1312  158.1248 H   0  0  0  0  0  0  0  0  0  0  0  0
  148.7555  140.2073  156.0462 H   0  0  0  0  0  0  0  0  0  0  0  0
  145.2122  137.7708  153.1008 H   0  0  0  0  0  0  0  0  0  0  0  0
  146.7245  136.9316  152.8248 H   0  0  0  0  0  0  0  0  0  0  0  0
  143.9510  136.1253  152.0608 H   0  0  0  0  0  0  0  0  0  0  0  0
  145.4670  135.6844  151.2721 H   0  0  0  0  0  0  0  0  0  0  0  0
  142.7961  134.7374  151.4167 H   0  0  0  0  0  0  0  0  0  0  0  0
  142.2173  134.6124  153.0817 H   0  0  0  0  0  0  0  0  0  0  0  0
  141.9475  133.2964  151.9749 H   0  0  0  0  0  0  0  0  0  0  0  0
  143.8584  131.6553  151.5682 H   0  0  0  0  0  0  0  0  0  0  0  0
  144.4556  132.9953  150.6347 H   0  0  0  0  0  0  0  0  0  0  0  0
  146.3771  132.5515  152.7743 H   0  0  0  0  0  0  0  0  0  0  0  0
  146.0034  131.0277  152.0083 H   0  0  0  0  0  0  0  0  0  0  0  0
  147.2864  131.6865  150.5304 H   0  0  0  0  0  0  0  0  0  0  0  0
  142.7663  134.4386  154.9473 H   0  0  0  0  0  0  0  0  0  0  0  0
  142.8931  136.0415  154.2279 H   0  0  0  0  0  0  0  0  0  0  0  0
  143.3456  135.7851  155.9069 H   0  0  0  0  0  0  0  0  0  0  0  0
  148.5753  133.7863  156.5142 H   0  0  0  0  0  0  0  0  0  0  0  0
  143.7989  132.9054  153.4827 H   0  0  0  0  0  0  0  0  0  0  0  0
  1  2  1  0  0  0  0
  1 31  1  0  0  0  0
  1 32  1  0  0  0  0
  1 33  1  0  0  0  0
  2  6  1  0  0  0  0
  2  3  1  0  0  0  0
  2 34  1  0  0  0  0
  3  4  1  0  0  0  0
  4  5  1  0  0  0  0
  4 35  1  0  0  0  0
  4 36  1  0  0  0  0
  5  6  1  0  0  0  0
  5 37  1  0  0  0  0
  5 38  1  0  0  0  0
  6  7  1  0  0  0  0
  6  8  1  0  0  0  0
  7 39  1  0  0  0  0
  8  9  1  0  0  0  0
  8 40  1  0  0  0  0
  8 41  1  0  0  0  0
  9 28  1  0  0  0  0
  9 10  1  0  0  0  0
 10 11  2  0  0  0  0
 10 42  1  0  0  0  0
 11 12  1  0  0  0  0
 12 28  2  0  0  0  0
 12 13  1  0  0  0  0
 13 14  1  0  0  0  0
 13 25  2  0  0  0  0
 14 23  1  0  0  0  0
 14 15  1  0  0  0  0
 15 16  1  0  0  0  0
 15 43  1  0  0  0  0
 15 44  1  0  0  0  0
 16 17  1  0  0  0  0
 16 45  1  0  0  0  0
 16 46  1  0  0  0  0
 17 29  1  0  0  0  0
 17 18  1  0  0  0  0
 17 23  1  0  0  0  0
 18 19  1  0  0  0  0
 18 20  1  0  0  0  0
 18 59  1  0  0  0  0
 19 47  1  0  0  0  0
 19 48  1  0  0  0  0
 19 49  1  0  0  0  0
 20 21  1  0  0  0  0
 20 50  1  0  0  0  0
 20 51  1  0  0  0  0
 21 22  1  0  0  0  0
 21 52  1  0  0  0  0
 21 53  1  0  0  0  0
 22 54  1  0  0  0  0
 23 30  1  0  0  0  0
 23 24  1  0  0  0  0
 24 55  1  0  0  0  0
 24 56  1  0  0  0  0
 24 57  1  0  0  0  0
 25 26  1  0  0  0  0
 26 27  2  0  0  0  0
 26 58  1  0  0  0  0
 27 28  1  0  0  0  0
M  CHG  1  18   1
M  END
> <s_m_source_file>
AV-unprocessed.smi

> <i_m_source_file_index>
290

> <i_lp_mmshare_version>
43012

> <i_f3d_flags>
0

> <s_epik_input>
W0NIMl0xW0NIMl1PW0NAQEhdKFtDSDNdKVtDQEBdMShbT0hdKVtDSDJdbihbY0hdbjIpYyhjMjMpbltjSF1uYzNONFtDSDJdW0NIMl1bQ0BIXShbQ0BIXTRbQ0gzXSlOKFtDSDNdKVtDSDJdW0NIMl1bT0hd

> <s_epik_cmdline>
J2VwaWtfcHl0aG9uJywgJy1waCcsICc3LjAnLCAnLXRuJywgJzgnLCAnLW1hJywgJzIwMCcsICctbWV0YWxfYmluZGluZycsICctaW1hZScsICc8aW5maWxlLm1hZT4nLCAnLW9tYWUnLCAnPG91dGZpbGUubWFlPic=

> <r_lp_tautomer_probability>
1

> <r_epik_Ionization_Penalty>
0.0036983

> <r_epik_Ionization_Penalty_Charging>
0.0032725

> <r_epik_Ionization_Penalty_Neutral>
0.000425798

> <r_epik_State_Penalty>
-0

> <r_epik_Charging_Adjusted_Penalty>
0.0032725

> <i_epik_Tot_Q>
1

> <i_epik_Tot_abs_Q>
1

> <r_epik_Metal_State_Penalty>
-0

> <b_epik_Metal_Only>
0

> <s_lp_Force_Field>
OPLS_2005

> <r_lp_Energy>
64.7341

> <b_lp_Chiralities_Consistent>
1

> <s_lp_Variant>
AV-unprocessed.smi:290-21

> <Gold.Version>
5.8.1

> <Gold.Id.Protein>
6NUR|6NUR_protein|mol2

> <Gold.PLP.Fitness>
40.8189

> <Gold.PLP.PLP>
-28.0745

> <Gold.PLP.part.hbond>
-4.0000

> <Gold.PLP.part.metal>
0.0000

> <Gold.PLP.part.buried>
-5.8900

> <Gold.PLP.part.nonpolar>
-19.3518

> <Gold.PLP.part.repulsive>
0.1810

> <Gold.PLP.ligand.clash>
0.0000

> <Gold.PLP.ligand.torsion>
1.2655

> <Gold.PLP.Chemscore.Hbond>
5.0000

> <Gold.PLP.Chemscore.CHOScore>
0.0000

> <Gold.PLP.Chemscore.Metal>
0.0000

> <Gold.Chemscore.Hbonds>
donor molecule, donor type, donor heavy atom, donor atom, acceptor molecule, acceptor atom, score
      L1  H    18    59       P1 10957  1.85
      L1  H    22    54       P1 10747  1.00
      P1  H  7989  7998       L1     3  1.00
      P1  H  7997  8009       L1     7  1.00

> <Gold.PLP.Chemscore.Internal.Correction>
0.2754

> <Gold.Rescore>
     Score         DG    S(hbond)    S(metal)    S(lipo)     H(rot)  DE(clash)    DE(int)     intcor
     10.23     -15.00       3.22        0.00      69.58       3.67       0.02       4.76       ----

> <Gold.Chemscore.Fitness>
10.2275

> <Gold.Chemscore.DG>
-15.0045

> <Gold.Chemscore.ZeroCoef>
-5.4800

> <Gold.Chemscore.Hbond>
3.2241

> <Gold.Chemscore.Metal>
0.0000

> <Gold.Chemscore.Lipo>
69.5765

> <Gold.Chemscore.Internal_Hbond>
0.0000

> <Gold.Chemscore.DEClash>
0.0202

> <Gold.Chemscore.DEInternal>
4.7567

> <Gold.Chemscore.Rot>
3.6658

> <Gold.Chemscore.Internal.Correction>
   9.000000E+99

> <Gold.Chemscore.Hbonds>
donor molecule, donor type, donor heavy atom, donor atom, acceptor molecule, acceptor atom, score
      L1  H    18    59       P1 10957  0.65
      L1  H    22    54       P1 10747  0.95
      P1  H  7989  7998       L1     3  0.09
      P1  H  7997  8009       L1     7  0.39

> <Gold.Chemscore.Hbond.Weighted>
-10.7684

> <Gold.Chemscore.Metal.Weighted>
-0.0000

> <Gold.Chemscore.Lipo.Weighted>
-8.1405

> <Gold.Chemscore.Internal_Hbond.Weighted>
0.0000

> <Gold.Chemscore.DEClash.Weighted>
0.0202

> <Gold.Chemscore.DEInternal.Weighted>
4.7567

> <Gold.Chemscore.Rot.Weighted>
9.3844

> <Gold.Chemscore.Internal.Correction.Weighted>
   9.000000E+99

> <Gold.Protein.RotatedTorsions>
[ 6907 6896 6895 6894 ] final -179.79 input  -60.11 | X-H torsion
[ 7974 7965 7964 7962 ] final  154.79 input  175.53 | X-H torsion
[ 8008 7997 7996 7995 ] final -174.73 input   59.86 | X-H torsion
[ 10167 10162 10161 10158 ] final   76.59 input  -65.29 | X-H torsion
[ 10718 10713 10712 10709 ] final -116.84 input   66.30 | X-H torsion
[ 10763 10752 10751 10750 ] final  -96.50 input  -60.55 | X-H torsion
[ 11005 11000 10999 10996 ] final  164.10 input  -57.11 | X-H torsion

> <Gold.Protein.ActiveResidues>
 VAL166  LYS551  ARG553  GLY616  TRP617  ASP618  TYR619  PRO620  LYS621  CYS622 
 ASP623  PHE694  ASN695  SER759  ASP760  ASP761  ALA762  ILE779  LEU786  VAL792 
 PHE793  MET794  SER795  GLU796  ALA797  LYS798  CYS799  TRP800  GLU811  SER814 

> <Gold.Protein.RotatedAtoms>
  151.6591  133.3317  159.3169 H   0  0  0  0  0  0  0  0  0  0  0  0  # atno 6907 bound_to 6896
  150.7922  134.6959  159.6532 H   0  0  0  0  0  0  0  0  0  0  0  0  # atno 6908 bound_to 6896
  152.4004  134.6300  160.0124 H   0  0  0  0  0  0  0  0  0  0  0  0  # atno 6909 bound_to 6896
  144.8066  139.6981  143.6159 H   0  0  0  0  0  0  0  0  0  0  0  0  # atno 7974 bound_to 7965
  155.9737  140.1168  157.0789 H   0  0  0  0  0  0  0  0  0  0  0  0  # atno 8008 bound_to 7997
  154.4163  140.1158  156.5409 H   0  0  0  0  0  0  0  0  0  0  0  0  # atno 8009 bound_to 7997
  155.6563  140.3473  155.4768 H   0  0  0  0  0  0  0  0  0  0  0  0  # atno 8010 bound_to 7997
  139.9906  144.5760  150.7821 H   0  0  0  0  0  0  0  0  0  0  0  0  # atno 10167 bound_to 10162
  156.0991  130.6157  150.9087 H   0  0  0  0  0  0  0  0  0  0  0  0  # atno 10718 bound_to 10713
  154.7245  135.5081  153.8865 H   0  0  0  0  0  0  0  0  0  0  0  0  # atno 10763 bound_to 10752
  153.0892  135.6654  153.9896 H   0  0  0  0  0  0  0  0  0  0  0  0  # atno 10764 bound_to 10752
  153.9711  135.3038  155.3406 H   0  0  0  0  0  0  0  0  0  0  0  0  # atno 10765 bound_to 10752
  140.2424  134.8040  157.3424 H   0  0  0  0  0  0  0  0  0  0  0  0  # atno 11005 bound_to 11000
  146.2358  139.5903  142.9524 LP  0  0  0  0  0  0  0  0  0  0  0  0  # atno 17320 bound_to 7965
  145.5424  141.0420  143.2323 LP  0  0  0  0  0  0  0  0  0  0  0  0  # atno 17321 bound_to 7965
  140.7456  143.2878  151.3415 LP  0  0  0  0  0  0  0  0  0  0  0  0  # atno 17342 bound_to 10162
  139.6343  144.0661  152.2502 LP  0  0  0  0  0  0  0  0  0  0  0  0  # atno 17343 bound_to 10162
  157.6158  131.0933  150.8712 LP  0  0  0  0  0  0  0  0  0  0  0  0  # atno 17370 bound_to 10713
  156.8844  130.5190  149.5289 LP  0  0  0  0  0  0  0  0  0  0  0  0  # atno 17371 bound_to 10713
  140.1639  134.4693  155.7876 LP  0  0  0  0  0  0  0  0  0  0  0  0  # atno 17394 bound_to 11000
  141.2209  133.6913  156.7592 LP  0  0  0  0  0  0  0  0  0  0  0  0  # atno 17395 bound_to 11000

$$$$
