AV-unprocessed.smi:2751|AV-procd|sdf|10600|dock4
  -GOLD-   2272015 53D 1   1.00000     0.00000
 Structure written by MMmdl.
 34 35  0  0  0  0  0  0  0  0  1 V2000
  150.2130  140.3047  154.6216 O   0  0  0  0  0  0  0  0  0  0  0  0
  149.4281  141.2296  154.8547 C   0  0  0  0  0  0  0  0  0  0  0  0
  149.7566  142.2348  155.6802 N   0  0  0  0  0  0  0  0  0  0  0  0
  151.0262  142.3713  156.3859 C   0  0  0  0  0  0  0  0  0  0  0  0
  150.9203  141.8824  157.8407 C   0  0  0  0  0  0  0  0  0  0  0  0
  151.8032  142.6877  158.8073 C   0  0  1  0  0  0  0  0  0  0  0  0
  151.3089  144.1392  158.9642 C   0  0  0  0  0  0  0  0  0  0  0  0
  152.1600  144.8921  159.9933 C   0  0  0  0  0  0  0  0  0  0  0  0
  152.2094  144.0990  161.3035 C   0  0  0  0  0  0  0  0  0  0  0  0
  152.6517  142.6520  161.0343 C   0  0  0  0  0  0  0  0  0  0  0  0
  151.7808  142.0485  160.0825 O   0  0  0  0  0  0  0  0  0  0  0  0
  148.1444  141.4203  154.3635 N   0  0  0  0  0  0  0  0  0  0  0  0
  147.5602  140.4696  153.7019 C   0  0  0  0  0  0  0  0  0  0  0  0
  146.2910  140.4839  153.1457 N   0  0  0  0  0  0  0  0  0  0  0  0
  146.0769  139.2756  152.5421 C   0  0  0  0  0  0  0  0  0  0  0  0
  147.1657  138.5306  152.7093 C   0  0  0  0  0  0  0  0  0  0  0  0
  148.0939  139.2337  153.4162 O   0  0  0  0  0  0  0  0  0  0  0  0
  149.0718  142.9613  155.8318 H   0  0  0  0  0  0  0  0  0  0  0  0
  151.8111  141.8322  155.8528 H   0  0  0  0  0  0  0  0  0  0  0  0
  151.3086  143.4241  156.3687 H   0  0  0  0  0  0  0  0  0  0  0  0
  149.8803  141.9547  158.1619 H   0  0  0  0  0  0  0  0  0  0  0  0
  151.1866  140.8265  157.8999 H   0  0  0  0  0  0  0  0  0  0  0  0
  152.8261  142.6939  158.4264 H   0  0  0  0  0  0  0  0  0  0  0  0
  151.3423  144.6565  158.0051 H   0  0  0  0  0  0  0  0  0  0  0  0
  150.2660  144.1409  159.2843 H   0  0  0  0  0  0  0  0  0  0  0  0
  153.1710  145.0255  159.6064 H   0  0  0  0  0  0  0  0  0  0  0  0
  151.7550  145.8895  160.1665 H   0  0  0  0  0  0  0  0  0  0  0  0
  152.8881  144.5775  162.0100 H   0  0  0  0  0  0  0  0  0  0  0  0
  151.2230  144.0974  161.7688 H   0  0  0  0  0  0  0  0  0  0  0  0
  153.6808  142.6196  160.6736 H   0  0  0  0  0  0  0  0  0  0  0  0
  152.6202  142.0726  161.9572 H   0  0  0  0  0  0  0  0  0  0  0  0
  145.6097  141.2291  153.1603 H   0  0  0  0  0  0  0  0  0  0  0  0
  145.1406  139.0724  152.0438 H   0  0  0  0  0  0  0  0  0  0  0  0
  147.4236  137.5278  152.4021 H   0  0  0  0  0  0  0  0  0  0  0  0
  1  2  2  0  0  0  0
  2 12  1  0  0  0  0
  2  3  1  0  0  0  0
  3  4  1  0  0  0  0
  3 18  1  0  0  0  0
  4  5  1  0  0  0  0
  4 19  1  0  0  0  0
  4 20  1  0  0  0  0
  5  6  1  0  0  0  0
  5 21  1  0  0  0  0
  5 22  1  0  0  0  0
  6 11  1  0  0  0  0
  6  7  1  0  0  0  0
  6 23  1  0  0  0  0
  7  8  1  0  0  0  0
  7 24  1  0  0  0  0
  7 25  1  0  0  0  0
  8  9  1  0  0  0  0
  8 26  1  0  0  0  0
  8 27  1  0  0  0  0
  9 10  1  0  0  0  0
  9 28  1  0  0  0  0
  9 29  1  0  0  0  0
 10 11  1  0  0  0  0
 10 30  1  0  0  0  0
 10 31  1  0  0  0  0
 12 13  2  0  0  0  0
 13 17  1  0  0  0  0
 13 14  1  0  0  0  0
 14 32  1  0  0  0  0
 14 15  1  0  0  0  0
 15 33  1  0  0  0  0
 15 16  2  0  0  0  0
 16 34  1  0  0  0  0
 16 17  1  0  0  0  0
M  END
> <s_m_source_file>
AV-unprocessed.smi

> <i_m_source_file_index>
2751

> <i_lp_mmshare_version>
43012

> <i_f3d_flags>
0

> <s_epik_input>
bzFbY0hdW2NIXW5jMVtOSF1DKD1PKVtOSF1bQ0gyXVtDSDJdW0NAQEhdMltDSDJdW0NIMl1bQ0gyXVtDSDJdTzI=

> <s_epik_cmdline>
J2VwaWtfcHl0aG9uJywgJy1waCcsICc3LjAnLCAnLXRuJywgJzgnLCAnLW1hJywgJzIwMCcsICctbWV0YWxfYmluZGluZycsICctaW1hZScsICc8aW5maWxlLm1hZT4nLCAnLW9tYWUnLCAnPG91dGZpbGUubWFlPic=

> <r_lp_tautomer_probability>
0.107061

> <r_epik_Ionization_Penalty>
1.421

> <r_epik_Ionization_Penalty_Charging>
1.42064

> <r_epik_Ionization_Penalty_Neutral>
0.0003614

> <r_epik_State_Penalty>
2.61489

> <r_epik_Charging_Adjusted_Penalty>
4.03553

> <i_epik_Tot_Q>
0

> <i_epik_Tot_abs_Q>
0

> <r_epik_Metal_State_Penalty>
3.57288

> <b_epik_Metal_Only>
0

> <s_lp_Force_Field>
OPLS_2005

> <r_lp_Energy>
32.4841

> <b_lp_Chiralities_Consistent>
1

> <s_lp_Variant>
AV-unprocessed.smi:2751-6

> <Gold.Version>
5.8.1

> <Gold.Id.Protein>
6NUR|6NUR_protein|mol2

> <Gold.PLP.Fitness>
45.1053

> <Gold.PLP.PLP>
-31.8954

> <Gold.PLP.part.hbond>
-4.0000

> <Gold.PLP.part.metal>
0.0000

> <Gold.PLP.part.buried>
-1.0685

> <Gold.PLP.part.nonpolar>
-28.8502

> <Gold.PLP.part.repulsive>
2.5747

> <Gold.PLP.ligand.clash>
0.0000

> <Gold.PLP.ligand.torsion>
0.4309

> <Gold.PLP.Chemscore.Hbond>
2.0091

> <Gold.PLP.Chemscore.CHOScore>
2.6751

> <Gold.PLP.Chemscore.Metal>
0.0000

> <Gold.Chemscore.Hbonds>
donor molecule, donor type, donor heavy atom, donor atom, acceptor molecule, acceptor atom, score
      L1  H     3    18       P1  8028  0.82
      L1  H    14    32       P1 10175  0.12
      P1  H  7989  7998       L1     1  1.00
      L1  C    15    33       P1 10171  0.83
      L1  C    15    33       P1 10175  0.68
      L1  C    16    34       P1  7948  1.00

> <Gold.PLP.Chemscore.Internal.Correction>
0.0189

> <Gold.Rescore>
     Score         DG    S(hbond)    S(metal)    S(lipo)     H(rot)  DE(clash)    DE(int)     intcor
     13.97     -17.22       1.72        0.00      86.86       1.63       1.32       1.94       ----

> <Gold.Chemscore.Fitness>
13.9661

> <Gold.Chemscore.DG>
-17.2195

> <Gold.Chemscore.ZeroCoef>
-5.4800

> <Gold.Chemscore.Hbond>
1.7237

> <Gold.Chemscore.Metal>
0.0000

> <Gold.Chemscore.Lipo>
86.8572

> <Gold.Chemscore.Internal_Hbond>
0.0000

> <Gold.Chemscore.DEClash>
1.3163

> <Gold.Chemscore.DEInternal>
1.9372

> <Gold.Chemscore.Rot>
1.6328

> <Gold.Chemscore.Internal.Correction>
   9.000000E+99

> <Gold.Chemscore.Hbonds>
donor molecule, donor type, donor heavy atom, donor atom, acceptor molecule, acceptor atom, score
      L1  H     3    18       P1  8028  0.81
      L1  H    14    32       P1 10175  0.03
      P1  H  7989  7998       L1     1  0.75

> <Gold.Chemscore.Hbond.Weighted>
-5.7572

> <Gold.Chemscore.Metal.Weighted>
-0.0000

> <Gold.Chemscore.Lipo.Weighted>
-10.1623

> <Gold.Chemscore.Internal_Hbond.Weighted>
0.0000

> <Gold.Chemscore.DEClash.Weighted>
1.3163

> <Gold.Chemscore.DEInternal.Weighted>
1.9372

> <Gold.Chemscore.Rot.Weighted>
4.1799

> <Gold.Chemscore.Internal.Correction.Weighted>
   9.000000E+99

> <Gold.Protein.RotatedTorsions>
[ 6907 6896 6895 6894 ] final   67.38 input  -60.11 | X-H torsion
[ 7974 7965 7964 7962 ] final  127.45 input  175.53 | X-H torsion
[ 8008 7997 7996 7995 ] final  137.46 input   59.86 | X-H torsion
[ 10167 10162 10161 10158 ] final   38.46 input  -65.29 | X-H torsion
[ 10718 10713 10712 10709 ] final  -14.69 input   66.30 | X-H torsion
[ 10763 10752 10751 10750 ] final  171.34 input  -60.55 | X-H torsion
[ 11005 11000 10999 10996 ] final   28.34 input  -57.11 | X-H torsion

> <Gold.Protein.ActiveResidues>
 VAL166  LYS551  ARG553  GLY616  TRP617  ASP618  TYR619  PRO620  LYS621  CYS622 
 ASP623  PHE694  ASN695  SER759  ASP760  ASP761  ALA762  ILE779  LEU786  VAL792 
 PHE793  MET794  SER795  GLU796  ALA797  LYS798  CYS799  TRP800  GLU811  SER814 

> <Gold.Protein.RotatedAtoms>
  152.4548  134.5316  159.9812 H   0  0  0  0  0  0  0  0  0  0  0  0  # atno 6907 bound_to 6896
  151.5380  133.3432  159.2938 H   0  0  0  0  0  0  0  0  0  0  0  0  # atno 6908 bound_to 6896
  150.8488  134.7837  159.7055 H   0  0  0  0  0  0  0  0  0  0  0  0  # atno 6909 bound_to 6896
  145.0505  139.3887  143.5056 H   0  0  0  0  0  0  0  0  0  0  0  0  # atno 7974 bound_to 7965
  156.3002  140.2419  156.3913 H   0  0  0  0  0  0  0  0  0  0  0  0  # atno 8008 bound_to 7997
  154.8611  140.0420  157.1685 H   0  0  0  0  0  0  0  0  0  0  0  0  # atno 8009 bound_to 7997
  154.8895  140.2961  155.5382 H   0  0  0  0  0  0  0  0  0  0  0  0  # atno 8010 bound_to 7997
  140.3935  144.1821  150.6131 H   0  0  0  0  0  0  0  0  0  0  0  0  # atno 10167 bound_to 10162
  156.6124  130.4853  149.6196 H   0  0  0  0  0  0  0  0  0  0  0  0  # atno 10718 bound_to 10713
  154.4105  135.2756  155.2040 H   0  0  0  0  0  0  0  0  0  0  0  0  # atno 10763 bound_to 10752
  154.4027  135.6040  153.5910 H   0  0  0  0  0  0  0  0  0  0  0  0  # atno 10764 bound_to 10752
  152.9831  135.5930  154.4386 H   0  0  0  0  0  0  0  0  0  0  0  0  # atno 10765 bound_to 10752
  140.3166  134.2590  155.7724 H   0  0  0  0  0  0  0  0  0  0  0  0  # atno 11005 bound_to 11000
  146.3517  140.0152  142.8663 LP  0  0  0  0  0  0  0  0  0  0  0  0  # atno 17320 bound_to 7965
  145.1533  140.9635  143.4420 LP  0  0  0  0  0  0  0  0  0  0  0  0  # atno 17321 bound_to 7965
  140.4815  143.2377  151.8948 LP  0  0  0  0  0  0  0  0  0  0  0  0  # atno 17342 bound_to 10162
  139.4788  144.5264  151.8729 LP  0  0  0  0  0  0  0  0  0  0  0  0  # atno 17343 bound_to 10162
  156.2379  130.6833  151.1527 LP  0  0  0  0  0  0  0  0  0  0  0  0  # atno 17370 bound_to 10713
  157.7250  131.0656  150.5969 LP  0  0  0  0  0  0  0  0  0  0  0  0  # atno 17371 bound_to 10713
  141.2096  133.7744  156.9985 LP  0  0  0  0  0  0  0  0  0  0  0  0  # atno 17394 bound_to 11000
  140.0978  134.9554  157.1876 LP  0  0  0  0  0  0  0  0  0  0  0  0  # atno 17395 bound_to 11000

$$$$
