AV-unprocessed.smi:8|AV-procd|sdf|46|dock1
  -GOLD-   2262015163D 1   1.00000     0.00000
 Structure written by MMmdl.
 35 36  0  0  0  0  0  0  0  0  2 V2000
  151.0481  136.3714  154.8919 C   0  0  0  0  0  0  0  0  0  0  0  0
  150.5618  135.2485  155.8208 C   0  0  0  0  0  0  0  0  0  0  0  0
  150.3077  134.0128  155.1215 N   0  0  0  0  0  0  0  0  0  0  0  0
  149.4028  133.9225  154.0749 C   0  0  0  0  0  0  0  0  0  0  0  0
  149.1638  132.7795  153.3830 C   0  0  0  0  0  0  0  0  0  0  0  0
  148.1437  132.7204  152.2557 C   0  0  0  0  0  0  0  0  0  0  0  0
  147.4979  134.0036  152.0066 N   0  0  0  0  0  0  0  0  0  0  0  0
  146.2549  134.0469  151.3568 C   0  0  0  0  0  0  0  0  0  0  0  0
  145.8086  132.9437  150.7140 N   0  0  0  0  0  0  0  0  0  0  0  0
  144.6213  132.9727  150.0969 C   0  0  0  0  0  0  0  0  0  0  0  0
  143.8328  134.0571  150.0835 N   0  3  0  0  0  0  0  0  0  0  0  0
  144.2377  135.1852  150.7156 C   0  0  0  0  0  0  0  0  0  0  0  0
  145.4776  135.2247  151.3844 C   0  0  0  0  0  0  0  0  0  0  0  0
  145.9378  136.4853  152.0935 C   0  0  0  0  0  0  0  0  0  0  0  0
  149.8789  131.5533  153.7556 C   0  0  0  0  0  0  0  0  0  0  0  0
  149.7406  130.4568  153.2161 O   0  0  0  0  0  0  0  0  0  0  0  0
  150.7841  131.6923  154.8116 N   0  0  0  0  0  0  0  0  0  0  0  0
  151.0399  132.8696  155.5127 C   0  0  0  0  0  0  0  0  0  0  0  0
  151.8708  132.8758  156.4212 O   0  0  0  0  0  0  0  0  0  0  0  0
  151.3003  130.8703  155.0897 H   0  0  0  0  0  0  0  0  0  0  0  0
  151.1877  137.2986  155.4478 H   0  0  0  0  0  0  0  0  0  0  0  0
  150.3256  136.5657  154.0987 H   0  0  0  0  0  0  0  0  0  0  0  0
  152.0004  136.1214  154.4234 H   0  0  0  0  0  0  0  0  0  0  0  0
  151.2665  135.0373  156.6277 H   0  0  0  0  0  0  0  0  0  0  0  0
  149.6230  135.5279  156.3012 H   0  0  0  0  0  0  0  0  0  0  0  0
  148.8610  134.8138  153.7912 H   0  0  0  0  0  0  0  0  0  0  0  0
  148.6388  132.3801  151.3452 H   0  0  0  0  0  0  0  0  0  0  0  0
  147.3847  131.9767  152.5010 H   0  0  0  0  0  0  0  0  0  0  0  0
  148.0955  134.8134  151.9200 H   0  0  0  0  0  0  0  0  0  0  0  0
  144.2555  132.0984  149.5786 H   0  0  0  0  0  0  0  0  0  0  0  0
  143.5539  136.0199  150.6642 H   0  0  0  0  0  0  0  0  0  0  0  0
  145.1972  137.2808  152.0044 H   0  0  0  0  0  0  0  0  0  0  0  0
  146.8731  136.8439  151.6629 H   0  0  0  0  0  0  0  0  0  0  0  0
  146.0976  136.2895  153.1541 H   0  0  0  0  0  0  0  0  0  0  0  0
  142.9328  134.0424  149.6028 H   0  0  0  0  0  0  0  0  0  0  0  0
  1  2  1  0  0  0  0
  1 21  1  0  0  0  0
  1 22  1  0  0  0  0
  1 23  1  0  0  0  0
  2  3  1  0  0  0  0
  2 24  1  0  0  0  0
  2 25  1  0  0  0  0
  3 18  1  0  0  0  0
  3  4  1  0  0  0  0
  4  5  2  0  0  0  0
  4 26  1  0  0  0  0
  5  6  1  0  0  0  0
  5 15  1  0  0  0  0
  6  7  1  0  0  0  0
  6 27  1  0  0  0  0
  6 28  1  0  0  0  0
  7  8  1  0  0  0  0
  7 29  1  0  0  0  0
  8 13  1  0  0  0  0
  8  9  2  0  0  0  0
  9 10  1  0  0  0  0
 10 11  2  0  0  0  0
 10 30  1  0  0  0  0
 11 12  1  0  0  0  0
 11 35  1  0  0  0  0
 12 13  2  0  0  0  0
 12 31  1  0  0  0  0
 13 14  1  0  0  0  0
 14 32  1  0  0  0  0
 14 33  1  0  0  0  0
 14 34  1  0  0  0  0
 15 16  2  0  0  0  0
 15 17  1  0  0  0  0
 17 20  1  0  0  0  0
 17 18  1  0  0  0  0
 18 19  2  0  0  0  0
M  CHG  1  11   1
M  END
> <s_m_source_file>
AV-unprocessed.smi

> <i_m_source_file_index>
8

> <i_lp_mmshare_version>
43012

> <i_f3d_flags>
0

> <s_epik_input>
W0NIM11bQ0gyXW4xW2NIXWMoYyg9TylbbkhdYzE9TylbQ0gyXVtOSF1jMm5bY0hdbltjSF1jMltDSDNd

> <s_epik_cmdline>
J2VwaWtfcHl0aG9uJywgJy1waCcsICc3LjAnLCAnLXRuJywgJzgnLCAnLW1hJywgJzIwMCcsICctbWV0YWxfYmluZGluZycsICctaW1hZScsICc8aW5maWxlLm1hZT4nLCAnLW9tYWUnLCAnPG91dGZpbGUubWFlPic=

> <r_lp_tautomer_probability>
0.998874

> <r_epik_Ionization_Penalty>
2.17639

> <r_epik_Ionization_Penalty_Charging>
2.17638

> <r_epik_Ionization_Penalty_Neutral>
1.33492e-05

> <r_epik_State_Penalty>
2.31733

> <r_epik_Charging_Adjusted_Penalty>
4.4937

> <i_epik_Tot_Q>
1

> <i_epik_Tot_abs_Q>
1

> <r_epik_Metal_State_Penalty>
2.583

> <b_epik_Metal_Only>
0

> <s_lp_Force_Field>
OPLS_2005

> <r_lp_Energy>
14.6724

> <b_lp_Chiralities_Consistent>
1

> <s_lp_Variant>
AV-unprocessed.smi:8-2

> <Gold.Version>
5.8.1

> <Gold.Id.Protein>
6NUR|6NUR_protein|mol2

> <Gold.PLP.Fitness>
45.6579

> <Gold.PLP.PLP>
-33.2861

> <Gold.PLP.part.hbond>
-3.0000

> <Gold.PLP.part.metal>
0.0000

> <Gold.PLP.part.buried>
-3.9392

> <Gold.PLP.part.nonpolar>
-26.8870

> <Gold.PLP.part.repulsive>
0.2592

> <Gold.PLP.ligand.clash>
0.0000

> <Gold.PLP.ligand.torsion>
0.2051

> <Gold.PLP.Chemscore.Hbond>
3.2579

> <Gold.PLP.Chemscore.CHOScore>
1.0000

> <Gold.PLP.Chemscore.Metal>
0.0000

> <Gold.Chemscore.Hbonds>
donor molecule, donor type, donor heavy atom, donor atom, acceptor molecule, acceptor atom, score
      L1  H     7    29       P1  7948  0.90
      L1  H    11    35       P1 10186  2.00
      L1  C     4    26       P1  7948  1.00

> <Gold.PLP.Chemscore.Internal.Correction>
0.0081

> <Gold.Rescore>
     Score         DG    S(hbond)    S(metal)    S(lipo)     H(rot)  DE(clash)    DE(int)     intcor
     14.07     -14.31       2.72        0.00      36.23       1.76       0.00       0.25       ----

> <Gold.Chemscore.Fitness>
14.0665

> <Gold.Chemscore.DG>
-14.3123

> <Gold.Chemscore.ZeroCoef>
-5.4800

> <Gold.Chemscore.Hbond>
2.7230

> <Gold.Chemscore.Metal>
0.0000

> <Gold.Chemscore.Lipo>
36.2325

> <Gold.Chemscore.Internal_Hbond>
0.0000

> <Gold.Chemscore.DEClash>
0.0000

> <Gold.Chemscore.DEInternal>
0.2458

> <Gold.Chemscore.Rot>
1.7584

> <Gold.Chemscore.Internal.Correction>
   9.000000E+99

> <Gold.Chemscore.Hbonds>
donor molecule, donor type, donor heavy atom, donor atom, acceptor molecule, acceptor atom, score
      L1  H     7    29       P1  7948  0.18
      L1  H    11    35       P1 10186  0.94

> <Gold.Chemscore.Hbond.Weighted>
-9.0947

> <Gold.Chemscore.Metal.Weighted>
-0.0000

> <Gold.Chemscore.Lipo.Weighted>
-4.2392

> <Gold.Chemscore.Internal_Hbond.Weighted>
0.0000

> <Gold.Chemscore.DEClash.Weighted>
0.0000

> <Gold.Chemscore.DEInternal.Weighted>
0.2458

> <Gold.Chemscore.Rot.Weighted>
4.5016

> <Gold.Chemscore.Internal.Correction.Weighted>
   9.000000E+99

> <Gold.Protein.RotatedTorsions>
[ 6907 6896 6895 6894 ] final  -48.12 input  -60.11 | X-H torsion
[ 7974 7965 7964 7962 ] final   10.05 input  175.53 | X-H torsion
[ 8008 7997 7996 7995 ] final    6.97 input   59.86 | X-H torsion
[ 10167 10162 10161 10158 ] final  -39.95 input  -65.29 | X-H torsion
[ 10718 10713 10712 10709 ] final -143.00 input   66.30 | X-H torsion
[ 10763 10752 10751 10750 ] final  129.60 input  -60.55 | X-H torsion
[ 11005 11000 10999 10996 ] final   37.65 input  -57.11 | X-H torsion

> <Gold.Protein.ActiveResidues>
 VAL166  LYS551  ARG553  GLY616  TRP617  ASP618  TYR619  PRO620  LYS621  CYS622 
 ASP623  PHE694  ASN695  SER759  ASP760  ASP761  ALA762  ILE779  LEU786  VAL792 
 PHE793  MET794  SER795  GLU796  ALA797  LYS798  CYS799  TRP800  GLU811  SER814 

> <Gold.Protein.RotatedAtoms>
  150.8938  134.8344  159.7311 H   0  0  0  0  0  0  0  0  0  0  0  0  # atno 6907 bound_to 6896
  152.4853  134.4607  159.9614 H   0  0  0  0  0  0  0  0  0  0  0  0  # atno 6908 bound_to 6896
  151.4666  133.3540  159.2852 H   0  0  0  0  0  0  0  0  0  0  0  0  # atno 6909 bound_to 6896
  146.2394  139.9692  142.8449 H   0  0  0  0  0  0  0  0  0  0  0  0  # atno 7974 bound_to 7965
  154.7478  140.2761  155.6318 H   0  0  0  0  0  0  0  0  0  0  0  0  # atno 8008 bound_to 7997
  156.2889  140.2684  156.2150 H   0  0  0  0  0  0  0  0  0  0  0  0  # atno 8009 bound_to 7997
  155.0175  140.0371  157.2414 H   0  0  0  0  0  0  0  0  0  0  0  0  # atno 8010 bound_to 7997
  140.7049  143.3183  151.2855 H   0  0  0  0  0  0  0  0  0  0  0  0  # atno 10167 bound_to 10162
  156.3527  130.7696  151.1852 H   0  0  0  0  0  0  0  0  0  0  0  0  # atno 10718 bound_to 10713
  153.7444  135.3219  155.3310 H   0  0  0  0  0  0  0  0  0  0  0  0  # atno 10763 bound_to 10752
  154.8284  135.4552  154.0994 H   0  0  0  0  0  0  0  0  0  0  0  0  # atno 10764 bound_to 10752
  153.2179  135.6944  153.8118 H   0  0  0  0  0  0  0  0  0  0  0  0  # atno 10765 bound_to 10752
  140.2204  134.3647  155.8007 H   0  0  0  0  0  0  0  0  0  0  0  0  # atno 11005 bound_to 11000
  145.1697  140.9714  143.4329 LP  0  0  0  0  0  0  0  0  0  0  0  0  # atno 17320 bound_to 7965
  145.0040  139.3572  143.6153 LP  0  0  0  0  0  0  0  0  0  0  0  0  # atno 17321 bound_to 7965
  139.6628  144.0158  152.2704 LP  0  0  0  0  0  0  0  0  0  0  0  0  # atno 17342 bound_to 10162
  139.9731  144.6480  150.7970 LP  0  0  0  0  0  0  0  0  0  0  0  0  # atno 17343 bound_to 10162
  157.7463  131.0423  150.4687 LP  0  0  0  0  0  0  0  0  0  0  0  0  # atno 17370 bound_to 10713
  156.4885  130.4090  149.6420 LP  0  0  0  0  0  0  0  0  0  0  0  0  # atno 17371 bound_to 10713
  141.2223  133.7191  156.8567 LP  0  0  0  0  0  0  0  0  0  0  0  0  # atno 17394 bound_to 11000
  140.1855  134.9003  157.2999 LP  0  0  0  0  0  0  0  0  0  0  0  0  # atno 17395 bound_to 11000

$$$$
