AV-unprocessed.smi:1987|AV-procd|sdf|8055|dock5
  -GOLD-   2272010263D 1   1.00000     0.00000
 Structure written by MMmdl.
 37 39  0  0  0  0  0  0  0  0  2 V2000
  151.5436  135.5474  155.1828 O   0  0  0  0  0  0  0  0  0  0  0  0
  150.5481  135.9742  154.5990 C   0  0  0  0  0  0  0  0  0  0  0  0
  150.3833  137.4745  154.3607 C   0  0  0  0  0  0  0  0  0  0  0  0
  151.6742  138.1358  154.3986 N   0  0  0  0  0  0  0  0  0  0  0  0
  152.0446  139.3063  154.9225 C   0  0  0  0  0  0  0  0  0  0  0  0
  153.3269  139.5551  154.7040 N   0  0  0  0  0  0  0  0  0  0  0  0
  153.7481  138.4413  153.9963 N   0  0  0  0  0  0  0  0  0  0  0  0
  152.7717  137.5961  153.8111 N   0  0  0  0  0  0  0  0  0  0  0  0
  149.5474  135.1897  154.1698 N   0  0  0  0  0  0  0  0  0  0  0  0
  149.4415  133.7563  154.4133 C   0  0  0  0  0  0  0  0  0  0  0  0
  148.6107  133.0548  153.3208 C   0  0  1  0  0  0  0  0  0  0  0  0
  148.2972  131.5847  153.5942 C   0  0  0  0  0  0  0  0  0  0  0  0
  147.1215  131.3200  152.6582 C   0  0  0  0  0  0  0  0  0  0  0  0
  146.3370  132.5742  152.6412 N   0  3  2  0  0  0  0  0  0  0  0  0
  145.6609  132.8381  151.3531 C   0  0  0  0  0  0  0  0  0  0  0  0
  144.2520  133.3595  151.5071 C   0  0  0  0  0  0  0  0  0  0  0  0
  144.4881  131.9247  151.0875 C   0  0  0  0  0  0  0  0  0  0  0  0
  147.2244  133.6718  153.0943 C   0  0  0  0  0  0  0  0  0  0  0  0
  149.9242  137.6534  153.3876 H   0  0  0  0  0  0  0  0  0  0  0  0
  149.7269  137.9100  155.1159 H   0  0  0  0  0  0  0  0  0  0  0  0
  151.3789  139.9743  155.4488 H   0  0  0  0  0  0  0  0  0  0  0  0
  148.7736  135.6298  153.6922 H   0  0  0  0  0  0  0  0  0  0  0  0
  150.4510  133.3454  154.4397 H   0  0  0  0  0  0  0  0  0  0  0  0
  149.0071  133.5756  155.3980 H   0  0  0  0  0  0  0  0  0  0  0  0
  149.1524  133.1070  152.3747 H   0  0  0  0  0  0  0  0  0  0  0  0
  149.1445  130.9252  153.4020 H   0  0  0  0  0  0  0  0  0  0  0  0
  147.9885  131.4474  154.6316 H   0  0  0  0  0  0  0  0  0  0  0  0
  147.4990  131.1046  151.6570 H   0  0  0  0  0  0  0  0  0  0  0  0
  146.5142  130.4721  152.9760 H   0  0  0  0  0  0  0  0  0  0  0  0
  146.2911  133.1827  150.5348 H   0  0  0  0  0  0  0  0  0  0  0  0
  143.8743  133.5341  152.5131 H   0  0  0  0  0  0  0  0  0  0  0  0
  143.8852  134.0467  150.7473 H   0  0  0  0  0  0  0  0  0  0  0  0
  144.2768  131.6675  150.0514 H   0  0  0  0  0  0  0  0  0  0  0  0
  144.2667  131.1452  151.8143 H   0  0  0  0  0  0  0  0  0  0  0  0
  146.8168  134.0653  154.0261 H   0  0  0  0  0  0  0  0  0  0  0  0
  147.2682  134.4980  152.3828 H   0  0  0  0  0  0  0  0  0  0  0  0
  145.6189  132.4808  153.3453 H   0  0  0  0  0  0  0  0  0  0  0  0
  1  2  2  0  0  0  0
  2  3  1  0  0  0  0
  2  9  1  0  0  0  0
  3  4  1  0  0  0  0
  3 19  1  0  0  0  0
  3 20  1  0  0  0  0
  4  8  1  0  0  0  0
  4  5  1  0  0  0  0
  5  6  2  0  0  0  0
  5 21  1  0  0  0  0
  6  7  1  0  0  0  0
  7  8  2  0  0  0  0
  9 10  1  0  0  0  0
  9 22  1  0  0  0  0
 10 11  1  0  0  0  0
 10 23  1  0  0  0  0
 10 24  1  0  0  0  0
 11 18  1  0  0  0  0
 11 12  1  0  0  0  0
 11 25  1  0  0  0  0
 12 13  1  0  0  0  0
 12 26  1  0  0  0  0
 12 27  1  0  0  0  0
 13 14  1  0  0  0  0
 13 28  1  0  0  0  0
 13 29  1  0  0  0  0
 14 15  1  0  0  0  0
 14 18  1  0  0  0  0
 14 37  1  0  0  0  0
 15 17  1  0  0  0  0
 15 16  1  0  0  0  0
 15 30  1  0  0  0  0
 16 17  1  0  0  0  0
 16 31  1  0  0  0  0
 16 32  1  0  0  0  0
 17 33  1  0  0  0  0
 17 34  1  0  0  0  0
 18 35  1  0  0  0  0
 18 36  1  0  0  0  0
M  CHG  1  14   1
M  END
> <s_m_source_file>
AV-unprocessed.smi

> <i_m_source_file_index>
1987

> <i_lp_mmshare_version>
43012

> <i_f3d_flags>
0

> <s_epik_input>
bjFubltjSF1uMVtDSDJdQyg9TylbTkhdW0NIMl1bQ0BASF0yW0NIMl1bQ0gyXU4oW0NIMl0yKVtDSF0zW0NIMl1bQ0gyXTM=

> <s_epik_cmdline>
J2VwaWtfcHl0aG9uJywgJy1waCcsICc3LjAnLCAnLXRuJywgJzgnLCAnLW1hJywgJzIwMCcsICctbWV0YWxfYmluZGluZycsICctaW1hZScsICc8aW5maWxlLm1hZT4nLCAnLW9tYWUnLCAnPG91dGZpbGUubWFlPic=

> <r_lp_tautomer_probability>
1

> <r_epik_Ionization_Penalty>
0.000242849

> <r_epik_Ionization_Penalty_Charging>
0.000241326

> <r_epik_Ionization_Penalty_Neutral>
1.52322e-06

> <r_epik_State_Penalty>
-0

> <r_epik_Charging_Adjusted_Penalty>
0.000241326

> <i_epik_Tot_Q>
1

> <i_epik_Tot_abs_Q>
1

> <r_epik_Metal_State_Penalty>
-0

> <b_epik_Metal_Only>
0

> <s_lp_Force_Field>
OPLS_2005

> <r_lp_Energy>
38.094

> <b_lp_Chiralities_Consistent>
1

> <s_lp_Variant>
AV-unprocessed.smi:1987-2

> <Gold.Version>
5.8.1

> <Gold.Id.Protein>
6NUR|6NUR_protein|mol2

> <Gold.PLP.Fitness>
39.7542

> <Gold.PLP.PLP>
-33.9736

> <Gold.PLP.part.hbond>
-5.2151

> <Gold.PLP.part.metal>
0.0000

> <Gold.PLP.part.buried>
-4.1457

> <Gold.PLP.part.nonpolar>
-25.0574

> <Gold.PLP.part.repulsive>
0.2107

> <Gold.PLP.ligand.clash>
0.0000

> <Gold.PLP.ligand.torsion>
1.4356

> <Gold.PLP.Chemscore.Hbond>
2.4599

> <Gold.PLP.Chemscore.CHOScore>
0.0000

> <Gold.PLP.Chemscore.Metal>
0.0000

> <Gold.Chemscore.Hbonds>
donor molecule, donor type, donor heavy atom, donor atom, acceptor molecule, acceptor atom, score
      L1  H     9    22       P1  7948  0.38
      P1  H  7997  8010       L1     6  1.00
      P1  H 10752 10765       L1     1  0.89

> <Gold.PLP.Chemscore.Internal.Correction>
1.2719

> <Gold.Rescore>
     Score         DG    S(hbond)    S(metal)    S(lipo)     H(rot)  DE(clash)    DE(int)     intcor
      9.69     -12.44       2.23        0.00      53.34       2.62       0.08       2.66       ----

> <Gold.Chemscore.Fitness>
9.6918

> <Gold.Chemscore.DG>
-12.4388

> <Gold.Chemscore.ZeroCoef>
-5.4800

> <Gold.Chemscore.Hbond>
2.2265

> <Gold.Chemscore.Metal>
0.0000

> <Gold.Chemscore.Lipo>
53.3412

> <Gold.Chemscore.Internal_Hbond>
0.0000

> <Gold.Chemscore.DEClash>
0.0844

> <Gold.Chemscore.DEInternal>
2.6626

> <Gold.Chemscore.Rot>
2.6244

> <Gold.Chemscore.Internal.Correction>
   9.000000E+99

> <Gold.Chemscore.Hbonds>
donor molecule, donor type, donor heavy atom, donor atom, acceptor molecule, acceptor atom, score
      L1  H     9    22       P1  7948  0.36
      P1  H  7997  8010       L1     6  0.93
      P1  H 10752 10765       L1     1  0.86

> <Gold.Chemscore.Hbond.Weighted>
-7.4364

> <Gold.Chemscore.Metal.Weighted>
-0.0000

> <Gold.Chemscore.Lipo.Weighted>
-6.2409

> <Gold.Chemscore.Internal_Hbond.Weighted>
0.0000

> <Gold.Chemscore.DEClash.Weighted>
0.0844

> <Gold.Chemscore.DEInternal.Weighted>
2.6626

> <Gold.Chemscore.Rot.Weighted>
6.7186

> <Gold.Chemscore.Internal.Correction.Weighted>
   9.000000E+99

> <Gold.Protein.RotatedTorsions>
[ 6907 6896 6895 6894 ] final  175.77 input  -60.11 | X-H torsion
[ 7974 7965 7964 7962 ] final -107.02 input  175.53 | X-H torsion
[ 8008 7997 7996 7995 ] final   97.97 input   59.86 | X-H torsion
[ 10167 10162 10161 10158 ] final  -60.39 input  -65.29 | X-H torsion
[ 10718 10713 10712 10709 ] final  -51.99 input   66.30 | X-H torsion
[ 10763 10752 10751 10750 ] final -174.84 input  -60.55 | X-H torsion
[ 11005 11000 10999 10996 ] final -154.09 input  -57.11 | X-H torsion

> <Gold.Protein.ActiveResidues>
 VAL166  LYS551  ARG553  GLY616  TRP617  ASP618  TYR619  PRO620  LYS621  CYS622 
 ASP623  PHE694  ASN695  SER759  ASP760  ASP761  ALA762  ILE779  LEU786  VAL792 
 PHE793  MET794  SER795  GLU796  ALA797  LYS798  CYS799  TRP800  GLU811  SER814 

> <Gold.Protein.RotatedAtoms>
  151.7308  133.3317  159.3339 H   0  0  0  0  0  0  0  0  0  0  0  0  # atno 6907 bound_to 6896
  150.7613  134.6365  159.6223 H   0  0  0  0  0  0  0  0  0  0  0  0  # atno 6908 bound_to 6896
  152.3593  134.6898  160.0264 H   0  0  0  0  0  0  0  0  0  0  0  0  # atno 6909 bound_to 6896
  145.2105  140.9094  143.3317 H   0  0  0  0  0  0  0  0  0  0  0  0  # atno 7974 bound_to 7965
  156.0956  140.3250  155.7873 H   0  0  0  0  0  0  0  0  0  0  0  0  # atno 8008 bound_to 7997
  155.4923  140.0562  157.2969 H   0  0  0  0  0  0  0  0  0  0  0  0  # atno 8009 bound_to 7997
  154.4664  140.1991  156.0122 H   0  0  0  0  0  0  0  0  0  0  0  0  # atno 8010 bound_to 7997
  140.6074  143.2377  151.5788 H   0  0  0  0  0  0  0  0  0  0  0  0  # atno 10167 bound_to 10162
  156.1661  130.4149  149.9718 H   0  0  0  0  0  0  0  0  0  0  0  0  # atno 10718 bound_to 10713
  154.5915  135.2845  155.0630 H   0  0  0  0  0  0  0  0  0  0  0  0  # atno 10763 bound_to 10752
  154.1929  135.6437  153.5069 H   0  0  0  0  0  0  0  0  0  0  0  0  # atno 10764 bound_to 10752
  153.0123  135.5450  154.6602 H   0  0  0  0  0  0  0  0  0  0  0  0  # atno 10765 bound_to 10752
  140.7011  134.3936  157.5209 H   0  0  0  0  0  0  0  0  0  0  0  0  # atno 11005 bound_to 11000
  144.9860  139.3736  143.6238 LP  0  0  0  0  0  0  0  0  0  0  0  0  # atno 17320 bound_to 7965
  146.3398  139.9022  142.8792 LP  0  0  0  0  0  0  0  0  0  0  0  0  # atno 17321 bound_to 7965
  139.5335  144.2847  152.1201 LP  0  0  0  0  0  0  0  0  0  0  0  0  # atno 17342 bound_to 10162
  140.2039  144.4630  150.6418 LP  0  0  0  0  0  0  0  0  0  0  0  0  # atno 17343 bound_to 10162
  156.7532  130.9123  151.3638 LP  0  0  0  0  0  0  0  0  0  0  0  0  # atno 17370 bound_to 10713
  157.6769  130.9103  150.0172 LP  0  0  0  0  0  0  0  0  0  0  0  0  # atno 17371 bound_to 10713
  139.8896  134.8825  156.2410 LP  0  0  0  0  0  0  0  0  0  0  0  0  # atno 17394 bound_to 11000
  141.0163  133.7067  156.1193 LP  0  0  0  0  0  0  0  0  0  0  0  0  # atno 17395 bound_to 11000

$$$$
