AV-unprocessed.smi:53|AV-procd|sdf|524|dock7
  -GOLD-   2262016393D 1   1.00000     0.00000
 Structure written by MMmdl.
 30 31  0  0  0  0  0  0  0  0  1 V2000
  144.5524  143.9770  153.9897 N   0  0  0  0  0  0  0  0  0  0  0  0
  145.4740  143.2092  154.5877 C   0  0  0  0  0  0  0  0  0  0  0  0
  146.4637  142.5090  153.8005 C   0  0  0  0  0  0  0  0  0  0  0  0
  147.3568  141.7538  154.4766 C   0  0  0  0  0  0  0  0  0  0  0  0
  147.3357  141.6423  155.8596 N   0  0  0  0  0  0  0  0  0  0  0  0
  148.3570  140.7888  156.5833 C   0  0  1  0  0  0  0  0  0  0  0  0
  148.2556  139.4790  156.1098 O   0  0  0  0  0  0  0  0  0  0  0  0
  149.5587  138.9371  155.9340 C   0  0  1  0  0  0  0  0  0  0  0  0
  149.5290  137.7321  154.9771 C   0  0  0  0  0  0  0  0  0  0  0  0
  149.1627  138.1463  153.6781 O   0  0  0  0  0  0  0  0  0  0  0  0
  150.4104  140.1440  155.5139 C   0  0  1  0  0  0  0  0  0  0  0  0
  150.3006  140.3884  154.1213 O   0  0  0  0  0  0  0  0  0  0  0  0
  149.8099  141.2647  156.3581 C   0  0  1  0  0  0  0  0  0  0  0  0
  149.9583  142.5471  155.7726 O   0  0  0  0  0  0  0  0  0  0  0  0
  146.3606  142.3493  156.6047 C   0  0  0  0  0  0  0  0  0  0  0  0
  146.3175  142.3025  157.8336 O   0  0  0  0  0  0  0  0  0  0  0  0
  145.4618  143.1070  155.9027 N   0  0  0  0  0  0  0  0  0  0  0  0
  148.0780  140.7786  157.6381 H   0  0  0  0  0  0  0  0  0  0  0  0
  149.8944  138.6018  156.9173 H   0  0  0  0  0  0  0  0  0  0  0  0
  151.4650  139.9913  155.7456 H   0  0  0  0  0  0  0  0  0  0  0  0
  150.2986  141.2745  157.3333 H   0  0  0  0  0  0  0  0  0  0  0  0
  143.8630  144.4665  154.5418 H   0  0  0  0  0  0  0  0  0  0  0  0
  144.5497  144.0633  152.9835 H   0  0  0  0  0  0  0  0  0  0  0  0
  146.5151  142.5642  152.7226 H   0  0  0  0  0  0  0  0  0  0  0  0
  148.1054  141.2254  153.9052 H   0  0  0  0  0  0  0  0  0  0  0  0
  150.5183  137.2771  154.9253 H   0  0  0  0  0  0  0  0  0  0  0  0
  148.8439  136.9587  155.3249 H   0  0  0  0  0  0  0  0  0  0  0  0
  149.0635  137.3794  153.1346 H   0  0  0  0  0  0  0  0  0  0  0  0
  149.4872  140.0150  153.8172 H   0  0  0  0  0  0  0  0  0  0  0  0
  149.1239  142.9892  155.8180 H   0  0  0  0  0  0  0  0  0  0  0  0
  1  2  1  0  0  0  0
  1 22  1  0  0  0  0
  1 23  1  0  0  0  0
  2 17  2  0  0  0  0
  2  3  1  0  0  0  0
  3  4  2  0  0  0  0
  3 24  1  0  0  0  0
  4  5  1  0  0  0  0
  4 25  1  0  0  0  0
  5  6  1  0  0  0  0
  5 15  1  0  0  0  0
  6 18  1  0  0  0  0
  6 13  1  0  0  0  0
  6  7  1  0  0  0  0
  7  8  1  0  0  0  0
  8 19  1  0  0  0  0
  8  9  1  0  0  0  0
  8 11  1  0  0  0  0
  9 10  1  0  0  0  0
  9 26  1  0  0  0  0
  9 27  1  0  0  0  0
 10 28  1  0  0  0  0
 11 20  1  0  0  0  0
 11 12  1  0  0  0  0
 11 13  1  0  0  0  0
 12 29  1  0  0  0  0
 13 21  1  0  0  0  0
 13 14  1  0  0  0  0
 14 30  1  0  0  0  0
 15 16  2  0  0  0  0
 15 17  1  0  0  0  0
M  END
> <s_m_source_file>
AV-unprocessed.smi

> <i_m_source_file_index>
53

> <i_lp_mmshare_version>
43012

> <i_f3d_flags>
0

> <s_epik_input>
W05IMl1jMVtjSF1bY0hdbihjKD1PKW4xKVtDQEBIXTJPW0NASF0oW0NIMl1bT0hdKVtDQEBIXShbT0hdKVtDQEBIXTJbT0hd

> <s_epik_cmdline>
J2VwaWtfcHl0aG9uJywgJy1waCcsICc3LjAnLCAnLXRuJywgJzgnLCAnLW1hJywgJzIwMCcsICctbWV0YWxfYmluZGluZycsICctaW1hZScsICc8aW5maWxlLm1hZT4nLCAnLW9tYWUnLCAnPG91dGZpbGUubWFlPic=

> <r_lp_tautomer_probability>
0.99996

> <r_epik_Ionization_Penalty>
0.00069087

> <r_epik_Ionization_Penalty_Charging>
2.61959e-08

> <r_epik_Ionization_Penalty_Neutral>
0.000690844

> <r_epik_State_Penalty>
1.15523e-05

> <r_epik_Charging_Adjusted_Penalty>
1.15785e-05

> <i_epik_Tot_Q>
0

> <i_epik_Tot_abs_Q>
0

> <r_epik_Metal_State_Penalty>
-0

> <b_epik_Metal_Only>
0

> <s_epik_Chemistry_Notes>
This compound contains an acetal/aminal-like group ( X-CH(R)-Y where X, Y are N, S, or O) that may be acid/base labile, releasing an aldehyde.

> <s_lp_Force_Field>
OPLS_2005

> <r_lp_Energy>
39.3068

> <b_lp_Chiralities_Consistent>
1

> <s_lp_Variant>
AV-unprocessed.smi:53-12

> <Gold.Version>
5.8.1

> <Gold.Id.Protein>
6NUR|6NUR_protein|mol2

> <Gold.PLP.Fitness>
31.3918

> <Gold.PLP.PLP>
-23.9217

> <Gold.PLP.part.hbond>
-4.4740

> <Gold.PLP.part.metal>
0.0000

> <Gold.PLP.part.buried>
-5.7152

> <Gold.PLP.part.nonpolar>
-14.4092

> <Gold.PLP.part.repulsive>
0.3494

> <Gold.PLP.ligand.clash>
0.0000

> <Gold.PLP.ligand.torsion>
0.0250

> <Gold.PLP.Chemscore.Hbond>
2.5040

> <Gold.PLP.Chemscore.CHOScore>
0.0000

> <Gold.PLP.Chemscore.Metal>
0.0000

> <Gold.Chemscore.Hbonds>
donor molecule, donor type, donor heavy atom, donor atom, acceptor molecule, acceptor atom, score
      L1  H    10    28       P1  7948  1.00
      L1  H    14    30       P1  8028  0.51
      P1  H  7989  7998       L1    12  0.91

> <Gold.PLP.Chemscore.Internal.Correction>
0.0081

> <Gold.Rescore>
     Score         DG    S(hbond)    S(metal)    S(lipo)     H(rot)  DE(clash)    DE(int)     intcor
      8.23      -8.51       2.68        0.00      30.52       3.71       0.14       0.13       ----

> <Gold.Chemscore.Fitness>
8.2332

> <Gold.Chemscore.DG>
-8.5050

> <Gold.Chemscore.ZeroCoef>
-5.4800

> <Gold.Chemscore.Hbond>
2.6798

> <Gold.Chemscore.Metal>
0.0000

> <Gold.Chemscore.Lipo>
30.5200

> <Gold.Chemscore.Internal_Hbond>
0.0000

> <Gold.Chemscore.DEClash>
0.1392

> <Gold.Chemscore.DEInternal>
0.1326

> <Gold.Chemscore.Rot>
3.7095

> <Gold.Chemscore.Internal.Correction>
   9.000000E+99

> <Gold.Chemscore.Hbonds>
donor molecule, donor type, donor heavy atom, donor atom, acceptor molecule, acceptor atom, score
      L1  H    10    28       P1  7948  1.00
      L1  H    14    30       P1  8028  0.52
      P1  H  7989  7998       L1    12  0.73

> <Gold.Chemscore.Hbond.Weighted>
-8.9506

> <Gold.Chemscore.Metal.Weighted>
-0.0000

> <Gold.Chemscore.Lipo.Weighted>
-3.5708

> <Gold.Chemscore.Internal_Hbond.Weighted>
0.0000

> <Gold.Chemscore.DEClash.Weighted>
0.1392

> <Gold.Chemscore.DEInternal.Weighted>
0.1326

> <Gold.Chemscore.Rot.Weighted>
9.4964

> <Gold.Chemscore.Internal.Correction.Weighted>
   9.000000E+99

> <Gold.Protein.RotatedTorsions>
[ 6907 6896 6895 6894 ] final  -86.62 input  -60.11 | X-H torsion
[ 7974 7965 7964 7962 ] final  141.89 input  175.53 | X-H torsion
[ 8008 7997 7996 7995 ] final  112.73 input   59.86 | X-H torsion
[ 10167 10162 10161 10158 ] final   31.04 input  -65.29 | X-H torsion
[ 10718 10713 10712 10709 ] final -146.76 input   66.30 | X-H torsion
[ 10763 10752 10751 10750 ] final -148.69 input  -60.55 | X-H torsion
[ 11005 11000 10999 10996 ] final  -47.44 input  -57.11 | X-H torsion

> <Gold.Protein.ActiveResidues>
 VAL166  LYS551  ARG553  GLY616  TRP617  ASP618  TYR619  PRO620  LYS621  CYS622 
 ASP623  PHE694  ASN695  SER759  ASP760  ASP761  ALA762  ILE779  LEU786  VAL792 
 PHE793  MET794  SER795  GLU796  ALA797  LYS798  CYS799  TRP800  GLU811  SER814 

> <Gold.Protein.RotatedAtoms>
  150.6867  134.3022  159.4710 H   0  0  0  0  0  0  0  0  0  0  0  0  # atno 6907 bound_to 6896
  152.0916  134.9400  160.0581 H   0  0  0  0  0  0  0  0  0  0  0  0  # atno 6908 bound_to 6896
  152.0714  133.4074  159.4498 H   0  0  0  0  0  0  0  0  0  0  0  0  # atno 6909 bound_to 6896
  144.9056  139.5363  143.5733 H   0  0  0  0  0  0  0  0  0  0  0  0  # atno 7974 bound_to 7965
  156.2211  140.2994  155.9956 H   0  0  0  0  0  0  0  0  0  0  0  0  # atno 8008 bound_to 7997
  155.2478  140.0425  157.3000 H   0  0  0  0  0  0  0  0  0  0  0  0  # atno 8009 bound_to 7997
  154.5843  140.2384  155.8018 H   0  0  0  0  0  0  0  0  0  0  0  0  # atno 8010 bound_to 7997
  140.4624  144.0886  150.6216 H   0  0  0  0  0  0  0  0  0  0  0  0  # atno 10167 bound_to 10162
  156.3989  130.7924  151.2133 H   0  0  0  0  0  0  0  0  0  0  0  0  # atno 10718 bound_to 10713
  154.8219  135.3328  154.7014 H   0  0  0  0  0  0  0  0  0  0  0  0  # atno 10763 bound_to 10752
  153.7645  135.6930  153.4923 H   0  0  0  0  0  0  0  0  0  0  0  0  # atno 10764 bound_to 10752
  153.2087  135.4490  155.0303 H   0  0  0  0  0  0  0  0  0  0  0  0  # atno 10765 bound_to 10752
  141.0641  133.6699  156.3298 H   0  0  0  0  0  0  0  0  0  0  0  0  # atno 11005 bound_to 11000
  146.3132  139.7821  142.9004 LP  0  0  0  0  0  0  0  0  0  0  0  0  # atno 17320 bound_to 7965
  145.3542  141.0313  143.3321 LP  0  0  0  0  0  0  0  0  0  0  0  0  # atno 17321 bound_to 7965
  140.4077  143.2672  151.9871 LP  0  0  0  0  0  0  0  0  0  0  0  0  # atno 17342 bound_to 10162
  139.4808  144.5943  151.7718 LP  0  0  0  0  0  0  0  0  0  0  0  0  # atno 17343 bound_to 10162
  157.7503  131.0293  150.4085 LP  0  0  0  0  0  0  0  0  0  0  0  0  # atno 17370 bound_to 10713
  156.4361  130.3982  149.6728 LP  0  0  0  0  0  0  0  0  0  0  0  0  # atno 17371 bound_to 10713
  140.5810  134.5746  157.5479 LP  0  0  0  0  0  0  0  0  0  0  0  0  # atno 17394 bound_to 11000
  139.9459  134.7702  156.0562 LP  0  0  0  0  0  0  0  0  0  0  0  0  # atno 17395 bound_to 11000

$$$$
