AV-unprocessed.smi:3303|AV-procd|sdf|12691|dock7
  -GOLD-   2272019 23D 1   1.00000     0.00000
 Structure written by MMmdl.
 44 45  0  0  0  0  0  0  0  0  2 V2000
  150.3014  138.5346  153.9950 C   0  0  0  0  0  0  0  0  0  0  0  0
  149.0136  138.8652  154.7784 C   0  0  2  0  0  0  0  0  0  0  0  0
  147.7760  138.8170  153.8589 C   0  0  0  0  0  0  0  0  0  0  0  0
  147.7400  139.9745  152.9275 N   0  3  1  0  0  0  0  0  0  0  0  0
  146.6934  139.8432  151.8889 C   0  0  0  0  0  0  0  0  0  0  0  0
  147.7546  141.2968  153.6170 C   0  0  1  0  0  0  0  0  0  0  0  0
  146.4365  141.6276  154.3502 C   0  0  0  0  0  0  0  0  0  0  0  0
  148.9818  141.3975  154.5453 C   0  0  0  0  0  0  0  0  0  0  0  0
  149.0567  140.2195  155.5350 C   0  0  2  0  0  0  0  0  0  0  0  0
  150.2496  140.3776  156.3604 N   0  0  0  0  0  0  0  0  0  0  0  0
  150.3220  141.6952  156.9758 C   0  0  0  0  0  0  0  0  0  0  0  0
  151.5313  141.7567  157.9184 C   0  0  0  0  0  0  0  0  0  0  0  0
  151.5841  143.0611  158.6906 C   0  0  0  0  0  0  0  0  0  0  0  0
  152.4848  143.2260  159.7648 C   0  0  0  0  0  0  0  0  0  0  0  0
  152.4872  144.4527  160.4561 C   0  0  0  0  0  0  0  0  0  0  0  0
  151.5927  145.4617  160.0502 C   0  0  0  0  0  0  0  0  0  0  0  0
  150.7320  145.1978  158.9660 C   0  0  0  0  0  0  0  0  0  0  0  0
  150.7211  144.0248  158.2964 N   0  0  0  0  0  0  0  0  0  0  0  0
  150.5129  139.2738  153.2230 H   0  0  0  0  0  0  0  0  0  0  0  0
  150.2189  137.5646  153.5044 H   0  0  0  0  0  0  0  0  0  0  0  0
  151.1694  138.4848  154.6528 H   0  0  0  0  0  0  0  0  0  0  0  0
  148.8823  138.0690  155.5111 H   0  0  0  0  0  0  0  0  0  0  0  0
  147.7822  137.8886  153.2861 H   0  0  0  0  0  0  0  0  0  0  0  0
  146.8642  138.7964  154.4564 H   0  0  0  0  0  0  0  0  0  0  0  0
  145.6995  139.7629  152.3298 H   0  0  0  0  0  0  0  0  0  0  0  0
  146.8665  138.9492  151.2894 H   0  0  0  0  0  0  0  0  0  0  0  0
  146.7055  140.7004  151.2149 H   0  0  0  0  0  0  0  0  0  0  0  0
  147.8827  142.0549  152.8430 H   0  0  0  0  0  0  0  0  0  0  0  0
  146.5037  142.5997  154.8396 H   0  0  0  0  0  0  0  0  0  0  0  0
  146.1924  140.8960  155.1197 H   0  0  0  0  0  0  0  0  0  0  0  0
  145.5929  141.6810  153.6621 H   0  0  0  0  0  0  0  0  0  0  0  0
  149.8873  141.4286  153.9380 H   0  0  0  0  0  0  0  0  0  0  0  0
  148.9570  142.3436  155.0881 H   0  0  0  0  0  0  0  0  0  0  0  0
  148.1879  140.2824  156.1918 H   0  0  0  0  0  0  0  0  0  0  0  0
  151.0712  140.2431  155.7878 H   0  0  0  0  0  0  0  0  0  0  0  0
  150.4130  142.4590  156.2023 H   0  0  0  0  0  0  0  0  0  0  0  0
  149.4121  141.9019  157.5387 H   0  0  0  0  0  0  0  0  0  0  0  0
  151.4986  140.9253  158.6242 H   0  0  0  0  0  0  0  0  0  0  0  0
  152.4576  141.6433  157.3527 H   0  0  0  0  0  0  0  0  0  0  0  0
  153.1570  142.4319  160.0551 H   0  0  0  0  0  0  0  0  0  0  0  0
  153.1620  144.6160  161.2833 H   0  0  0  0  0  0  0  0  0  0  0  0
  151.5663  146.4147  160.5574 H   0  0  0  0  0  0  0  0  0  0  0  0
  150.0326  145.9483  158.6283 H   0  0  0  0  0  0  0  0  0  0  0  0
  148.6153  139.9344  152.4248 H   0  0  0  0  0  0  0  0  0  0  0  0
  1  2  1  0  0  0  0
  1 19  1  0  0  0  0
  1 20  1  0  0  0  0
  1 21  1  0  0  0  0
  2  9  1  0  0  0  0
  2  3  1  0  0  0  0
  2 22  1  0  0  0  0
  3  4  1  0  0  0  0
  3 23  1  0  0  0  0
  3 24  1  0  0  0  0
  4  5  1  0  0  0  0
  4  6  1  0  0  0  0
  4 44  1  0  0  0  0
  5 25  1  0  0  0  0
  5 26  1  0  0  0  0
  5 27  1  0  0  0  0
  6  7  1  0  0  0  0
  6  8  1  0  0  0  0
  6 28  1  0  0  0  0
  7 29  1  0  0  0  0
  7 30  1  0  0  0  0
  7 31  1  0  0  0  0
  8  9  1  0  0  0  0
  8 32  1  0  0  0  0
  8 33  1  0  0  0  0
  9 10  1  0  0  0  0
  9 34  1  0  0  0  0
 10 11  1  0  0  0  0
 10 35  1  0  0  0  0
 11 12  1  0  0  0  0
 11 36  1  0  0  0  0
 11 37  1  0  0  0  0
 12 13  1  0  0  0  0
 12 38  1  0  0  0  0
 12 39  1  0  0  0  0
 13 18  1  0  0  0  0
 13 14  2  0  0  0  0
 14 15  1  0  0  0  0
 14 40  1  0  0  0  0
 15 16  2  0  0  0  0
 15 41  1  0  0  0  0
 16 17  1  0  0  0  0
 16 42  1  0  0  0  0
 17 18  2  0  0  0  0
 17 43  1  0  0  0  0
M  CHG  1   4   1
M  END
> <s_m_source_file>
AV-unprocessed.smi

> <i_m_source_file_index>
3303

> <i_lp_mmshare_version>
43012

> <i_f3d_flags>
0

> <s_epik_input>
W0NIM11bQ0BASF0xW0NIMl1OKFtDSDNdKVtDQEBIXShbQ0gzXSlbQ0gyXVtDQEhdMVtOSF1bQ0gyXVtDSDJdYzJbY0hdW2NIXVtjSF1bY0hdbjI=

> <s_epik_cmdline>
J2VwaWtfcHl0aG9uJywgJy1waCcsICc3LjAnLCAnLXRuJywgJzgnLCAnLW1hJywgJzIwMCcsICctbWV0YWxfYmluZGluZycsICctaW1hZScsICc8aW5maWxlLm1hZT4nLCAnLW9tYWUnLCAnPG91dGZpbGUubWFlPic=

> <r_epik_Ionization_Penalty>
2.31085

> <r_epik_Ionization_Penalty_Charging>
0.000313057

> <r_epik_Ionization_Penalty_Neutral>
2.31054

> <r_epik_State_Penalty>
2.4087

> <r_epik_Charging_Adjusted_Penalty>
2.40902

> <i_epik_Tot_Q>
1

> <i_epik_Tot_abs_Q>
1

> <r_epik_Metal_State_Penalty>
2.30979

> <b_epik_Metal_Only>
0

> <s_lp_Force_Field>
OPLS_2005

> <r_lp_Energy>
26.3276

> <b_lp_Chiralities_Consistent>
1

> <s_lp_Variant>
AV-unprocessed.smi:3303-35

> <Gold.Version>
5.8.1

> <Gold.Id.Protein>
6NUR|6NUR_protein|mol2

> <Gold.PLP.Fitness>
44.1936

> <Gold.PLP.PLP>
-38.4495

> <Gold.PLP.part.hbond>
-0.7573

> <Gold.PLP.part.metal>
0.0000

> <Gold.PLP.part.buried>
-3.3613

> <Gold.PLP.part.nonpolar>
-35.7666

> <Gold.PLP.part.repulsive>
0.2719

> <Gold.PLP.ligand.clash>
0.0000

> <Gold.PLP.ligand.torsion>
0.1342

> <Gold.PLP.Chemscore.Hbond>
1.0000

> <Gold.PLP.Chemscore.CHOScore>
1.0000

> <Gold.PLP.Chemscore.Metal>
0.0000

> <Gold.Chemscore.Hbonds>
donor molecule, donor type, donor heavy atom, donor atom, acceptor molecule, acceptor atom, score
      L1  H     4    44       P1  7957  1.00
      L1  C    17    43       P1  8029  1.00

> <Gold.PLP.Chemscore.Internal.Correction>
0.0125

> <Gold.Rescore>
     Score         DG    S(hbond)    S(metal)    S(lipo)     H(rot)  DE(clash)    DE(int)     intcor
     18.60     -19.85       0.98        0.00     123.81       1.33       1.23       0.02       ----

> <Gold.Chemscore.Fitness>
18.5985

> <Gold.Chemscore.DG>
-19.8514

> <Gold.Chemscore.ZeroCoef>
-5.4800

> <Gold.Chemscore.Hbond>
0.9831

> <Gold.Chemscore.Metal>
0.0000

> <Gold.Chemscore.Lipo>
123.8072

> <Gold.Chemscore.Internal_Hbond>
0.0000

> <Gold.Chemscore.DEClash>
1.2303

> <Gold.Chemscore.DEInternal>
0.0226

> <Gold.Chemscore.Rot>
1.3272

> <Gold.Chemscore.Internal.Correction>
   9.000000E+99

> <Gold.Chemscore.Hbonds>
donor molecule, donor type, donor heavy atom, donor atom, acceptor molecule, acceptor atom, score
      L1  H     4    44       P1  7957  0.97

> <Gold.Chemscore.Hbond.Weighted>
-3.2836

> <Gold.Chemscore.Metal.Weighted>
-0.0000

> <Gold.Chemscore.Lipo.Weighted>
-14.4854

> <Gold.Chemscore.Internal_Hbond.Weighted>
0.0000

> <Gold.Chemscore.DEClash.Weighted>
1.2303

> <Gold.Chemscore.DEInternal.Weighted>
0.0226

> <Gold.Chemscore.Rot.Weighted>
3.3976

> <Gold.Chemscore.Internal.Correction.Weighted>
   9.000000E+99

> <Gold.Protein.RotatedTorsions>
[ 6907 6896 6895 6894 ] final -132.69 input  -60.11 | X-H torsion
[ 7974 7965 7964 7962 ] final  -82.70 input  175.53 | X-H torsion
[ 8008 7997 7996 7995 ] final   41.82 input   59.86 | X-H torsion
[ 10167 10162 10161 10158 ] final  -52.64 input  -65.29 | X-H torsion
[ 10718 10713 10712 10709 ] final   35.42 input   66.30 | X-H torsion
[ 10763 10752 10751 10750 ] final -153.16 input  -60.55 | X-H torsion
[ 11005 11000 10999 10996 ] final -133.03 input  -57.11 | X-H torsion

> <Gold.Protein.ActiveResidues>
 VAL166  LYS551  ARG553  GLY616  TRP617  ASP618  TYR619  PRO620  LYS621  CYS622 
 ASP623  PHE694  ASN695  SER759  ASP760  ASP761  ALA762  ILE779  LEU786  VAL792 
 PHE793  MET794  SER795  GLU796  ALA797  LYS798  CYS799  TRP800  GLU811  SER814 

> <Gold.Protein.RotatedAtoms>
  150.9653  133.6401  159.2746 H   0  0  0  0  0  0  0  0  0  0  0  0  # atno 6907 bound_to 6896
  151.3709  135.0921  159.9475 H   0  0  0  0  0  0  0  0  0  0  0  0  # atno 6908 bound_to 6896
  152.5163  133.9208  159.7588 H   0  0  0  0  0  0  0  0  0  0  0  0  # atno 6909 bound_to 6896
  145.5298  140.9522  143.1609 H   0  0  0  0  0  0  0  0  0  0  0  0  # atno 7974 bound_to 7965
  155.2760  140.3369  155.4261 H   0  0  0  0  0  0  0  0  0  0  0  0  # atno 8008 bound_to 7997
  156.2111  140.1770  156.7733 H   0  0  0  0  0  0  0  0  0  0  0  0  # atno 8009 bound_to 7997
  154.5688  140.0674  156.8917 H   0  0  0  0  0  0  0  0  0  0  0  0  # atno 8010 bound_to 7997
  140.6527  143.2577  151.4677 H   0  0  0  0  0  0  0  0  0  0  0  0  # atno 10167 bound_to 10162
  157.3224  130.7455  149.6794 H   0  0  0  0  0  0  0  0  0  0  0  0  # atno 10718 bound_to 10713
  154.7946  135.3219  154.7696 H   0  0  0  0  0  0  0  0  0  0  0  0  # atno 10763 bound_to 10752
  153.8377  135.6873  153.4811 H   0  0  0  0  0  0  0  0  0  0  0  0  # atno 10764 bound_to 10752
  153.1632  135.4652  154.9742 H   0  0  0  0  0  0  0  0  0  0  0  0  # atno 10765 bound_to 10752
  140.9117  134.1559  157.4384 H   0  0  0  0  0  0  0  0  0  0  0  0  # atno 11005 bound_to 11000
  144.7632  139.6907  143.7226 LP  0  0  0  0  0  0  0  0  0  0  0  0  # atno 17320 bound_to 7965
  146.2052  139.5371  142.9717 LP  0  0  0  0  0  0  0  0  0  0  0  0  # atno 17321 bound_to 7965
  139.5744  144.1853  152.1882 LP  0  0  0  0  0  0  0  0  0  0  0  0  # atno 17342 bound_to 10162
  140.1159  144.5416  150.6894 LP  0  0  0  0  0  0  0  0  0  0  0  0  # atno 17343 bound_to 10162
  155.9687  130.4219  150.4492 LP  0  0  0  0  0  0  0  0  0  0  0  0  # atno 17370 bound_to 10713
  157.2509  131.0546  151.2379 LP  0  0  0  0  0  0  0  0  0  0  0  0  # atno 17371 bound_to 10713
  139.8758  134.9938  156.5662 LP  0  0  0  0  0  0  0  0  0  0  0  0  # atno 17394 bound_to 11000
  140.8102  133.8435  155.8803 LP  0  0  0  0  0  0  0  0  0  0  0  0  # atno 17395 bound_to 11000

$$$$
