#       Name:                AV-unprocessed.smi:285
#       Creating user name   scv26
#       Creation time:       Thu Mar 26 21:52:49 2020


#       File generated by GOLD software.
#

@<TRIPOS>MOLECULE
AV-unprocessed.smi:285
    40    42     1
SMALL
NO_CHARGES


@<TRIPOS>ATOM
      1 ****        -5.2760   0.1173  -0.3188 N.pl3          1 S1                 0.0000
      2 ****        -3.9726   0.4099  -0.2131 C.ar           1 S1                 0.0000
      3 ****        -3.6173   1.7010  -0.0160 N.ar           1 S1                 0.0000
      4 ****        -2.3235   2.0187   0.0964 C.ar           1 S1                 0.0000
      5 ****        -1.2582   1.2149   0.0428 N.ar           1 S1                 0.0000
      6 ****        -1.6168  -0.0874  -0.1591 C.ar           1 S1                 0.0000
      7 ****        -2.9513  -0.5698  -0.2965 C.ar           1 S1                 0.0000
      8 ****        -2.9478  -1.9461  -0.4863 N.2            1 S1                 0.0000
      9 ****        -1.6771  -2.2365  -0.4568 C.2            1 S1                 0.0000
     10 ****        -1.0964  -4.0397  -0.6554 Br             1 S1                 0.0000
     11 ****        -0.7978  -1.1946  -0.2663 N.pl3          1 S1                 0.0000
     12 ****         0.6948  -1.2251  -0.1854 C.3            1 S1                 0.0000
     13 ****         1.1651  -1.0172   1.2512 C.3            1 S1                 0.0000
     14 ****         2.4866  -0.3203   1.0155 C.3            1 S1                 0.0000
     15 ****         2.8744   0.4139   2.1585 O.3            1 S1                 0.0000
     16 ****         2.1458   0.5805  -0.1785 C.3            1 S1                 0.0000
     17 ****         3.3445   0.9606  -1.0610 C.3            1 S1                 0.0000
     18 ****         4.1964   1.8574  -0.3801 O.3            1 S1                 0.0000
     19 ****         1.2111  -0.1760  -0.9483 O.3            1 S1                 0.0000
     20 ****        -5.5659  -0.8390  -0.4649 H              1 S1                 0.0000
     21 ****        -5.9651   0.8518  -0.2477 H              1 S1                 0.0000
     22 ****        -2.1109   3.0661   0.2525 H              1 S1                 0.0000
     23 ****         1.0062  -2.1783  -0.6115 H              1 S1                 0.0000
     24 ****         0.4682  -0.3649   1.7809 H              1 S1                 0.0000
     25 ****         1.2482  -1.9647   1.7842 H              1 S1                 0.0000
     26 ****         3.2556  -1.0474   0.7502 H              1 S1                 0.0000
     27 ****         3.6451   0.9172   1.9426 H              1 S1                 0.0000
     28 ****         1.6257   1.4775   0.1632 H              1 S1                 0.0000
     29 ****         3.9063   0.0758  -1.3615 H              1 S1                 0.0000
     30 ****         2.9969   1.4471  -1.9727 H              1 S1                 0.0000
     31 ****         4.9048   2.0964  -0.9583 H              1 S1                 0.0000
     32 ****        -4.3175   2.4123   0.0451 LP             1 S1                 0.0000
     33 ****        -0.3134   1.5283   0.1388 LP             1 S1                 0.0000
     34 ****        -3.7261  -2.5609  -0.6138 LP             1 S1                 0.0000
     35 ****         3.0803  -0.2137   2.9093 LP             1 S1                 0.0000
     36 ****         2.1349   1.0291   2.4317 LP             1 S1                 0.0000
     37 ****         4.5638   1.4173   0.4392 LP             1 S1                 0.0000
     38 ****         3.6846   2.6755  -0.1179 LP             1 S1                 0.0000
     39 ****         0.4629   0.4206  -1.2386 LP             1 S1                 0.0000
     40 ****         1.6718  -0.5489  -1.7537 LP             1 S1                 0.0000
@<TRIPOS>BOND
    1    1    2 1     
    2    1   20 1     
    3    1   21 1     
    4    2    7 ar    
    5    2    3 ar    
    6    3    4 ar    
    7    4    5 ar    
    8    4   22 1     
    9    5    6 ar    
   10    6   11 1     
   11    6    7 ar    
   12    7    8 1     
   13    8    9 2     
   14    9   10 1     
   15    9   11 1     
   16   11   12 1     
   17   12   19 1     
   18   12   13 1     
   19   12   23 1     
   20   13   14 1     
   21   13   24 1     
   22   13   25 1     
   23   14   15 1     
   24   14   16 1     
   25   14   26 1     
   26   15   27 1     
   27   16   17 1     
   28   16   19 1     
   29   16   28 1     
   30   17   18 1     
   31   17   29 1     
   32   17   30 1     
   33   18   31 1     
   34    3   32 1     
   35    5   33 1     
   36    8   34 1     
   37   15   35 1     
   38   15   36 1     
   39   18   37 1     
   40   18   38 1     
   41   19   39 1     
   42   19   40 1     
@<TRIPOS>SUBSTRUCTURE
      1 S1             1
@<TRIPOS>SET
LONE_PAIRS      STATIC     ATOMS    <user>   **** ""
9 32 33 34 35 36 37 38 39 40
DONOR_HYDROGENS      STATIC     ATOMS    <user>   **** ""
4 20 21 27 31
ATOM$BLUE        STATIC     ATOMS    COLORGROUP SYSTEM
9 32 33 34 35 36 37 38 39 40
ATOM$RED        STATIC     ATOMS    COLORGROUP SYSTEM
4 20 21 27 31
