AV-unprocessed.smi:3147|AV-procd|sdf|11987|dock2
  -GOLD-   2272017393D 1   1.00000     0.00000
 Structure written by MMmdl.
 37 38  0  0  0  0  0  0  0  0  2 V2000
  153.0911  143.0261  162.8304 C   0  0  0  0  0  0  0  0  0  0  0  0
  152.4646  143.4613  161.5485 C   0  0  0  0  0  0  0  0  0  0  0  0
  151.5130  144.4456  161.4954 N   0  3  0  0  0  0  0  0  0  0  0  0
  151.1204  144.6511  160.2373 C   0  0  0  0  0  0  0  0  0  0  0  0
  151.8153  143.8021  159.4721 N   0  0  0  0  0  0  0  0  0  0  0  0
  151.6423  143.7544  158.0117 C   0  0  0  0  0  0  0  0  0  0  0  0
  151.1310  142.3949  157.5224 C   0  0  0  0  0  0  0  0  0  0  0  0
  151.7960  141.3725  157.6940 O   0  0  0  0  0  0  0  0  0  0  0  0
  149.9356  142.4039  156.9142 N   0  0  0  0  0  0  0  0  0  0  0  0
  149.2357  141.2244  156.4137 C   0  0  0  0  0  0  0  0  0  0  0  0
  148.6786  141.4265  154.9920 C   0  0  2  0  0  0  0  0  0  0  0  0
  147.3233  142.1284  154.9004 C   0  0  0  0  0  0  0  0  0  0  0  0
  146.8833  141.7307  153.5094 C   0  0  0  0  0  0  0  0  0  0  0  0
  147.3995  140.2961  153.4008 C   0  0  0  0  0  0  0  0  0  0  0  0
  148.4868  140.1868  154.3182 O   0  0  0  0  0  0  0  0  0  0  0  0
  152.6631  143.0466  160.2517 C   0  0  0  0  0  0  0  0  0  0  0  0
  153.5847  142.0134  159.6901 C   0  0  0  0  0  0  0  0  0  0  0  0
  153.1788  141.9396  162.8579 H   0  0  0  0  0  0  0  0  0  0  0  0
  152.4902  143.3455  163.6825 H   0  0  0  0  0  0  0  0  0  0  0  0
  154.0874  143.4584  162.9250 H   0  0  0  0  0  0  0  0  0  0  0  0
  150.3883  145.3658  159.9056 H   0  0  0  0  0  0  0  0  0  0  0  0
  150.9487  144.5466  157.7273 H   0  0  0  0  0  0  0  0  0  0  0  0
  152.5988  143.9756  157.5359 H   0  0  0  0  0  0  0  0  0  0  0  0
  149.4609  143.2894  156.8120 H   0  0  0  0  0  0  0  0  0  0  0  0
  149.9442  140.3959  156.4089 H   0  0  0  0  0  0  0  0  0  0  0  0
  148.4337  140.9319  157.0933 H   0  0  0  0  0  0  0  0  0  0  0  0
  149.4040  141.9965  154.4090 H   0  0  0  0  0  0  0  0  0  0  0  0
  146.6187  141.7366  155.6344 H   0  0  0  0  0  0  0  0  0  0  0  0
  147.3935  143.2082  155.0340 H   0  0  0  0  0  0  0  0  0  0  0  0
  145.8061  141.8092  153.3600 H   0  0  0  0  0  0  0  0  0  0  0  0
  147.3764  142.3629  152.7695 H   0  0  0  0  0  0  0  0  0  0  0  0
  146.6252  139.5870  153.6938 H   0  0  0  0  0  0  0  0  0  0  0  0
  147.7138  140.0517  152.3859 H   0  0  0  0  0  0  0  0  0  0  0  0
  154.0831  141.4690  160.4920 H   0  0  0  0  0  0  0  0  0  0  0  0
  154.3463  142.4884  159.0720 H   0  0  0  0  0  0  0  0  0  0  0  0
  153.0325  141.2980  159.0805 H   0  0  0  0  0  0  0  0  0  0  0  0
  151.1576  144.9514  162.2969 H   0  0  0  0  0  0  0  0  0  0  0  0
  1  2  1  0  0  0  0
  1 18  1  0  0  0  0
  1 19  1  0  0  0  0
  1 20  1  0  0  0  0
  2 16  2  0  0  0  0
  2  3  1  0  0  0  0
  3  4  2  0  0  0  0
  3 37  1  0  0  0  0
  4  5  1  0  0  0  0
  4 21  1  0  0  0  0
  5  6  1  0  0  0  0
  5 16  1  0  0  0  0
  6  7  1  0  0  0  0
  6 22  1  0  0  0  0
  6 23  1  0  0  0  0
  7  8  2  0  0  0  0
  7  9  1  0  0  0  0
  9 10  1  0  0  0  0
  9 24  1  0  0  0  0
 10 11  1  0  0  0  0
 10 25  1  0  0  0  0
 10 26  1  0  0  0  0
 11 15  1  0  0  0  0
 11 12  1  0  0  0  0
 11 27  1  0  0  0  0
 12 13  1  0  0  0  0
 12 28  1  0  0  0  0
 12 29  1  0  0  0  0
 13 14  1  0  0  0  0
 13 30  1  0  0  0  0
 13 31  1  0  0  0  0
 14 15  1  0  0  0  0
 14 32  1  0  0  0  0
 14 33  1  0  0  0  0
 16 17  1  0  0  0  0
 17 34  1  0  0  0  0
 17 35  1  0  0  0  0
 17 36  1  0  0  0  0
M  CHG  1   3   1
M  END
> <s_m_source_file>
AV-unprocessed.smi

> <i_m_source_file_index>
3147

> <i_lp_mmshare_version>
43012

> <i_f3d_flags>
0

> <s_epik_input>
W0NIM11jMW5bY0hdbihjMVtDSDNdKVtDSDJdQyg9TylbTkhdW0NIMl1bQ0BASF0yW0NIMl1bQ0gyXVtDSDJdTzI=

> <s_epik_cmdline>
J2VwaWtfcHl0aG9uJywgJy1waCcsICc3LjAnLCAnLXRuJywgJzgnLCAnLW1hJywgJzIwMCcsICctbWV0YWxfYmluZGluZycsICctaW1hZScsICc8aW5maWxlLm1hZT4nLCAnLW9tYWUnLCAnPG91dGZpbGUubWFlPic=

> <r_lp_tautomer_probability>
1

> <r_epik_Ionization_Penalty>
0.131257

> <r_epik_Ionization_Penalty_Charging>
0

> <r_epik_Ionization_Penalty_Neutral>
0.131257

> <r_epik_State_Penalty>
0.12065

> <r_epik_Charging_Adjusted_Penalty>
0.12065

> <i_epik_Tot_Q>
1

> <i_epik_Tot_abs_Q>
1

> <r_epik_Metal_State_Penalty>
0.448684

> <b_epik_Metal_Only>
0

> <s_lp_Force_Field>
OPLS_2005

> <r_lp_Energy>
20.508

> <b_lp_Chiralities_Consistent>
1

> <s_lp_Variant>
AV-unprocessed.smi:3147-1

> <Gold.Version>
5.8.1

> <Gold.Id.Protein>
6NUR|6NUR_protein|mol2

> <Gold.PLP.Fitness>
46.0761

> <Gold.PLP.PLP>
-43.7486

> <Gold.PLP.part.hbond>
-2.0000

> <Gold.PLP.part.metal>
0.0000

> <Gold.PLP.part.buried>
-5.3424

> <Gold.PLP.part.nonpolar>
-36.0158

> <Gold.PLP.part.repulsive>
0.2147

> <Gold.PLP.ligand.clash>
0.0000

> <Gold.PLP.ligand.torsion>
0.3387

> <Gold.PLP.Chemscore.Hbond>
1.0000

> <Gold.PLP.Chemscore.CHOScore>
0.0000

> <Gold.PLP.Chemscore.Metal>
0.0000

> <Gold.Chemscore.Hbonds>
donor molecule, donor type, donor heavy atom, donor atom, acceptor molecule, acceptor atom, score
      L1  H     9    24       P1  8028  0.99

> <Gold.PLP.Chemscore.Internal.Correction>
0.0049

> <Gold.Rescore>
     Score         DG    S(hbond)    S(metal)    S(lipo)     H(rot)  DE(clash)    DE(int)     intcor
     13.29     -15.08       0.99        0.00      92.22       1.76       0.12       1.67       ----

> <Gold.Chemscore.Fitness>
13.2877

> <Gold.Chemscore.DG>
-15.0753

> <Gold.Chemscore.ZeroCoef>
-5.4800

> <Gold.Chemscore.Hbond>
0.9898

> <Gold.Chemscore.Metal>
0.0000

> <Gold.Chemscore.Lipo>
92.2164

> <Gold.Chemscore.Internal_Hbond>
0.0000

> <Gold.Chemscore.DEClash>
0.1179

> <Gold.Chemscore.DEInternal>
1.6697

> <Gold.Chemscore.Rot>
1.7577

> <Gold.Chemscore.Internal.Correction>
   9.000000E+99

> <Gold.Chemscore.Hbonds>
donor molecule, donor type, donor heavy atom, donor atom, acceptor molecule, acceptor atom, score
      L1  H     9    24       P1  8028  0.92

> <Gold.Chemscore.Hbond.Weighted>
-3.3058

> <Gold.Chemscore.Metal.Weighted>
-0.0000

> <Gold.Chemscore.Lipo.Weighted>
-10.7893

> <Gold.Chemscore.Internal_Hbond.Weighted>
0.0000

> <Gold.Chemscore.DEClash.Weighted>
0.1179

> <Gold.Chemscore.DEInternal.Weighted>
1.6697

> <Gold.Chemscore.Rot.Weighted>
4.4998

> <Gold.Chemscore.Internal.Correction.Weighted>
   9.000000E+99

> <Gold.Protein.RotatedTorsions>
[ 6907 6896 6895 6894 ] final -126.75 input  -60.11 | X-H torsion
[ 7974 7965 7964 7962 ] final   15.39 input  175.53 | X-H torsion
[ 8008 7997 7996 7995 ] final  -55.38 input   59.86 | X-H torsion
[ 10167 10162 10161 10158 ] final -172.94 input  -65.29 | X-H torsion
[ 10718 10713 10712 10709 ] final -108.27 input   66.30 | X-H torsion
[ 10763 10752 10751 10750 ] final   27.88 input  -60.55 | X-H torsion
[ 11005 11000 10999 10996 ] final  119.79 input  -57.11 | X-H torsion

> <Gold.Protein.ActiveResidues>
 VAL166  LYS551  ARG553  GLY616  TRP617  ASP618  TYR619  PRO620  LYS621  CYS622 
 ASP623  PHE694  ASN695  SER759  ASP760  ASP761  ALA762  ILE779  LEU786  VAL792 
 PHE793  MET794  SER795  GLU796  ALA797  LYS798  CYS799  TRP800  GLU811  SER814 

> <Gold.Protein.RotatedAtoms>
  150.9001  133.7129  159.2881 H   0  0  0  0  0  0  0  0  0  0  0  0  # atno 6907 bound_to 6896
  151.4651  135.1040  159.9745 H   0  0  0  0  0  0  0  0  0  0  0  0  # atno 6908 bound_to 6896
  152.4872  133.8355  159.7180 H   0  0  0  0  0  0  0  0  0  0  0  0  # atno 6909 bound_to 6896
  146.2280  139.8901  142.8556 H   0  0  0  0  0  0  0  0  0  0  0  0  # atno 7974 bound_to 7965
  154.4193  140.1154  156.5467 H   0  0  0  0  0  0  0  0  0  0  0  0  # atno 8008 bound_to 7997
  155.6452  140.3496  155.4709 H   0  0  0  0  0  0  0  0  0  0  0  0  # atno 8009 bound_to 7997
  155.9838  140.1165  157.0692 H   0  0  0  0  0  0  0  0  0  0  0  0  # atno 8010 bound_to 7997
  139.5716  144.1628  152.1392 H   0  0  0  0  0  0  0  0  0  0  0  0  # atno 10167 bound_to 10162
  156.0477  130.5704  150.7937 H   0  0  0  0  0  0  0  0  0  0  0  0  # atno 10718 bound_to 10713
  153.0527  135.6526  154.0653 H   0  0  0  0  0  0  0  0  0  0  0  0  # atno 10763 bound_to 10752
  154.0337  135.2909  155.3366 H   0  0  0  0  0  0  0  0  0  0  0  0  # atno 10764 bound_to 10752
  154.6825  135.5314  153.8349 H   0  0  0  0  0  0  0  0  0  0  0  0  # atno 10765 bound_to 10752
  139.9160  134.9631  156.7708 H   0  0  0  0  0  0  0  0  0  0  0  0  # atno 11005 bound_to 11000
  145.2426  141.0015  143.3927 LP  0  0  0  0  0  0  0  0  0  0  0  0  # atno 17320 bound_to 7965
  144.9440  139.4157  143.6435 LP  0  0  0  0  0  0  0  0  0  0  0  0  # atno 17321 bound_to 7965
  140.1162  144.5413  150.6892 LP  0  0  0  0  0  0  0  0  0  0  0  0  # atno 17342 bound_to 10162
  140.7000  143.2428  151.4891 LP  0  0  0  0  0  0  0  0  0  0  0  0  # atno 17343 bound_to 10162
  157.5370  131.0939  150.9878 LP  0  0  0  0  0  0  0  0  0  0  0  0  # atno 17370 bound_to 10713
  157.0170  130.5659  149.5327 LP  0  0  0  0  0  0  0  0  0  0  0  0  # atno 17371 bound_to 10713
  140.6622  133.9635  155.7811 LP  0  0  0  0  0  0  0  0  0  0  0  0  # atno 17394 bound_to 11000
  141.0635  134.0311  157.3625 LP  0  0  0  0  0  0  0  0  0  0  0  0  # atno 17395 bound_to 11000

$$$$
