AV-unprocessed.smi:6|AV-procd|sdf|42|dock9
  -GOLD-   2262015153D 1   1.00000     0.00000
 Structure written by MMmdl.
 37 38  0  0  0  0  0  0  0  0  3 V2000
  146.3528  138.6077  151.2476 C   0  0  0  0  0  0  0  0  0  0  0  0
  146.5268  138.3294  152.7484 C   0  0  0  0  0  0  0  0  0  0  0  0
  145.2770  137.7108  153.3932 C   0  0  0  0  0  0  0  0  0  0  0  0
  147.0078  139.5596  153.5048 C   0  0  0  0  0  0  0  0  0  0  0  0
  146.2288  140.6536  153.5290 N   0  3  0  0  0  0  0  0  0  0  0  0
  146.6434  141.7588  154.1952 C   0  0  0  0  0  0  0  0  0  0  0  0
  147.8835  141.7663  154.8598 C   0  0  0  0  0  0  0  0  0  0  0  0
  148.6470  140.5878  154.7983 C   0  0  0  0  0  0  0  0  0  0  0  0
  149.8918  140.5382  155.4380 N   0  0  0  0  0  0  0  0  0  0  0  0
  150.3623  141.7131  156.1620 C   0  0  0  0  0  0  0  0  0  0  0  0
  151.3486  141.3736  157.2695 C   0  0  0  0  0  0  0  0  0  0  0  0
  151.6327  142.2342  158.2693 C   0  0  0  0  0  0  0  0  0  0  0  0
  152.5590  141.9324  159.2809 N   0  0  0  0  0  0  0  0  0  0  0  0
  152.7937  142.9296  160.3281 C   0  0  0  0  0  0  0  0  0  0  0  0
  153.2134  140.7365  159.2779 C   0  0  0  0  0  0  0  0  0  0  0  0
  154.0150  140.4960  160.1814 O   0  0  0  0  0  0  0  0  0  0  0  0
  152.9537  139.8495  158.2693 N   0  5  0  0  0  0  0  0  0  0  0  0
  152.0684  140.0944  157.2596 C   0  0  0  0  0  0  0  0  0  0  0  0
  151.8600  139.2837  156.3572 O   0  0  0  0  0  0  0  0  0  0  0  0
  148.1981  139.5082  154.1202 N   0  0  0  0  0  0  0  0  0  0  0  0
  147.2775  138.9825  150.8081 H   0  0  0  0  0  0  0  0  0  0  0  0
  145.5734  139.3489  151.0674 H   0  0  0  0  0  0  0  0  0  0  0  0
  146.0761  137.7002  150.7102 H   0  0  0  0  0  0  0  0  0  0  0  0
  147.3158  137.5798  152.8300 H   0  0  0  0  0  0  0  0  0  0  0  0
  145.4587  137.4578  154.4381 H   0  0  0  0  0  0  0  0  0  0  0  0
  144.9825  136.7957  152.8789 H   0  0  0  0  0  0  0  0  0  0  0  0
  144.4295  138.3965  153.3587 H   0  0  0  0  0  0  0  0  0  0  0  0
  145.9687  142.6020  154.1744 H   0  0  0  0  0  0  0  0  0  0  0  0
  148.2290  142.6387  155.3955 H   0  0  0  0  0  0  0  0  0  0  0  0
  150.6035  139.9619  155.0110 H   0  0  0  0  0  0  0  0  0  0  0  0
  150.8366  142.4056  155.4652 H   0  0  0  0  0  0  0  0  0  0  0  0
  149.5081  142.2329  156.5981 H   0  0  0  0  0  0  0  0  0  0  0  0
  151.1664  143.2048  158.3541 H   0  0  0  0  0  0  0  0  0  0  0  0
  153.8521  143.1884  160.3830 H   0  0  0  0  0  0  0  0  0  0  0  0
  152.4881  142.5385  161.2995 H   0  0  0  0  0  0  0  0  0  0  0  0
  152.2417  143.8544  160.1576 H   0  0  0  0  0  0  0  0  0  0  0  0
  145.3277  140.6619  153.0504 H   0  0  0  0  0  0  0  0  0  0  0  0
  1  2  1  0  0  0  0
  1 21  1  0  0  0  0
  1 22  1  0  0  0  0
  1 23  1  0  0  0  0
  2  3  1  0  0  0  0
  2  4  1  0  0  0  0
  2 24  1  0  0  0  0
  3 25  1  0  0  0  0
  3 26  1  0  0  0  0
  3 27  1  0  0  0  0
  4 20  1  0  0  0  0
  4  5  2  0  0  0  0
  5  6  1  0  0  0  0
  5 37  1  0  0  0  0
  6  7  2  0  0  0  0
  6 28  1  0  0  0  0
  7  8  1  0  0  0  0
  7 29  1  0  0  0  0
  8  9  1  0  0  0  0
  8 20  2  0  0  0  0
  9 10  1  0  0  0  0
  9 30  1  0  0  0  0
 10 11  1  0  0  0  0
 10 31  1  0  0  0  0
 10 32  1  0  0  0  0
 11 18  1  0  0  0  0
 11 12  2  0  0  0  0
 12 13  1  0  0  0  0
 12 33  1  0  0  0  0
 13 14  1  0  0  0  0
 13 15  1  0  0  0  0
 14 34  1  0  0  0  0
 14 35  1  0  0  0  0
 14 36  1  0  0  0  0
 15 16  2  0  0  0  0
 15 17  1  0  0  0  0
 17 18  1  0  0  0  0
 18 19  2  0  0  0  0
M  CHG  1   5   1
M  CHG  1  17  -1
M  END
> <s_m_source_file>
AV-unprocessed.smi

> <i_m_source_file_index>
6

> <i_lp_mmshare_version>
43012

> <i_f3d_flags>
0

> <s_epik_input>
W0NIM11bQ0hdKFtDSDNdKWMxbltjSF1bY0hdYyhuMSlbTkhdW0NIMl1jMltjSF1uKFtDSDNdKWMoPU8pW25IXWMyPU8=

> <s_epik_cmdline>
J2VwaWtfcHl0aG9uJywgJy1waCcsICc3LjAnLCAnLXRuJywgJzgnLCAnLW1hJywgJzIwMCcsICctbWV0YWxfYmluZGluZycsICctaW1hZScsICc8aW5maWxlLm1hZT4nLCAnLW9tYWUnLCAnPG91dGZpbGUubWFlPic=

> <r_lp_tautomer_probability>
0.998874

> <r_epik_Ionization_Penalty>
4.8157

> <r_epik_Ionization_Penalty_Charging>
0.866709

> <r_epik_Ionization_Penalty_Neutral>
3.94899

> <r_epik_State_Penalty>
4.49389

> <r_epik_Charging_Adjusted_Penalty>
5.3606

> <i_epik_Tot_Q>
0

> <i_epik_Tot_abs_Q>
2

> <r_epik_Metal_State_Penalty>
1.28929

> <b_epik_Metal_Only>
1

> <s_lp_Force_Field>
OPLS_2005

> <r_lp_Energy>
16.1184

> <b_lp_Chiralities_Consistent>
1

> <s_lp_Variant>
AV-unprocessed.smi:6-4

> <Gold.Version>
5.8.1

> <Gold.Id.Protein>
6NUR|6NUR_protein|mol2

> <Gold.PLP.Fitness>
46.6039

> <Gold.PLP.PLP>
-35.4764

> <Gold.PLP.part.hbond>
-2.0000

> <Gold.PLP.part.metal>
0.0000

> <Gold.PLP.part.buried>
-0.3152

> <Gold.PLP.part.nonpolar>
-33.9548

> <Gold.PLP.part.repulsive>
0.5518

> <Gold.PLP.ligand.clash>
0.0000

> <Gold.PLP.ligand.torsion>
0.4755

> <Gold.PLP.Chemscore.Hbond>
4.0000

> <Gold.PLP.Chemscore.CHOScore>
0.0000

> <Gold.PLP.Chemscore.Metal>
0.0000

> <Gold.Chemscore.Hbonds>
donor molecule, donor type, donor heavy atom, donor atom, acceptor molecule, acceptor atom, score
      L1  H     5    37       P1 10175  2.00
      P1  H  7997  8008       L1    17  1.44

> <Gold.PLP.Chemscore.Internal.Correction>
0.0784

> <Gold.Rescore>
     Score         DG    S(hbond)    S(metal)    S(lipo)     H(rot)  DE(clash)    DE(int)     intcor
     10.38     -12.97       1.22        0.00      65.20       1.65       0.33       2.26       ----

> <Gold.Chemscore.Fitness>
10.3784

> <Gold.Chemscore.DG>
-12.9685

> <Gold.Chemscore.ZeroCoef>
-5.4800

> <Gold.Chemscore.Hbond>
1.2209

> <Gold.Chemscore.Metal>
0.0000

> <Gold.Chemscore.Lipo>
65.2021

> <Gold.Chemscore.Internal_Hbond>
0.0000

> <Gold.Chemscore.DEClash>
0.3290

> <Gold.Chemscore.DEInternal>
2.2611

> <Gold.Chemscore.Rot>
1.6477

> <Gold.Chemscore.Internal.Correction>
   9.000000E+99

> <Gold.Chemscore.Hbonds>
donor molecule, donor type, donor heavy atom, donor atom, acceptor molecule, acceptor atom, score
      L1  H     5    37       P1 10175  0.74
      P1  H  7997  8008       L1    17  0.03

> <Gold.Chemscore.Hbond.Weighted>
-4.0779

> <Gold.Chemscore.Metal.Weighted>
-0.0000

> <Gold.Chemscore.Lipo.Weighted>
-7.6286

> <Gold.Chemscore.Internal_Hbond.Weighted>
0.0000

> <Gold.Chemscore.DEClash.Weighted>
0.3290

> <Gold.Chemscore.DEInternal.Weighted>
2.2611

> <Gold.Chemscore.Rot.Weighted>
4.2180

> <Gold.Chemscore.Internal.Correction.Weighted>
   9.000000E+99

> <Gold.Protein.RotatedTorsions>
[ 6907 6896 6895 6894 ] final -177.89 input  -60.11 | X-H torsion
[ 7974 7965 7964 7962 ] final  -30.01 input  175.53 | X-H torsion
[ 8008 7997 7996 7995 ] final  -94.98 input   59.86 | X-H torsion
[ 10167 10162 10161 10158 ] final   93.19 input  -65.29 | X-H torsion
[ 10718 10713 10712 10709 ] final    5.14 input   66.30 | X-H torsion
[ 10763 10752 10751 10750 ] final -108.98 input  -60.55 | X-H torsion
[ 11005 11000 10999 10996 ] final -169.90 input  -57.11 | X-H torsion

> <Gold.Protein.ActiveResidues>
 VAL166  LYS551  ARG553  GLY616  TRP617  ASP618  TYR619  PRO620  LYS621  CYS622 
 ASP623  PHE694  ASN695  SER759  ASP760  ASP761  ALA762  ILE779  LEU786  VAL792 
 PHE793  MET794  SER795  GLU796  ALA797  LYS798  CYS799  TRP800  GLU811  SER814 

> <Gold.Protein.RotatedAtoms>
  151.6283  133.3334  159.3102 H   0  0  0  0  0  0  0  0  0  0  0  0  # atno 6907 bound_to 6896
  150.8070  134.7205  159.6664 H   0  0  0  0  0  0  0  0  0  0  0  0  # atno 6908 bound_to 6896
  152.4166  134.6036  160.0058 H   0  0  0  0  0  0  0  0  0  0  0  0  # atno 6909 bound_to 6896
  146.1174  140.5486  142.8750 H   0  0  0  0  0  0  0  0  0  0  0  0  # atno 7974 bound_to 7965
  154.7555  140.0484  157.0929 H   0  0  0  0  0  0  0  0  0  0  0  0  # atno 8008 bound_to 7997
  155.0003  140.3124  155.4850 H   0  0  0  0  0  0  0  0  0  0  0  0  # atno 8009 bound_to 7997
  156.2894  140.2202  156.5113 H   0  0  0  0  0  0  0  0  0  0  0  0  # atno 8010 bound_to 7997
  139.8204  144.6734  150.9526 H   0  0  0  0  0  0  0  0  0  0  0  0  # atno 10167 bound_to 10162
  156.9030  130.5729  149.5648 H   0  0  0  0  0  0  0  0  0  0  0  0  # atno 10718 bound_to 10713
  154.8167  135.4618  154.0662 H   0  0  0  0  0  0  0  0  0  0  0  0  # atno 10763 bound_to 10752
  153.2050  135.6874  153.8191 H   0  0  0  0  0  0  0  0  0  0  0  0  # atno 10764 bound_to 10752
  153.7662  135.3277  155.3322 H   0  0  0  0  0  0  0  0  0  0  0  0  # atno 10765 bound_to 10752
  140.5255  134.5667  157.5060 H   0  0  0  0  0  0  0  0  0  0  0  0  # atno 11005 bound_to 11000
  144.7566  140.5321  143.6765 LP  0  0  0  0  0  0  0  0  0  0  0  0  # atno 17320 bound_to 7965
  145.5537  139.1477  143.3380 LP  0  0  0  0  0  0  0  0  0  0  0  0  # atno 17321 bound_to 7965
  140.7813  143.4097  151.1013 LP  0  0  0  0  0  0  0  0  0  0  0  0  # atno 17342 bound_to 10162
  139.7758  143.8427  152.3129 LP  0  0  0  0  0  0  0  0  0  0  0  0  # atno 17343 bound_to 10162
  156.0572  130.5632  150.9117 LP  0  0  0  0  0  0  0  0  0  0  0  0  # atno 17370 bound_to 10713
  157.6014  131.0941  150.8953 LP  0  0  0  0  0  0  0  0  0  0  0  0  # atno 17371 bound_to 10713
  139.9582  134.7497  156.0294 LP  0  0  0  0  0  0  0  0  0  0  0  0  # atno 17394 bound_to 11000
  141.1310  133.6586  156.3466 LP  0  0  0  0  0  0  0  0  0  0  0  0  # atno 17395 bound_to 11000

$$$$
