AV-unprocessed.smi:3273|AV-procd|sdf|12520|dock6
  -GOLD-   2272018433D 1   1.00000     0.00000
 Structure written by MMmdl.
 41 42  0  0  0  0  0  0  0  0  1 V2000
  147.5037  139.8268  153.3054 C   0  0  0  0  0  0  0  0  0  0  0  0
  148.4178  140.1153  154.5107 C   0  0  0  0  0  0  0  0  0  0  0  0
  148.2061  141.5728  154.9684 C   0  0  0  0  0  0  0  0  0  0  0  0
  149.9117  139.7945  154.2215 C   0  0  2  0  0  0  0  0  0  0  0  0
  150.0889  138.5396  153.3358 C   0  0  0  0  0  0  0  0  0  0  0  0
  149.4446  137.3703  153.9247 N   0  0  0  0  0  0  0  0  0  0  0  0
  150.0649  136.2167  154.2092 C   0  0  0  0  0  0  0  0  0  0  0  0
  151.2646  136.0281  154.0051 O   0  0  0  0  0  0  0  0  0  0  0  0
  149.1888  135.1124  154.8076 C   0  0  0  0  0  0  0  0  0  0  0  0
  149.0689  133.8901  153.9125 C   0  0  0  0  0  0  0  0  0  0  0  0
  150.2999  133.1875  153.3862 C   0  0  0  0  0  0  0  0  0  0  0  0
  149.4187  133.9677  152.4427 C   0  0  0  0  0  0  0  0  0  0  0  0
  150.7354  139.6891  155.4795 C   0  0  0  0  0  0  0  0  0  0  0  0
  150.3926  139.9656  156.7747 C   0  0  0  0  0  0  0  0  0  0  0  0
  151.5644  139.6613  157.5193 C   0  0  0  0  0  0  0  0  0  0  0  0
  152.5510  139.2273  156.7552 N   0  0  0  0  0  0  0  0  0  0  0  0
  152.0458  139.2404  155.5033 N   0  0  0  0  0  0  0  0  0  0  0  0
  152.8848  138.8071  154.4023 C   0  0  0  0  0  0  0  0  0  0  0  0
  147.8221  140.3832  152.4234 H   0  0  0  0  0  0  0  0  0  0  0  0
  146.4729  140.1103  153.5195 H   0  0  0  0  0  0  0  0  0  0  0  0
  147.4879  138.7682  153.0486 H   0  0  0  0  0  0  0  0  0  0  0  0
  148.0899  139.4770  155.3323 H   0  0  0  0  0  0  0  0  0  0  0  0
  148.5722  142.2774  154.2211 H   0  0  0  0  0  0  0  0  0  0  0  0
  148.7160  141.7880  155.9074 H   0  0  0  0  0  0  0  0  0  0  0  0
  147.1489  141.7840  155.1312 H   0  0  0  0  0  0  0  0  0  0  0  0
  150.2913  140.6336  153.6382 H   0  0  0  0  0  0  0  0  0  0  0  0
  149.6616  138.7282  152.3491 H   0  0  0  0  0  0  0  0  0  0  0  0
  151.1427  138.3045  153.1895 H   0  0  0  0  0  0  0  0  0  0  0  0
  148.4563  137.4405  154.1196 H   0  0  0  0  0  0  0  0  0  0  0  0
  149.6024  134.8102  155.7710 H   0  0  0  0  0  0  0  0  0  0  0  0
  148.1922  135.5107  155.0003 H   0  0  0  0  0  0  0  0  0  0  0  0
  148.2261  133.2477  154.1622 H   0  0  0  0  0  0  0  0  0  0  0  0
  151.2724  133.6113  153.6289 H   0  0  0  0  0  0  0  0  0  0  0  0
  150.2687  132.1018  153.3212 H   0  0  0  0  0  0  0  0  0  0  0  0
  148.7969  133.4042  151.7501 H   0  0  0  0  0  0  0  0  0  0  0  0
  149.8042  134.9114  152.0615 H   0  0  0  0  0  0  0  0  0  0  0  0
  149.4423  140.3307  157.1352 H   0  0  0  0  0  0  0  0  0  0  0  0
  151.7248  139.7395  158.5844 H   0  0  0  0  0  0  0  0  0  0  0  0
  152.4180  137.9617  153.8964 H   0  0  0  0  0  0  0  0  0  0  0  0
  153.8680  138.5016  154.7627 H   0  0  0  0  0  0  0  0  0  0  0  0
  153.0095  139.6255  153.6931 H   0  0  0  0  0  0  0  0  0  0  0  0
  1  2  1  0  0  0  0
  1 19  1  0  0  0  0
  1 20  1  0  0  0  0
  1 21  1  0  0  0  0
  2  3  1  0  0  0  0
  2  4  1  0  0  0  0
  2 22  1  0  0  0  0
  3 23  1  0  0  0  0
  3 24  1  0  0  0  0
  3 25  1  0  0  0  0
  4  5  1  0  0  0  0
  4 13  1  0  0  0  0
  4 26  1  0  0  0  0
  5  6  1  0  0  0  0
  5 27  1  0  0  0  0
  5 28  1  0  0  0  0
  6  7  1  0  0  0  0
  6 29  1  0  0  0  0
  7  8  2  0  0  0  0
  7  9  1  0  0  0  0
  9 10  1  0  0  0  0
  9 30  1  0  0  0  0
  9 31  1  0  0  0  0
 10 12  1  0  0  0  0
 10 11  1  0  0  0  0
 10 32  1  0  0  0  0
 11 12  1  0  0  0  0
 11 33  1  0  0  0  0
 11 34  1  0  0  0  0
 12 35  1  0  0  0  0
 12 36  1  0  0  0  0
 13 17  1  0  0  0  0
 13 14  2  0  0  0  0
 14 15  1  0  0  0  0
 14 37  1  0  0  0  0
 15 16  2  0  0  0  0
 15 38  1  0  0  0  0
 16 17  1  0  0  0  0
 17 18  1  0  0  0  0
 18 39  1  0  0  0  0
 18 40  1  0  0  0  0
 18 41  1  0  0  0  0
M  END
> <s_m_source_file>
AV-unprocessed.smi

> <i_m_source_file_index>
3273

> <i_lp_mmshare_version>
43012

> <i_f3d_flags>
0

> <s_epik_input>
W0NIM11uMW5bY0hdW2NIXWMxW0NASF0oW0NIXShbQ0gzXSlbQ0gzXSlbQ0gyXVtOSF1DKD1PKVtDSDJdW0NIXTJbQ0gyXVtDSDJdMg==

> <s_epik_cmdline>
J2VwaWtfcHl0aG9uJywgJy1waCcsICc3LjAnLCAnLXRuJywgJzgnLCAnLW1hJywgJzIwMCcsICctbWV0YWxfYmluZGluZycsICctaW1hZScsICc8aW5maWxlLm1hZT4nLCAnLW9tYWUnLCAnPG91dGZpbGUubWFlPic=

> <r_lp_tautomer_probability>
1

> <r_epik_Ionization_Penalty>
0.00116261

> <r_epik_Ionization_Penalty_Charging>
0

> <r_epik_Ionization_Penalty_Neutral>
0.00116261

> <r_epik_State_Penalty>
-0

> <r_epik_Charging_Adjusted_Penalty>
0

> <i_epik_Tot_Q>
0

> <i_epik_Tot_abs_Q>
0

> <r_epik_Metal_State_Penalty>
-0

> <b_epik_Metal_Only>
0

> <s_lp_Force_Field>
OPLS_2005

> <r_lp_Energy>
13.9008

> <b_lp_Chiralities_Consistent>
1

> <s_lp_Variant>
AV-unprocessed.smi:3273-1

> <Gold.Version>
5.8.1

> <Gold.Id.Protein>
6NUR|6NUR_protein|mol2

> <Gold.PLP.Fitness>
37.5844

> <Gold.PLP.PLP>
-32.7532

> <Gold.PLP.part.hbond>
-2.8000

> <Gold.PLP.part.metal>
0.0000

> <Gold.PLP.part.buried>
0.1405

> <Gold.PLP.part.nonpolar>
-29.9979

> <Gold.PLP.part.repulsive>
0.1256

> <Gold.PLP.ligand.clash>
0.0000

> <Gold.PLP.ligand.torsion>
0.9454

> <Gold.PLP.Chemscore.Hbond>
2.0000

> <Gold.PLP.Chemscore.CHOScore>
0.0000

> <Gold.PLP.Chemscore.Metal>
0.0000

> <Gold.Chemscore.Hbonds>
donor molecule, donor type, donor heavy atom, donor atom, acceptor molecule, acceptor atom, score
      P1  H  7997  8009       L1    16  0.91
      P1  H 10752 10764       L1     8  1.00

> <Gold.PLP.Chemscore.Internal.Correction>
0.7220

> <Gold.Rescore>
     Score         DG    S(hbond)    S(metal)    S(lipo)     H(rot)  DE(clash)    DE(int)     intcor
     13.95     -16.12       1.69        0.00      78.48       1.64       0.55       1.62       ----

> <Gold.Chemscore.Fitness>
13.9458

> <Gold.Chemscore.DG>
-16.1172

> <Gold.Chemscore.ZeroCoef>
-5.4800

> <Gold.Chemscore.Hbond>
1.6950

> <Gold.Chemscore.Metal>
0.0000

> <Gold.Chemscore.Lipo>
78.4807

> <Gold.Chemscore.Internal_Hbond>
0.0000

> <Gold.Chemscore.DEClash>
0.5512

> <Gold.Chemscore.DEInternal>
1.6202

> <Gold.Chemscore.Rot>
1.6430

> <Gold.Chemscore.Internal.Correction>
   9.000000E+99

> <Gold.Chemscore.Hbonds>
donor molecule, donor type, donor heavy atom, donor atom, acceptor molecule, acceptor atom, score
      P1  H  7997  8009       L1    16  0.67
      P1  H 10752 10764       L1     8  1.00

> <Gold.Chemscore.Hbond.Weighted>
-5.6612

> <Gold.Chemscore.Metal.Weighted>
-0.0000

> <Gold.Chemscore.Lipo.Weighted>
-9.1822

> <Gold.Chemscore.Internal_Hbond.Weighted>
0.0000

> <Gold.Chemscore.DEClash.Weighted>
0.5512

> <Gold.Chemscore.DEInternal.Weighted>
1.6202

> <Gold.Chemscore.Rot.Weighted>
4.2062

> <Gold.Chemscore.Internal.Correction.Weighted>
   9.000000E+99

> <Gold.Protein.RotatedTorsions>
[ 6907 6896 6895 6894 ] final  -44.60 input  -60.11 | X-H torsion
[ 7974 7965 7964 7962 ] final  -62.58 input  175.53 | X-H torsion
[ 8008 7997 7996 7995 ] final  168.75 input   59.86 | X-H torsion
[ 10167 10162 10161 10158 ] final  130.56 input  -65.29 | X-H torsion
[ 10718 10713 10712 10709 ] final   12.15 input   66.30 | X-H torsion
[ 10763 10752 10751 10750 ] final  -76.22 input  -60.55 | X-H torsion
[ 11005 11000 10999 10996 ] final   99.20 input  -57.11 | X-H torsion

> <Gold.Protein.ActiveResidues>
 VAL166  LYS551  ARG553  GLY616  TRP617  ASP618  TYR619  PRO620  LYS621  CYS622 
 ASP623  PHE694  ASN695  SER759  ASP760  ASP761  ALA762  ILE779  LEU786  VAL792 
 PHE793  MET794  SER795  GLU796  ALA797  LYS798  CYS799  TRP800  GLU811  SER814 

> <Gold.Protein.RotatedAtoms>
  150.9310  134.8725  159.7550 H   0  0  0  0  0  0  0  0  0  0  0  0  # atno 6907 bound_to 6896
  152.5038  134.4079  159.9448 H   0  0  0  0  0  0  0  0  0  0  0  0  # atno 6908 bound_to 6896
  151.4106  133.3689  159.2778 H   0  0  0  0  0  0  0  0  0  0  0  0  # atno 6909 bound_to 6896
  145.7895  140.8717  143.0288 H   0  0  0  0  0  0  0  0  0  0  0  0  # atno 7974 bound_to 7965
  156.1519  140.1582  156.8756 H   0  0  0  0  0  0  0  0  0  0  0  0  # atno 8008 bound_to 7997
  154.5079  140.0808  156.7968 H   0  0  0  0  0  0  0  0  0  0  0  0  # atno 8009 bound_to 7997
  155.3879  140.3408  155.4252 H   0  0  0  0  0  0  0  0  0  0  0  0  # atno 8010 bound_to 7997
  139.5424  144.6743  151.4581 H   0  0  0  0  0  0  0  0  0  0  0  0  # atno 10167 bound_to 10162
  157.0060  130.6098  149.5702 H   0  0  0  0  0  0  0  0  0  0  0  0  # atno 10718 bound_to 10713
  154.4969  135.5805  153.6501 H   0  0  0  0  0  0  0  0  0  0  0  0  # atno 10763 bound_to 10752
  152.9872  135.6126  154.3052 H   0  0  0  0  0  0  0  0  0  0  0  0  # atno 10764 bound_to 10752
  154.2957  135.2848  155.2614 H   0  0  0  0  0  0  0  0  0  0  0  0  # atno 10765 bound_to 10752
  139.8771  134.9085  156.4571 H   0  0  0  0  0  0  0  0  0  0  0  0  # atno 11005 bound_to 11000
  144.6784  140.0103  143.7484 LP  0  0  0  0  0  0  0  0  0  0  0  0  # atno 17320 bound_to 7965
  145.9991  139.3077  143.0938 LP  0  0  0  0  0  0  0  0  0  0  0  0  # atno 17321 bound_to 7965
  140.6660  143.8398  150.6942 LP  0  0  0  0  0  0  0  0  0  0  0  0  # atno 17342 bound_to 10162
  140.1807  143.4117  152.1935 LP  0  0  0  0  0  0  0  0  0  0  0  0  # atno 17343 bound_to 10162
  156.0153  130.5247  150.8116 LP  0  0  0  0  0  0  0  0  0  0  0  0  # atno 17370 bound_to 10713
  157.5355  131.0938  150.9897 LP  0  0  0  0  0  0  0  0  0  0  0  0  # atno 17371 bound_to 10713
  140.8891  133.7861  155.9551 LP  0  0  0  0  0  0  0  0  0  0  0  0  # atno 17394 bound_to 11000
  140.8773  134.2654  157.5161 LP  0  0  0  0  0  0  0  0  0  0  0  0  # atno 17395 bound_to 11000

$$$$
