AV-unprocessed.smi:2810|AV-procd|sdf|10828|dock7
  -GOLD-   2272015273D 1   1.00000     0.00000
 Structure written by MMmdl.
 39 40  0  0  0  0  0  0  0  0  1 V2000
  147.6011  141.8781  157.8037 C   0  0  0  0  0  0  0  0  0  0  0  0
  149.0365  141.3995  157.8490 C   0  0  0  0  0  0  0  0  0  0  0  0
  149.4437  140.2255  157.1817 C   0  0  0  0  0  0  0  0  0  0  0  0
  150.8072  139.8719  157.2938 C   0  0  0  0  0  0  0  0  0  0  0  0
  151.2901  138.7122  156.6504 N   0  0  0  0  0  0  0  0  0  0  0  0
  151.6072  137.6801  157.6366 C   0  0  0  0  0  0  0  0  0  0  0  0
  152.2750  136.4690  156.9716 C   0  0  0  0  0  0  0  0  0  0  0  0
  151.4240  135.9777  155.9471 O   0  0  0  0  0  0  0  0  0  0  0  0
  151.2378  136.9433  154.9202 C   0  0  0  0  0  0  0  0  0  0  0  0
  150.5502  138.2148  155.4741 C   0  0  2  0  0  0  0  0  0  0  0  0
  150.3846  139.2020  154.2980 C   0  0  0  0  0  0  0  0  0  0  0  0
  149.8018  138.7682  153.1752 N   0  0  0  0  0  0  0  0  0  0  0  0
  150.7959  140.3553  154.4047 O   0  0  0  0  0  0  0  0  0  0  0  0
  151.6646  140.6452  158.0023 N   0  0  0  0  0  0  0  0  0  0  0  0
  151.1730  141.7348  158.5999 C   0  0  0  0  0  0  0  0  0  0  0  0
  152.1511  142.5738  159.4113 C   0  0  0  0  0  0  0  0  0  0  0  0
  152.2529  144.0120  158.8801 C   0  0  0  0  0  0  0  0  0  0  0  0
  153.5184  141.8855  159.5474 C   0  0  0  0  0  0  0  0  0  0  0  0
  149.9038  142.1519  158.5596 N   0  0  0  0  0  0  0  0  0  0  0  0
  146.9611  141.1563  157.2956 H   0  0  0  0  0  0  0  0  0  0  0  0
  147.5355  142.8269  157.2706 H   0  0  0  0  0  0  0  0  0  0  0  0
  147.2156  142.0224  158.8134 H   0  0  0  0  0  0  0  0  0  0  0  0
  148.7458  139.6238  156.6178 H   0  0  0  0  0  0  0  0  0  0  0  0
  152.2720  138.0695  158.4087 H   0  0  0  0  0  0  0  0  0  0  0  0
  150.6891  137.3664  158.1367 H   0  0  0  0  0  0  0  0  0  0  0  0
  153.2523  136.7324  156.5633 H   0  0  0  0  0  0  0  0  0  0  0  0
  152.4381  135.6799  157.7058 H   0  0  0  0  0  0  0  0  0  0  0  0
  152.2020  137.1815  154.4661 H   0  0  0  0  0  0  0  0  0  0  0  0
  150.6276  136.4895  154.1381 H   0  0  0  0  0  0  0  0  0  0  0  0
  149.5501  137.9283  155.8054 H   0  0  0  0  0  0  0  0  0  0  0  0
  149.6813  139.3993  152.3964 H   0  0  0  0  0  0  0  0  0  0  0  0
  149.4819  137.8127  153.1126 H   0  0  0  0  0  0  0  0  0  0  0  0
  151.7469  142.6510  160.4223 H   0  0  0  0  0  0  0  0  0  0  0  0
  151.2744  144.4927  158.8636 H   0  0  0  0  0  0  0  0  0  0  0  0
  152.6529  144.0353  157.8659 H   0  0  0  0  0  0  0  0  0  0  0  0
  152.9077  144.6166  159.5079 H   0  0  0  0  0  0  0  0  0  0  0  0
  153.4152  140.8959  159.9935 H   0  0  0  0  0  0  0  0  0  0  0  0
  154.1887  142.4659  160.1816 H   0  0  0  0  0  0  0  0  0  0  0  0
  154.0023  141.7645  158.5775 H   0  0  0  0  0  0  0  0  0  0  0  0
  1  2  1  0  0  0  0
  1 20  1  0  0  0  0
  1 21  1  0  0  0  0
  1 22  1  0  0  0  0
  2 19  1  0  0  0  0
  2  3  2  0  0  0  0
  3  4  1  0  0  0  0
  3 23  1  0  0  0  0
  4  5  1  0  0  0  0
  4 14  2  0  0  0  0
  5 10  1  0  0  0  0
  5  6  1  0  0  0  0
  6  7  1  0  0  0  0
  6 24  1  0  0  0  0
  6 25  1  0  0  0  0
  7  8  1  0  0  0  0
  7 26  1  0  0  0  0
  7 27  1  0  0  0  0
  8  9  1  0  0  0  0
  9 10  1  0  0  0  0
  9 28  1  0  0  0  0
  9 29  1  0  0  0  0
 10 11  1  0  0  0  0
 10 30  1  0  0  0  0
 11 12  1  0  0  0  0
 11 13  2  0  0  0  0
 12 31  1  0  0  0  0
 12 32  1  0  0  0  0
 14 15  1  0  0  0  0
 15 16  1  0  0  0  0
 15 19  2  0  0  0  0
 16 17  1  0  0  0  0
 16 18  1  0  0  0  0
 16 33  1  0  0  0  0
 17 34  1  0  0  0  0
 17 35  1  0  0  0  0
 17 36  1  0  0  0  0
 18 37  1  0  0  0  0
 18 38  1  0  0  0  0
 18 39  1  0  0  0  0
M  END
> <s_m_source_file>
AV-unprocessed.smi

> <i_m_source_file_index>
2810

> <i_lp_mmshare_version>
43012

> <i_f3d_flags>
0

> <s_epik_input>
W0NIM11bQ0hdKFtDSDNdKWMobjEpbmMoW2NIXWMxW0NIM10pTjJbQ0gyXVtDSDJdT1tDSDJdW0NASF0yQyg9TylbTkgyXQ==

> <s_epik_cmdline>
J2VwaWtfcHl0aG9uJywgJy1waCcsICc3LjAnLCAnLXRuJywgJzgnLCAnLW1hJywgJzIwMCcsICctbWV0YWxfYmluZGluZycsICctaW1hZScsICc8aW5maWxlLm1hZT4nLCAnLW9tYWUnLCAnPG91dGZpbGUubWFlPic=

> <r_lp_tautomer_probability>
1

> <r_epik_Ionization_Penalty>
0.00607782

> <r_epik_Ionization_Penalty_Charging>
0

> <r_epik_Ionization_Penalty_Neutral>
0.00607782

> <r_epik_State_Penalty>
0.00441345

> <r_epik_Charging_Adjusted_Penalty>
0.00441345

> <i_epik_Tot_Q>
0

> <i_epik_Tot_abs_Q>
0

> <r_epik_Metal_State_Penalty>
-0

> <b_epik_Metal_Only>
0

> <s_lp_Force_Field>
OPLS_2005

> <r_lp_Energy>
6.30102

> <b_lp_Chiralities_Consistent>
1

> <s_lp_Variant>
AV-unprocessed.smi:2810-2

> <Gold.Version>
5.8.1

> <Gold.Id.Protein>
6NUR|6NUR_protein|mol2

> <Gold.PLP.Fitness>
36.6109

> <Gold.PLP.PLP>
-29.3664

> <Gold.PLP.part.hbond>
-3.3256

> <Gold.PLP.part.metal>
0.0000

> <Gold.PLP.part.buried>
-6.0061

> <Gold.PLP.part.nonpolar>
-19.9616

> <Gold.PLP.part.repulsive>
0.3059

> <Gold.PLP.ligand.clash>
0.0000

> <Gold.PLP.ligand.torsion>
0.6023

> <Gold.PLP.Chemscore.Hbond>
2.7296

> <Gold.PLP.Chemscore.CHOScore>
0.0000

> <Gold.PLP.Chemscore.Metal>
0.0000

> <Gold.Chemscore.Hbonds>
donor molecule, donor type, donor heavy atom, donor atom, acceptor molecule, acceptor atom, score
      L1  H    12    31       P1  7957  0.63
      L1  H    12    32       P1  7948  0.87
      P1  H  7989  7998       L1    13  0.50

> <Gold.PLP.Chemscore.Internal.Correction>
0.2604

> <Gold.Rescore>
     Score         DG    S(hbond)    S(metal)    S(lipo)     H(rot)  DE(clash)    DE(int)     intcor
     14.80     -16.60       2.63        0.00      57.46       1.71       0.02       1.78       ----

> <Gold.Chemscore.Fitness>
14.7996

> <Gold.Chemscore.DG>
-16.5984

> <Gold.Chemscore.ZeroCoef>
-5.4800

> <Gold.Chemscore.Hbond>
2.6281

> <Gold.Chemscore.Metal>
0.0000

> <Gold.Chemscore.Lipo>
57.4589

> <Gold.Chemscore.Internal_Hbond>
0.0000

> <Gold.Chemscore.DEClash>
0.0234

> <Gold.Chemscore.DEInternal>
1.7753

> <Gold.Chemscore.Rot>
1.7117

> <Gold.Chemscore.Internal.Correction>
   9.000000E+99

> <Gold.Chemscore.Hbonds>
donor molecule, donor type, donor heavy atom, donor atom, acceptor molecule, acceptor atom, score
      L1  H    12    31       P1  7957  0.63
      L1  H    12    32       P1  7948  0.73
      P1  H  7989  7998       L1    13  0.51

> <Gold.Chemscore.Hbond.Weighted>
-8.7777

> <Gold.Chemscore.Metal.Weighted>
-0.0000

> <Gold.Chemscore.Lipo.Weighted>
-6.7227

> <Gold.Chemscore.Internal_Hbond.Weighted>
0.0000

> <Gold.Chemscore.DEClash.Weighted>
0.0234

> <Gold.Chemscore.DEInternal.Weighted>
1.7753

> <Gold.Chemscore.Rot.Weighted>
4.3820

> <Gold.Chemscore.Internal.Correction.Weighted>
   9.000000E+99

> <Gold.Protein.RotatedTorsions>
[ 6907 6896 6895 6894 ] final  105.34 input  -60.11 | X-H torsion
[ 7974 7965 7964 7962 ] final -148.02 input  175.53 | X-H torsion
[ 8008 7997 7996 7995 ] final -103.11 input   59.86 | X-H torsion
[ 10167 10162 10161 10158 ] final -103.42 input  -65.29 | X-H torsion
[ 10718 10713 10712 10709 ] final -149.44 input   66.30 | X-H torsion
[ 10763 10752 10751 10750 ] final  103.07 input  -60.55 | X-H torsion
[ 11005 11000 10999 10996 ] final   80.01 input  -57.11 | X-H torsion

> <Gold.Protein.ActiveResidues>
 VAL166  LYS551  ARG553  GLY616  TRP617  ASP618  TYR619  PRO620  LYS621  CYS622 
 ASP623  PHE694  ASN695  SER759  ASP760  ASP761  ALA762  ILE779  LEU786  VAL792 
 PHE793  MET794  SER795  GLU796  ALA797  LYS798  CYS799  TRP800  GLU811  SER814 

> <Gold.Protein.RotatedAtoms>
  152.5234  133.9543  159.7686 H   0  0  0  0  0  0  0  0  0  0  0  0  # atno 6907 bound_to 6896
  150.9846  133.6202  159.2724 H   0  0  0  0  0  0  0  0  0  0  0  0  # atno 6908 bound_to 6896
  151.3367  135.0860  159.9410 H   0  0  0  0  0  0  0  0  0  0  0  0  # atno 6909 bound_to 6896
  144.8056  140.5251  143.5677 H   0  0  0  0  0  0  0  0  0  0  0  0  # atno 7974 bound_to 7965
  154.8662  140.0424  157.1696 H   0  0  0  0  0  0  0  0  0  0  0  0  # atno 8008 bound_to 7997
  154.8787  140.2969  155.5417 H   0  0  0  0  0  0  0  0  0  0  0  0  # atno 8009 bound_to 7997
  156.2999  140.2415  156.3786 H   0  0  0  0  0  0  0  0  0  0  0  0  # atno 8010 bound_to 7997
  140.2202  143.3681  152.0976 H   0  0  0  0  0  0  0  0  0  0  0  0  # atno 10167 bound_to 10162
  156.4331  130.8085  151.2313 H   0  0  0  0  0  0  0  0  0  0  0  0  # atno 10718 bound_to 10713
  153.3478  135.3989  155.1622 H   0  0  0  0  0  0  0  0  0  0  0  0  # atno 10763 bound_to 10752
  154.8656  135.3649  154.5261 H   0  0  0  0  0  0  0  0  0  0  0  0  # atno 10764 bound_to 10752
  153.5711  135.7079  153.5564 H   0  0  0  0  0  0  0  0  0  0  0  0  # atno 10765 bound_to 10752
  139.9150  134.7887  156.1854 H   0  0  0  0  0  0  0  0  0  0  0  0  # atno 11005 bound_to 11000
  145.5447  139.1476  143.3427 LP  0  0  0  0  0  0  0  0  0  0  0  0  # atno 17320 bound_to 7965
  146.2346  140.5586  142.8960 LP  0  0  0  0  0  0  0  0  0  0  0  0  # atno 17321 bound_to 7965
  139.5147  144.6952  151.5651 LP  0  0  0  0  0  0  0  0  0  0  0  0  # atno 17342 bound_to 10162
  140.6260  143.9167  150.6565 LP  0  0  0  0  0  0  0  0  0  0  0  0  # atno 17343 bound_to 10162
  157.7508  131.0192  150.3657 LP  0  0  0  0  0  0  0  0  0  0  0  0  # atno 17370 bound_to 10713
  156.3998  130.3913  149.6968 LP  0  0  0  0  0  0  0  0  0  0  0  0  # atno 17371 bound_to 10713
  141.0617  133.6839  156.1965 LP  0  0  0  0  0  0  0  0  0  0  0  0  # atno 17394 bound_to 11000
  140.6651  134.4927  157.5585 LP  0  0  0  0  0  0  0  0  0  0  0  0  # atno 17395 bound_to 11000

$$$$
