AV-unprocessed.smi:535|AV-procd|sdf|2858|dock5
  -GOLD-   2262023353D 1   1.00000     0.00000
 Structure written by MMmdl.
 46 48  0  0  0  0  0  0  0  0  1 V2000
  150.6419  137.5111  158.9907 C   0  0  0  0  0  0  0  0  0  0  0  0
  151.0665  138.7034  158.3542 O   0  0  0  0  0  0  0  0  0  0  0  0
  151.8892  138.4520  157.2281 C   0  0  0  0  0  0  0  0  0  0  0  0
  152.2371  139.7871  156.5606 C   0  0  0  0  0  0  0  0  0  0  0  0
  151.0366  140.4924  156.1209 N   0  0  0  0  0  0  0  0  0  0  0  0
  150.4996  141.6455  156.6087 C   0  0  0  0  0  0  0  0  0  0  0  0
  151.0824  142.3605  157.6571 N   0  0  0  0  0  0  0  0  0  0  0  0
  151.0449  143.8097  157.8519 C   0  0  0  0  0  0  0  0  0  0  0  0
  152.4538  144.3834  158.0811 C   0  0  0  0  0  0  0  0  0  0  0  0
  153.1118  143.7143  159.2955 C   0  0  0  0  0  0  0  0  0  0  0  0
  153.0568  142.1826  159.1572 C   0  0  1  0  0  0  0  0  0  0  0  0
  153.6236  141.4828  160.3997 C   0  0  0  0  0  0  0  0  0  0  0  0
  151.6116  141.7287  158.8649 C   0  0  0  0  0  0  0  0  0  0  0  0
  149.3435  142.0023  156.0421 N   0  0  0  0  0  0  0  0  0  0  0  0
  149.1322  141.0071  155.1014 C   0  0  0  0  0  0  0  0  0  0  0  0
  150.1258  140.0833  155.1441 C   0  0  0  0  0  0  0  0  0  0  0  0
  150.1204  138.8858  154.2914 C   0  0  0  0  0  0  0  0  0  0  0  0
  150.9922  138.0204  154.3279 O   0  0  0  0  0  0  0  0  0  0  0  0
  149.0467  138.8240  153.4669 N   0  0  0  0  0  0  0  0  0  0  0  0
  148.0197  139.7221  153.3694 C   0  0  0  0  0  0  0  0  0  0  0  0
  147.1019  139.5226  152.5738 O   0  0  0  0  0  0  0  0  0  0  0  0
  148.0592  140.8251  154.1833 N   0  0  0  0  0  0  0  0  0  0  0  0
  146.9851  141.8189  154.1286 C   0  0  0  0  0  0  0  0  0  0  0  0
  148.9948  138.0189  152.8601 H   0  0  0  0  0  0  0  0  0  0  0  0
  150.0149  137.7564  159.8478 H   0  0  0  0  0  0  0  0  0  0  0  0
  151.4931  136.9319  159.3510 H   0  0  0  0  0  0  0  0  0  0  0  0
  150.0566  136.8887  158.3124 H   0  0  0  0  0  0  0  0  0  0  0  0
  152.8005  137.9357  157.5345 H   0  0  0  0  0  0  0  0  0  0  0  0
  151.3645  137.8057  156.5228 H   0  0  0  0  0  0  0  0  0  0  0  0
  152.8065  140.4094  157.2435 H   0  0  0  0  0  0  0  0  0  0  0  0
  152.9032  139.6291  155.7147 H   0  0  0  0  0  0  0  0  0  0  0  0
  150.5579  144.2970  157.0082 H   0  0  0  0  0  0  0  0  0  0  0  0
  150.4158  144.0289  158.7157 H   0  0  0  0  0  0  0  0  0  0  0  0
  153.0714  144.2256  157.1965 H   0  0  0  0  0  0  0  0  0  0  0  0
  152.3990  145.4616  158.2329 H   0  0  0  0  0  0  0  0  0  0  0  0
  154.1437  144.0523  159.3964 H   0  0  0  0  0  0  0  0  0  0  0  0
  152.5914  144.0214  160.2038 H   0  0  0  0  0  0  0  0  0  0  0  0
  153.6779  141.8972  158.3067 H   0  0  0  0  0  0  0  0  0  0  0  0
  153.0362  141.7150  161.2886 H   0  0  0  0  0  0  0  0  0  0  0  0
  154.6519  141.7918  160.5893 H   0  0  0  0  0  0  0  0  0  0  0  0
  153.6230  140.3998  160.2735 H   0  0  0  0  0  0  0  0  0  0  0  0
  150.9595  141.9585  159.7088 H   0  0  0  0  0  0  0  0  0  0  0  0
  151.5896  140.6450  158.7437 H   0  0  0  0  0  0  0  0  0  0  0  0
  146.7660  142.1059  153.0989 H   0  0  0  0  0  0  0  0  0  0  0  0
  147.2383  142.7331  154.6654 H   0  0  0  0  0  0  0  0  0  0  0  0
  146.0745  141.4143  154.5719 H   0  0  0  0  0  0  0  0  0  0  0  0
  1  2  1  0  0  0  0
  1 25  1  0  0  0  0
  1 26  1  0  0  0  0
  1 27  1  0  0  0  0
  2  3  1  0  0  0  0
  3  4  1  0  0  0  0
  3 28  1  0  0  0  0
  3 29  1  0  0  0  0
  4  5  1  0  0  0  0
  4 30  1  0  0  0  0
  4 31  1  0  0  0  0
  5 16  1  0  0  0  0
  5  6  1  0  0  0  0
  6  7  1  0  0  0  0
  6 14  2  0  0  0  0
  7 13  1  0  0  0  0
  7  8  1  0  0  0  0
  8  9  1  0  0  0  0
  8 32  1  0  0  0  0
  8 33  1  0  0  0  0
  9 10  1  0  0  0  0
  9 34  1  0  0  0  0
  9 35  1  0  0  0  0
 10 11  1  0  0  0  0
 10 36  1  0  0  0  0
 10 37  1  0  0  0  0
 11 12  1  0  0  0  0
 11 13  1  0  0  0  0
 11 38  1  0  0  0  0
 12 39  1  0  0  0  0
 12 40  1  0  0  0  0
 12 41  1  0  0  0  0
 13 42  1  0  0  0  0
 13 43  1  0  0  0  0
 14 15  1  0  0  0  0
 15 22  1  0  0  0  0
 15 16  2  0  0  0  0
 16 17  1  0  0  0  0
 17 18  2  0  0  0  0
 17 19  1  0  0  0  0
 19 24  1  0  0  0  0
 19 20  1  0  0  0  0
 20 21  2  0  0  0  0
 20 22  1  0  0  0  0
 22 23  1  0  0  0  0
 23 44  1  0  0  0  0
 23 45  1  0  0  0  0
 23 46  1  0  0  0  0
M  END
> <s_m_source_file>
AV-unprocessed.smi

> <i_m_source_file_index>
535

> <i_lp_mmshare_version>
43012

> <i_f3d_flags>
0

> <s_epik_input>
W0NIM11uMWMoPU8pW25IXWMoPU8pYyhjMTIpbihbQ0gyXVtDSDJdT1tDSDNdKWMobjIpTjNbQ0gyXVtDSDJdW0NIMl1bQ0BASF0oW0NIM10pW0NIMl0z

> <s_epik_cmdline>
J2VwaWtfcHl0aG9uJywgJy1waCcsICc3LjAnLCAnLXRuJywgJzgnLCAnLW1hJywgJzIwMCcsICctbWV0YWxfYmluZGluZycsICctaW1hZScsICc8aW5maWxlLm1hZT4nLCAnLW9tYWUnLCAnPG91dGZpbGUubWFlPic=

> <r_lp_tautomer_probability>
1

> <r_epik_Ionization_Penalty>
0.00042181

> <r_epik_Ionization_Penalty_Charging>
0.000122112

> <r_epik_Ionization_Penalty_Neutral>
0.000299698

> <r_epik_State_Penalty>
-0

> <r_epik_Charging_Adjusted_Penalty>
0.000122112

> <i_epik_Tot_Q>
0

> <i_epik_Tot_abs_Q>
0

> <r_epik_Metal_State_Penalty>
0.0934894

> <b_epik_Metal_Only>
0

> <s_lp_Force_Field>
OPLS_2005

> <r_lp_Energy>
38.8925

> <b_lp_Chiralities_Consistent>
1

> <s_lp_Variant>
AV-unprocessed.smi:535-1

> <Gold.Version>
5.8.1

> <Gold.Id.Protein>
6NUR|6NUR_protein|mol2

> <Gold.PLP.Fitness>
48.1918

> <Gold.PLP.PLP>
-45.9978

> <Gold.PLP.part.hbond>
-2.0000

> <Gold.PLP.part.metal>
0.0000

> <Gold.PLP.part.buried>
-3.7423

> <Gold.PLP.part.nonpolar>
-44.7840

> <Gold.PLP.part.repulsive>
4.2746

> <Gold.PLP.ligand.clash>
0.0000

> <Gold.PLP.ligand.torsion>
0.6532

> <Gold.PLP.Chemscore.Hbond>
1.0000

> <Gold.PLP.Chemscore.CHOScore>
0.0000

> <Gold.PLP.Chemscore.Metal>
0.0000

> <Gold.Chemscore.Hbonds>
donor molecule, donor type, donor heavy atom, donor atom, acceptor molecule, acceptor atom, score
      L1  H    19    24       P1  7948  1.00

> <Gold.PLP.Chemscore.Internal.Correction>
0.5004

> <Gold.Rescore>
     Score         DG    S(hbond)    S(metal)    S(lipo)     H(rot)  DE(clash)    DE(int)     intcor
     12.40     -16.60       1.00        0.00      98.38       1.46       2.26       1.94       ----

> <Gold.Chemscore.Fitness>
12.3968

> <Gold.Chemscore.DG>
-16.5971

> <Gold.Chemscore.ZeroCoef>
-5.4800

> <Gold.Chemscore.Hbond>
0.9979

> <Gold.Chemscore.Metal>
0.0000

> <Gold.Chemscore.Lipo>
98.3831

> <Gold.Chemscore.Internal_Hbond>
0.0000

> <Gold.Chemscore.DEClash>
2.2632

> <Gold.Chemscore.DEInternal>
1.9371

> <Gold.Chemscore.Rot>
1.4557

> <Gold.Chemscore.Internal.Correction>
   9.000000E+99

> <Gold.Chemscore.Hbonds>
donor molecule, donor type, donor heavy atom, donor atom, acceptor molecule, acceptor atom, score
      L1  H    19    24       P1  7948  0.94

> <Gold.Chemscore.Hbond.Weighted>
-3.3330

> <Gold.Chemscore.Metal.Weighted>
-0.0000

> <Gold.Chemscore.Lipo.Weighted>
-11.5108

> <Gold.Chemscore.Internal_Hbond.Weighted>
0.0000

> <Gold.Chemscore.DEClash.Weighted>
2.2632

> <Gold.Chemscore.DEInternal.Weighted>
1.9371

> <Gold.Chemscore.Rot.Weighted>
3.7267

> <Gold.Chemscore.Internal.Correction.Weighted>
   9.000000E+99

> <Gold.Protein.RotatedTorsions>
[ 6907 6896 6895 6894 ] final -124.14 input  -60.11 | X-H torsion
[ 7974 7965 7964 7962 ] final  133.32 input  175.53 | X-H torsion
[ 8008 7997 7996 7995 ] final -163.36 input   59.86 | X-H torsion
[ 10167 10162 10161 10158 ] final -161.50 input  -65.29 | X-H torsion
[ 10718 10713 10712 10709 ] final -153.84 input   66.30 | X-H torsion
[ 10763 10752 10751 10750 ] final   31.72 input  -60.55 | X-H torsion
[ 11005 11000 10999 10996 ] final    9.68 input  -57.11 | X-H torsion

> <Gold.Protein.ActiveResidues>
 VAL166  LYS551  ARG553  GLY616  TRP617  ASP618  TYR619  PRO620  LYS621  CYS622 
 ASP623  PHE694  ASN695  SER759  ASP760  ASP761  ALA762  ILE779  LEU786  VAL792 
 PHE793  MET794  SER795  GLU796  ALA797  LYS798  CYS799  TRP800  GLU811  SER814 

> <Gold.Protein.RotatedAtoms>
  150.8739  133.7467  159.2952 H   0  0  0  0  0  0  0  0  0  0  0  0  # atno 6907 bound_to 6896
  151.5070  135.1062  159.9853 H   0  0  0  0  0  0  0  0  0  0  0  0  # atno 6908 bound_to 6896
  152.4714  133.7993  159.7000 H   0  0  0  0  0  0  0  0  0  0  0  0  # atno 6909 bound_to 6896
  144.9877  139.4438  143.5354 H   0  0  0  0  0  0  0  0  0  0  0  0  # atno 7974 bound_to 7965
  155.8201  140.0918  157.1854 H   0  0  0  0  0  0  0  0  0  0  0  0  # atno 8008 bound_to 7997
  154.3979  140.1438  156.3550 H   0  0  0  0  0  0  0  0  0  0  0  0  # atno 8009 bound_to 7997
  155.8275  140.3444  155.5554 H   0  0  0  0  0  0  0  0  0  0  0  0  # atno 8010 bound_to 7997
  139.6460  144.0171  152.2127 H   0  0  0  0  0  0  0  0  0  0  0  0  # atno 10167 bound_to 10162
  156.4912  130.8348  151.2571 H   0  0  0  0  0  0  0  0  0  0  0  0  # atno 10718 bound_to 10713
  153.0300  135.6431  154.1244 H   0  0  0  0  0  0  0  0  0  0  0  0  # atno 10763 bound_to 10752
  154.0967  135.2862  155.3262 H   0  0  0  0  0  0  0  0  0  0  0  0  # atno 10764 bound_to 10752
  154.6427  135.5454  153.7871 H   0  0  0  0  0  0  0  0  0  0  0  0  # atno 10765 bound_to 10752
  140.5229  134.0541  155.7850 H   0  0  0  0  0  0  0  0  0  0  0  0  # atno 11005 bound_to 11000
  146.3424  139.9190  142.8769 LP  0  0  0  0  0  0  0  0  0  0  0  0  # atno 17320 bound_to 7965
  145.2330  140.9980  143.3980 LP  0  0  0  0  0  0  0  0  0  0  0  0  # atno 17321 bound_to 7965
  139.9873  144.6387  150.7846 LP  0  0  0  0  0  0  0  0  0  0  0  0  # atno 17342 bound_to 10162
  140.7515  143.2973  151.3170 LP  0  0  0  0  0  0  0  0  0  0  0  0  # atno 17343 bound_to 10162
  157.7473  131.0013  150.2957 LP  0  0  0  0  0  0  0  0  0  0  0  0  # atno 17370 bound_to 10713
  156.3424  130.3817  149.7397 LP  0  0  0  0  0  0  0  0  0  0  0  0  # atno 17371 bound_to 10713
  141.1324  133.9280  157.2507 LP  0  0  0  0  0  0  0  0  0  0  0  0  # atno 17394 bound_to 11000
  139.9596  135.0157  156.9223 LP  0  0  0  0  0  0  0  0  0  0  0  0  # atno 17395 bound_to 11000

$$$$
