AV-unprocessed.smi:1965|AV-procd|sdf|7937|dock6
  -GOLD-   2272010103D 1   1.00000     0.00000
 Structure written by MMmdl.
 37 39  0  0  0  0  0  0  0  0  2 V2000
  142.9588  136.1366  153.4546 O   0  0  0  0  0  0  0  0  0  0  0  0
  143.0671  137.2918  153.0473 C   0  0  0  0  0  0  0  0  0  0  0  0
  141.9958  138.1112  152.9842 N   0  0  0  0  0  0  0  0  0  0  0  0
  140.6253  137.9061  153.3195 C   0  0  0  0  0  0  0  0  0  0  0  0
  139.6536  138.8203  153.2007 N   0  0  0  0  0  0  0  0  0  0  0  0
  138.4122  138.3291  153.6132 C   0  0  0  0  0  0  0  0  0  0  0  0
  138.4552  137.0292  154.0501 C   0  0  0  0  0  0  0  0  0  0  0  0
  140.0650  136.3672  153.9590 S   0  0  0  0  0  0  0  0  0  0  0  0
  144.2390  137.8109  152.6466 N   0  0  0  0  0  0  0  0  0  0  0  0
  145.5210  137.1142  152.6431 C   0  0  1  0  0  0  0  0  0  0  0  0
  146.1579  137.0294  154.0416 C   0  0  0  0  0  0  0  0  0  0  0  0
  146.8062  135.6327  154.1118 C   0  0  0  0  0  0  0  0  0  0  0  0
  146.6162  135.0459  152.7717 N   0  3  1  0  0  0  0  0  0  0  0  0
  146.6294  133.5700  152.6742 C   0  0  0  0  0  0  0  0  0  0  0  0
  146.5021  133.1573  151.1941 C   0  0  0  0  0  0  0  0  0  0  0  0
  145.2763  133.8088  150.5223 C   0  0  0  0  0  0  0  0  0  0  0  0
  145.2683  135.3345  150.7378 C   0  0  0  0  0  0  0  0  0  0  0  0
  145.3822  135.6439  152.2404 C   0  0  2  0  0  0  0  0  0  0  0  0
  142.1970  139.0294  152.6154 H   0  0  0  0  0  0  0  0  0  0  0  0
  137.5479  138.9749  153.5628 H   0  0  0  0  0  0  0  0  0  0  0  0
  137.6408  136.4233  154.4188 H   0  0  0  0  0  0  0  0  0  0  0  0
  144.2380  138.7686  152.3242 H   0  0  0  0  0  0  0  0  0  0  0  0
  146.2271  137.6109  151.9740 H   0  0  0  0  0  0  0  0  0  0  0  0
  146.8900  137.8246  154.1872 H   0  0  0  0  0  0  0  0  0  0  0  0
  145.4086  137.1271  154.8287 H   0  0  0  0  0  0  0  0  0  0  0  0
  147.8652  135.6771  154.3677 H   0  0  0  0  0  0  0  0  0  0  0  0
  146.3011  135.0238  154.8632 H   0  0  0  0  0  0  0  0  0  0  0  0
  147.5581  133.1831  153.0946 H   0  0  0  0  0  0  0  0  0  0  0  0
  145.8095  133.1513  153.2599 H   0  0  0  0  0  0  0  0  0  0  0  0
  147.4046  133.4549  150.6583 H   0  0  0  0  0  0  0  0  0  0  0  0
  146.4405  132.0718  151.1125 H   0  0  0  0  0  0  0  0  0  0  0  0
  145.2657  133.5797  149.4563 H   0  0  0  0  0  0  0  0  0  0  0  0
  144.3645  133.3795  150.9394 H   0  0  0  0  0  0  0  0  0  0  0  0
  146.0965  135.7918  150.1948 H   0  0  0  0  0  0  0  0  0  0  0  0
  144.3519  135.7608  150.3293 H   0  0  0  0  0  0  0  0  0  0  0  0
  144.5297  135.2074  152.7667 H   0  0  0  0  0  0  0  0  0  0  0  0
  147.3705  135.3930  152.1966 H   0  0  0  0  0  0  0  0  0  0  0  0
  1  2  2  0  0  0  0
  2  3  1  0  0  0  0
  2  9  1  0  0  0  0
  3  4  1  0  0  0  0
  3 19  1  0  0  0  0
  4  8  1  0  0  0  0
  4  5  2  0  0  0  0
  5  6  1  0  0  0  0
  6  7  2  0  0  0  0
  6 20  1  0  0  0  0
  7  8  1  0  0  0  0
  7 21  1  0  0  0  0
  9 10  1  0  0  0  0
  9 22  1  0  0  0  0
 10 18  1  0  0  0  0
 10 11  1  0  0  0  0
 10 23  1  0  0  0  0
 11 12  1  0  0  0  0
 11 24  1  0  0  0  0
 11 25  1  0  0  0  0
 12 13  1  0  0  0  0
 12 26  1  0  0  0  0
 12 27  1  0  0  0  0
 13 18  1  0  0  0  0
 13 14  1  0  0  0  0
 13 37  1  0  0  0  0
 14 15  1  0  0  0  0
 14 28  1  0  0  0  0
 14 29  1  0  0  0  0
 15 16  1  0  0  0  0
 15 30  1  0  0  0  0
 15 31  1  0  0  0  0
 16 17  1  0  0  0  0
 16 32  1  0  0  0  0
 16 33  1  0  0  0  0
 17 18  1  0  0  0  0
 17 34  1  0  0  0  0
 17 35  1  0  0  0  0
 18 36  1  0  0  0  0
M  CHG  1  13   1
M  END
> <s_m_source_file>
AV-unprocessed.smi

> <i_m_source_file_index>
1965

> <i_lp_mmshare_version>
43012

> <i_f3d_flags>
0

> <s_epik_input>
czFbY0hdW2NIXW5jMVtOSF1DKD1PKVtOSF1bQ0BIXShbQ0gyXVtDSDJdMilbQ0BASF0oTjIzKVtDSDJdW0NIMl1bQ0gyXVtDSDJdMw==

> <s_epik_cmdline>
J2VwaWtfcHl0aG9uJywgJy1waCcsICc3LjAnLCAnLXRuJywgJzgnLCAnLW1hJywgJzIwMCcsICctbWV0YWxfYmluZGluZycsICctaW1hZScsICc8aW5maWxlLm1hZT4nLCAnLW9tYWUnLCAnPG91dGZpbGUubWFlPic=

> <r_lp_tautomer_probability>
1

> <r_epik_Ionization_Penalty>
0.00125962

> <r_epik_Ionization_Penalty_Charging>
0.00107044

> <r_epik_Ionization_Penalty_Neutral>
0.000189176

> <r_epik_State_Penalty>
-0

> <r_epik_Charging_Adjusted_Penalty>
0.00107044

> <i_epik_Tot_Q>
1

> <i_epik_Tot_abs_Q>
1

> <r_epik_Metal_State_Penalty>
0.0179285

> <b_epik_Metal_Only>
0

> <s_lp_Force_Field>
OPLS_2005

> <r_lp_Energy>
35.2761

> <b_lp_Chiralities_Consistent>
1

> <s_lp_Variant>
AV-unprocessed.smi:1965-6

> <Gold.Version>
5.8.1

> <Gold.Id.Protein>
6NUR|6NUR_protein|mol2

> <Gold.PLP.Fitness>
41.8951

> <Gold.PLP.PLP>
-30.7550

> <Gold.PLP.part.hbond>
-4.0000

> <Gold.PLP.part.metal>
0.0000

> <Gold.PLP.part.buried>
-4.5662

> <Gold.PLP.part.nonpolar>
-23.0287

> <Gold.PLP.part.repulsive>
1.3296

> <Gold.PLP.ligand.clash>
0.0000

> <Gold.PLP.ligand.torsion>
0.2786

> <Gold.PLP.Chemscore.Hbond>
3.8960

> <Gold.PLP.Chemscore.CHOScore>
0.0000

> <Gold.PLP.Chemscore.Metal>
0.0000

> <Gold.Chemscore.Hbonds>
donor molecule, donor type, donor heavy atom, donor atom, acceptor molecule, acceptor atom, score
      L1  H     3    19       P1 10175  0.90
      L1  H     9    22       P1 10175  1.00
      L1  H    13    37       P1  7948  2.00

> <Gold.PLP.Chemscore.Internal.Correction>
0.0093

> <Gold.Rescore>
     Score         DG    S(hbond)    S(metal)    S(lipo)     H(rot)  DE(clash)    DE(int)     intcor
     16.38     -19.41       2.94        0.00      57.00       1.00       0.03       3.00       ----

> <Gold.Chemscore.Fitness>
16.3810

> <Gold.Chemscore.DG>
-19.4079

> <Gold.Chemscore.ZeroCoef>
-5.4800

> <Gold.Chemscore.Hbond>
2.9397

> <Gold.Chemscore.Metal>
0.0000

> <Gold.Chemscore.Lipo>
57.0032

> <Gold.Chemscore.Internal_Hbond>
0.0000

> <Gold.Chemscore.DEClash>
0.0310

> <Gold.Chemscore.DEInternal>
2.9960

> <Gold.Chemscore.Rot>
1.0000

> <Gold.Chemscore.Internal.Correction>
   9.000000E+99

> <Gold.Chemscore.Hbonds>
donor molecule, donor type, donor heavy atom, donor atom, acceptor molecule, acceptor atom, score
      L1  H     3    19       P1 10175  0.79
      L1  H     9    22       P1 10175  0.95
      L1  H    13    37       P1  7948  0.99

> <Gold.Chemscore.Hbond.Weighted>
-9.8185

> <Gold.Chemscore.Metal.Weighted>
-0.0000

> <Gold.Chemscore.Lipo.Weighted>
-6.6694

> <Gold.Chemscore.Internal_Hbond.Weighted>
0.0000

> <Gold.Chemscore.DEClash.Weighted>
0.0310

> <Gold.Chemscore.DEInternal.Weighted>
2.9960

> <Gold.Chemscore.Rot.Weighted>
2.5600

> <Gold.Chemscore.Internal.Correction.Weighted>
   9.000000E+99

> <Gold.Protein.RotatedTorsions>
[ 6907 6896 6895 6894 ] final   -5.50 input  -60.11 | X-H torsion
[ 7974 7965 7964 7962 ] final   69.15 input  175.53 | X-H torsion
[ 8008 7997 7996 7995 ] final    6.48 input   59.86 | X-H torsion
[ 10167 10162 10161 10158 ] final -142.00 input  -65.29 | X-H torsion
[ 10718 10713 10712 10709 ] final  -52.58 input   66.30 | X-H torsion
[ 10763 10752 10751 10750 ] final  119.05 input  -60.55 | X-H torsion
[ 11005 11000 10999 10996 ] final -116.07 input  -57.11 | X-H torsion

> <Gold.Protein.ActiveResidues>
 VAL166  LYS551  ARG553  GLY616  TRP617  ASP618  TYR619  PRO620  LYS621  CYS622 
 ASP623  PHE694  ASN695  SER759  ASP760  ASP761  ALA762  ILE779  LEU786  VAL792 
 PHE793  MET794  SER795  GLU796  ALA797  LYS798  CYS799  TRP800  GLU811  SER814 

> <Gold.Protein.RotatedAtoms>
  151.4806  135.1052  159.9776 H   0  0  0  0  0  0  0  0  0  0  0  0  # atno 6907 bound_to 6896
  152.4781  133.8182  159.7050 H   0  0  0  0  0  0  0  0  0  0  0  0  # atno 6908 bound_to 6896
  150.8832  133.7282  159.2952 H   0  0  0  0  0  0  0  0  0  0  0  0  # atno 6909 bound_to 6896
  145.7939  139.2947  143.1194 H   0  0  0  0  0  0  0  0  0  0  0  0  # atno 7974 bound_to 7965
  154.7416  140.2750  155.6369 H   0  0  0  0  0  0  0  0  0  0  0  0  # atno 8008 bound_to 7997
  156.2875  140.2696  156.2070 H   0  0  0  0  0  0  0  0  0  0  0  0  # atno 8009 bound_to 7997
  155.0251  140.0371  157.2442 H   0  0  0  0  0  0  0  0  0  0  0  0  # atno 8010 bound_to 7997
  139.8130  143.7676  152.2664 H   0  0  0  0  0  0  0  0  0  0  0  0  # atno 10167 bound_to 10162
  156.1609  130.4150  149.9795 H   0  0  0  0  0  0  0  0  0  0  0  0  # atno 10718 bound_to 10713
  153.5771  135.3491  155.2860 H   0  0  0  0  0  0  0  0  0  0  0  0  # atno 10763 bound_to 10752
  154.8673  135.4173  154.2662 H   0  0  0  0  0  0  0  0  0  0  0  0  # atno 10764 bound_to 10752
  153.3440  135.7051  153.6914 H   0  0  0  0  0  0  0  0  0  0  0  0  # atno 10765 bound_to 10752
  141.0446  133.9782  157.2938 H   0  0  0  0  0  0  0  0  0  0  0  0  # atno 11005 bound_to 11000
  145.9948  140.8571  143.0048 LP  0  0  0  0  0  0  0  0  0  0  0  0  # atno 17320 bound_to 7965
  144.6778  140.2268  143.7360 LP  0  0  0  0  0  0  0  0  0  0  0  0  # atno 17321 bound_to 7965
  139.7831  144.7437  151.0060 LP  0  0  0  0  0  0  0  0  0  0  0  0  # atno 17342 bound_to 10162
  140.7817  143.4520  151.0399 LP  0  0  0  0  0  0  0  0  0  0  0  0  # atno 17343 bound_to 10162
  156.7625  130.9156  151.3642 LP  0  0  0  0  0  0  0  0  0  0  0  0  # atno 17370 bound_to 10713
  157.6731  130.9069  150.0087 LP  0  0  0  0  0  0  0  0  0  0  0  0  # atno 17371 bound_to 10713
  139.9302  135.0200  156.8374 LP  0  0  0  0  0  0  0  0  0  0  0  0  # atno 17394 bound_to 11000
  140.6170  134.0029  155.7601 LP  0  0  0  0  0  0  0  0  0  0  0  0  # atno 17395 bound_to 11000

$$$$
