#       Name:                AV-unprocessed.smi:2542
#       Creating user name   scv26
#       Creation time:       Fri Mar 27 14:04:26 2020


#       File generated by GOLD software.
#

@<TRIPOS>MOLECULE
AV-unprocessed.smi:2542
    45    46     1
SMALL
NO_CHARGES


@<TRIPOS>ATOM
      1 ****        -1.9077  -1.8872  -2.9804 C.3            1 S1                 0.0000
      2 ****        -1.3517  -1.2373  -1.6959 C.3            1 S1                 0.0000
      3 ****        -1.7492  -2.1594  -0.5173 C.3            1 S1                 0.0000
      4 ****         0.1978  -1.1888  -1.7907 C.3            1 S1                 0.0000
      5 ****         0.7998  -0.4085  -0.7114 N.am           1 S1                 0.0000
      6 ****         1.4274  -0.9020   0.3687 C.2            1 S1                 0.0000
      7 ****         1.6237  -2.1075   0.5266 O.2            1 S1                 0.0000
      8 ****         1.8900   0.1107   1.4390 C.3            1 S1                 0.0000
      9 ****         1.3798   1.4732   1.1778 C.1            1 S1                 0.0000
     10 ****         0.9776   2.5393   0.9718 N.1            1 S1                 0.0000
     11 ****         1.4755  -0.3245   2.8571 C.3            1 S1                 0.0000
     12 ****         2.4590   0.3727   3.8037 C.3            1 S1                 0.0000
     13 ****         3.7213   0.6469   2.9756 C.3            1 S1                 0.0000
     14 ****         3.4233   0.1355   1.5606 C.3            1 S1                 0.0000
     15 ****        -1.9219   0.1887  -1.5508 C.ar           1 S1                 0.0000
     16 ****        -2.6768   0.6007  -0.4217 C.ar           1 S1                 0.0000
     17 ****        -3.1465   1.9272  -0.3382 C.ar           1 S1                 0.0000
     18 ****        -2.8787   2.8014  -1.3302 N.pl3          1 S1                 1.0000
     19 ****        -2.1686   2.4624  -2.4259 C.ar           1 S1                 0.0000
     20 ****        -1.6739   1.1500  -2.5626 C.ar           1 S1                 0.0000
     21 ****        -1.5389  -2.9068  -3.0999 H              1 S1                 0.0000
     22 ****        -1.6205  -1.3383  -3.8773 H              1 S1                 0.0000
     23 ****        -2.9972  -1.9343  -2.9603 H              1 S1                 0.0000
     24 ****        -1.3282  -3.1581  -0.6396 H              1 S1                 0.0000
     25 ****        -2.8311  -2.2770  -0.4457 H              1 S1                 0.0000
     26 ****        -1.3914  -1.7827   0.4411 H              1 S1                 0.0000
     27 ****         0.6135  -2.1971  -1.8319 H              1 S1                 0.0000
     28 ****         0.5011  -0.7143  -2.7243 H              1 S1                 0.0000
     29 ****         0.6927   0.5941  -0.7698 H              1 S1                 0.0000
     30 ****         0.4416  -0.0629   3.0860 H              1 S1                 0.0000
     31 ****         1.5694  -1.4037   2.9879 H              1 S1                 0.0000
     32 ****         2.0374   1.3152   4.1551 H              1 S1                 0.0000
     33 ****         2.6698  -0.2385   4.6819 H              1 S1                 0.0000
     34 ****         3.9243   1.7184   2.9559 H              1 S1                 0.0000
     35 ****         4.5995   0.1566   3.3968 H              1 S1                 0.0000
     36 ****         3.8407  -0.8669   1.4489 H              1 S1                 0.0000
     37 ****         3.8887   0.7638   0.7999 H              1 S1                 0.0000
     38 ****        -2.9044  -0.0715   0.3911 H              1 S1                 0.0000
     39 ****        -3.7232   2.3129   0.4899 H              1 S1                 0.0000
     40 ****        -2.0157   3.2461  -3.1534 H              1 S1                 0.0000
     41 ****        -1.1007   0.8924  -3.4408 H              1 S1                 0.0000
     42 ****        -3.2263   3.7572  -1.2478 H              1 S1                 0.0000
     43 ****         1.3115  -2.7596  -0.1643 LP             1 S1                 0.0000
     44 ****         2.0952  -2.4342   1.3457 LP             1 S1                 0.0000
     45 ****         0.6302   3.4601   0.7939 LP             1 S1                 0.0000
@<TRIPOS>BOND
    1    1    2 1     
    2    1   21 1     
    3    1   22 1     
    4    1   23 1     
    5    2    3 1     
    6    2    4 1     
    7    2   15 1     
    8    3   24 1     
    9    3   25 1     
   10    3   26 1     
   11    4    5 1     
   12    4   27 1     
   13    4   28 1     
   14    5    6 am    
   15    5   29 1     
   16    6    7 2     
   17    6    8 1     
   18    8   14 1     
   19    8    9 1     
   20    8   11 1     
   21    9   10 3     
   22   11   12 1     
   23   11   30 1     
   24   11   31 1     
   25   12   13 1     
   26   12   32 1     
   27   12   33 1     
   28   13   14 1     
   29   13   34 1     
   30   13   35 1     
   31   14   36 1     
   32   14   37 1     
   33   15   20 ar    
   34   15   16 ar    
   35   16   17 ar    
   36   16   38 1     
   37   17   18 ar    
   38   17   39 1     
   39   18   19 ar    
   40   18   42 1     
   41   19   20 ar    
   42   19   40 1     
   43   20   41 1     
   44    7   43 1     
   45    7   44 1     
   46   10   45 1     
@<TRIPOS>SUBSTRUCTURE
      1 S1             1
@<TRIPOS>SET
LONE_PAIRS      STATIC     ATOMS    <user>   **** ""
3 43 44 45
DONOR_HYDROGENS      STATIC     ATOMS    <user>   **** ""
2 29 42
ATOM$BLUE        STATIC     ATOMS    COLORGROUP SYSTEM
3 43 44 45
ATOM$RED        STATIC     ATOMS    COLORGROUP SYSTEM
2 29 42
