#       Name:                AV-unprocessed.smi:1760
#       Creating user name   scv26
#       Creation time:       Fri Mar 27 08:30:44 2020


#       File generated by GOLD software.
#

@<TRIPOS>MOLECULE
AV-unprocessed.smi:1760
    48    50     1
SMALL
NO_CHARGES


@<TRIPOS>ATOM
      1 ****         1.8921   0.9549   0.0347 O.2            1 S1                 0.0000
      2 ****         1.4790  -0.2043   0.0345 C.2            1 S1                 0.0000
      3 ****         2.2435  -1.3116   0.0612 N.am           1 S1                 0.0000
      4 ****         3.6441  -1.4233   0.0468 C.2            1 S1                 0.0000
      5 ****         4.4960  -0.4411  -0.3476 C.2            1 S1                 0.0000
      6 ****         5.9373  -0.6266  -0.3534 C.2            1 S1                 0.0000
      7 ****         6.8840   0.5054  -0.7205 C.3            1 S1                 0.0000
      8 ****         8.0433   0.3963  -0.0703 F              1 S1                 0.0000
      9 ****         7.1375   0.4767  -2.0282 F              1 S1                 0.0000
     10 ****         6.3497   1.6911  -0.4272 F              1 S1                 0.0000
     11 ****         6.3902  -1.8237   0.0621 C.2            1 S1                 0.0000
     12 ****         5.5206  -2.8459   0.4488 N.am           1 S1                 0.0000
     13 ****         4.1736  -2.7311   0.4675 C.2            1 S1                 0.0000
     14 ****         3.4736  -3.6797   0.8207 O.2            1 S1                 0.0000
     15 ****         0.1766  -0.5242   0.0290 N.am           1 S1                 0.0000
     16 ****        -0.9362   0.4224   0.0321 C.3            1 S1                 0.0000
     17 ****        -1.7777   0.2381   1.3060 C.3            1 S1                 0.0000
     18 ****        -3.0210   1.1425   1.2848 C.3            1 S1                 0.0000
     19 ****        -3.8397   0.8931   0.0724 N.4            1 S1                 1.0000
     20 ****        -5.1018   1.6637   0.0853 C.3            1 S1                 0.0000
     21 ****        -6.2144   0.9890   0.8532 C.3            1 S1                 0.0000
     22 ****        -6.2325   0.9931  -0.6594 C.3            1 S1                 0.0000
     23 ****        -3.0601   1.1126  -1.1713 C.3            1 S1                 0.0000
     24 ****        -1.8171   0.2074  -1.2102 C.3            1 S1                 0.0000
     25 ****         5.9380  -3.7204   0.7331 H              1 S1                 0.0000
     26 ****         1.7558  -2.1924   0.1386 H              1 S1                 0.0000
     27 ****         4.1244   0.5092  -0.6942 H              1 S1                 0.0000
     28 ****         7.4354  -2.0864   0.1346 H              1 S1                 0.0000
     29 ****        -0.0636  -1.5049   0.0319 H              1 S1                 0.0000
     30 ****        -0.5666   1.4494   0.0129 H              1 S1                 0.0000
     31 ****        -2.0898  -0.8034   1.3988 H              1 S1                 0.0000
     32 ****        -1.1755   0.4604   2.1879 H              1 S1                 0.0000
     33 ****        -3.6208   0.9577   2.1769 H              1 S1                 0.0000
     34 ****        -2.7236   2.1919   1.3154 H              1 S1                 0.0000
     35 ****        -5.0075   2.7483   0.0866 H              1 S1                 0.0000
     36 ****        -5.9998   0.0444   1.3499 H              1 S1                 0.0000
     37 ****        -6.9326   1.6285   1.3623 H              1 S1                 0.0000
     38 ****        -6.9624   1.6358  -1.1472 H              1 S1                 0.0000
     39 ****        -6.0296   0.0517  -1.1669 H              1 S1                 0.0000
     40 ****        -3.6876   0.9060  -2.0392 H              1 S1                 0.0000
     41 ****        -2.7647   2.1610  -1.2372 H              1 S1                 0.0000
     42 ****        -1.2430   0.4086  -2.1157 H              1 S1                 0.0000
     43 ****        -2.1314  -0.8359  -1.2682 H              1 S1                 0.0000
     44 ****        -4.0968  -0.0835   0.0882 H              1 S1                 0.0000
     45 ****         2.8755   1.1352   0.0561 LP             1 S1                 0.0000
     46 ****         1.2444   1.7165   0.0135 LP             1 S1                 0.0000
     47 ****         2.4779  -3.5887   0.8339 LP             1 S1                 0.0000
     48 ****         3.9006  -4.5415   1.0945 LP             1 S1                 0.0000
@<TRIPOS>BOND
    1    1    2 2     
    2    2    3 am    
    3    2   15 am    
    4    3    4 1     
    5    3   26 1     
    6    4   13 1     
    7    4    5 2     
    8    5    6 1     
    9    5   27 1     
   10    6    7 1     
   11    6   11 2     
   12    7    8 1     
   13    7    9 1     
   14    7   10 1     
   15   11   12 1     
   16   11   28 1     
   17   12   25 1     
   18   12   13 am    
   19   13   14 2     
   20   15   16 1     
   21   15   29 1     
   22   16   24 1     
   23   16   17 1     
   24   16   30 1     
   25   17   18 1     
   26   17   31 1     
   27   17   32 1     
   28   18   19 1     
   29   18   33 1     
   30   18   34 1     
   31   19   20 1     
   32   19   23 1     
   33   19   44 1     
   34   20   22 1     
   35   20   21 1     
   36   20   35 1     
   37   21   22 1     
   38   21   36 1     
   39   21   37 1     
   40   22   38 1     
   41   22   39 1     
   42   23   24 1     
   43   23   40 1     
   44   23   41 1     
   45   24   42 1     
   46   24   43 1     
   47    1   45 1     
   48    1   46 1     
   49   14   47 1     
   50   14   48 1     
@<TRIPOS>SUBSTRUCTURE
      1 S1             1
@<TRIPOS>SET
LONE_PAIRS      STATIC     ATOMS    <user>   **** ""
4 45 46 47 48
DONOR_HYDROGENS      STATIC     ATOMS    <user>   **** ""
4 26 25 29 44
ATOM$BLUE        STATIC     ATOMS    COLORGROUP SYSTEM
4 45 46 47 48
ATOM$RED        STATIC     ATOMS    COLORGROUP SYSTEM
4 26 25 29 44
