#       Name:                AV-unprocessed.smi:2668
#       Creating user name   scv26
#       Creation time:       Fri Mar 27 14:36:17 2020


#       File generated by GOLD software.
#

@<TRIPOS>MOLECULE
AV-unprocessed.smi:2668
    57    58     1
SMALL
NO_CHARGES


@<TRIPOS>ATOM
      1 ****        -4.4295   0.0162   2.0305 C.3            1 S1                 0.0000
      2 ****        -3.8242   1.1067   1.2263 N.4            1 S1                 1.0000
      3 ****        -4.6885   2.3125   1.2625 C.3            1 S1                 0.0000
      4 ****        -2.3934   1.3838   1.5693 C.3            1 S1                 0.0000
      5 ****        -1.7669   2.4514   0.6477 C.3            1 S1                 0.0000
      6 ****        -0.2713   2.6626   0.9377 C.3            1 S1                 0.0000
      7 ****         0.4806   1.4122   0.7542 N.3            1 S1                 0.0000
      8 ****         1.9610   1.5702   0.7492 C.3            1 S1                 0.0000
      9 ****         2.3759   2.5472  -0.3807 C.3            1 S1                 0.0000
     10 ****         2.4846   2.1164   2.0986 C.3            1 S1                 0.0000
     11 ****         2.6562   0.2081   0.4608 C.3            1 S1                 0.0000
     12 ****         2.1508  -0.4304  -0.7517 N.am           1 S1                 0.0000
     13 ****         2.3360  -1.7179  -1.0686 C.2            1 S1                 0.0000
     14 ****         2.9697  -2.5043  -0.3651 O.2            1 S1                 0.0000
     15 ****         1.7255  -2.0248  -2.2260 N.am           1 S1                 0.0000
     16 ****         1.6783  -3.2763  -2.8979 C.ar           1 S1                 0.0000
     17 ****         2.6167  -4.3199  -2.7092 C.ar           1 S1                 0.0000
     18 ****         2.4685  -5.5088  -3.4494 C.ar           1 S1                 0.0000
     19 ****         1.3944  -5.6085  -4.3547 C.ar           1 S1                 0.0000
     20 ****         0.5008  -4.6173  -4.5548 N.ar           1 S1                 0.0000
     21 ****         0.6500  -3.4801  -3.8426 C.ar           1 S1                 0.0000
     22 ****        -0.0267   0.4329   1.7273 C.3            1 S1                 0.0000
     23 ****        -1.5101   0.1225   1.4688 C.3            1 S1                 0.0000
     24 ****        -4.3353   0.2183   3.0982 H              1 S1                 0.0000
     25 ****        -3.9677  -0.9464   1.8149 H              1 S1                 0.0000
     26 ****        -5.4898  -0.0974   1.8019 H              1 S1                 0.0000
     27 ****        -4.6383   2.8017   2.2361 H              1 S1                 0.0000
     28 ****        -5.7297   2.0521   1.0696 H              1 S1                 0.0000
     29 ****        -4.4094   3.0335   0.4951 H              1 S1                 0.0000
     30 ****        -2.3563   1.7493   2.5970 H              1 S1                 0.0000
     31 ****        -1.8986   2.1682  -0.3978 H              1 S1                 0.0000
     32 ****        -2.2626   3.4130   0.7756 H              1 S1                 0.0000
     33 ****         0.0772   3.4395   0.2611 H              1 S1                 0.0000
     34 ****        -0.1402   3.0423   1.9516 H              1 S1                 0.0000
     35 ****         3.4533   2.5184  -0.5484 H              1 S1                 0.0000
     36 ****         2.1411   3.5851  -0.1460 H              1 S1                 0.0000
     37 ****         1.8952   2.3007  -1.3282 H              1 S1                 0.0000
     38 ****         3.5691   2.2277   2.0724 H              1 S1                 0.0000
     39 ****         2.2584   1.4499   2.9305 H              1 S1                 0.0000
     40 ****         2.0757   3.0984   2.3358 H              1 S1                 0.0000
     41 ****         3.7293   0.3593   0.3348 H              1 S1                 0.0000
     42 ****         2.5706  -0.4693   1.3112 H              1 S1                 0.0000
     43 ****         1.6123   0.1482  -1.3796 H              1 S1                 0.0000
     44 ****         1.1796  -1.2880  -2.6480 H              1 S1                 0.0000
     45 ****         3.4485  -4.2300  -2.0281 H              1 S1                 0.0000
     46 ****         3.1660  -6.3245  -3.3287 H              1 S1                 0.0000
     47 ****         1.2528  -6.5065  -4.9376 H              1 S1                 0.0000
     48 ****        -0.0823  -2.7083  -4.0299 H              1 S1                 0.0000
     49 ****         0.5087  -0.5110   1.6598 H              1 S1                 0.0000
     50 ****         0.1050   0.8009   2.7453 H              1 S1                 0.0000
     51 ****        -1.8177  -0.6259   2.1983 H              1 S1                 0.0000
     52 ****        -1.6192  -0.3360   0.4846 H              1 S1                 0.0000
     53 ****        -3.8332   0.7846   0.2688 H              1 S1                 0.0000
     54 ****         0.3174   1.0689  -0.1708 LP             1 S1                 0.0000
     55 ****         3.3775  -2.1910   0.4925 LP             1 S1                 0.0000
     56 ****         3.0767  -3.4566  -0.6512 LP             1 S1                 0.0000
     57 ****        -0.2478  -4.7218  -5.2096 LP             1 S1                 0.0000
@<TRIPOS>BOND
    1    1    2 1     
    2    1   24 1     
    3    1   25 1     
    4    1   26 1     
    5    2    3 1     
    6    2    4 1     
    7    2   53 1     
    8    3   27 1     
    9    3   28 1     
   10    3   29 1     
   11    4   23 1     
   12    4    5 1     
   13    4   30 1     
   14    5    6 1     
   15    5   31 1     
   16    5   32 1     
   17    6    7 1     
   18    6   33 1     
   19    6   34 1     
   20    7    8 1     
   21    7   22 1     
   22    8    9 1     
   23    8   10 1     
   24    8   11 1     
   25    9   35 1     
   26    9   36 1     
   27    9   37 1     
   28   10   38 1     
   29   10   39 1     
   30   10   40 1     
   31   11   12 1     
   32   11   41 1     
   33   11   42 1     
   34   12   13 am    
   35   12   43 1     
   36   13   14 2     
   37   13   15 am    
   38   15   16 1     
   39   15   44 1     
   40   16   21 ar    
   41   16   17 ar    
   42   17   18 ar    
   43   17   45 1     
   44   18   19 ar    
   45   18   46 1     
   46   19   20 ar    
   47   19   47 1     
   48   20   21 ar    
   49   21   48 1     
   50   22   23 1     
   51   22   49 1     
   52   22   50 1     
   53   23   51 1     
   54   23   52 1     
   55    7   54 1     
   56   14   55 1     
   57   14   56 1     
   58   20   57 1     
@<TRIPOS>SUBSTRUCTURE
      1 S1             1
@<TRIPOS>SET
LONE_PAIRS      STATIC     ATOMS    <user>   **** ""
4 54 55 56 57
DONOR_HYDROGENS      STATIC     ATOMS    <user>   **** ""
3 53 43 44
ATOM$BLUE        STATIC     ATOMS    COLORGROUP SYSTEM
4 54 55 56 57
ATOM$RED        STATIC     ATOMS    COLORGROUP SYSTEM
3 53 43 44
