AV-unprocessed.smi:1288|AV-procd|sdf|5383|dock2
  -GOLD-   22720 4533D 1   1.00000     0.00000
 Structure written by MMmdl.
 43 45  0  0  0  0  0  0  0  0  2 V2000
  149.7815  141.2772  155.3046 C   0  0  0  0  0  0  0  0  0  0  0  0
  150.5887  141.7668  156.4599 C   0  0  0  0  0  0  0  0  0  0  0  0
  150.7424  143.0673  156.8373 N   0  3  0  0  0  0  0  0  0  0  0  0
  151.5654  143.1384  157.9621 C   0  0  0  0  0  0  0  0  0  0  0  0
  152.0047  144.2326  158.7012 C   0  0  0  0  0  0  0  0  0  0  0  0
  152.8388  143.9575  159.8046 C   0  0  0  0  0  0  0  0  0  0  0  0
  153.2048  142.6371  160.1368 C   0  0  0  0  0  0  0  0  0  0  0  0
  152.7552  141.5361  159.3785 C   0  0  0  0  0  0  0  0  0  0  0  0
  151.9324  141.8161  158.2872 C   0  0  0  0  0  0  0  0  0  0  0  0
  151.3104  141.0043  157.3301 N   0  0  0  0  0  0  0  0  0  0  0  0
  151.4992  139.5450  157.3748 C   0  0  0  0  0  0  0  0  0  0  0  0
  150.8862  138.8934  158.6305 C   0  0  2  0  0  0  0  0  0  0  0  0
  151.6180  137.7295  158.9602 O   0  0  0  0  0  0  0  0  0  0  0  0
  149.4198  138.4935  158.4058 C   0  0  0  0  0  0  0  0  0  0  0  0
  148.9327  137.8483  159.5705 O   0  0  0  0  0  0  0  0  0  0  0  0
  148.9179  136.4356  159.4512 C   0  0  0  0  0  0  0  0  0  0  0  0
  148.3367  135.7851  160.6909 C   0  0  0  0  0  0  0  0  0  0  0  0
  148.2112  136.5250  161.8858 C   0  0  0  0  0  0  0  0  0  0  0  0
  147.6681  135.9231  163.0378 C   0  0  0  0  0  0  0  0  0  0  0  0
  147.2485  134.5796  162.9993 C   0  0  0  0  0  0  0  0  0  0  0  0
  147.3715  133.8381  161.8083 C   0  0  0  0  0  0  0  0  0  0  0  0
  147.9139  134.4386  160.6551 C   0  0  0  0  0  0  0  0  0  0  0  0
  148.0258  133.7176  159.5134 F   0  0  0  0  0  0  0  0  0  0  0  0
  149.2466  142.1023  154.8334 H   0  0  0  0  0  0  0  0  0  0  0  0
  149.0526  140.5387  155.6389 H   0  0  0  0  0  0  0  0  0  0  0  0
  150.4312  140.8150  154.5612 H   0  0  0  0  0  0  0  0  0  0  0  0
  151.7240  145.2450  158.4501 H   0  0  0  0  0  0  0  0  0  0  0  0
  153.2030  144.7754  160.4094 H   0  0  0  0  0  0  0  0  0  0  0  0
  153.8422  142.4639  160.9919 H   0  0  0  0  0  0  0  0  0  0  0  0
  153.0365  140.5288  159.6468 H   0  0  0  0  0  0  0  0  0  0  0  0
  151.0308  139.1344  156.4795 H   0  0  0  0  0  0  0  0  0  0  0  0
  152.5613  139.3153  157.2890 H   0  0  0  0  0  0  0  0  0  0  0  0
  150.9503  139.5965  159.4619 H   0  0  0  0  0  0  0  0  0  0  0  0
  152.3807  137.9892  159.4547 H   0  0  0  0  0  0  0  0  0  0  0  0
  148.8183  139.3876  158.2337 H   0  0  0  0  0  0  0  0  0  0  0  0
  149.3145  137.8590  157.5239 H   0  0  0  0  0  0  0  0  0  0  0  0
  148.3244  136.1383  158.5850 H   0  0  0  0  0  0  0  0  0  0  0  0
  149.9311  136.0656  159.2850 H   0  0  0  0  0  0  0  0  0  0  0  0
  148.5291  137.5568  161.9229 H   0  0  0  0  0  0  0  0  0  0  0  0
  147.5724  136.4927  163.9505 H   0  0  0  0  0  0  0  0  0  0  0  0
  146.8320  134.1180  163.8823 H   0  0  0  0  0  0  0  0  0  0  0  0
  147.0485  132.8080  161.7791 H   0  0  0  0  0  0  0  0  0  0  0  0
  150.3136  143.8490  156.3587 H   0  0  0  0  0  0  0  0  0  0  0  0
  1  2  1  0  0  0  0
  1 24  1  0  0  0  0
  1 25  1  0  0  0  0
  1 26  1  0  0  0  0
  2 10  1  0  0  0  0
  2  3  2  0  0  0  0
  3  4  1  0  0  0  0
  3 43  1  0  0  0  0
  4  9  2  0  0  0  0
  4  5  1  0  0  0  0
  5  6  2  0  0  0  0
  5 27  1  0  0  0  0
  6  7  1  0  0  0  0
  6 28  1  0  0  0  0
  7  8  2  0  0  0  0
  7 29  1  0  0  0  0
  8  9  1  0  0  0  0
  8 30  1  0  0  0  0
  9 10  1  0  0  0  0
 10 11  1  0  0  0  0
 11 12  1  0  0  0  0
 11 31  1  0  0  0  0
 11 32  1  0  0  0  0
 12 13  1  0  0  0  0
 12 14  1  0  0  0  0
 12 33  1  0  0  0  0
 13 34  1  0  0  0  0
 14 15  1  0  0  0  0
 14 35  1  0  0  0  0
 14 36  1  0  0  0  0
 15 16  1  0  0  0  0
 16 17  1  0  0  0  0
 16 37  1  0  0  0  0
 16 38  1  0  0  0  0
 17 22  1  0  0  0  0
 17 18  2  0  0  0  0
 18 19  1  0  0  0  0
 18 39  1  0  0  0  0
 19 20  2  0  0  0  0
 19 40  1  0  0  0  0
 20 21  1  0  0  0  0
 20 41  1  0  0  0  0
 21 22  2  0  0  0  0
 21 42  1  0  0  0  0
 22 23  1  0  0  0  0
M  CHG  1   3   1
M  END
> <s_m_source_file>
AV-unprocessed.smi

> <i_m_source_file_index>
1288

> <i_lp_mmshare_version>
43012

> <i_f3d_flags>
0

> <s_epik_input>
W2NIXTFbY0hdW2NIXVtjSF1jKGMxMiluKGMobjIpW0NIM10pW0NIMl1bQ0BIXShbT0hdKVtDSDJdT1tDSDJdYzNbY0hdW2NIXVtjSF1bY0hdYzNG

> <s_epik_cmdline>
J2VwaWtfcHl0aG9uJywgJy1waCcsICc3LjAnLCAnLXRuJywgJzgnLCAnLW1hJywgJzIwMCcsICctbWV0YWxfYmluZGluZycsICctaW1hZScsICc8aW5maWxlLm1hZT4nLCAnLW9tYWUnLCAnPG91dGZpbGUubWFlPic=

> <r_epik_Ionization_Penalty>
0.952

> <r_epik_Ionization_Penalty_Charging>
0.951999

> <r_epik_Ionization_Penalty_Neutral>
1.07667e-06

> <r_epik_State_Penalty>
0.996343

> <r_epik_Charging_Adjusted_Penalty>
1.94834

> <i_epik_Tot_Q>
1

> <i_epik_Tot_abs_Q>
1

> <r_epik_Metal_State_Penalty>
4.96724

> <b_epik_Metal_Only>
0

> <s_lp_Force_Field>
OPLS_2005

> <r_lp_Energy>
19.7378

> <b_lp_Chiralities_Consistent>
1

> <s_lp_Variant>
AV-unprocessed.smi:1288-3

> <Gold.Version>
5.8.1

> <Gold.Id.Protein>
6NUR|6NUR_protein|mol2

> <Gold.PLP.Fitness>
58.2783

> <Gold.PLP.PLP>
-53.9212

> <Gold.PLP.part.hbond>
-3.0000

> <Gold.PLP.part.metal>
0.0000

> <Gold.PLP.part.buried>
-4.8753

> <Gold.PLP.part.nonpolar>
-47.0620

> <Gold.PLP.part.repulsive>
0.0442

> <Gold.PLP.ligand.clash>
0.0000

> <Gold.PLP.ligand.torsion>
0.8870

> <Gold.PLP.Chemscore.Hbond>
2.0000

> <Gold.PLP.Chemscore.CHOScore>
0.0000

> <Gold.PLP.Chemscore.Metal>
0.0000

> <Gold.Chemscore.Hbonds>
donor molecule, donor type, donor heavy atom, donor atom, acceptor molecule, acceptor atom, score
      L1  H     3    43       P1  8028  2.00
      P1  H  6931  6943       L1    15  0.03

> <Gold.PLP.Chemscore.Internal.Correction>
0.1312

> <Gold.Rescore>
     Score         DG    S(hbond)    S(metal)    S(lipo)     H(rot)  DE(clash)    DE(int)     intcor
     17.30     -18.54       1.03        0.00     134.42       2.38       0.10       1.14       ----

> <Gold.Chemscore.Fitness>
17.2959

> <Gold.Chemscore.DG>
-18.5373

> <Gold.Chemscore.ZeroCoef>
-5.4800

> <Gold.Chemscore.Hbond>
1.0254

> <Gold.Chemscore.Metal>
0.0000

> <Gold.Chemscore.Lipo>
134.4233

> <Gold.Chemscore.Internal_Hbond>
0.0000

> <Gold.Chemscore.DEClash>
0.1037

> <Gold.Chemscore.DEInternal>
1.1377

> <Gold.Chemscore.Rot>
2.3809

> <Gold.Chemscore.Internal.Correction>
   9.000000E+99

> <Gold.Chemscore.Hbonds>
donor molecule, donor type, donor heavy atom, donor atom, acceptor molecule, acceptor atom, score
      L1  H     3    43       P1  8028  0.98
      P1  H  6931  6943       L1    15  0.02

> <Gold.Chemscore.Hbond.Weighted>
-3.4249

> <Gold.Chemscore.Metal.Weighted>
-0.0000

> <Gold.Chemscore.Lipo.Weighted>
-15.7275

> <Gold.Chemscore.Internal_Hbond.Weighted>
0.0000

> <Gold.Chemscore.DEClash.Weighted>
0.1037

> <Gold.Chemscore.DEInternal.Weighted>
1.1377

> <Gold.Chemscore.Rot.Weighted>
6.0951

> <Gold.Chemscore.Internal.Correction.Weighted>
   9.000000E+99

> <Gold.Protein.RotatedTorsions>
[ 6907 6896 6895 6894 ] final   58.08 input  -60.11 | X-H torsion
[ 7974 7965 7964 7962 ] final  -38.78 input  175.53 | X-H torsion
[ 8008 7997 7996 7995 ] final -159.24 input   59.86 | X-H torsion
[ 10167 10162 10161 10158 ] final   31.74 input  -65.29 | X-H torsion
[ 10718 10713 10712 10709 ] final  -13.19 input   66.30 | X-H torsion
[ 10763 10752 10751 10750 ] final  -95.31 input  -60.55 | X-H torsion
[ 11005 11000 10999 10996 ] final   78.24 input  -57.11 | X-H torsion

> <Gold.Protein.ActiveResidues>
 VAL166  LYS551  ARG553  GLY616  TRP617  ASP618  TYR619  PRO620  LYS621  CYS622 
 ASP623  PHE694  ASN695  SER759  ASP760  ASP761  ALA762  ILE779  LEU786  VAL792 
 PHE793  MET794  SER795  GLU796  ALA797  LYS798  CYS799  TRP800  GLU811  SER814 

> <Gold.Protein.RotatedAtoms>
  152.3791  134.6618  160.0149 H   0  0  0  0  0  0  0  0  0  0  0  0  # atno 6907 bound_to 6896
  151.6887  133.3305  159.3245 H   0  0  0  0  0  0  0  0  0  0  0  0  # atno 6908 bound_to 6896
  150.7733  134.6653  159.6406 H   0  0  0  0  0  0  0  0  0  0  0  0  # atno 6909 bound_to 6896
  146.0456  140.6550  142.9066 H   0  0  0  0  0  0  0  0  0  0  0  0  # atno 7974 bound_to 7965
  155.7596  140.0837  157.2162 H   0  0  0  0  0  0  0  0  0  0  0  0  # atno 8008 bound_to 7997
  154.4005  140.1545  156.2873 H   0  0  0  0  0  0  0  0  0  0  0  0  # atno 8009 bound_to 7997
  155.8853  140.3418  155.5919 H   0  0  0  0  0  0  0  0  0  0  0  0  # atno 8010 bound_to 7997
  140.4561  144.0975  150.6202 H   0  0  0  0  0  0  0  0  0  0  0  0  # atno 10167 bound_to 10162
  156.6338  130.4909  149.6119 H   0  0  0  0  0  0  0  0  0  0  0  0  # atno 10718 bound_to 10713
  154.7136  135.5125  153.8704 H   0  0  0  0  0  0  0  0  0  0  0  0  # atno 10763 bound_to 10752
  153.0802  135.6629  154.0071 H   0  0  0  0  0  0  0  0  0  0  0  0  # atno 10764 bound_to 10752
  153.9908  135.3020  155.3391 H   0  0  0  0  0  0  0  0  0  0  0  0  # atno 10765 bound_to 10752
  139.9221  134.7747  156.1624 H   0  0  0  0  0  0  0  0  0  0  0  0  # atno 11005 bound_to 11000
  144.7096  140.3988  143.7091 LP  0  0  0  0  0  0  0  0  0  0  0  0  # atno 17320 bound_to 7965
  145.6811  139.1619  143.2700 LP  0  0  0  0  0  0  0  0  0  0  0  0  # atno 17321 bound_to 7965
  140.4149  143.2639  151.9787 LP  0  0  0  0  0  0  0  0  0  0  0  0  # atno 17342 bound_to 10162
  139.4801  144.5883  151.7816 LP  0  0  0  0  0  0  0  0  0  0  0  0  # atno 17343 bound_to 10162
  156.2213  130.6739  151.1371 LP  0  0  0  0  0  0  0  0  0  0  0  0  # atno 17370 bound_to 10713
  157.7192  131.0692  150.6206 LP  0  0  0  0  0  0  0  0  0  0  0  0  # atno 17371 bound_to 10713
  141.0750  133.6780  156.2217 LP  0  0  0  0  0  0  0  0  0  0  0  0  # atno 17394 bound_to 11000
  140.6444  134.5132  157.5572 LP  0  0  0  0  0  0  0  0  0  0  0  0  # atno 17395 bound_to 11000

$$$$
