#       Name:                AV-unprocessed.smi:2706
#       Creating user name   scv26
#       Creation time:       Fri Mar 27 14:49:24 2020


#       File generated by GOLD software.
#

@<TRIPOS>MOLECULE
AV-unprocessed.smi:2706
    46    49     1
SMALL
NO_CHARGES


@<TRIPOS>ATOM
      1 ****        -2.1227   0.4106  -1.8912 C.3            1 S1                 0.0000
      2 ****        -1.3557   0.6599  -3.1067 N.pl3          1 S1                 0.0000
      3 ****        -2.0313   1.4992  -4.0912 C.3            1 S1                 0.0000
      4 ****        -0.0928   0.0973  -3.3008 C.2            1 S1                 0.0000
      5 ****         0.6090   0.3331  -4.4320 C.2            1 S1                 0.0000
      6 ****         1.9146  -0.2661  -4.6162 C.2            1 S1                 0.0000
      7 ****         2.4593  -1.0574  -3.6715 C.2            1 S1                 0.0000
      8 ****         1.7548  -1.3276  -2.4324 C.2            1 S1                 0.0000
      9 ****         2.2879  -2.1040  -1.5310 N.2            1 S1                 0.0000
     10 ****         1.7235  -2.3172  -0.2732 C.2            1 S1                 0.0000
     11 ****         1.7189  -3.4202   0.2724 O.2            1 S1                 0.0000
     12 ****         1.2792  -1.2180   0.3705 N.am           1 S1                 0.0000
     13 ****         0.6983  -1.1861   1.6734 C.3            1 S1                 0.0000
     14 ****        -0.2786  -0.0563   1.9601 C.3            1 S1                 0.0000
     15 ****        -1.2196   0.0270   3.1582 C.3            1 S1                 0.0000
     16 ****        -1.1408   1.4612   3.7206 C.3            1 S1                 0.0000
     17 ****         0.2689   1.4924   4.3611 C.3            1 S1                 0.0000
     18 ****         0.7966   0.0710   4.0754 C.3            1 S1                 0.0000
     19 ****        -0.4897  -0.7342   4.2662 C.3            1 S1                 0.0000
     20 ****         1.0853  -0.0281   2.5804 C.3            1 S1                 0.0000
     21 ****         0.4841  -0.7290  -2.3320 N.pl3          1 S1                 0.0000
     22 ****        -2.5728  -0.5817  -1.9270 H              1 S1                 0.0000
     23 ****        -2.9192   1.1419  -1.7520 H              1 S1                 0.0000
     24 ****        -1.4800   0.4636  -1.0126 H              1 S1                 0.0000
     25 ****        -1.5274   2.4625  -4.1754 H              1 S1                 0.0000
     26 ****        -3.0729   1.6862  -3.8287 H              1 S1                 0.0000
     27 ****        -2.0256   1.0198  -5.0706 H              1 S1                 0.0000
     28 ****         0.2227   0.9657  -5.2170 H              1 S1                 0.0000
     29 ****         2.4593  -0.0779  -5.5296 H              1 S1                 0.0000
     30 ****         3.4356  -1.4772  -3.8668 H              1 S1                 0.0000
     31 ****         1.3607  -0.3326  -0.1084 H              1 S1                 0.0000
     32 ****         0.4952  -2.1487   2.1375 H              1 S1                 0.0000
     33 ****        -0.4775   0.6496   1.1561 H              1 S1                 0.0000
     34 ****        -2.2266  -0.3230   2.9310 H              1 S1                 0.0000
     35 ****        -1.2616   2.2168   2.9434 H              1 S1                 0.0000
     36 ****        -1.9110   1.6294   4.4746 H              1 S1                 0.0000
     37 ****         0.9058   2.2645   3.9276 H              1 S1                 0.0000
     38 ****         0.2011   1.6766   5.4340 H              1 S1                 0.0000
     39 ****         1.6413  -0.2386   4.6912 H              1 S1                 0.0000
     40 ****        -0.9410  -0.6059   5.2524 H              1 S1                 0.0000
     41 ****        -0.3823  -1.8027   4.0823 H              1 S1                 0.0000
     42 ****         1.8050   0.6899   2.1905 H              1 S1                 0.0000
     43 ****        -0.0830  -0.8880  -1.5119 H              1 S1                 0.0000
     44 ****         3.1445  -2.5702  -1.7523 LP             1 S1                 0.0000
     45 ****         2.1307  -4.2071  -0.1872 LP             1 S1                 0.0000
     46 ****         1.3034  -3.5297   1.1754 LP             1 S1                 0.0000
@<TRIPOS>BOND
    1    1    2 1     
    2    1   22 1     
    3    1   23 1     
    4    1   24 1     
    5    2    3 1     
    6    2    4 1     
    7    3   25 1     
    8    3   26 1     
    9    3   27 1     
   10    4   21 1     
   11    4    5 2     
   12    5    6 1     
   13    5   28 1     
   14    6    7 2     
   15    6   29 1     
   16    7    8 1     
   17    7   30 1     
   18    8    9 2     
   19    8   21 1     
   20    9   10 1     
   21   10   11 2     
   22   10   12 am    
   23   12   13 1     
   24   12   31 1     
   25   13   20 1     
   26   13   14 1     
   27   13   32 1     
   28   14   20 1     
   29   14   15 1     
   30   14   33 1     
   31   15   19 1     
   32   15   16 1     
   33   15   34 1     
   34   16   17 1     
   35   16   35 1     
   36   16   36 1     
   37   17   18 1     
   38   17   37 1     
   39   17   38 1     
   40   18   19 1     
   41   18   20 1     
   42   18   39 1     
   43   19   40 1     
   44   19   41 1     
   45   20   42 1     
   46   21   43 1     
   47    9   44 1     
   48   11   45 1     
   49   11   46 1     
@<TRIPOS>SUBSTRUCTURE
      1 S1             1
@<TRIPOS>SET
LONE_PAIRS      STATIC     ATOMS    <user>   **** ""
3 44 45 46
DONOR_HYDROGENS      STATIC     ATOMS    <user>   **** ""
2 31 43
ATOM$BLUE        STATIC     ATOMS    COLORGROUP SYSTEM
3 44 45 46
ATOM$RED        STATIC     ATOMS    COLORGROUP SYSTEM
2 31 43
