AV-unprocessed.smi:2424|AV-procd|sdf|9570|dock5
  -GOLD-   2272013203D 1   1.00000     0.00000
 Structure written by MMmdl.
 49 50  0  0  0  0  0  0  0  0  2 V2000
  148.3968  137.4299  158.0834 C   0  0  0  0  0  0  0  0  0  0  0  0
  148.9037  138.4432  157.0414 C   0  0  0  0  0  0  0  0  0  0  0  0
  148.8458  137.9873  155.5540 C   0  0  0  0  0  0  0  0  0  0  0  0
  149.7465  136.7389  155.4001 C   0  0  0  0  0  0  0  0  0  0  0  0
  151.2439  136.9620  155.6577 C   0  0  0  0  0  0  0  0  0  0  0  0
  147.4305  137.9635  154.8963 C   0  0  2  0  0  0  0  0  0  0  0  0
  147.3362  137.0425  153.7585 N   0  0  0  0  0  0  0  0  0  0  0  0
  146.2852  136.2609  153.4778 C   0  0  0  0  0  0  0  0  0  0  0  0
  145.2505  136.2532  154.1436 O   0  0  0  0  0  0  0  0  0  0  0  0
  146.5395  135.4916  152.4041 N   0  0  0  0  0  0  0  0  0  0  0  0
  145.7058  134.5568  151.7761 C   0  0  0  0  0  0  0  0  0  0  0  0
  144.3425  134.3792  151.9670 C   0  0  0  0  0  0  0  0  0  0  0  0
  143.5199  133.4955  151.3593 N   0  5  0  0  0  0  0  0  0  0  0  0
  144.0496  132.6480  150.4316 C   0  0  0  0  0  0  0  0  0  0  0  0
  143.3589  131.8165  149.8436 O   0  0  0  0  0  0  0  0  0  0  0  0
  145.4917  132.7365  150.1295 C   0  0  0  0  0  0  0  0  0  0  0  0
  146.0828  131.7928  149.0965 C   0  0  0  0  0  0  0  0  0  0  0  0
  146.2542  133.6502  150.7790 C   0  0  0  0  0  0  0  0  0  0  0  0
  147.6525  139.4181  154.4403 C   0  0  2  0  0  0  0  0  0  0  0  0
  147.0357  139.9210  153.1376 C   0  0  0  0  0  0  0  0  0  0  0  0
  149.1547  139.1038  154.5190 C   0  0  1  0  0  0  0  0  0  0  0  0
  149.9803  140.1405  155.0302 O   0  0  0  0  0  0  0  0  0  0  0  0
  149.5188  141.4389  154.7023 C   0  0  0  0  0  0  0  0  0  0  0  0
  148.6608  137.7559  159.0896 H   0  0  0  0  0  0  0  0  0  0  0  0
  148.8123  136.4343  157.9412 H   0  0  0  0  0  0  0  0  0  0  0  0
  147.3109  137.3429  158.0567 H   0  0  0  0  0  0  0  0  0  0  0  0
  148.3212  139.3517  157.1917 H   0  0  0  0  0  0  0  0  0  0  0  0
  149.9217  138.7292  157.3086 H   0  0  0  0  0  0  0  0  0  0  0  0
  149.4113  135.9550  156.0797 H   0  0  0  0  0  0  0  0  0  0  0  0
  149.6206  136.3047  154.4077 H   0  0  0  0  0  0  0  0  0  0  0  0
  151.7698  136.0081  155.6994 H   0  0  0  0  0  0  0  0  0  0  0  0
  151.4186  137.4755  156.6030 H   0  0  0  0  0  0  0  0  0  0  0  0
  151.7048  137.5438  154.8606 H   0  0  0  0  0  0  0  0  0  0  0  0
  146.6009  137.8771  155.5963 H   0  0  0  0  0  0  0  0  0  0  0  0
  148.1453  136.9777  153.1587 H   0  0  0  0  0  0  0  0  0  0  0  0
  147.4586  135.5795  151.9963 H   0  0  0  0  0  0  0  0  0  0  0  0
  143.8167  135.0452  152.6795 H   0  0  0  0  0  0  0  0  0  0  0  0
  147.1505  131.9687  148.9626 H   0  0  0  0  0  0  0  0  0  0  0  0
  145.5946  131.9300  148.1313 H   0  0  0  0  0  0  0  0  0  0  0  0
  145.9484  130.7562  149.4074 H   0  0  0  0  0  0  0  0  0  0  0  0
  147.3088  133.7077  150.5534 H   0  0  0  0  0  0  0  0  0  0  0  0
  147.3763  140.0792  155.2639 H   0  0  0  0  0  0  0  0  0  0  0  0
  147.4545  139.4128  152.2688 H   0  0  0  0  0  0  0  0  0  0  0  0
  147.2040  140.9893  153.0049 H   0  0  0  0  0  0  0  0  0  0  0  0
  145.9578  139.7581  153.1269 H   0  0  0  0  0  0  0  0  0  0  0  0
  149.5419  138.6982  153.5813 H   0  0  0  0  0  0  0  0  0  0  0  0
  150.2219  142.1805  155.0814 H   0  0  0  0  0  0  0  0  0  0  0  0
  148.5473  141.6412  155.1523 H   0  0  0  0  0  0  0  0  0  0  0  0
  149.4411  141.5708  153.6223 H   0  0  0  0  0  0  0  0  0  0  0  0
  1  2  1  0  0  0  0
  1 24  1  0  0  0  0
  1 25  1  0  0  0  0
  1 26  1  0  0  0  0
  2  3  1  0  0  0  0
  2 27  1  0  0  0  0
  2 28  1  0  0  0  0
  3 21  1  0  0  0  0
  3  4  1  0  0  0  0
  3  6  1  0  0  0  0
  4  5  1  0  0  0  0
  4 29  1  0  0  0  0
  4 30  1  0  0  0  0
  5 31  1  0  0  0  0
  5 32  1  0  0  0  0
  5 33  1  0  0  0  0
  6  7  1  0  0  0  0
  6 19  1  0  0  0  0
  6 34  1  0  0  0  0
  7  8  1  0  0  0  0
  7 35  1  0  0  0  0
  8  9  2  0  0  0  0
  8 10  1  0  0  0  0
 10 11  1  0  0  0  0
 10 36  1  0  0  0  0
 11 18  1  0  0  0  0
 11 12  2  0  0  0  0
 12 13  1  0  0  0  0
 12 37  1  0  0  0  0
 13 14  1  0  0  0  0
 14 15  2  0  0  0  0
 14 16  1  0  0  0  0
 16 17  1  0  0  0  0
 16 18  2  0  0  0  0
 17 38  1  0  0  0  0
 17 39  1  0  0  0  0
 17 40  1  0  0  0  0
 18 41  1  0  0  0  0
 19 20  1  0  0  0  0
 19 21  1  0  0  0  0
 19 42  1  0  0  0  0
 20 43  1  0  0  0  0
 20 44  1  0  0  0  0
 20 45  1  0  0  0  0
 21 22  1  0  0  0  0
 21 46  1  0  0  0  0
 22 23  1  0  0  0  0
 23 47  1  0  0  0  0
 23 48  1  0  0  0  0
 23 49  1  0  0  0  0
M  CHG  1  13  -1
M  END
> <s_m_source_file>
AV-unprocessed.smi

> <i_m_source_file_index>
2424

> <i_lp_mmshare_version>
43012

> <i_f3d_flags>
0

> <s_epik_input>
W0NIM11PW0NAQEhdMVtDQEhdKFtDSDNdKVtDQEBIXShDMShbQ0gyXVtDSDNdKVtDSDJdW0NIM10pW05IXUMoPU8pW05IXWMyW2NIXVtuSF1jKD1PKWMoW0NIM10pW2NIXTI=

> <s_epik_cmdline>
J2VwaWtfcHl0aG9uJywgJy1waCcsICc3LjAnLCAnLXRuJywgJzgnLCAnLW1hJywgJzIwMCcsICctbWV0YWxfYmluZGluZycsICctaW1hZScsICc8aW5maWxlLm1hZT4nLCAnLW9tYWUnLCAnPG91dGZpbGUubWFlPic=

> <r_lp_tautomer_probability>
1

> <r_epik_Ionization_Penalty>
7.6122

> <r_epik_Ionization_Penalty_Charging>
1.53843

> <r_epik_Ionization_Penalty_Neutral>
6.07377

> <r_epik_State_Penalty>
6.07371

> <r_epik_Charging_Adjusted_Penalty>
7.61214

> <i_epik_Tot_Q>
-1

> <i_epik_Tot_abs_Q>
1

> <r_epik_Metal_State_Penalty>
2.02136

> <b_epik_Metal_Only>
1

> <s_lp_Force_Field>
OPLS_2005

> <r_lp_Energy>
41.3797

> <b_lp_Chiralities_Consistent>
1

> <s_lp_Variant>
AV-unprocessed.smi:2424-12

> <Gold.Version>
5.8.1

> <Gold.Id.Protein>
6NUR|6NUR_protein|mol2

> <Gold.PLP.Fitness>
38.5511

> <Gold.PLP.PLP>
-30.5943

> <Gold.PLP.part.hbond>
-3.0887

> <Gold.PLP.part.metal>
0.0000

> <Gold.PLP.part.buried>
-4.5237

> <Gold.PLP.part.nonpolar>
-24.4889

> <Gold.PLP.part.repulsive>
1.6594

> <Gold.PLP.ligand.clash>
0.0000

> <Gold.PLP.ligand.torsion>
0.8211

> <Gold.PLP.Chemscore.Hbond>
3.0000

> <Gold.PLP.Chemscore.CHOScore>
0.0000

> <Gold.PLP.Chemscore.Metal>
0.0000

> <Gold.Chemscore.Hbonds>
donor molecule, donor type, donor heavy atom, donor atom, acceptor molecule, acceptor atom, score
      L1  H     7    35       P1  7948  1.00
      L1  H    10    36       P1  7948  1.00
      P1  H 10785 10796       L1    15  1.00

> <Gold.PLP.Chemscore.Internal.Correction>
0.5991

> <Gold.Rescore>
     Score         DG    S(hbond)    S(metal)    S(lipo)     H(rot)  DE(clash)    DE(int)     intcor
     18.36     -20.33       2.86        0.00      78.65       1.52       0.22       1.76       ----

> <Gold.Chemscore.Fitness>
18.3563

> <Gold.Chemscore.DG>
-20.3318

> <Gold.Chemscore.ZeroCoef>
-5.4800

> <Gold.Chemscore.Hbond>
2.8570

> <Gold.Chemscore.Metal>
0.0000

> <Gold.Chemscore.Lipo>
78.6472

> <Gold.Chemscore.Internal_Hbond>
0.0000

> <Gold.Chemscore.DEClash>
0.2168

> <Gold.Chemscore.DEInternal>
1.7587

> <Gold.Chemscore.Rot>
1.5204

> <Gold.Chemscore.Internal.Correction>
   9.000000E+99

> <Gold.Chemscore.Hbonds>
donor molecule, donor type, donor heavy atom, donor atom, acceptor molecule, acceptor atom, score
      L1  H     7    35       P1  7948  0.94
      L1  H    10    36       P1  7948  0.97
      P1  H 10785 10796       L1    15  0.93

> <Gold.Chemscore.Hbond.Weighted>
-9.5423

> <Gold.Chemscore.Metal.Weighted>
-0.0000

> <Gold.Chemscore.Lipo.Weighted>
-9.2017

> <Gold.Chemscore.Internal_Hbond.Weighted>
0.0000

> <Gold.Chemscore.DEClash.Weighted>
0.2168

> <Gold.Chemscore.DEInternal.Weighted>
1.7587

> <Gold.Chemscore.Rot.Weighted>
3.8922

> <Gold.Chemscore.Internal.Correction.Weighted>
   9.000000E+99

> <Gold.Protein.RotatedTorsions>
[ 6907 6896 6895 6894 ] final  106.34 input  -60.11 | X-H torsion
[ 7974 7965 7964 7962 ] final  -63.09 input  175.53 | X-H torsion
[ 8008 7997 7996 7995 ] final   37.06 input   59.86 | X-H torsion
[ 10167 10162 10161 10158 ] final  -96.57 input  -65.29 | X-H torsion
[ 10718 10713 10712 10709 ] final   16.34 input   66.30 | X-H torsion
[ 10763 10752 10751 10750 ] final  -58.71 input  -60.55 | X-H torsion
[ 11005 11000 10999 10996 ] final   30.18 input  -57.11 | X-H torsion

> <Gold.Protein.ActiveResidues>
 VAL166  LYS551  ARG553  GLY616  TRP617  ASP618  TYR619  PRO620  LYS621  CYS622 
 ASP623  PHE694  ASN695  SER759  ASP760  ASP761  ALA762  ILE779  LEU786  VAL792 
 PHE793  MET794  SER795  GLU796  ALA797  LYS798  CYS799  TRP800  GLU811  SER814 

> <Gold.Protein.RotatedAtoms>
  152.5197  133.9396  159.7619 H   0  0  0  0  0  0  0  0  0  0  0  0  # atno 6907 bound_to 6896
  150.9729  133.6317  159.2742 H   0  0  0  0  0  0  0  0  0  0  0  0  # atno 6908 bound_to 6896
  151.3522  135.0892  159.9459 H   0  0  0  0  0  0  0  0  0  0  0  0  # atno 6909 bound_to 6896
  145.7833  140.8750  143.0319 H   0  0  0  0  0  0  0  0  0  0  0  0  # atno 7974 bound_to 7965
  155.1976  140.3313  155.4348 H   0  0  0  0  0  0  0  0  0  0  0  0  # atno 8008 bound_to 7997
  156.2419  140.1899  156.7015 H   0  0  0  0  0  0  0  0  0  0  0  0  # atno 8009 bound_to 7997
  154.6163  140.0601  156.9544 H   0  0  0  0  0  0  0  0  0  0  0  0  # atno 8010 bound_to 7997
  140.2924  143.3213  152.0332 H   0  0  0  0  0  0  0  0  0  0  0  0  # atno 10167 bound_to 10162
  157.0665  130.6330  149.5796 H   0  0  0  0  0  0  0  0  0  0  0  0  # atno 10718 bound_to 10713
  154.2424  135.6341  153.5212 H   0  0  0  0  0  0  0  0  0  0  0  0  # atno 10763 bound_to 10752
  152.9927  135.5545  154.5896 H   0  0  0  0  0  0  0  0  0  0  0  0  # atno 10764 bound_to 10752
  154.5404  135.2894  155.1075 H   0  0  0  0  0  0  0  0  0  0  0  0  # atno 10765 bound_to 10752
  140.2971  134.2798  155.7762 H   0  0  0  0  0  0  0  0  0  0  0  0  # atno 11005 bound_to 11000
  144.6793  140.0019  143.7484 LP  0  0  0  0  0  0  0  0  0  0  0  0  # atno 17320 bound_to 7965
  146.0052  139.3124  143.0903 LP  0  0  0  0  0  0  0  0  0  0  0  0  # atno 17321 bound_to 7965
  139.4934  144.6515  151.6665 LP  0  0  0  0  0  0  0  0  0  0  0  0  # atno 17342 bound_to 10162
  140.5721  144.0091  150.6222 LP  0  0  0  0  0  0  0  0  0  0  0  0  # atno 17343 bound_to 10162
  155.9963  130.5032  150.7491 LP  0  0  0  0  0  0  0  0  0  0  0  0  # atno 17370 bound_to 10713
  157.4913  131.0911  151.0424 LP  0  0  0  0  0  0  0  0  0  0  0  0  # atno 17371 bound_to 10713
  141.2135  133.7622  156.9712 LP  0  0  0  0  0  0  0  0  0  0  0  0  # atno 17394 bound_to 11000
  140.1143  134.9457  157.2111 LP  0  0  0  0  0  0  0  0  0  0  0  0  # atno 17395 bound_to 11000

$$$$
