AV-unprocessed.smi:3324|AV-procd|sdf|12782|dock3
  -GOLD-   2272019123D 1   1.00000     0.00000
 Structure written by MMmdl.
 30 30  0  0  0  0  0  0  0  0  1 V2000
  146.3204  139.2955  153.9877 O   0  0  0  0  0  0  0  0  0  0  0  0
  147.0821  138.7051  153.2225 C   0  0  0  0  0  0  0  0  0  0  0  0
  146.6414  138.3958  151.7930 C   0  0  0  0  0  0  0  0  0  0  0  0
  145.4167  137.5899  151.7697 N   0  0  0  0  0  0  0  0  0  0  0  0
  145.6347  136.3450  151.0494 C   0  0  0  0  0  0  0  0  0  0  0  0
  145.1734  135.1671  151.9193 C   0  0  0  0  0  0  0  0  0  0  0  0
  145.3112  133.9039  151.2214 N   0  0  0  0  0  0  0  0  0  0  0  0
  144.4913  133.3681  150.2509 C   0  0  0  0  0  0  0  0  0  0  0  0
  145.0198  132.1606  149.8946 C   0  0  0  0  0  0  0  0  0  0  0  0
  146.1771  132.0432  150.7145 C   0  0  0  0  0  0  0  0  0  0  0  0
  146.3468  133.0868  151.5102 N   0  0  0  0  0  0  0  0  0  0  0  0
  148.3153  138.3046  153.5674 N   0  0  0  0  0  0  0  0  0  0  0  0
  148.9323  138.5058  154.8745 C   0  0  0  0  0  0  0  0  0  0  0  0
  150.0164  139.5960  154.8396 C   0  0  0  0  0  0  0  0  0  0  0  0
  151.0611  139.1499  154.1435 F   0  0  0  0  0  0  0  0  0  0  0  0
  149.5467  140.6947  154.2479 F   0  0  0  0  0  0  0  0  0  0  0  0
  150.4253  139.9011  156.0713 F   0  0  0  0  0  0  0  0  0  0  0  0
  146.4793  139.3300  151.2523 H   0  0  0  0  0  0  0  0  0  0  0  0
  147.4486  137.8641  151.2866 H   0  0  0  0  0  0  0  0  0  0  0  0
  144.6564  138.0930  151.3343 H   0  0  0  0  0  0  0  0  0  0  0  0
  145.0796  136.3591  150.1098 H   0  0  0  0  0  0  0  0  0  0  0  0
  146.6928  136.2369  150.8055 H   0  0  0  0  0  0  0  0  0  0  0  0
  145.7613  135.1172  152.8370 H   0  0  0  0  0  0  0  0  0  0  0  0
  144.1311  135.2928  152.2175 H   0  0  0  0  0  0  0  0  0  0  0  0
  143.6103  133.8848  149.8998 H   0  0  0  0  0  0  0  0  0  0  0  0
  144.6382  131.4669  149.1602 H   0  0  0  0  0  0  0  0  0  0  0  0
  146.8937  131.2359  150.7555 H   0  0  0  0  0  0  0  0  0  0  0  0
  148.8678  137.8264  152.8705 H   0  0  0  0  0  0  0  0  0  0  0  0
  148.1755  138.7458  155.6232 H   0  0  0  0  0  0  0  0  0  0  0  0
  149.3760  137.5586  155.1820 H   0  0  0  0  0  0  0  0  0  0  0  0
  1  2  2  0  0  0  0
  2  3  1  0  0  0  0
  2 12  1  0  0  0  0
  3  4  1  0  0  0  0
  3 18  1  0  0  0  0
  3 19  1  0  0  0  0
  4  5  1  0  0  0  0
  4 20  1  0  0  0  0
  5  6  1  0  0  0  0
  5 21  1  0  0  0  0
  5 22  1  0  0  0  0
  6  7  1  0  0  0  0
  6 23  1  0  0  0  0
  6 24  1  0  0  0  0
  7 11  1  0  0  0  0
  7  8  1  0  0  0  0
  8  9  2  0  0  0  0
  8 25  1  0  0  0  0
  9 10  1  0  0  0  0
  9 26  1  0  0  0  0
 10 11  2  0  0  0  0
 10 27  1  0  0  0  0
 12 13  1  0  0  0  0
 12 28  1  0  0  0  0
 13 14  1  0  0  0  0
 13 29  1  0  0  0  0
 13 30  1  0  0  0  0
 14 15  1  0  0  0  0
 14 16  1  0  0  0  0
 14 17  1  0  0  0  0
M  END
> <s_m_source_file>
AV-unprocessed.smi

> <i_m_source_file_index>
3324

> <i_lp_mmshare_version>
43012

> <i_f3d_flags>
0

> <s_epik_input>
RkMoRikoRilbQ0gyXVtOSF1DKD1PKVtDSDJdW05IXVtDSDJdW0NIMl1uMVtjSF1bY0hdW2NIXW4x

> <s_epik_cmdline>
J2VwaWtfcHl0aG9uJywgJy1waCcsICc3LjAnLCAnLXRuJywgJzgnLCAnLW1hJywgJzIwMCcsICctbWV0YWxfYmluZGluZycsICctaW1hZScsICc8aW5maWxlLm1hZT4nLCAnLW9tYWUnLCAnPG91dGZpbGUubWFlPic=

> <r_lp_tautomer_probability>
1

> <r_epik_Ionization_Penalty>
0.533356

> <r_epik_Ionization_Penalty_Charging>
0

> <r_epik_Ionization_Penalty_Neutral>
0.533356

> <r_epik_State_Penalty>
0.540813

> <r_epik_Charging_Adjusted_Penalty>
0.540813

> <i_epik_Tot_Q>
0

> <i_epik_Tot_abs_Q>
0

> <r_epik_Metal_State_Penalty>
0.549553

> <b_epik_Metal_Only>
0

> <s_lp_Force_Field>
OPLS_2005

> <r_lp_Energy>
3.03628

> <b_lp_Chiralities_Consistent>
1

> <s_lp_Variant>
AV-unprocessed.smi:3324-2

> <Gold.Version>
5.8.1

> <Gold.Id.Protein>
6NUR|6NUR_protein|mol2

> <Gold.PLP.Fitness>
41.8565

> <Gold.PLP.PLP>
-31.9099

> <Gold.PLP.part.hbond>
-2.0000

> <Gold.PLP.part.metal>
0.0000

> <Gold.PLP.part.buried>
-2.1218

> <Gold.PLP.part.nonpolar>
-28.3137

> <Gold.PLP.part.repulsive>
0.3067

> <Gold.PLP.ligand.clash>
0.0000

> <Gold.PLP.ligand.torsion>
1.1348

> <Gold.PLP.Chemscore.Hbond>
1.9920

> <Gold.PLP.Chemscore.CHOScore>
2.0000

> <Gold.PLP.Chemscore.Metal>
0.0000

> <Gold.Chemscore.Hbonds>
donor molecule, donor type, donor heavy atom, donor atom, acceptor molecule, acceptor atom, score
      L1  H     4    20       P1 10171  0.94
      L1  H    12    28       P1  7948  0.88
      L1  C     8    25       P1 10186  0.63
      L1  C    10    27       P1 10747  1.00

> <Gold.PLP.Chemscore.Internal.Correction>
0.2400

> <Gold.Rescore>
     Score         DG    S(hbond)    S(metal)    S(lipo)     H(rot)  DE(clash)    DE(int)     intcor
     10.20     -11.34       1.96        0.00      56.19       2.83       0.15       0.99       ----

> <Gold.Chemscore.Fitness>
10.2013

> <Gold.Chemscore.DG>
-11.3383

> <Gold.Chemscore.ZeroCoef>
-5.4800

> <Gold.Chemscore.Hbond>
1.9552

> <Gold.Chemscore.Metal>
0.0000

> <Gold.Chemscore.Lipo>
56.1879

> <Gold.Chemscore.Internal_Hbond>
0.0000

> <Gold.Chemscore.DEClash>
0.1463

> <Gold.Chemscore.DEInternal>
0.9908

> <Gold.Chemscore.Rot>
2.8305

> <Gold.Chemscore.Internal.Correction>
   9.000000E+99

> <Gold.Chemscore.Hbonds>
donor molecule, donor type, donor heavy atom, donor atom, acceptor molecule, acceptor atom, score
      L1  H     4    20       P1 10171  0.91
      L1  H    12    28       P1  7948  0.86

> <Gold.Chemscore.Hbond.Weighted>
-6.5305

> <Gold.Chemscore.Metal.Weighted>
-0.0000

> <Gold.Chemscore.Lipo.Weighted>
-6.5740

> <Gold.Chemscore.Internal_Hbond.Weighted>
0.0000

> <Gold.Chemscore.DEClash.Weighted>
0.1463

> <Gold.Chemscore.DEInternal.Weighted>
0.9908

> <Gold.Chemscore.Rot.Weighted>
7.2461

> <Gold.Chemscore.Internal.Correction.Weighted>
   9.000000E+99

> <Gold.Protein.RotatedTorsions>
[ 6907 6896 6895 6894 ] final  -98.67 input  -60.11 | X-H torsion
[ 7974 7965 7964 7962 ] final -168.86 input  175.53 | X-H torsion
[ 8008 7997 7996 7995 ] final  -33.43 input   59.86 | X-H torsion
[ 10167 10162 10161 10158 ] final  -50.94 input  -65.29 | X-H torsion
[ 10718 10713 10712 10709 ] final  -21.46 input   66.30 | X-H torsion
[ 10763 10752 10751 10750 ] final  103.03 input  -60.55 | X-H torsion
[ 11005 11000 10999 10996 ] final  146.95 input  -57.11 | X-H torsion

> <Gold.Protein.ActiveResidues>
 VAL166  LYS551  ARG553  GLY616  TRP617  ASP618  TYR619  PRO620  LYS621  CYS622 
 ASP623  PHE694  ASN695  SER759  ASP760  ASP761  ALA762  ILE779  LEU786  VAL792 
 PHE793  MET794  SER795  GLU796  ALA797  LYS798  CYS799  TRP800  GLU811  SER814 

> <Gold.Protein.RotatedAtoms>
  150.7054  134.1159  159.4016 H   0  0  0  0  0  0  0  0  0  0  0  0  # atno 6907 bound_to 6896
  151.9146  135.0322  160.0526 H   0  0  0  0  0  0  0  0  0  0  0  0  # atno 6908 bound_to 6896
  152.2307  133.5021  159.5251 H   0  0  0  0  0  0  0  0  0  0  0  0  # atno 6909 bound_to 6896
  144.7195  140.2307  143.6304 H   0  0  0  0  0  0  0  0  0  0  0  0  # atno 7974 bound_to 7965
  154.4149  140.1711  156.1887 H   0  0  0  0  0  0  0  0  0  0  0  0  # atno 8008 bound_to 7997
  155.9622  140.3392  155.6477 H   0  0  0  0  0  0  0  0  0  0  0  0  # atno 8009 bound_to 7997
  155.6734  140.0714  157.2502 H   0  0  0  0  0  0  0  0  0  0  0  0  # atno 8010 bound_to 7997
  140.6613  143.2638  151.4432 H   0  0  0  0  0  0  0  0  0  0  0  0  # atno 10167 bound_to 10162
  156.5179  130.4625  149.6613 H   0  0  0  0  0  0  0  0  0  0  0  0  # atno 10718 bound_to 10713
  153.3473  135.3990  155.1619 H   0  0  0  0  0  0  0  0  0  0  0  0  # atno 10763 bound_to 10752
  154.8655  135.3648  154.5268 H   0  0  0  0  0  0  0  0  0  0  0  0  # atno 10764 bound_to 10752
  153.5717  135.7079  153.5562 H   0  0  0  0  0  0  0  0  0  0  0  0  # atno 10765 bound_to 10752
  140.0835  134.9083  157.1539 H   0  0  0  0  0  0  0  0  0  0  0  0  # atno 11005 bound_to 11000
  145.8413  139.2131  143.1825 LP  0  0  0  0  0  0  0  0  0  0  0  0  # atno 17320 bound_to 7965
  146.0343  140.8227  142.9860 LP  0  0  0  0  0  0  0  0  0  0  0  0  # atno 17321 bound_to 7965
  139.5847  144.1630  152.2014 LP  0  0  0  0  0  0  0  0  0  0  0  0  # atno 17342 bound_to 10162
  140.0966  144.5575  150.7017 LP  0  0  0  0  0  0  0  0  0  0  0  0  # atno 17343 bound_to 10162
  156.3178  130.7264  151.2169 LP  0  0  0  0  0  0  0  0  0  0  0  0  # atno 17370 bound_to 10713
  157.7441  131.0464  150.4891 LP  0  0  0  0  0  0  0  0  0  0  0  0  # atno 17371 bound_to 10713
  140.3453  134.2658  155.7206 LP  0  0  0  0  0  0  0  0  0  0  0  0  # atno 17394 bound_to 11000
  141.2055  133.7859  157.0230 LP  0  0  0  0  0  0  0  0  0  0  0  0  # atno 17395 bound_to 11000

$$$$
