AV-unprocessed.smi:2727|AV-procd|sdf|10524|dock1
  -GOLD-   2272014563D 1   1.00000     0.00000
 Structure written by MMmdl.
 39 40  0  0  0  0  0  0  0  0  2 V2000
  150.5834  136.2286  158.7709 O   0  0  0  0  0  0  0  0  0  0  0  0
  149.6617  137.0365  158.9079 C   0  0  0  0  0  0  0  0  0  0  0  0
  149.8920  138.3448  158.7350 N   0  0  0  0  0  0  0  0  0  0  0  0
  151.1810  138.9338  158.3843 C   0  0  0  0  0  0  0  0  0  0  0  0
  151.0864  140.4665  158.2453 C   0  0  0  0  0  0  0  0  0  0  0  0
  152.2181  141.2444  158.9472 C   0  0  0  0  0  0  0  0  0  0  0  0
  153.0212  140.6246  159.6468 O   0  0  0  0  0  0  0  0  0  0  0  0
  152.3047  142.5876  158.7810 N   0  0  0  0  0  0  0  0  0  0  0  0
  153.3064  143.3840  159.5008 C   0  0  0  0  0  0  0  0  0  0  0  0
  152.8502  143.7256  160.9341 C   0  0  0  0  0  0  0  0  0  0  0  0
  151.3379  143.9841  161.1172 C   0  0  0  0  0  0  0  0  0  0  0  0
  150.6684  144.8081  159.9990 C   0  0  0  0  0  0  0  0  0  0  0  0
  150.2348  143.9651  158.7804 C   0  0  0  0  0  0  0  0  0  0  0  0
  151.4014  143.3961  157.9505 C   0  0  0  0  0  0  0  0  0  0  0  0
  148.3803  136.7461  159.2275 N   0  5  0  0  0  0  0  0  0  0  0  0
  148.0901  136.2521  160.4420 C   0  0  0  0  0  0  0  0  0  0  0  0
  147.8838  136.9585  161.5551 N   0  0  0  0  0  0  0  0  0  0  0  0
  147.6272  136.0295  162.5515 C   0  0  0  0  0  0  0  0  0  0  0  0
  147.6977  134.7830  161.9917 C   0  0  0  0  0  0  0  0  0  0  0  0
  147.9930  134.9102  160.6625 O   0  0  0  0  0  0  0  0  0  0  0  0
  149.1150  138.9765  158.8615 H   0  0  0  0  0  0  0  0  0  0  0  0
  151.9274  138.6603  159.1320 H   0  0  0  0  0  0  0  0  0  0  0  0
  151.5169  138.5068  157.4383 H   0  0  0  0  0  0  0  0  0  0  0  0
  151.1005  140.7340  157.1885 H   0  0  0  0  0  0  0  0  0  0  0  0
  150.1162  140.7737  158.6334 H   0  0  0  0  0  0  0  0  0  0  0  0
  154.2699  142.8719  159.5261 H   0  0  0  0  0  0  0  0  0  0  0  0
  153.5061  144.3140  158.9678 H   0  0  0  0  0  0  0  0  0  0  0  0
  153.1388  142.9148  161.6042 H   0  0  0  0  0  0  0  0  0  0  0  0
  153.4095  144.5980  161.2730 H   0  0  0  0  0  0  0  0  0  0  0  0
  150.8135  143.0333  161.2249 H   0  0  0  0  0  0  0  0  0  0  0  0
  151.1986  144.4978  162.0689 H   0  0  0  0  0  0  0  0  0  0  0  0
  149.7725  145.2720  160.4129 H   0  0  0  0  0  0  0  0  0  0  0  0
  151.3137  145.6314  159.6905 H   0  0  0  0  0  0  0  0  0  0  0  0
  149.5860  143.1556  159.1159 H   0  0  0  0  0  0  0  0  0  0  0  0
  149.6187  144.5844  158.1277 H   0  0  0  0  0  0  0  0  0  0  0  0
  151.9473  144.2183  157.4865 H   0  0  0  0  0  0  0  0  0  0  0  0
  151.0176  142.8250  157.1052 H   0  0  0  0  0  0  0  0  0  0  0  0
  147.4190  136.3259  163.5688 H   0  0  0  0  0  0  0  0  0  0  0  0
  147.5746  133.7792  162.3696 H   0  0  0  0  0  0  0  0  0  0  0  0
  1  2  2  0  0  0  0
  2  3  1  0  0  0  0
  2 15  1  0  0  0  0
  3  4  1  0  0  0  0
  3 21  1  0  0  0  0
  4  5  1  0  0  0  0
  4 22  1  0  0  0  0
  4 23  1  0  0  0  0
  5  6  1  0  0  0  0
  5 24  1  0  0  0  0
  5 25  1  0  0  0  0
  6  7  2  0  0  0  0
  6  8  1  0  0  0  0
  8 14  1  0  0  0  0
  8  9  1  0  0  0  0
  9 10  1  0  0  0  0
  9 26  1  0  0  0  0
  9 27  1  0  0  0  0
 10 11  1  0  0  0  0
 10 28  1  0  0  0  0
 10 29  1  0  0  0  0
 11 12  1  0  0  0  0
 11 30  1  0  0  0  0
 11 31  1  0  0  0  0
 12 13  1  0  0  0  0
 12 32  1  0  0  0  0
 12 33  1  0  0  0  0
 13 14  1  0  0  0  0
 13 34  1  0  0  0  0
 13 35  1  0  0  0  0
 14 36  1  0  0  0  0
 14 37  1  0  0  0  0
 15 16  1  0  0  0  0
 16 20  1  0  0  0  0
 16 17  2  0  0  0  0
 17 18  1  0  0  0  0
 18 19  2  0  0  0  0
 18 38  1  0  0  0  0
 19 20  1  0  0  0  0
 19 39  1  0  0  0  0
M  CHG  1  15  -1
M  END
> <s_m_source_file>
AV-unprocessed.smi

> <i_m_source_file_index>
2727

> <i_lp_mmshare_version>
43012

> <i_f3d_flags>
0

> <s_epik_input>
bzFbY0hdW2NIXW5jMVtOSF1DKD1PKVtOSF1bQ0gyXVtDSDJdQyg9TylOMltDSDJdW0NIMl1bQ0gyXVtDSDJdW0NIMl1bQ0gyXTI=

> <s_epik_cmdline>
J2VwaWtfcHl0aG9uJywgJy1waCcsICc3LjAnLCAnLXRuJywgJzgnLCAnLW1hJywgJzIwMCcsICctbWV0YWxfYmluZGluZycsICctaW1hZScsICc8aW5maWxlLm1hZT4nLCAnLW9tYWUnLCAnPG91dGZpbGUubWFlPic=

> <r_lp_tautomer_probability>
0.785861

> <r_epik_Ionization_Penalty>
9.14426

> <r_epik_Ionization_Penalty_Charging>
6.65642

> <r_epik_Ionization_Penalty_Neutral>
2.48784

> <r_epik_State_Penalty>
6.67734

> <r_epik_Charging_Adjusted_Penalty>
13.3338

> <i_epik_Tot_Q>
-1

> <i_epik_Tot_abs_Q>
1

> <r_epik_Metal_State_Penalty>
2.58025

> <b_epik_Metal_Only>
1

> <s_lp_Force_Field>
OPLS_2005

> <r_lp_Energy>
17.6318

> <b_lp_Chiralities_Consistent>
1

> <s_lp_Variant>
AV-unprocessed.smi:2727-4

> <Gold.Version>
5.8.1

> <Gold.Id.Protein>
6NUR|6NUR_protein|mol2

> <Gold.PLP.Fitness>
44.0801

> <Gold.PLP.PLP>
-39.2688

> <Gold.PLP.part.hbond>
-3.0000

> <Gold.PLP.part.metal>
0.0000

> <Gold.PLP.part.buried>
-6.6373

> <Gold.PLP.part.nonpolar>
-29.2876

> <Gold.PLP.part.repulsive>
0.2121

> <Gold.PLP.ligand.clash>
0.0000

> <Gold.PLP.ligand.torsion>
1.7489

> <Gold.PLP.Chemscore.Hbond>
2.7520

> <Gold.PLP.Chemscore.CHOScore>
0.0000

> <Gold.PLP.Chemscore.Metal>
0.0000

> <Gold.Chemscore.Hbonds>
donor molecule, donor type, donor heavy atom, donor atom, acceptor molecule, acceptor atom, score
      P1  H  6896  6907       L1     1  0.99
      P1  H  6931  6943       L1    17  1.00
      P1  H  6934  6947       L1    17  0.30

> <Gold.PLP.Chemscore.Internal.Correction>
0.0532

> <Gold.Rescore>
     Score         DG    S(hbond)    S(metal)    S(lipo)     H(rot)  DE(clash)    DE(int)     intcor
     18.43     -20.20       2.51        0.00      90.90       1.67       0.04       1.72       ----

> <Gold.Chemscore.Fitness>
18.4284

> <Gold.Chemscore.DG>
-20.1977

> <Gold.Chemscore.ZeroCoef>
-5.4800

> <Gold.Chemscore.Hbond>
2.5056

> <Gold.Chemscore.Metal>
0.0000

> <Gold.Chemscore.Lipo>
90.9023

> <Gold.Chemscore.Internal_Hbond>
0.0000

> <Gold.Chemscore.DEClash>
0.0445

> <Gold.Chemscore.DEInternal>
1.7248

> <Gold.Chemscore.Rot>
1.6745

> <Gold.Chemscore.Internal.Correction>
   9.000000E+99

> <Gold.Chemscore.Hbonds>
donor molecule, donor type, donor heavy atom, donor atom, acceptor molecule, acceptor atom, score
      P1  H  6896  6907       L1     1  0.94
      P1  H  6931  6943       L1    17  0.90
      P1  H  6934  6947       L1    17  0.20

> <Gold.Chemscore.Hbond.Weighted>
-8.3688

> <Gold.Chemscore.Metal.Weighted>
-0.0000

> <Gold.Chemscore.Lipo.Weighted>
-10.6356

> <Gold.Chemscore.Internal_Hbond.Weighted>
0.0000

> <Gold.Chemscore.DEClash.Weighted>
0.0445

> <Gold.Chemscore.DEInternal.Weighted>
1.7248

> <Gold.Chemscore.Rot.Weighted>
4.2866

> <Gold.Chemscore.Internal.Correction.Weighted>
   9.000000E+99

> <Gold.Protein.RotatedTorsions>
[ 6907 6896 6895 6894 ] final  -38.04 input  -60.11 | X-H torsion
[ 7974 7965 7964 7962 ] final  -89.83 input  175.53 | X-H torsion
[ 8008 7997 7996 7995 ] final -132.12 input   59.86 | X-H torsion
[ 10167 10162 10161 10158 ] final -172.89 input  -65.29 | X-H torsion
[ 10718 10713 10712 10709 ] final -110.56 input   66.30 | X-H torsion
[ 10763 10752 10751 10750 ] final  173.78 input  -60.55 | X-H torsion
[ 11005 11000 10999 10996 ] final -144.12 input  -57.11 | X-H torsion

> <Gold.Protein.ActiveResidues>
 VAL166  LYS551  ARG553  GLY616  TRP617  ASP618  TYR619  PRO620  LYS621  CYS622 
 ASP623  PHE694  ASN695  SER759  ASP760  ASP761  ALA762  ILE779  LEU786  VAL792 
 PHE793  MET794  SER795  GLU796  ALA797  LYS798  CYS799  TRP800  GLU811  SER814 

> <Gold.Protein.RotatedAtoms>
  151.0073  134.9369  159.7987 H   0  0  0  0  0  0  0  0  0  0  0  0  # atno 6907 bound_to 6896
  152.5293  134.3075  159.9111 H   0  0  0  0  0  0  0  0  0  0  0  0  # atno 6908 bound_to 6896
  151.3081  133.4051  159.2679 H   0  0  0  0  0  0  0  0  0  0  0  0  # atno 6909 bound_to 6896
  145.4346  140.9557  143.2109 H   0  0  0  0  0  0  0  0  0  0  0  0  # atno 7974 bound_to 7965
  155.3237  140.0463  157.3040 H   0  0  0  0  0  0  0  0  0  0  0  0  # atno 8008 bound_to 7997
  154.5366  140.2274  155.8678 H   0  0  0  0  0  0  0  0  0  0  0  0  # atno 8009 bound_to 7997
  156.1841  140.3067  155.9210 H   0  0  0  0  0  0  0  0  0  0  0  0  # atno 8010 bound_to 7997
  139.5719  144.1622  152.1396 H   0  0  0  0  0  0  0  0  0  0  0  0  # atno 10167 bound_to 10162
  156.0598  130.5822  150.8254 H   0  0  0  0  0  0  0  0  0  0  0  0  # atno 10718 bound_to 10713
  154.4449  135.2763  155.1822 H   0  0  0  0  0  0  0  0  0  0  0  0  # atno 10763 bound_to 10752
  154.3673  135.6116  153.5725 H   0  0  0  0  0  0  0  0  0  0  0  0  # atno 10764 bound_to 10752
  152.9843  135.5849  154.4782 H   0  0  0  0  0  0  0  0  0  0  0  0  # atno 10765 bound_to 10752
  140.8057  134.2804  157.4961 H   0  0  0  0  0  0  0  0  0  0  0  0  # atno 11005 bound_to 11000
  144.8160  139.5875  143.7008 LP  0  0  0  0  0  0  0  0  0  0  0  0  # atno 17320 bound_to 7965
  146.2589  139.6364  142.9376 LP  0  0  0  0  0  0  0  0  0  0  0  0  # atno 17321 bound_to 7965
  140.1156  144.5418  150.6896 LP  0  0  0  0  0  0  0  0  0  0  0  0  # atno 17342 bound_to 10162
  140.7003  143.2430  151.4883 LP  0  0  0  0  0  0  0  0  0  0  0  0  # atno 17343 bound_to 10162
  157.5597  131.0945  150.9577 LP  0  0  0  0  0  0  0  0  0  0  0  0  # atno 17370 bound_to 10713
  156.9818  130.5530  149.5297 LP  0  0  0  0  0  0  0  0  0  0  0  0  # atno 17371 bound_to 10713
  139.8718  134.9454  156.3910 LP  0  0  0  0  0  0  0  0  0  0  0  0  # atno 17394 bound_to 11000
  140.9250  133.7619  155.9953 LP  0  0  0  0  0  0  0  0  0  0  0  0  # atno 17395 bound_to 11000

$$$$
