#       Name:                AV-unprocessed.smi:2365
#       Creating user name   scv26
#       Creation time:       Fri Mar 27 13:05:55 2020


#       File generated by GOLD software.
#

@<TRIPOS>MOLECULE
AV-unprocessed.smi:2365
    34    35     1
SMALL
NO_CHARGES


@<TRIPOS>ATOM
      1 ****        -3.2325   2.7372  -0.9009 C.3            1 S1                 0.0000
      2 ****        -3.0246   1.3468  -0.2919 C.3            1 S1                 0.0000
      3 ****        -2.8431   1.3493   1.2217 C.3            1 S1                 0.0000
      4 ****        -2.1777   0.0077   1.4538 C.3            1 S1                 0.0000
      5 ****        -1.3719  -0.2241   0.1624 C.3            1 S1                 0.0000
      6 ****         0.1441  -0.0738   0.3371 C.2            1 S1                 0.0000
      7 ****         0.5940   0.8400   1.0286 O.2            1 S1                 0.0000
      8 ****         0.8963  -0.9913  -0.2970 N.am           1 S1                 0.0000
      9 ****         2.3139  -1.1113  -0.3203 C.ar           1 S1                 0.0000
     10 ****         3.1911  -0.0116  -0.1494 C.ar           1 S1                 0.0000
     11 ****         4.5362  -0.1173  -0.1914 N.ar           1 S1                 0.0000
     12 ****         5.0692  -1.3359  -0.4151 C.ar           1 S1                 0.0000
     13 ****         4.2944  -2.4948  -0.6154 C.ar           1 S1                 0.0000
     14 ****         5.0691  -4.0117  -0.9067 Cl             1 S1                 0.0000
     15 ****         2.8878  -2.3793  -0.5726 C.ar           1 S1                 0.0000
     16 ****         1.8867  -3.7705  -0.8188 Cl             1 S1                 0.0000
     17 ****        -1.8116   0.7740  -0.7575 O.3            1 S1                 0.0000
     18 ****        -4.1471   3.1965  -0.5251 H              1 S1                 0.0000
     19 ****        -3.3108   2.6775  -1.9867 H              1 S1                 0.0000
     20 ****        -2.4008   3.4010  -0.6632 H              1 S1                 0.0000
     21 ****        -3.8499   0.6871  -0.5660 H              1 S1                 0.0000
     22 ****        -2.1725   2.1547   1.5248 H              1 S1                 0.0000
     23 ****        -3.7816   1.4606   1.7654 H              1 S1                 0.0000
     24 ****        -1.5767  -0.0008   2.3643 H              1 S1                 0.0000
     25 ****        -2.9351  -0.7702   1.5578 H              1 S1                 0.0000
     26 ****        -1.6077  -1.2096  -0.2430 H              1 S1                 0.0000
     27 ****         0.3900  -1.7345  -0.7567 H              1 S1                 0.0000
     28 ****         2.8240   0.9915   0.0037 H              1 S1                 0.0000
     29 ****         6.1478  -1.3868  -0.4414 H              1 S1                 0.0000
     30 ****        -0.0289   1.4824   1.4750 LP             1 S1                 0.0000
     31 ****         1.5823   0.9398   1.1438 LP             1 S1                 0.0000
     32 ****         5.1200   0.6840  -0.0606 LP             1 S1                 0.0000
     33 ****        -1.1144   1.4868  -0.8341 LP             1 S1                 0.0000
     34 ****        -1.9624   0.3575  -1.6541 LP             1 S1                 0.0000
@<TRIPOS>BOND
    1    1    2 1     
    2    1   18 1     
    3    1   19 1     
    4    1   20 1     
    5    2   17 1     
    6    2    3 1     
    7    2   21 1     
    8    3    4 1     
    9    3   22 1     
   10    3   23 1     
   11    4    5 1     
   12    4   24 1     
   13    4   25 1     
   14    5    6 1     
   15    5   17 1     
   16    5   26 1     
   17    6    7 2     
   18    6    8 am    
   19    8    9 1     
   20    8   27 1     
   21    9   15 ar    
   22    9   10 ar    
   23   10   11 ar    
   24   10   28 1     
   25   11   12 ar    
   26   12   13 ar    
   27   12   29 1     
   28   13   14 1     
   29   13   15 ar    
   30   15   16 1     
   31    7   30 1     
   32    7   31 1     
   33   11   32 1     
   34   17   33 1     
   35   17   34 1     
@<TRIPOS>SUBSTRUCTURE
      1 S1             1
@<TRIPOS>SET
LONE_PAIRS      STATIC     ATOMS    <user>   **** ""
5 30 31 32 33 34
DONOR_HYDROGENS      STATIC     ATOMS    <user>   **** ""
1 27
ATOM$BLUE        STATIC     ATOMS    COLORGROUP SYSTEM
5 30 31 32 33 34
ATOM$RED        STATIC     ATOMS    COLORGROUP SYSTEM
1 27
