AV-unprocessed.smi:2749|AV-procd|sdf|10588|dock6
  -GOLD-   2272015 43D 1   1.00000     0.00000
 Structure written by MMmdl.
 32 34  0  0  0  0  0  0  0  0  1 V2000
  149.2627  140.9401  157.9617 O   0  0  0  0  0  0  0  0  0  0  0  0
  149.2421  142.0412  157.4144 C   0  0  0  0  0  0  0  0  0  0  0  0
  149.9358  143.0817  157.9250 N   0  0  0  0  0  0  0  0  0  0  0  0
  150.7677  143.1921  159.0785 C   0  0  0  0  0  0  0  0  0  0  0  0
  150.9209  144.5113  159.5640 C   0  0  0  0  0  0  0  0  0  0  0  0
  151.7237  144.7485  160.6969 C   0  0  0  0  0  0  0  0  0  0  0  0
  152.3564  143.6568  161.3169 C   0  0  0  0  0  0  0  0  0  0  0  0
  153.1381  143.8346  162.4080 F   0  0  0  0  0  0  0  0  0  0  0  0
  152.1566  142.3753  160.7729 C   0  0  0  0  0  0  0  0  0  0  0  0
  151.3869  142.1480  159.6873 N   0  0  0  0  0  0  0  0  0  0  0  0
  148.5473  142.2843  156.2914 N   0  0  0  0  0  0  0  0  0  0  0  0
  147.7251  141.3251  155.5598 C   0  0  1  0  0  0  0  0  0  0  0  0
  146.8613  142.0097  154.4955 C   0  0  0  0  0  0  0  0  0  0  0  0
  147.3411  141.3225  153.2099 C   0  0  2  0  0  0  0  0  0  0  0  0
  146.8994  139.8532  153.1395 C   0  0  0  0  0  0  0  0  0  0  0  0
  147.8127  139.1998  154.1773 C   0  0  0  0  0  0  0  0  0  0  0  0
  148.6059  140.4065  154.6958 C   0  0  1  0  0  0  0  0  0  0  0  0
  148.7176  141.1672  153.5039 O   0  0  0  0  0  0  0  0  0  0  0  0
  149.8658  143.9305  157.3830 H   0  0  0  0  0  0  0  0  0  0  0  0
  150.4283  145.3395  159.0752 H   0  0  0  0  0  0  0  0  0  0  0  0
  151.8511  145.7495  161.0814 H   0  0  0  0  0  0  0  0  0  0  0  0
  152.6259  141.5103  161.2183 H   0  0  0  0  0  0  0  0  0  0  0  0
  148.5906  143.2200  155.9121 H   0  0  0  0  0  0  0  0  0  0  0  0
  147.1121  140.7303  156.2392 H   0  0  0  0  0  0  0  0  0  0  0  0
  145.7934  141.8703  154.6666 H   0  0  0  0  0  0  0  0  0  0  0  0
  147.0570  143.0821  154.4473 H   0  0  0  0  0  0  0  0  0  0  0  0
  147.1366  141.8904  152.3019 H   0  0  0  0  0  0  0  0  0  0  0  0
  145.8404  139.7278  153.3674 H   0  0  0  0  0  0  0  0  0  0  0  0
  147.0879  139.4371  152.1493 H   0  0  0  0  0  0  0  0  0  0  0  0
  147.2620  138.6887  154.9678 H   0  0  0  0  0  0  0  0  0  0  0  0
  148.4759  138.4770  153.7008 H   0  0  0  0  0  0  0  0  0  0  0  0
  149.5598  140.1380  155.1513 H   0  0  0  0  0  0  0  0  0  0  0  0
  1  2  2  0  0  0  0
  2  3  1  0  0  0  0
  2 11  1  0  0  0  0
  3  4  1  0  0  0  0
  3 19  1  0  0  0  0
  4 10  1  0  0  0  0
  4  5  2  0  0  0  0
  5  6  1  0  0  0  0
  5 20  1  0  0  0  0
  6  7  2  0  0  0  0
  6 21  1  0  0  0  0
  7  8  1  0  0  0  0
  7  9  1  0  0  0  0
  9 10  2  0  0  0  0
  9 22  1  0  0  0  0
 11 12  1  0  0  0  0
 11 23  1  0  0  0  0
 12 17  1  0  0  0  0
 12 13  1  0  0  0  0
 12 24  1  0  0  0  0
 13 14  1  0  0  0  0
 13 25  1  0  0  0  0
 13 26  1  0  0  0  0
 14 18  1  0  0  0  0
 14 15  1  0  0  0  0
 14 27  1  0  0  0  0
 15 16  1  0  0  0  0
 15 28  1  0  0  0  0
 15 29  1  0  0  0  0
 16 17  1  0  0  0  0
 16 30  1  0  0  0  0
 16 31  1  0  0  0  0
 17 18  1  0  0  0  0
 17 32  1  0  0  0  0
M  END
> <s_m_source_file>
AV-unprocessed.smi

> <i_m_source_file_index>
2749

> <i_lp_mmshare_version>
43012

> <i_f3d_flags>
0

> <s_epik_input>
W0NIMl0xW0NIMl1bQ0BIXShPMilbQ0BASF0oW0NIMl1bQ0BASF0xMilbTkhdQyg9TylbTkhdYzNbY0hdW2NIXWMoRilbY0hdbjM=

> <s_epik_cmdline>
J2VwaWtfcHl0aG9uJywgJy1waCcsICc3LjAnLCAnLXRuJywgJzgnLCAnLW1hJywgJzIwMCcsICctbWV0YWxfYmluZGluZycsICctaW1hZScsICc8aW5maWxlLm1hZT4nLCAnLW9tYWUnLCAnPG91dGZpbGUubWFlPic=

> <r_lp_tautomer_probability>
1

> <r_epik_Ionization_Penalty>
3.37159e-05

> <r_epik_Ionization_Penalty_Charging>
0

> <r_epik_Ionization_Penalty_Neutral>
3.37159e-05

> <r_epik_State_Penalty>
-0

> <r_epik_Charging_Adjusted_Penalty>
0

> <i_epik_Tot_Q>
0

> <i_epik_Tot_abs_Q>
0

> <r_epik_Metal_State_Penalty>
-0

> <b_epik_Metal_Only>
0

> <s_lp_Force_Field>
OPLS_2005

> <r_lp_Energy>
42.1361

> <b_lp_Chiralities_Consistent>
1

> <s_lp_Variant>
AV-unprocessed.smi:2749-4

> <Gold.Version>
5.8.1

> <Gold.Id.Protein>
6NUR|6NUR_protein|mol2

> <Gold.PLP.Fitness>
37.9144

> <Gold.PLP.PLP>
-30.5379

> <Gold.PLP.part.hbond>
-3.9741

> <Gold.PLP.part.metal>
0.0000

> <Gold.PLP.part.buried>
-4.4449

> <Gold.PLP.part.nonpolar>
-25.1162

> <Gold.PLP.part.repulsive>
3.2331

> <Gold.PLP.ligand.clash>
0.0000

> <Gold.PLP.ligand.torsion>
0.3035

> <Gold.PLP.Chemscore.Hbond>
2.6512

> <Gold.PLP.Chemscore.CHOScore>
0.0000

> <Gold.PLP.Chemscore.Metal>
0.0000

> <Gold.Chemscore.Hbonds>
donor molecule, donor type, donor heavy atom, donor atom, acceptor molecule, acceptor atom, score
      L1  H     3    19       P1  8028  0.68
      L1  H    11    23       P1  8028  1.00
      P1  H  8011  8017       L1    18  0.93

> <Gold.PLP.Chemscore.Internal.Correction>
0.0299

> <Gold.Rescore>
     Score         DG    S(hbond)    S(metal)    S(lipo)     H(rot)  DE(clash)    DE(int)     intcor
     16.75     -21.23       2.63        0.00      81.35       1.00       3.05       1.44       ----

> <Gold.Chemscore.Fitness>
16.7479

> <Gold.Chemscore.DG>
-21.2348

> <Gold.Chemscore.ZeroCoef>
-5.4800

> <Gold.Chemscore.Hbond>
2.6338

> <Gold.Chemscore.Metal>
0.0000

> <Gold.Chemscore.Lipo>
81.3508

> <Gold.Chemscore.Internal_Hbond>
0.0000

> <Gold.Chemscore.DEClash>
3.0460

> <Gold.Chemscore.DEInternal>
1.4410

> <Gold.Chemscore.Rot>
1.0000

> <Gold.Chemscore.Internal.Correction>
   9.000000E+99

> <Gold.Chemscore.Hbonds>
donor molecule, donor type, donor heavy atom, donor atom, acceptor molecule, acceptor atom, score
      L1  H     3    19       P1  8028  0.46
      L1  H    11    23       P1  8028  0.93
      P1  H  8011  8017       L1    18  0.60

> <Gold.Chemscore.Hbond.Weighted>
-8.7968

> <Gold.Chemscore.Metal.Weighted>
-0.0000

> <Gold.Chemscore.Lipo.Weighted>
-9.5180

> <Gold.Chemscore.Internal_Hbond.Weighted>
0.0000

> <Gold.Chemscore.DEClash.Weighted>
3.0460

> <Gold.Chemscore.DEInternal.Weighted>
1.4410

> <Gold.Chemscore.Rot.Weighted>
2.5600

> <Gold.Chemscore.Internal.Correction.Weighted>
   9.000000E+99

> <Gold.Protein.RotatedTorsions>
[ 6907 6896 6895 6894 ] final   32.11 input  -60.11 | X-H torsion
[ 7974 7965 7964 7962 ] final  110.04 input  175.53 | X-H torsion
[ 8008 7997 7996 7995 ] final   87.29 input   59.86 | X-H torsion
[ 10167 10162 10161 10158 ] final -123.93 input  -65.29 | X-H torsion
[ 10718 10713 10712 10709 ] final  -15.56 input   66.30 | X-H torsion
[ 10763 10752 10751 10750 ] final    3.13 input  -60.55 | X-H torsion
[ 11005 11000 10999 10996 ] final  -73.37 input  -57.11 | X-H torsion

> <Gold.Protein.ActiveResidues>
 VAL166  LYS551  ARG553  GLY616  TRP617  ASP618  TYR619  PRO620  LYS621  CYS622 
 ASP623  PHE694  ASN695  SER759  ASP760  ASP761  ALA762  ILE779  LEU786  VAL792 
 PHE793  MET794  SER795  GLU796  ALA797  LYS798  CYS799  TRP800  GLU811  SER814 

> <Gold.Protein.RotatedAtoms>
  152.0699  134.9540  160.0574 H   0  0  0  0  0  0  0  0  0  0  0  0  # atno 6907 bound_to 6896
  152.0870  133.4176  159.4535 H   0  0  0  0  0  0  0  0  0  0  0  0  # atno 6908 bound_to 6896
  150.6836  134.2835  159.4680 H   0  0  0  0  0  0  0  0  0  0  0  0  # atno 6909 bound_to 6896
  145.2600  139.2706  143.4022 H   0  0  0  0  0  0  0  0  0  0  0  0  # atno 7974 bound_to 7965
  155.9735  140.3383  155.6597 H   0  0  0  0  0  0  0  0  0  0  0  0  # atno 8008 bound_to 7997
  155.6643  140.0719  157.2561 H   0  0  0  0  0  0  0  0  0  0  0  0  # atno 8009 bound_to 7997
  154.4172  140.1703  156.1798 H   0  0  0  0  0  0  0  0  0  0  0  0  # atno 8010 bound_to 7997
  139.9982  143.5568  152.2314 H   0  0  0  0  0  0  0  0  0  0  0  0  # atno 10167 bound_to 10162
  156.6000  130.4821  149.6243 H   0  0  0  0  0  0  0  0  0  0  0  0  # atno 10718 bound_to 10713
  153.2870  135.6945  153.7330 H   0  0  0  0  0  0  0  0  0  0  0  0  # atno 10763 bound_to 10752
  153.6295  135.3412  155.3038 H   0  0  0  0  0  0  0  0  0  0  0  0  # atno 10764 bound_to 10752
  154.8512  135.4405  154.1941 H   0  0  0  0  0  0  0  0  0  0  0  0  # atno 10765 bound_to 10752
  141.1622  133.6876  156.7201 H   0  0  0  0  0  0  0  0  0  0  0  0  # atno 11005 bound_to 11000
  146.3278  140.3015  142.8621 LP  0  0  0  0  0  0  0  0  0  0  0  0  # atno 17320 bound_to 7965
  144.9426  140.8095  143.5621 LP  0  0  0  0  0  0  0  0  0  0  0  0  # atno 17321 bound_to 7965
  139.6291  144.7641  151.2575 LP  0  0  0  0  0  0  0  0  0  0  0  0  # atno 17342 bound_to 10162
  140.7429  143.6512  150.8247 LP  0  0  0  0  0  0  0  0  0  0  0  0  # atno 17343 bound_to 10162
  156.2477  130.6889  151.1615 LP  0  0  0  0  0  0  0  0  0  0  0  0  # atno 17370 bound_to 10713
  157.7282  131.0633  150.5831 LP  0  0  0  0  0  0  0  0  0  0  0  0  # atno 17371 bound_to 10713
  140.2822  134.8307  157.3943 LP  0  0  0  0  0  0  0  0  0  0  0  0  # atno 17394 bound_to 11000
  140.1423  134.4956  155.8022 LP  0  0  0  0  0  0  0  0  0  0  0  0  # atno 17395 bound_to 11000

$$$$
