AV-unprocessed.smi:160|AV-procd|sdf|1354|dock2
  -GOLD-   2262019 63D 1   1.00000     0.00000
 Structure written by MMmdl.
 29 30  0  0  0  0  0  0  0  0  1 V2000
  153.4409  138.0397  156.2024 N   0  0  0  0  0  0  0  0  0  0  0  0
  152.4841  138.2494  155.2923 C   0  0  0  0  0  0  0  0  0  0  0  0
  152.4025  137.5883  154.2584 O   0  0  0  0  0  0  0  0  0  0  0  0
  151.5016  139.3448  155.6021 C   0  0  0  0  0  0  0  0  0  0  0  0
  151.4408  139.9080  156.8447 N   0  0  0  0  0  0  0  0  0  0  0  0
  150.4680  140.7836  156.6279 C   0  0  0  0  0  0  0  0  0  0  0  0
  149.9707  140.7565  155.3871 N   0  0  0  0  0  0  0  0  0  0  0  0
  148.9021  141.6031  154.7720 C   0  0  1  0  0  0  0  0  0  0  0  0
  148.7138  141.1711  153.4567 O   0  0  0  0  0  0  0  0  0  0  0  0
  147.3717  140.7467  153.2207 C   0  0  1  0  0  0  0  0  0  0  0  0
  147.3265  139.2028  153.1905 C   0  0  0  0  0  0  0  0  0  0  0  0
  147.8176  138.7343  151.9527 O   0  0  0  0  0  0  0  0  0  0  0  0
  146.5770  141.4163  154.3548 C   0  0  1  0  0  0  0  0  0  0  0  0
  145.4020  140.7120  154.7078 O   0  0  0  0  0  0  0  0  0  0  0  0
  147.5623  141.4742  155.5132 C   0  0  2  0  0  0  0  0  0  0  0  0
  147.2890  142.6170  156.2995 O   0  0  0  0  0  0  0  0  0  0  0  0
  150.6521  139.8156  154.6877 N   0  0  0  0  0  0  0  0  0  0  0  0
  149.3089  142.6157  154.7695 H   0  0  0  0  0  0  0  0  0  0  0  0
  147.0261  141.1319  152.2603 H   0  0  0  0  0  0  0  0  0  0  0  0
  146.3074  142.4257  154.0391 H   0  0  0  0  0  0  0  0  0  0  0  0
  147.5297  140.5622  156.1107 H   0  0  0  0  0  0  0  0  0  0  0  0
  154.1301  137.3179  156.0512 H   0  0  0  0  0  0  0  0  0  0  0  0
  153.4667  138.6071  157.0372 H   0  0  0  0  0  0  0  0  0  0  0  0
  150.1098  141.4597  157.3905 H   0  0  0  0  0  0  0  0  0  0  0  0
  147.8775  138.7530  154.0130 H   0  0  0  0  0  0  0  0  0  0  0  0
  146.3004  138.8440  153.2657 H   0  0  0  0  0  0  0  0  0  0  0  0
  148.2936  137.9318  152.1025 H   0  0  0  0  0  0  0  0  0  0  0  0
  144.9223  140.5131  153.9183 H   0  0  0  0  0  0  0  0  0  0  0  0
  147.8680  143.3134  156.0300 H   0  0  0  0  0  0  0  0  0  0  0  0
  1  2  1  0  0  0  0
  1 22  1  0  0  0  0
  1 23  1  0  0  0  0
  2  3  2  0  0  0  0
  2  4  1  0  0  0  0
  4 17  2  0  0  0  0
  4  5  1  0  0  0  0
  5  6  2  0  0  0  0
  6  7  1  0  0  0  0
  6 24  1  0  0  0  0
  7  8  1  0  0  0  0
  7 17  1  0  0  0  0
  8 18  1  0  0  0  0
  8 15  1  0  0  0  0
  8  9  1  0  0  0  0
  9 10  1  0  0  0  0
 10 19  1  0  0  0  0
 10 11  1  0  0  0  0
 10 13  1  0  0  0  0
 11 12  1  0  0  0  0
 11 25  1  0  0  0  0
 11 26  1  0  0  0  0
 12 27  1  0  0  0  0
 13 20  1  0  0  0  0
 13 14  1  0  0  0  0
 13 15  1  0  0  0  0
 14 28  1  0  0  0  0
 15 21  1  0  0  0  0
 15 16  1  0  0  0  0
 16 29  1  0  0  0  0
M  END
> <s_m_source_file>
AV-unprocessed.smi

> <i_m_source_file_index>
160

> <i_lp_mmshare_version>
43012

> <i_f3d_flags>
0

> <s_epik_input>
W05IMl1DKD1PKWMxbltjSF1uKG4xKVtDQEBIXTJPW0NASF0oW0NIMl1bT0hdKVtDQEBIXShbT0hdKVtDQEhdMltPSF0=

> <s_epik_cmdline>
J2VwaWtfcHl0aG9uJywgJy1waCcsICc3LjAnLCAnLXRuJywgJzgnLCAnLW1hJywgJzIwMCcsICctbWV0YWxfYmluZGluZycsICctaW1hZScsICc8aW5maWxlLm1hZT4nLCAnLW9tYWUnLCAnPG91dGZpbGUubWFlPic=

> <r_lp_tautomer_probability>
1

> <r_epik_Ionization_Penalty>
1.06932e-05

> <r_epik_Ionization_Penalty_Charging>
0

> <r_epik_Ionization_Penalty_Neutral>
1.06932e-05

> <r_epik_State_Penalty>
-0

> <r_epik_Charging_Adjusted_Penalty>
0

> <i_epik_Tot_Q>
0

> <i_epik_Tot_abs_Q>
0

> <r_epik_Metal_State_Penalty>
0.0142097

> <b_epik_Metal_Only>
0

> <s_epik_Chemistry_Notes>
This compound contains an acetal/aminal-like group ( X-CH(R)-Y where X, Y are N, S, or O) that may be acid/base labile, releasing an aldehyde.

> <s_lp_Force_Field>
OPLS_2005

> <r_lp_Energy>
39.4321

> <b_lp_Chiralities_Consistent>
1

> <s_lp_Variant>
AV-unprocessed.smi:160-12

> <Gold.Version>
5.8.1

> <Gold.Id.Protein>
6NUR|6NUR_protein|mol2

> <Gold.PLP.Fitness>
43.6577

> <Gold.PLP.PLP>
-27.1941

> <Gold.PLP.part.hbond>
-7.2698

> <Gold.PLP.part.metal>
0.0000

> <Gold.PLP.part.buried>
-2.4217

> <Gold.PLP.part.nonpolar>
-20.5140

> <Gold.PLP.part.repulsive>
3.8651

> <Gold.PLP.ligand.clash>
0.0000

> <Gold.PLP.ligand.torsion>
0.1984

> <Gold.PLP.Chemscore.Hbond>
5.6160

> <Gold.PLP.Chemscore.CHOScore>
0.0000

> <Gold.PLP.Chemscore.Metal>
0.0000

> <Gold.Chemscore.Hbonds>
donor molecule, donor type, donor heavy atom, donor atom, acceptor molecule, acceptor atom, score
      L1  H    12    27       P1  7948  1.00
      L1  H    14    28       P1 10175  1.00
      L1  H    16    29       P1  8028  0.95
      P1  H  7989  7998       L1    17  1.00
      P1  H  8011  8017       L1     9  0.94
      P1  H 10752 10765       L1     3  0.59

> <Gold.PLP.Chemscore.Internal.Correction>
0.0124

> <Gold.Rescore>
     Score         DG    S(hbond)    S(metal)    S(lipo)     H(rot)  DE(clash)    DE(int)     intcor
      8.12     -10.32       3.70        0.00      24.50       4.06       2.00       0.20       ----

> <Gold.Chemscore.Fitness>
8.1219

> <Gold.Chemscore.DG>
-10.3180

> <Gold.Chemscore.ZeroCoef>
-5.4800

> <Gold.Chemscore.Hbond>
3.7022

> <Gold.Chemscore.Metal>
0.0000

> <Gold.Chemscore.Lipo>
24.4993

> <Gold.Chemscore.Internal_Hbond>
0.0000

> <Gold.Chemscore.DEClash>
1.9984

> <Gold.Chemscore.DEInternal>
0.1978

> <Gold.Chemscore.Rot>
4.0600

> <Gold.Chemscore.Internal.Correction>
   9.000000E+99

> <Gold.Chemscore.Hbonds>
donor molecule, donor type, donor heavy atom, donor atom, acceptor molecule, acceptor atom, score
      L1  H    12    27       P1  7948  1.00
      L1  H    14    28       P1 10175  1.00
      L1  H    16    29       P1  8028  0.22
      P1  H  7989  7998       L1    17  0.23
      P1  H  8011  8017       L1     9  0.49
      P1  H 10752 10765       L1     3  0.56

> <Gold.Chemscore.Hbond.Weighted>
-12.3652

> <Gold.Chemscore.Metal.Weighted>
-0.0000

> <Gold.Chemscore.Lipo.Weighted>
-2.8664

> <Gold.Chemscore.Internal_Hbond.Weighted>
0.0000

> <Gold.Chemscore.DEClash.Weighted>
1.9984

> <Gold.Chemscore.DEInternal.Weighted>
0.1978

> <Gold.Chemscore.Rot.Weighted>
10.3936

> <Gold.Chemscore.Internal.Correction.Weighted>
   9.000000E+99

> <Gold.Protein.RotatedTorsions>
[ 6907 6896 6895 6894 ] final   21.30 input  -60.11 | X-H torsion
[ 7974 7965 7964 7962 ] final  101.50 input  175.53 | X-H torsion
[ 8008 7997 7996 7995 ] final   52.96 input   59.86 | X-H torsion
[ 10167 10162 10161 10158 ] final    1.82 input  -65.29 | X-H torsion
[ 10718 10713 10712 10709 ] final   72.35 input   66.30 | X-H torsion
[ 10763 10752 10751 10750 ] final  132.32 input  -60.55 | X-H torsion
[ 11005 11000 10999 10996 ] final  -27.25 input  -57.11 | X-H torsion

> <Gold.Protein.ActiveResidues>
 VAL166  LYS551  ARG553  GLY616  TRP617  ASP618  TYR619  PRO620  LYS621  CYS622 
 ASP623  PHE694  ASN695  SER759  ASP760  ASP761  ALA762  ILE779  LEU786  VAL792 
 PHE793  MET794  SER795  GLU796  ALA797  LYS798  CYS799  TRP800  GLU811  SER814 

> <Gold.Protein.RotatedAtoms>
  151.9097  135.0344  160.0513 H   0  0  0  0  0  0  0  0  0  0  0  0  # atno 6907 bound_to 6896
  152.2289  133.5038  159.5213 H   0  0  0  0  0  0  0  0  0  0  0  0  # atno 6908 bound_to 6896
  150.7020  134.1159  159.4060 H   0  0  0  0  0  0  0  0  0  0  0  0  # atno 6909 bound_to 6896
  145.3715  139.2397  143.3452 H   0  0  0  0  0  0  0  0  0  0  0  0  # atno 7974 bound_to 7965
  155.4604  140.3461  155.4312 H   0  0  0  0  0  0  0  0  0  0  0  0  # atno 8008 bound_to 7997
  156.1164  140.1475  156.9296 H   0  0  0  0  0  0  0  0  0  0  0  0  # atno 8009 bound_to 7997
  154.4792  140.0875  156.7315 H   0  0  0  0  0  0  0  0  0  0  0  0  # atno 8010 bound_to 7997
  140.6665  143.7166  150.7837 H   0  0  0  0  0  0  0  0  0  0  0  0  # atno 10167 bound_to 10162
  157.6496  130.9574  150.0916 H   0  0  0  0  0  0  0  0  0  0  0  0  # atno 10718 bound_to 10713
  153.7887  135.3158  155.3375 H   0  0  0  0  0  0  0  0  0  0  0  0  # atno 10763 bound_to 10752
  154.8134  135.4652  154.0580 H   0  0  0  0  0  0  0  0  0  0  0  0  # atno 10764 bound_to 10752
  153.1891  135.6905  153.8462 H   0  0  0  0  0  0  0  0  0  0  0  0  # atno 10765 bound_to 10752
  140.9103  133.7465  156.0661 H   0  0  0  0  0  0  0  0  0  0  0  0  # atno 11005 bound_to 11000
  146.2883  140.4367  142.8749 LP  0  0  0  0  0  0  0  0  0  0  0  0  # atno 17320 bound_to 7965
  144.8573  140.7089  143.6130 LP  0  0  0  0  0  0  0  0  0  0  0  0  # atno 17321 bound_to 7965
  140.0844  143.4937  152.2513 LP  0  0  0  0  0  0  0  0  0  0  0  0  # atno 17342 bound_to 10162
  139.5915  144.7552  151.3388 LP  0  0  0  0  0  0  0  0  0  0  0  0  # atno 17343 bound_to 10162
  156.1864  130.3652  149.8967 LP  0  0  0  0  0  0  0  0  0  0  0  0  # atno 17370 bound_to 10713
  156.6907  130.8894  151.3588 LP  0  0  0  0  0  0  0  0  0  0  0  0  # atno 17371 bound_to 10713
  140.8119  134.3390  157.5409 LP  0  0  0  0  0  0  0  0  0  0  0  0  # atno 17394 bound_to 11000
  139.8756  134.9259  156.3386 LP  0  0  0  0  0  0  0  0  0  0  0  0  # atno 17395 bound_to 11000

$$$$
