AV-unprocessed.smi:422|AV-procd|sdf|2536|dock8
  -GOLD-   2262022493D 1   1.00000     0.00000
 Structure written by MMmdl.
 43 45  0  0  0  0  0  0  0  0  1 V2000
  154.2638  134.1612  163.0575 C   0  0  0  0  0  0  0  0  0  0  0  0
  154.5584  135.4457  162.4341 N   0  0  0  0  0  0  0  0  0  0  0  0
  154.6433  135.7069  161.1085 C   0  0  0  0  0  0  0  0  0  0  0  0
  154.4773  134.8967  160.1968 O   0  0  0  0  0  0  0  0  0  0  0  0
  154.9249  137.0222  160.9585 N   0  0  0  0  0  0  0  0  0  0  0  0
  155.0798  137.7375  159.6950 C   0  0  0  0  0  0  0  0  0  0  0  0
  153.7569  138.4056  159.2604 C   0  0  2  0  0  0  0  0  0  0  0  0
  153.9896  139.1578  158.0873 O   0  0  0  0  0  0  0  0  0  0  0  0
  153.2122  139.3662  160.3278 C   0  0  0  0  0  0  0  0  0  0  0  0
  154.1303  140.4369  160.4703 O   0  0  0  0  0  0  0  0  0  0  0  0
  153.6703  141.4609  161.3337 C   0  0  0  0  0  0  0  0  0  0  0  0
  153.0414  142.5942  160.5472 C   0  0  0  0  0  0  0  0  0  0  0  0
  152.9321  142.5101  159.1429 C   0  0  0  0  0  0  0  0  0  0  0  0
  152.3424  143.5618  158.4144 C   0  0  0  0  0  0  0  0  0  0  0  0
  151.8619  144.7020  159.0865 C   0  0  0  0  0  0  0  0  0  0  0  0
  151.9732  144.7915  160.4874 C   0  0  0  0  0  0  0  0  0  0  0  0
  152.5633  143.7414  161.2175 C   0  0  0  0  0  0  0  0  0  0  0  0
  152.6682  143.8393  162.5647 F   0  0  0  0  0  0  0  0  0  0  0  0
  154.9933  137.6258  162.2226 C   0  0  0  0  0  0  0  0  0  0  0  0
  155.2279  138.9588  162.6026 C   0  0  0  0  0  0  0  0  0  0  0  0
  155.2257  139.2467  163.9872 C   0  0  0  0  0  0  0  0  0  0  0  0
  154.9935  138.2225  164.9422 C   0  0  0  0  0  0  0  0  0  0  0  0
  154.7571  136.8891  164.5322 C   0  0  0  0  0  0  0  0  0  0  0  0
  154.7648  136.6318  163.1505 C   0  0  0  0  0  0  0  0  0  0  0  0
  154.3177  133.3384  162.3432 H   0  0  0  0  0  0  0  0  0  0  0  0
  153.2614  134.1740  163.4862 H   0  0  0  0  0  0  0  0  0  0  0  0
  154.9757  133.9553  163.8572 H   0  0  0  0  0  0  0  0  0  0  0  0
  155.8573  138.4895  159.8341 H   0  0  0  0  0  0  0  0  0  0  0  0
  155.4663  137.0731  158.9199 H   0  0  0  0  0  0  0  0  0  0  0  0
  152.9934  137.6576  159.0407 H   0  0  0  0  0  0  0  0  0  0  0  0
  153.3027  138.9655  157.4670 H   0  0  0  0  0  0  0  0  0  0  0  0
  152.2256  139.7358  160.0430 H   0  0  0  0  0  0  0  0  0  0  0  0
  153.1093  138.8528  161.2854 H   0  0  0  0  0  0  0  0  0  0  0  0
  152.9246  141.0626  162.0233 H   0  0  0  0  0  0  0  0  0  0  0  0
  154.4983  141.8376  161.9361 H   0  0  0  0  0  0  0  0  0  0  0  0
  153.2967  141.6386  158.6192 H   0  0  0  0  0  0  0  0  0  0  0  0
  152.2585  143.4932  157.3397 H   0  0  0  0  0  0  0  0  0  0  0  0
  151.4096  145.5081  158.5280 H   0  0  0  0  0  0  0  0  0  0  0  0
  151.6062  145.6669  161.0026 H   0  0  0  0  0  0  0  0  0  0  0  0
  155.4008  139.7351  161.8731 H   0  0  0  0  0  0  0  0  0  0  0  0
  155.4018  140.2588  164.3210 H   0  0  0  0  0  0  0  0  0  0  0  0
  154.9953  138.4642  165.9946 H   0  0  0  0  0  0  0  0  0  0  0  0
  154.5762  136.1051  165.2525 H   0  0  0  0  0  0  0  0  0  0  0  0
  1  2  1  0  0  0  0
  1 25  1  0  0  0  0
  1 26  1  0  0  0  0
  1 27  1  0  0  0  0
  2 24  1  0  0  0  0
  2  3  1  0  0  0  0
  3  4  2  0  0  0  0
  3  5  1  0  0  0  0
  5  6  1  0  0  0  0
  5 19  1  0  0  0  0
  6  7  1  0  0  0  0
  6 28  1  0  0  0  0
  6 29  1  0  0  0  0
  7  8  1  0  0  0  0
  7  9  1  0  0  0  0
  7 30  1  0  0  0  0
  8 31  1  0  0  0  0
  9 10  1  0  0  0  0
  9 32  1  0  0  0  0
  9 33  1  0  0  0  0
 10 11  1  0  0  0  0
 11 12  1  0  0  0  0
 11 34  1  0  0  0  0
 11 35  1  0  0  0  0
 12 17  1  0  0  0  0
 12 13  2  0  0  0  0
 13 14  1  0  0  0  0
 13 36  1  0  0  0  0
 14 15  2  0  0  0  0
 14 37  1  0  0  0  0
 15 16  1  0  0  0  0
 15 38  1  0  0  0  0
 16 17  2  0  0  0  0
 16 39  1  0  0  0  0
 17 18  1  0  0  0  0
 19 24  2  0  0  0  0
 19 20  1  0  0  0  0
 20 21  2  0  0  0  0
 20 40  1  0  0  0  0
 21 22  1  0  0  0  0
 21 41  1  0  0  0  0
 22 23  2  0  0  0  0
 22 42  1  0  0  0  0
 23 24  1  0  0  0  0
 23 43  1  0  0  0  0
M  END
> <s_m_source_file>
AV-unprocessed.smi

> <i_m_source_file_index>
422

> <i_lp_mmshare_version>
43012

> <i_f3d_flags>
0

> <s_epik_input>
W2NIXTFbY0hdW2NIXVtjSF1jKGMxMiluKFtDSDNdKWMoPU8pbjJbQ0gyXVtDQEhdKFtPSF0pW0NIMl1PW0NIMl1jM1tjSF1bY0hdW2NIXVtjSF1jM0Y=

> <s_epik_cmdline>
J2VwaWtfcHl0aG9uJywgJy1waCcsICc3LjAnLCAnLXRuJywgJzgnLCAnLW1hJywgJzIwMCcsICctbWV0YWxfYmluZGluZycsICctaW1hZScsICc8aW5maWxlLm1hZT4nLCAnLW9tYWUnLCAnPG91dGZpbGUubWFlPic=

> <r_lp_tautomer_probability>
1

> <r_epik_Ionization_Penalty>
1.0795e-06

> <r_epik_Ionization_Penalty_Charging>
2.82452e-09

> <r_epik_Ionization_Penalty_Neutral>
1.07667e-06

> <r_epik_State_Penalty>
-0

> <r_epik_Charging_Adjusted_Penalty>
2.82452e-09

> <i_epik_Tot_Q>
0

> <i_epik_Tot_abs_Q>
0

> <r_epik_Metal_State_Penalty>
-0

> <b_epik_Metal_Only>
0

> <s_lp_Force_Field>
OPLS_2005

> <r_lp_Energy>
45.4687

> <b_lp_Chiralities_Consistent>
1

> <s_lp_Variant>
AV-unprocessed.smi:422-1

> <Gold.Version>
5.8.1

> <Gold.Id.Protein>
6NUR|6NUR_protein|mol2

> <Gold.PLP.Fitness>
54.6858

> <Gold.PLP.PLP>
-49.9037

> <Gold.PLP.part.hbond>
-2.0000

> <Gold.PLP.part.metal>
0.0000

> <Gold.PLP.part.buried>
-5.2262

> <Gold.PLP.part.nonpolar>
-43.8535

> <Gold.PLP.part.repulsive>
0.0000

> <Gold.PLP.ligand.clash>
0.0000

> <Gold.PLP.ligand.torsion>
0.6259

> <Gold.PLP.Chemscore.Hbond>
2.0000

> <Gold.PLP.Chemscore.CHOScore>
0.0000

> <Gold.PLP.Chemscore.Metal>
0.0000

> <Gold.Chemscore.Hbonds>
donor molecule, donor type, donor heavy atom, donor atom, acceptor molecule, acceptor atom, score
      P1  H  6896  6908       L1     4  1.00
      P1  H  7997  8009       L1     8  0.63

> <Gold.PLP.Chemscore.Internal.Correction>
0.0339

> <Gold.Rescore>
     Score         DG    S(hbond)    S(metal)    S(lipo)     H(rot)  DE(clash)    DE(int)     intcor
     18.31     -20.36       1.94        0.00     123.73       2.38       0.14       1.91       ----

> <Gold.Chemscore.Fitness>
18.3063

> <Gold.Chemscore.DG>
-20.3569

> <Gold.Chemscore.ZeroCoef>
-5.4800

> <Gold.Chemscore.Hbond>
1.9449

> <Gold.Chemscore.Metal>
0.0000

> <Gold.Chemscore.Lipo>
123.7263

> <Gold.Chemscore.Internal_Hbond>
0.0000

> <Gold.Chemscore.DEClash>
0.1356

> <Gold.Chemscore.DEInternal>
1.9150

> <Gold.Chemscore.Rot>
2.3809

> <Gold.Chemscore.Internal.Correction>
   9.000000E+99

> <Gold.Chemscore.Hbonds>
donor molecule, donor type, donor heavy atom, donor atom, acceptor molecule, acceptor atom, score
      P1  H  6896  6908       L1     4  0.80
      P1  H  7997  8009       L1     8  0.08

> <Gold.Chemscore.Hbond.Weighted>
-6.4960

> <Gold.Chemscore.Metal.Weighted>
-0.0000

> <Gold.Chemscore.Lipo.Weighted>
-14.4760

> <Gold.Chemscore.Internal_Hbond.Weighted>
0.0000

> <Gold.Chemscore.DEClash.Weighted>
0.1356

> <Gold.Chemscore.DEInternal.Weighted>
1.9150

> <Gold.Chemscore.Rot.Weighted>
6.0951

> <Gold.Chemscore.Internal.Correction.Weighted>
   9.000000E+99

> <Gold.Protein.RotatedTorsions>
[ 6907 6896 6895 6894 ] final  -45.64 input  -60.11 | X-H torsion
[ 7974 7965 7964 7962 ] final -177.02 input  175.53 | X-H torsion
[ 8008 7997 7996 7995 ] final  141.64 input   59.86 | X-H torsion
[ 10167 10162 10161 10158 ] final  -63.22 input  -65.29 | X-H torsion
[ 10718 10713 10712 10709 ] final   71.42 input   66.30 | X-H torsion
[ 10763 10752 10751 10750 ] final -109.72 input  -60.55 | X-H torsion
[ 11005 11000 10999 10996 ] final   54.95 input  -57.11 | X-H torsion

> <Gold.Protein.ActiveResidues>
 VAL166  LYS551  ARG553  GLY616  TRP617  ASP618  TYR619  PRO620  LYS621  CYS622 
 ASP623  PHE694  ASN695  SER759  ASP760  ASP761  ALA762  ILE779  LEU786  VAL792 
 PHE793  MET794  SER795  GLU796  ALA797  LYS798  CYS799  TRP800  GLU811  SER814 

> <Gold.Protein.RotatedAtoms>
  150.9197  134.8615  159.7480 H   0  0  0  0  0  0  0  0  0  0  0  0  # atno 6907 bound_to 6896
  152.4986  134.4236  159.9499 H   0  0  0  0  0  0  0  0  0  0  0  0  # atno 6908 bound_to 6896
  151.4271  133.3641  159.2799 H   0  0  0  0  0  0  0  0  0  0  0  0  # atno 6909 bound_to 6896
  144.7127  140.1082  143.6412 H   0  0  0  0  0  0  0  0  0  0  0  0  # atno 7974 bound_to 7965
  156.2962  140.2310  156.4597 H   0  0  0  0  0  0  0  0  0  0  0  0  # atno 8008 bound_to 7997
  154.8029  140.0447  157.1307 H   0  0  0  0  0  0  0  0  0  0  0  0  # atno 8009 bound_to 7997
  154.9512  140.3042  155.5077 H   0  0  0  0  0  0  0  0  0  0  0  0  # atno 8010 bound_to 7997
  140.5886  143.2338  151.6189 H   0  0  0  0  0  0  0  0  0  0  0  0  # atno 10167 bound_to 10162
  157.6450  130.9527  150.0786 H   0  0  0  0  0  0  0  0  0  0  0  0  # atno 10718 bound_to 10713
  154.8209  135.4590  154.0776 H   0  0  0  0  0  0  0  0  0  0  0  0  # atno 10763 bound_to 10752
  153.2130  135.6884  153.8097 H   0  0  0  0  0  0  0  0  0  0  0  0  # atno 10764 bound_to 10752
  153.7541  135.3293  155.3303 H   0  0  0  0  0  0  0  0  0  0  0  0  # atno 10765 bound_to 10752
  140.0645  134.5555  155.9114 H   0  0  0  0  0  0  0  0  0  0  0  0  # atno 11005 bound_to 11000
  145.9478  139.2712  143.1230 LP  0  0  0  0  0  0  0  0  0  0  0  0  # atno 17320 bound_to 7965
  145.9356  140.9017  143.0334 LP  0  0  0  0  0  0  0  0  0  0  0  0  # atno 17321 bound_to 7965
  139.5213  144.3197  152.0921 LP  0  0  0  0  0  0  0  0  0  0  0  0  # atno 17342 bound_to 10162
  140.2358  144.4321  150.6281 LP  0  0  0  0  0  0  0  0  0  0  0  0  # atno 17343 bound_to 10162
  156.1769  130.3648  149.9088 LP  0  0  0  0  0  0  0  0  0  0  0  0  # atno 17370 bound_to 10713
  156.7050  130.8948  151.3603 LP  0  0  0  0  0  0  0  0  0  0  0  0  # atno 17371 bound_to 10713
  141.1987  133.6603  156.5806 LP  0  0  0  0  0  0  0  0  0  0  0  0  # atno 17394 bound_to 11000
  140.3719  134.7598  157.4604 LP  0  0  0  0  0  0  0  0  0  0  0  0  # atno 17395 bound_to 11000

$$$$
