AV-unprocessed.smi:240|AV-procd|sdf|1837|dock9
  -GOLD-   2262020443D 1   1.00000     0.00000
 Structure written by MMmdl.
 55 59  0  0  0  0  0  0  0  0  1 V2000
  150.2651  139.6640  153.5764 O   0  0  0  0  0  0  0  0  0  0  0  0
  149.3609  139.7080  154.6664 C   0  0  1  0  0  0  0  0  0  0  0  0
  148.1370  140.5274  154.2524 C   0  0  0  0  0  0  0  0  0  0  0  0
  147.2029  139.5407  153.5449 C   0  0  0  0  0  0  0  0  0  0  0  0
  147.7285  138.1374  153.8779 C   0  0  0  0  0  0  0  0  0  0  0  0
  148.7942  138.3078  154.9817 C   0  0  1  0  0  0  0  0  0  0  0  0
  149.8585  137.1680  155.1353 C   0  0  1  0  0  0  0  0  0  0  0  0
  151.0738  137.6749  155.9578 C   0  0  0  0  0  0  0  0  0  0  0  0
  152.0415  136.6488  156.1392 O   0  0  0  0  0  0  0  0  0  0  0  0
  151.5145  135.5548  156.8725 C   0  0  0  0  0  0  0  0  0  0  0  0
  150.3613  134.9459  156.0697 C   0  0  0  0  0  0  0  0  0  0  0  0
  149.3416  135.9537  155.7927 N   0  0  0  0  0  0  0  0  0  0  0  0
  148.2625  135.3579  155.2420 C   0  0  0  0  0  0  0  0  0  0  0  0
  147.0496  135.8883  155.5339 N   0  0  0  0  0  0  0  0  0  0  0  0
  145.9440  135.3541  155.0065 C   0  0  0  0  0  0  0  0  0  0  0  0
  145.8323  134.3103  154.1819 N   0  0  0  0  0  0  0  0  0  0  0  0
  147.0514  133.7660  153.9009 C   0  0  0  0  0  0  0  0  0  0  0  0
  148.3079  134.2158  154.3929 C   0  0  0  0  0  0  0  0  0  0  0  0
  149.3274  133.4106  153.8997 N   0  0  0  0  0  0  0  0  0  0  0  0
  148.7092  132.5421  153.1468 C   0  0  0  0  0  0  0  0  0  0  0  0
  147.3422  132.6916  153.0789 N   0  0  0  0  0  0  0  0  0  0  0  0
  146.4109  131.8802  152.3110 C   0  0  0  0  0  0  0  0  0  0  0  0
  145.8231  132.6021  151.0716 C   0  0  2  0  0  0  0  0  0  0  0  0
  146.8454  132.7695  150.1064 O   0  0  0  0  0  0  0  0  0  0  0  0
  145.1952  133.9637  151.3763 C   0  0  0  0  0  0  0  0  0  0  0  0
  143.7212  133.6232  151.5328 C   0  0  0  0  0  0  0  0  0  0  0  0
  143.5197  132.6787  150.4961 O   0  0  0  0  0  0  0  0  0  0  0  0
  144.6479  131.8113  150.4607 C   0  0  0  0  0  0  0  0  0  0  0  0
  149.7821  139.8140  152.7781 H   0  0  0  0  0  0  0  0  0  0  0  0
  149.8597  140.1577  155.5256 H   0  0  0  0  0  0  0  0  0  0  0  0
  147.6422  140.9071  155.1472 H   0  0  0  0  0  0  0  0  0  0  0  0
  148.3877  141.3895  153.6327 H   0  0  0  0  0  0  0  0  0  0  0  0
  146.1754  139.6727  153.8861 H   0  0  0  0  0  0  0  0  0  0  0  0
  147.2116  139.7000  152.4660 H   0  0  0  0  0  0  0  0  0  0  0  0
  146.9092  137.4869  154.1808 H   0  0  0  0  0  0  0  0  0  0  0  0
  148.1810  137.7059  152.9846 H   0  0  0  0  0  0  0  0  0  0  0  0
  148.2644  138.3930  155.9323 H   0  0  0  0  0  0  0  0  0  0  0  0
  150.2228  136.8916  154.1454 H   0  0  0  0  0  0  0  0  0  0  0  0
  151.5792  138.4946  155.4495 H   0  0  0  0  0  0  0  0  0  0  0  0
  150.7539  138.0561  156.9292 H   0  0  0  0  0  0  0  0  0  0  0  0
  152.3003  134.8151  157.0253 H   0  0  0  0  0  0  0  0  0  0  0  0
  151.1805  135.8797  157.8591 H   0  0  0  0  0  0  0  0  0  0  0  0
  150.7435  134.5379  155.1330 H   0  0  0  0  0  0  0  0  0  0  0  0
  149.9264  134.1157  156.6288 H   0  0  0  0  0  0  0  0  0  0  0  0
  145.0165  135.8348  155.2805 H   0  0  0  0  0  0  0  0  0  0  0  0
  149.2381  131.7684  152.6092 H   0  0  0  0  0  0  0  0  0  0  0  0
  146.9247  130.9666  152.0083 H   0  0  0  0  0  0  0  0  0  0  0  0
  145.6056  131.5676  152.9771 H   0  0  0  0  0  0  0  0  0  0  0  0
  147.5578  132.1868  150.3214 H   0  0  0  0  0  0  0  0  0  0  0  0
  145.6057  134.4728  152.2469 H   0  0  0  0  0  0  0  0  0  0  0  0
  145.3068  134.6388  150.5261 H   0  0  0  0  0  0  0  0  0  0  0  0
  143.5246  133.1616  152.5018 H   0  0  0  0  0  0  0  0  0  0  0  0
  143.0717  134.4916  151.4208 H   0  0  0  0  0  0  0  0  0  0  0  0
  144.8348  131.4875  149.4359 H   0  0  0  0  0  0  0  0  0  0  0  0
  144.4209  130.9189  151.0461 H   0  0  0  0  0  0  0  0  0  0  0  0
  1  2  1  0  0  0  0
  1 29  1  0  0  0  0
  2  6  1  0  0  0  0
  2  3  1  0  0  0  0
  2 30  1  0  0  0  0
  3  4  1  0  0  0  0
  3 31  1  0  0  0  0
  3 32  1  0  0  0  0
  4  5  1  0  0  0  0
  4 33  1  0  0  0  0
  4 34  1  0  0  0  0
  5  6  1  0  0  0  0
  5 35  1  0  0  0  0
  5 36  1  0  0  0  0
  6  7  1  0  0  0  0
  6 37  1  0  0  0  0
  7 12  1  0  0  0  0
  7  8  1  0  0  0  0
  7 38  1  0  0  0  0
  8  9  1  0  0  0  0
  8 39  1  0  0  0  0
  8 40  1  0  0  0  0
  9 10  1  0  0  0  0
 10 11  1  0  0  0  0
 10 41  1  0  0  0  0
 10 42  1  0  0  0  0
 11 12  1  0  0  0  0
 11 43  1  0  0  0  0
 11 44  1  0  0  0  0
 12 13  1  0  0  0  0
 13 18  1  0  0  0  0
 13 14  2  0  0  0  0
 14 15  1  0  0  0  0
 15 16  2  0  0  0  0
 15 45  1  0  0  0  0
 16 17  1  0  0  0  0
 17 21  1  0  0  0  0
 17 18  2  0  0  0  0
 18 19  1  0  0  0  0
 19 20  2  0  0  0  0
 20 21  1  0  0  0  0
 20 46  1  0  0  0  0
 21 22  1  0  0  0  0
 22 23  1  0  0  0  0
 22 47  1  0  0  0  0
 22 48  1  0  0  0  0
 23 28  1  0  0  0  0
 23 24  1  0  0  0  0
 23 25  1  0  0  0  0
 24 49  1  0  0  0  0
 25 26  1  0  0  0  0
 25 50  1  0  0  0  0
 25 51  1  0  0  0  0
 26 27  1  0  0  0  0
 26 52  1  0  0  0  0
 26 53  1  0  0  0  0
 27 28  1  0  0  0  0
 28 54  1  0  0  0  0
 28 55  1  0  0  0  0
M  END
> <s_m_source_file>
AV-unprocessed.smi

> <i_m_source_file_index>
240

> <i_lp_mmshare_version>
43012

> <i_f3d_flags>
0

> <s_epik_input>
W09IXVtDQEBIXTFbQ0gyXVtDSDJdW0NIMl1bQ0BIXTFbQ0BASF0yW0NIMl1PW0NIMl1bQ0gyXU4yYyhuW2NIXW4zKWMoYzM0KW5bY0hdbjRbQ0gyXVtDQEBdNShbT0hdKVtDSDJdW0NIMl1PW0NIMl01

> <s_epik_cmdline>
J2VwaWtfcHl0aG9uJywgJy1waCcsICc3LjAnLCAnLXRuJywgJzgnLCAnLW1hJywgJzIwMCcsICctbWV0YWxfYmluZGluZycsICctaW1hZScsICc8aW5maWxlLm1hZT4nLCAnLW9tYWUnLCAnPG91dGZpbGUubWFlPic=

> <r_lp_tautomer_probability>
1

> <r_epik_Ionization_Penalty>
0.000130618

> <r_epik_Ionization_Penalty_Charging>
0

> <r_epik_Ionization_Penalty_Neutral>
0.000130618

> <r_epik_State_Penalty>
-0

> <r_epik_Charging_Adjusted_Penalty>
0

> <i_epik_Tot_Q>
0

> <i_epik_Tot_abs_Q>
0

> <r_epik_Metal_State_Penalty>
-0

> <b_epik_Metal_Only>
0

> <s_lp_Force_Field>
OPLS_2005

> <r_lp_Energy>
64.0442

> <b_lp_Chiralities_Consistent>
1

> <s_lp_Variant>
AV-unprocessed.smi:240-14

> <Gold.Version>
5.8.1

> <Gold.Id.Protein>
6NUR|6NUR_protein|mol2

> <Gold.PLP.Fitness>
45.8906

> <Gold.PLP.PLP>
-33.7749

> <Gold.PLP.part.hbond>
-4.7259

> <Gold.PLP.part.metal>
0.0000

> <Gold.PLP.part.buried>
-4.1641

> <Gold.PLP.part.nonpolar>
-27.1886

> <Gold.PLP.part.repulsive>
0.5931

> <Gold.PLP.ligand.clash>
0.0097

> <Gold.PLP.ligand.torsion>
1.1326

> <Gold.PLP.Chemscore.Hbond>
3.7120

> <Gold.PLP.Chemscore.CHOScore>
1.0000

> <Gold.PLP.Chemscore.Metal>
0.0000

> <Gold.Chemscore.Hbonds>
donor molecule, donor type, donor heavy atom, donor atom, acceptor molecule, acceptor atom, score
      L1  H     1    29       P1  7957  1.00
      L1  H    24    49       P1 10747  1.00
      P1  H  7989  7998       L1     1  0.83
      P1  H 10752 10763       L1     9  0.80
      L1  C    20    46       P1 10747  1.00

> <Gold.PLP.Chemscore.Internal.Correction>
0.2546

> <Gold.Rescore>
     Score         DG    S(hbond)    S(metal)    S(lipo)     H(rot)  DE(clash)    DE(int)     intcor
     11.10     -16.18       2.51        0.00      85.46       3.00       0.34       4.74       ----

> <Gold.Chemscore.Fitness>
11.0986

> <Gold.Chemscore.DG>
-16.1812

> <Gold.Chemscore.ZeroCoef>
-5.4800

> <Gold.Chemscore.Hbond>
2.5126

> <Gold.Chemscore.Metal>
0.0000

> <Gold.Chemscore.Lipo>
85.4621

> <Gold.Chemscore.Internal_Hbond>
0.0000

> <Gold.Chemscore.DEClash>
0.3444

> <Gold.Chemscore.DEInternal>
4.7382

> <Gold.Chemscore.Rot>
3.0039

> <Gold.Chemscore.Internal.Correction>
   9.000000E+99

> <Gold.Chemscore.Hbonds>
donor molecule, donor type, donor heavy atom, donor atom, acceptor molecule, acceptor atom, score
      L1  H     1    29       P1  7957  0.97
      L1  H    24    49       P1 10747  0.99
      P1  H  7989  7998       L1     1  0.32
      P1  H 10752 10763       L1     9  0.13

> <Gold.Chemscore.Hbond.Weighted>
-8.3920

> <Gold.Chemscore.Metal.Weighted>
-0.0000

> <Gold.Chemscore.Lipo.Weighted>
-9.9991

> <Gold.Chemscore.Internal_Hbond.Weighted>
0.0000

> <Gold.Chemscore.DEClash.Weighted>
0.3444

> <Gold.Chemscore.DEInternal.Weighted>
4.7382

> <Gold.Chemscore.Rot.Weighted>
7.6899

> <Gold.Chemscore.Internal.Correction.Weighted>
   9.000000E+99

> <Gold.Protein.RotatedTorsions>
[ 6907 6896 6895 6894 ] final   -2.24 input  -60.11 | X-H torsion
[ 7974 7965 7964 7962 ] final   19.07 input  175.53 | X-H torsion
[ 8008 7997 7996 7995 ] final   32.99 input   59.86 | X-H torsion
[ 10167 10162 10161 10158 ] final  144.69 input  -65.29 | X-H torsion
[ 10718 10713 10712 10709 ] final  -69.72 input   66.30 | X-H torsion
[ 10763 10752 10751 10750 ] final   66.98 input  -60.55 | X-H torsion
[ 11005 11000 10999 10996 ] final  131.45 input  -57.11 | X-H torsion

> <Gold.Protein.ActiveResidues>
 VAL166  LYS551  ARG553  GLY616  TRP617  ASP618  TYR619  PRO620  LYS621  CYS622 
 ASP623  PHE694  ASN695  SER759  ASP760  ASP761  ALA762  ILE779  LEU786  VAL792 
 PHE793  MET794  SER795  GLU796  ALA797  LYS798  CYS799  TRP800  GLU811  SER814 

> <Gold.Protein.RotatedAtoms>
  151.5330  135.1068  159.9907 H   0  0  0  0  0  0  0  0  0  0  0  0  # atno 6907 bound_to 6896
  152.4570  133.7739  159.6824 H   0  0  0  0  0  0  0  0  0  0  0  0  # atno 6908 bound_to 6896
  150.8517  133.7711  159.3048 H   0  0  0  0  0  0  0  0  0  0  0  0  # atno 6909 bound_to 6896
  146.2162  139.8366  142.8649 H   0  0  0  0  0  0  0  0  0  0  0  0  # atno 7974 bound_to 7965
  155.1314  140.3257  155.4473 H   0  0  0  0  0  0  0  0  0  0  0  0  # atno 8008 bound_to 7997
  156.2633  140.2009  156.6382 H   0  0  0  0  0  0  0  0  0  0  0  0  # atno 8009 bound_to 7997
  154.6609  140.0547  157.0048 H   0  0  0  0  0  0  0  0  0  0  0  0  # atno 8010 bound_to 7997
  139.4941  144.5954  151.6594 H   0  0  0  0  0  0  0  0  0  0  0  0  # atno 10167 bound_to 10162
  156.0441  130.4318  150.2190 H   0  0  0  0  0  0  0  0  0  0  0  0  # atno 10718 bound_to 10713
  153.0165  135.5301  154.6908 H   0  0  0  0  0  0  0  0  0  0  0  0  # atno 10763 bound_to 10752
  154.6043  135.2871  155.0504 H   0  0  0  0  0  0  0  0  0  0  0  0  # atno 10764 bound_to 10752
  154.1549  135.6557  153.5024 H   0  0  0  0  0  0  0  0  0  0  0  0  # atno 10765 bound_to 10752
  139.9731  134.9571  156.9440 H   0  0  0  0  0  0  0  0  0  0  0  0  # atno 11005 bound_to 11000
  145.2942  141.0176  143.3645 LP  0  0  0  0  0  0  0  0  0  0  0  0  # atno 17320 bound_to 7965
  144.9054  139.4596  143.6612 LP  0  0  0  0  0  0  0  0  0  0  0  0  # atno 17321 bound_to 7965
  140.5591  144.0299  150.6161 LP  0  0  0  0  0  0  0  0  0  0  0  0  # atno 17342 bound_to 10162
  140.3379  143.3037  152.0619 LP  0  0  0  0  0  0  0  0  0  0  0  0  # atno 17343 bound_to 10162
  157.0282  130.9999  151.3320 LP  0  0  0  0  0  0  0  0  0  0  0  0  # atno 17370 bound_to 10713
  157.5296  130.8050  149.7902 LP  0  0  0  0  0  0  0  0  0  0  0  0  # atno 17371 bound_to 10713
  140.5252  134.0868  155.7302 LP  0  0  0  0  0  0  0  0  0  0  0  0  # atno 17394 bound_to 11000
  141.1410  133.9139  157.2327 LP  0  0  0  0  0  0  0  0  0  0  0  0  # atno 17395 bound_to 11000

$$$$
