AV-unprocessed.smi:1443|AV-procd|sdf|5878|dock9
  -GOLD-   22720 5553D 1   1.00000     0.00000
 Structure written by MMmdl.
 27 28  0  0  0  0  0  0  0  0  1 V2000
  152.8936  130.9289  156.1853 C   0  0  0  0  0  0  0  0  0  0  0  0
  151.6653  131.4863  157.3957 S   0  0  0  0  0  0  0  0  0  0  0  0
  150.7949  132.8199  156.6369 C   0  0  0  0  0  0  0  0  0  0  0  0
  150.7651  134.0304  157.2229 N   0  0  0  0  0  0  0  0  0  0  0  0
  149.8688  135.0794  156.2478 S   0  0  0  0  0  0  0  0  0  0  0  0
  149.5871  133.8124  155.0911 C   0  0  0  0  0  0  0  0  0  0  0  0
  148.8386  134.0274  153.8977 N   0  0  0  0  0  0  0  0  0  0  0  0
  148.0248  133.2107  153.1952 C   0  0  0  0  0  0  0  0  0  0  0  0
  147.8217  132.0539  153.5600 O   0  0  0  0  0  0  0  0  0  0  0  0
  147.4642  133.7367  152.0950 N   0  0  0  0  0  0  0  0  0  0  0  0
  146.5542  133.0691  151.2205 C   0  0  1  0  0  0  0  0  0  0  0  0
  145.1633  132.7960  151.7509 C   0  0  0  0  0  0  0  0  0  0  0  0
  145.3605  133.8330  150.6774 C   0  0  1  0  0  0  0  0  0  0  0  0
  145.1439  135.3038  150.9725 C   0  0  0  0  0  0  0  0  0  0  0  0
  150.1543  132.6644  155.4638 N   0  0  0  0  0  0  0  0  0  0  0  0
  153.5070  130.1351  156.6110 H   0  0  0  0  0  0  0  0  0  0  0  0
  153.5460  131.7516  155.8921 H   0  0  0  0  0  0  0  0  0  0  0  0
  152.3963  130.5408  155.2971 H   0  0  0  0  0  0  0  0  0  0  0  0
  148.9618  134.9427  153.4894 H   0  0  0  0  0  0  0  0  0  0  0  0
  147.6907  134.6945  151.8680 H   0  0  0  0  0  0  0  0  0  0  0  0
  146.9684  132.3026  150.5670 H   0  0  0  0  0  0  0  0  0  0  0  0
  144.6920  131.8586  151.4626 H   0  0  0  0  0  0  0  0  0  0  0  0
  144.9257  133.1444  152.7545 H   0  0  0  0  0  0  0  0  0  0  0  0
  145.0431  133.5470  149.6764 H   0  0  0  0  0  0  0  0  0  0  0  0
  145.4161  135.5421  151.9999 H   0  0  0  0  0  0  0  0  0  0  0  0
  144.0954  135.5633  150.8252 H   0  0  0  0  0  0  0  0  0  0  0  0
  145.7506  135.9129  150.3025 H   0  0  0  0  0  0  0  0  0  0  0  0
  1  2  1  0  0  0  0
  1 16  1  0  0  0  0
  1 17  1  0  0  0  0
  1 18  1  0  0  0  0
  2  3  1  0  0  0  0
  3 15  1  0  0  0  0
  3  4  2  0  0  0  0
  4  5  1  0  0  0  0
  5  6  1  0  0  0  0
  6  7  1  0  0  0  0
  6 15  2  0  0  0  0
  7  8  1  0  0  0  0
  7 19  1  0  0  0  0
  8  9  2  0  0  0  0
  8 10  1  0  0  0  0
 10 11  1  0  0  0  0
 10 20  1  0  0  0  0
 11 13  1  0  0  0  0
 11 12  1  0  0  0  0
 11 21  1  0  0  0  0
 12 13  1  0  0  0  0
 12 22  1  0  0  0  0
 12 23  1  0  0  0  0
 13 14  1  0  0  0  0
 13 24  1  0  0  0  0
 14 25  1  0  0  0  0
 14 26  1  0  0  0  0
 14 27  1  0  0  0  0
M  END
> <s_m_source_file>
AV-unprocessed.smi

> <i_m_source_file_index>
1443

> <i_lp_mmshare_version>
43012

> <i_f3d_flags>
0

> <s_epik_input>
W0NIM11TYzFuc2MobjEpW05IXUMoPU8pW05IXVtDQEBIXTJbQ0gyXVtDQEhdMltDSDNd

> <s_epik_cmdline>
J2VwaWtfcHl0aG9uJywgJy1waCcsICc3LjAnLCAnLXRuJywgJzgnLCAnLW1hJywgJzIwMCcsICctbWV0YWxfYmluZGluZycsICctaW1hZScsICc8aW5maWxlLm1hZT4nLCAnLW9tYWUnLCAnPG91dGZpbGUubWFlPic=

> <r_lp_tautomer_probability>
1

> <r_epik_Ionization_Penalty>
2.74658e-05

> <r_epik_Ionization_Penalty_Charging>
0

> <r_epik_Ionization_Penalty_Neutral>
2.74658e-05

> <r_epik_State_Penalty>
-0

> <r_epik_Charging_Adjusted_Penalty>
0

> <i_epik_Tot_Q>
0

> <i_epik_Tot_abs_Q>
0

> <r_epik_Metal_State_Penalty>
-0

> <b_epik_Metal_Only>
0

> <s_lp_Force_Field>
OPLS_2005

> <r_lp_Energy>
21.211

> <b_lp_Chiralities_Consistent>
1

> <s_lp_Variant>
AV-unprocessed.smi:1443-2

> <Gold.Version>
5.8.1

> <Gold.Id.Protein>
6NUR|6NUR_protein|mol2

> <Gold.PLP.Fitness>
31.1654

> <Gold.PLP.PLP>
-24.6913

> <Gold.PLP.part.hbond>
-3.0000

> <Gold.PLP.part.metal>
0.0000

> <Gold.PLP.part.buried>
-4.2887

> <Gold.PLP.part.nonpolar>
-18.2232

> <Gold.PLP.part.repulsive>
0.1304

> <Gold.PLP.ligand.clash>
0.0000

> <Gold.PLP.ligand.torsion>
0.4131

> <Gold.PLP.Chemscore.Hbond>
2.4212

> <Gold.PLP.Chemscore.CHOScore>
0.0000

> <Gold.PLP.Chemscore.Metal>
0.0000

> <Gold.Chemscore.Hbonds>
donor molecule, donor type, donor heavy atom, donor atom, acceptor molecule, acceptor atom, score
      L1  H     7    19       P1  7948  0.98
      L1  H    10    20       P1  7948  1.00
      P1  H  6896  6908       L1     4  0.57

> <Gold.PLP.Chemscore.Internal.Correction>
0.0368

> <Gold.Rescore>
     Score         DG    S(hbond)    S(metal)    S(lipo)     H(rot)  DE(clash)    DE(int)     intcor
     12.85     -13.41       2.10        0.00      35.75       1.27       0.00       0.56       ----

> <Gold.Chemscore.Fitness>
12.8519

> <Gold.Chemscore.DG>
-13.4091

> <Gold.Chemscore.ZeroCoef>
-5.4800

> <Gold.Chemscore.Hbond>
2.0951

> <Gold.Chemscore.Metal>
0.0000

> <Gold.Chemscore.Lipo>
35.7479

> <Gold.Chemscore.Internal_Hbond>
0.0000

> <Gold.Chemscore.DEClash>
0.0015

> <Gold.Chemscore.DEInternal>
0.5558

> <Gold.Chemscore.Rot>
1.2699

> <Gold.Chemscore.Internal.Correction>
   9.000000E+99

> <Gold.Chemscore.Hbonds>
donor molecule, donor type, donor heavy atom, donor atom, acceptor molecule, acceptor atom, score
      L1  H     7    19       P1  7948  0.31
      L1  H    10    20       P1  7948  0.42
      P1  H  6896  6908       L1     4  0.24

> <Gold.Chemscore.Hbond.Weighted>
-6.9975

> <Gold.Chemscore.Metal.Weighted>
-0.0000

> <Gold.Chemscore.Lipo.Weighted>
-4.1825

> <Gold.Chemscore.Internal_Hbond.Weighted>
0.0000

> <Gold.Chemscore.DEClash.Weighted>
0.0015

> <Gold.Chemscore.DEInternal.Weighted>
0.5558

> <Gold.Chemscore.Rot.Weighted>
3.2509

> <Gold.Chemscore.Internal.Correction.Weighted>
   9.000000E+99

> <Gold.Protein.RotatedTorsions>
[ 6907 6896 6895 6894 ] final  102.90 input  -60.11 | X-H torsion
[ 7974 7965 7964 7962 ] final  -46.62 input  175.53 | X-H torsion
[ 8008 7997 7996 7995 ] final -105.94 input   59.86 | X-H torsion
[ 10167 10162 10161 10158 ] final  158.44 input  -65.29 | X-H torsion
[ 10718 10713 10712 10709 ] final  -30.28 input   66.30 | X-H torsion
[ 10763 10752 10751 10750 ] final  -36.94 input  -60.55 | X-H torsion
[ 11005 11000 10999 10996 ] final -137.99 input  -57.11 | X-H torsion

> <Gold.Protein.ActiveResidues>
 VAL166  LYS551  ARG553  GLY616  TRP617  ASP618  TYR619  PRO620  LYS621  CYS622 
 ASP623  PHE694  ASN695  SER759  ASP760  ASP761  ALA762  ILE779  LEU786  VAL792 
 PHE793  MET794  SER795  GLU796  ALA797  LYS798  CYS799  TRP800  GLU811  SER814 

> <Gold.Protein.RotatedAtoms>
  152.5311  133.9905  159.7848 H   0  0  0  0  0  0  0  0  0  0  0  0  # atno 6907 bound_to 6896
  151.0142  133.5928  159.2686 H   0  0  0  0  0  0  0  0  0  0  0  0  # atno 6908 bound_to 6896
  151.2992  135.0770  159.9285 H   0  0  0  0  0  0  0  0  0  0  0  0  # atno 6909 bound_to 6896
  145.9701  140.7392  142.9415 H   0  0  0  0  0  0  0  0  0  0  0  0  # atno 7974 bound_to 7965
  154.9072  140.0411  157.1926 H   0  0  0  0  0  0  0  0  0  0  0  0  # atno 8008 bound_to 7997
  154.8384  140.2910  155.5654 H   0  0  0  0  0  0  0  0  0  0  0  0  # atno 8009 bound_to 7997
  156.2991  140.2487  156.3322 H   0  0  0  0  0  0  0  0  0  0  0  0  # atno 8010 bound_to 7997
  139.4827  144.4824  151.8426 H   0  0  0  0  0  0  0  0  0  0  0  0  # atno 10167 bound_to 10162
  156.4018  130.4392  149.7316 H   0  0  0  0  0  0  0  0  0  0  0  0  # atno 10718 bound_to 10713
  153.8880  135.6815  153.4762 H   0  0  0  0  0  0  0  0  0  0  0  0  # atno 10763 bound_to 10752
  153.1197  135.4745  154.9172 H   0  0  0  0  0  0  0  0  0  0  0  0  # atno 10764 bound_to 10752
  154.7636  135.3218  154.8282 H   0  0  0  0  0  0  0  0  0  0  0  0  # atno 10765 bound_to 10752
  140.8658  134.2112  157.4680 H   0  0  0  0  0  0  0  0  0  0  0  0  # atno 11005 bound_to 11000
  144.6835  140.2734  143.7302 LP  0  0  0  0  0  0  0  0  0  0  0  0  # atno 17320 bound_to 7965
  145.7919  139.1930  143.2098 LP  0  0  0  0  0  0  0  0  0  0  0  0  # atno 17321 bound_to 7965
  140.4301  144.2127  150.5888 LP  0  0  0  0  0  0  0  0  0  0  0  0  # atno 17342 bound_to 10162
  140.4788  143.2386  151.8985 LP  0  0  0  0  0  0  0  0  0  0  0  0  # atno 17343 bound_to 10162
  156.4329  130.7824  151.2844 LP  0  0  0  0  0  0  0  0  0  0  0  0  # atno 17370 bound_to 10713
  157.7504  131.0148  150.3480 LP  0  0  0  0  0  0  0  0  0  0  0  0  # atno 17371 bound_to 10713
  139.8709  134.9751  156.4871 LP  0  0  0  0  0  0  0  0  0  0  0  0  # atno 17394 bound_to 11000
  140.8630  133.8045  155.9285 LP  0  0  0  0  0  0  0  0  0  0  0  0  # atno 17395 bound_to 11000

$$$$
