AV-unprocessed.smi:1005|AV-procd|sdf|4366|dock8
  -GOLD-   22720 2273D 1   1.00000     0.00000
 Structure written by MMmdl.
 57 59  0  0  0  0  0  0  0  0  3 V2000
  152.5898  143.7062  161.1372 C   0  0  0  0  0  0  0  0  0  0  0  0
  151.9673  143.0746  159.9043 C   0  0  0  0  0  0  0  0  0  0  0  0
  152.6206  141.9843  159.2865 C   0  0  0  0  0  0  0  0  0  0  0  0
  152.0762  141.3708  158.1375 C   0  0  0  0  0  0  0  0  0  0  0  0
  152.5403  140.3090  157.3799 N   0  0  0  0  0  0  0  0  0  0  0  0
  151.5984  140.2132  156.4466 C   0  0  0  0  0  0  0  0  0  0  0  0
  150.5792  141.0919  156.5063 N   0  0  0  0  0  0  0  0  0  0  0  0
  149.4504  141.1821  155.5975 C   0  0  0  0  0  0  0  0  0  0  0  0
  149.5733  140.2067  154.4115 C   0  0  2  0  0  0  0  0  0  0  0  0
  149.4788  140.9277  153.1972 O   0  0  0  0  0  0  0  0  0  0  0  0
  148.4640  139.1372  154.4314 C   0  0  0  0  0  0  0  0  0  0  0  0
  149.0092  137.7572  154.3688 N   0  3  1  0  0  0  0  0  0  0  0  0
  150.3560  137.6217  154.9753 C   0  0  0  0  0  0  0  0  0  0  0  0
  150.8667  136.1803  154.8209 C   0  0  0  0  0  0  0  0  0  0  0  0
  149.9351  135.2797  155.4080 O   0  0  0  0  0  0  0  0  0  0  0  0
  148.6595  135.3271  154.7761 C   0  0  1  0  0  0  0  0  0  0  0  0
  147.7564  134.2702  155.4404 C   0  0  0  0  0  0  0  0  0  0  0  0
  148.2558  132.8825  155.2590 N   0  3  0  0  0  0  0  0  0  0  0  0
  148.7591  132.6090  153.8926 C   0  0  0  0  0  0  0  0  0  0  0  0
  147.2560  131.8745  155.6772 C   0  0  0  0  0  0  0  0  0  0  0  0
  148.0839  136.7490  154.9386 C   0  0  0  0  0  0  0  0  0  0  0  0
  150.8505  141.8818  157.6186 C   0  0  0  0  0  0  0  0  0  0  0  0
  150.1907  142.9652  158.2248 C   0  0  0  0  0  0  0  0  0  0  0  0
  150.7479  143.5661  159.3729 C   0  0  0  0  0  0  0  0  0  0  0  0
  150.0268  144.7342  160.0215 C   0  0  0  0  0  0  0  0  0  0  0  0
  153.5261  143.2165  161.4062 H   0  0  0  0  0  0  0  0  0  0  0  0
  151.9142  143.6275  161.9893 H   0  0  0  0  0  0  0  0  0  0  0  0
  152.8033  144.7604  160.9598 H   0  0  0  0  0  0  0  0  0  0  0  0
  153.5493  141.6097  159.6912 H   0  0  0  0  0  0  0  0  0  0  0  0
  151.6546  139.4636  155.6705 H   0  0  0  0  0  0  0  0  0  0  0  0
  148.5414  140.9735  156.1637 H   0  0  0  0  0  0  0  0  0  0  0  0
  149.3662  142.2105  155.2435 H   0  0  0  0  0  0  0  0  0  0  0  0
  150.5556  139.7368  154.4527 H   0  0  0  0  0  0  0  0  0  0  0  0
  149.5434  140.3157  152.4789 H   0  0  0  0  0  0  0  0  0  0  0  0
  147.8448  139.2411  155.3239 H   0  0  0  0  0  0  0  0  0  0  0  0
  147.8016  139.3112  153.5817 H   0  0  0  0  0  0  0  0  0  0  0  0
  151.0599  138.3072  154.5047 H   0  0  0  0  0  0  0  0  0  0  0  0
  150.3108  137.8872  156.0329 H   0  0  0  0  0  0  0  0  0  0  0  0
  151.0223  135.9313  153.7699 H   0  0  0  0  0  0  0  0  0  0  0  0
  151.8291  136.0680  155.3205 H   0  0  0  0  0  0  0  0  0  0  0  0
  148.7696  135.1120  153.7127 H   0  0  0  0  0  0  0  0  0  0  0  0
  147.6963  134.4960  156.5064 H   0  0  0  0  0  0  0  0  0  0  0  0
  146.7376  134.3397  155.0556 H   0  0  0  0  0  0  0  0  0  0  0  0
  147.9690  132.7362  153.1512 H   0  0  0  0  0  0  0  0  0  0  0  0
  149.1286  131.5854  153.8193 H   0  0  0  0  0  0  0  0  0  0  0  0
  149.5858  133.2671  153.6283 H   0  0  0  0  0  0  0  0  0  0  0  0
  146.3618  131.9291  155.0549 H   0  0  0  0  0  0  0  0  0  0  0  0
  146.9609  132.0271  156.7159 H   0  0  0  0  0  0  0  0  0  0  0  0
  147.6667  130.8671  155.5982 H   0  0  0  0  0  0  0  0  0  0  0  0
  147.9095  136.9715  155.9928 H   0  0  0  0  0  0  0  0  0  0  0  0
  147.1193  136.8117  154.4332 H   0  0  0  0  0  0  0  0  0  0  0  0
  149.2634  143.3316  157.8096 H   0  0  0  0  0  0  0  0  0  0  0  0
  149.1075  144.9796  159.4890 H   0  0  0  0  0  0  0  0  0  0  0  0
  150.6598  145.6216  160.0224 H   0  0  0  0  0  0  0  0  0  0  0  0
  149.7628  144.4954  161.0519 H   0  0  0  0  0  0  0  0  0  0  0  0
  149.0385  132.7723  155.8883 H   0  0  0  0  0  0  0  0  0  0  0  0
  149.0995  137.5370  153.3866 H   0  0  0  0  0  0  0  0  0  0  0  0
  1  2  1  0  0  0  0
  1 26  1  0  0  0  0
  1 27  1  0  0  0  0
  1 28  1  0  0  0  0
  2 24  1  0  0  0  0
  2  3  2  0  0  0  0
  3  4  1  0  0  0  0
  3 29  1  0  0  0  0
  4 22  2  0  0  0  0
  4  5  1  0  0  0  0
  5  6  2  0  0  0  0
  6  7  1  0  0  0  0
  6 30  1  0  0  0  0
  7  8  1  0  0  0  0
  7 22  1  0  0  0  0
  8  9  1  0  0  0  0
  8 31  1  0  0  0  0
  8 32  1  0  0  0  0
  9 10  1  0  0  0  0
  9 11  1  0  0  0  0
  9 33  1  0  0  0  0
 10 34  1  0  0  0  0
 11 12  1  0  0  0  0
 11 35  1  0  0  0  0
 11 36  1  0  0  0  0
 12 21  1  0  0  0  0
 12 13  1  0  0  0  0
 12 57  1  0  0  0  0
 13 14  1  0  0  0  0
 13 37  1  0  0  0  0
 13 38  1  0  0  0  0
 14 15  1  0  0  0  0
 14 39  1  0  0  0  0
 14 40  1  0  0  0  0
 15 16  1  0  0  0  0
 16 17  1  0  0  0  0
 16 21  1  0  0  0  0
 16 41  1  0  0  0  0
 17 18  1  0  0  0  0
 17 42  1  0  0  0  0
 17 43  1  0  0  0  0
 18 19  1  0  0  0  0
 18 20  1  0  0  0  0
 18 56  1  0  0  0  0
 19 44  1  0  0  0  0
 19 45  1  0  0  0  0
 19 46  1  0  0  0  0
 20 47  1  0  0  0  0
 20 48  1  0  0  0  0
 20 49  1  0  0  0  0
 21 50  1  0  0  0  0
 21 51  1  0  0  0  0
 22 23  1  0  0  0  0
 23 24  2  0  0  0  0
 23 52  1  0  0  0  0
 24 25  1  0  0  0  0
 25 53  1  0  0  0  0
 25 54  1  0  0  0  0
 25 55  1  0  0  0  0
M  CHG  1  12   1
M  CHG  1  18   1
M  END
> <s_m_source_file>
AV-unprocessed.smi

> <i_m_source_file_index>
1005

> <i_lp_mmshare_version>
43012

> <i_f3d_flags>
0

> <s_epik_input>
W0NIM11jKFtjSF0xKWMoW0NIM10pW2NIXWMoYzEyKW4oW2NIXW4yKVtDSDJdW0NASF0oW09IXSlbQ0gyXU4zW0NIMl1bQ0gyXU9bQ0BIXShbQ0gyXTMpW0NIMl1OKFtDSDNdKVtDSDNd

> <s_epik_cmdline>
J2VwaWtfcHl0aG9uJywgJy1waCcsICc3LjAnLCAnLXRuJywgJzgnLCAnLW1hJywgJzIwMCcsICctbWV0YWxfYmluZGluZycsICctaW1hZScsICc8aW5maWxlLm1hZT4nLCAnLW9tYWUnLCAnPG91dGZpbGUubWFlPic=

> <r_epik_Ionization_Penalty>
1.0968

> <r_epik_Ionization_Penalty_Charging>
1.0096

> <r_epik_Ionization_Penalty_Neutral>
0.0871956

> <r_epik_State_Penalty>
1.31185

> <r_epik_Charging_Adjusted_Penalty>
2.32145

> <i_epik_Tot_Q>
2

> <i_epik_Tot_abs_Q>
2

> <r_epik_Metal_State_Penalty>
1.22442

> <b_epik_Metal_Only>
0

> <s_lp_Force_Field>
OPLS_2005

> <r_lp_Energy>
32.7622

> <b_lp_Chiralities_Consistent>
1

> <s_lp_Variant>
AV-unprocessed.smi:1005-5

> <Gold.Version>
5.8.1

> <Gold.Id.Protein>
6NUR|6NUR_protein|mol2

> <Gold.PLP.Fitness>
50.4970

> <Gold.PLP.PLP>
-40.3957

> <Gold.PLP.part.hbond>
-3.9576

> <Gold.PLP.part.metal>
0.0000

> <Gold.PLP.part.buried>
-4.7925

> <Gold.PLP.part.nonpolar>
-32.1296

> <Gold.PLP.part.repulsive>
0.0986

> <Gold.PLP.ligand.clash>
0.0000

> <Gold.PLP.ligand.torsion>
1.9221

> <Gold.PLP.Chemscore.Hbond>
4.5801

> <Gold.PLP.Chemscore.CHOScore>
0.0000

> <Gold.PLP.Chemscore.Metal>
0.0000

> <Gold.Chemscore.Hbonds>
donor molecule, donor type, donor heavy atom, donor atom, acceptor molecule, acceptor atom, score
      L1  H    10    34       P1  7957  0.54
      L1  H    12    57       P1  7948  2.00
      P1  H  7997  8010       L1     5  0.96
      P1  H  8011  8017       L1    10  0.95

> <Gold.PLP.Chemscore.Internal.Correction>
0.2050

> <Gold.Rescore>
     Score         DG    S(hbond)    S(metal)    S(lipo)     H(rot)  DE(clash)    DE(int)     intcor
     19.35     -21.39       2.72        0.00     112.70       2.48       0.14       1.90       ----

> <Gold.Chemscore.Fitness>
19.3503

> <Gold.Chemscore.DG>
-21.3931

> <Gold.Chemscore.ZeroCoef>
-5.4800

> <Gold.Chemscore.Hbond>
2.7185

> <Gold.Chemscore.Metal>
0.0000

> <Gold.Chemscore.Lipo>
112.6973

> <Gold.Chemscore.Internal_Hbond>
0.0000

> <Gold.Chemscore.DEClash>
0.1399

> <Gold.Chemscore.DEInternal>
1.9029

> <Gold.Chemscore.Rot>
2.4814

> <Gold.Chemscore.Internal.Correction>
   9.000000E+99

> <Gold.Chemscore.Hbonds>
donor molecule, donor type, donor heavy atom, donor atom, acceptor molecule, acceptor atom, score
      L1  H    10    34       P1  7957  0.52
      L1  H    12    57       P1  7948  0.93
      P1  H  7997  8010       L1     5  0.83
      P1  H  8011  8017       L1    10  0.22

> <Gold.Chemscore.Hbond.Weighted>
-9.0798

> <Gold.Chemscore.Metal.Weighted>
-0.0000

> <Gold.Chemscore.Lipo.Weighted>
-13.1856

> <Gold.Chemscore.Internal_Hbond.Weighted>
0.0000

> <Gold.Chemscore.DEClash.Weighted>
0.1399

> <Gold.Chemscore.DEInternal.Weighted>
1.9029

> <Gold.Chemscore.Rot.Weighted>
6.3524

> <Gold.Chemscore.Internal.Correction.Weighted>
   9.000000E+99

> <Gold.Protein.RotatedTorsions>
[ 6907 6896 6895 6894 ] final  124.78 input  -60.11 | X-H torsion
[ 7974 7965 7964 7962 ] final   88.38 input  175.53 | X-H torsion
[ 8008 7997 7996 7995 ] final   52.78 input   59.86 | X-H torsion
[ 10167 10162 10161 10158 ] final  106.28 input  -65.29 | X-H torsion
[ 10718 10713 10712 10709 ] final   95.07 input   66.30 | X-H torsion
[ 10763 10752 10751 10750 ] final   80.82 input  -60.55 | X-H torsion
[ 11005 11000 10999 10996 ] final   42.01 input  -57.11 | X-H torsion

> <Gold.Protein.ActiveResidues>
 VAL166  LYS551  ARG553  GLY616  TRP617  ASP618  TYR619  PRO620  LYS621  CYS622 
 ASP623  PHE694  ASN695  SER759  ASP760  ASP761  ALA762  ILE779  LEU786  VAL792 
 PHE793  MET794  SER795  GLU796  ALA797  LYS798  CYS799  TRP800  GLU811  SER814 

> <Gold.Protein.RotatedAtoms>
  152.4048  133.6873  159.6347 H   0  0  0  0  0  0  0  0  0  0  0  0  # atno 6907 bound_to 6896
  150.7935  133.8727  159.3272 H   0  0  0  0  0  0  0  0  0  0  0  0  # atno 6908 bound_to 6896
  151.6484  135.1006  160.0207 H   0  0  0  0  0  0  0  0  0  0  0  0  # atno 6909 bound_to 6896
  145.5465  139.2292  143.2536 H   0  0  0  0  0  0  0  0  0  0  0  0  # atno 7974 bound_to 7965
  155.4575  140.3460  155.4308 H   0  0  0  0  0  0  0  0  0  0  0  0  # atno 8008 bound_to 7997
  156.1182  140.1479  156.9272 H   0  0  0  0  0  0  0  0  0  0  0  0  # atno 8009 bound_to 7997
  154.4804  140.0871  156.7343 H   0  0  0  0  0  0  0  0  0  0  0  0  # atno 8010 bound_to 7997
  139.7022  144.7092  151.1166 H   0  0  0  0  0  0  0  0  0  0  0  0  # atno 10167 bound_to 10162
  157.6942  131.0533  150.4282 H   0  0  0  0  0  0  0  0  0  0  0  0  # atno 10718 bound_to 10713
  153.1065  135.4788  154.8961 H   0  0  0  0  0  0  0  0  0  0  0  0  # atno 10763 bound_to 10752
  154.7436  135.3088  154.8687 H   0  0  0  0  0  0  0  0  0  0  0  0  # atno 10764 bound_to 10752
  153.9288  135.6847  153.4799 H   0  0  0  0  0  0  0  0  0  0  0  0  # atno 10765 bound_to 10752
  140.1780  134.4140  155.8217 H   0  0  0  0  0  0  0  0  0  0  0  0  # atno 11005 bound_to 11000
  146.1946  140.6287  142.9130 LP  0  0  0  0  0  0  0  0  0  0  0  0  # atno 17320 bound_to 7965
  144.7551  140.5286  143.6775 LP  0  0  0  0  0  0  0  0  0  0  0  0  # atno 17321 bound_to 7965
  140.7712  143.5408  150.9315 LP  0  0  0  0  0  0  0  0  0  0  0  0  # atno 17342 bound_to 10162
  139.9090  143.6743  152.3118 LP  0  0  0  0  0  0  0  0  0  0  0  0  # atno 17343 bound_to 10162
  156.4651  130.4040  149.6552 LP  0  0  0  0  0  0  0  0  0  0  0  0  # atno 17370 bound_to 10713
  156.3653  130.7502  151.2479 LP  0  0  0  0  0  0  0  0  0  0  0  0  # atno 17371 bound_to 10713
  141.2221  133.6987  156.7880 LP  0  0  0  0  0  0  0  0  0  0  0  0  # atno 17394 bound_to 11000
  140.2300  134.8692  157.3467 LP  0  0  0  0  0  0  0  0  0  0  0  0  # atno 17395 bound_to 11000

$$$$
