AV-unprocessed.smi:3335|AV-procd|sdf|12849|dock9
  -GOLD-   2272019243D 1   1.00000     0.00000
 Structure written by MMmdl.
 46 47  0  0  0  0  0  0  0  0  1 V2000
  151.4396  142.5661  158.7280 C   0  0  0  0  0  0  0  0  0  0  0  0
  151.2209  141.6732  157.5407 C   0  0  0  0  0  0  0  0  0  0  0  0
  151.9236  140.4818  157.2045 C   0  0  0  0  0  0  0  0  0  0  0  0
  151.4867  139.9248  156.0872 N   0  0  0  0  0  0  0  0  0  0  0  0
  150.4919  140.7389  155.6679 N   0  0  0  0  0  0  0  0  0  0  0  0
  149.7651  140.4414  154.4397 C   0  0  2  0  0  0  0  0  0  0  0  0
  148.6915  141.5183  154.1899 C   0  0  0  0  0  0  0  0  0  0  0  0
  149.1865  138.9997  154.4417 C   0  0  2  0  0  0  0  0  0  0  0  0
  150.2600  137.9085  154.6170 C   0  0  0  0  0  0  0  0  0  0  0  0
  148.5217  138.7472  153.1626 N   0  0  0  0  0  0  0  0  0  0  0  0
  147.1175  138.3100  153.2738 C   0  0  1  0  0  0  0  0  0  0  0  0
  146.2682  139.4478  153.8595 C   0  0  0  0  0  0  0  0  0  0  0  0
  146.5197  137.8489  151.9253 C   0  0  0  0  0  0  0  0  0  0  0  0
  146.8195  138.4679  150.9029 O   0  0  0  0  0  0  0  0  0  0  0  0
  145.6880  136.7849  151.8934 N   0  0  0  0  0  0  0  0  0  0  0  0
  145.2912  136.0457  153.0911 C   0  0  0  0  0  0  0  0  0  0  0  0
  144.1806  135.0945  152.6459 C   0  0  0  0  0  0  0  0  0  0  0  0
  144.4506  134.8785  151.1642 C   0  0  0  0  0  0  0  0  0  0  0  0
  145.0751  136.1954  150.7031 C   0  0  0  0  0  0  0  0  0  0  0  0
  150.3107  141.8004  156.5299 C   0  0  0  0  0  0  0  0  0  0  0  0
  151.2784  142.0336  159.6654 H   0  0  0  0  0  0  0  0  0  0  0  0
  150.7630  143.4210  158.7242 H   0  0  0  0  0  0  0  0  0  0  0  0
  152.4555  142.9607  158.7520 H   0  0  0  0  0  0  0  0  0  0  0  0
  152.7347  140.0075  157.7373 H   0  0  0  0  0  0  0  0  0  0  0  0
  150.4926  140.5115  153.6290 H   0  0  0  0  0  0  0  0  0  0  0  0
  148.2461  141.4141  153.2007 H   0  0  0  0  0  0  0  0  0  0  0  0
  149.1204  142.5192  154.2442 H   0  0  0  0  0  0  0  0  0  0  0  0
  147.8872  141.4607  154.9245 H   0  0  0  0  0  0  0  0  0  0  0  0
  148.4872  138.9107  155.2747 H   0  0  0  0  0  0  0  0  0  0  0  0
  150.7483  137.9771  155.5890 H   0  0  0  0  0  0  0  0  0  0  0  0
  151.0328  137.9830  153.8510 H   0  0  0  0  0  0  0  0  0  0  0  0
  149.8245  136.9109  154.5540 H   0  0  0  0  0  0  0  0  0  0  0  0
  149.0672  138.0972  152.6144 H   0  0  0  0  0  0  0  0  0  0  0  0
  147.0995  137.4906  153.9902 H   0  0  0  0  0  0  0  0  0  0  0  0
  145.2297  139.1408  153.9900 H   0  0  0  0  0  0  0  0  0  0  0  0
  146.2766  140.3282  153.2152 H   0  0  0  0  0  0  0  0  0  0  0  0
  146.6431  139.7502  154.8380 H   0  0  0  0  0  0  0  0  0  0  0  0
  146.1499  135.4847  153.4627 H   0  0  0  0  0  0  0  0  0  0  0  0
  144.9485  136.7082  153.8876 H   0  0  0  0  0  0  0  0  0  0  0  0
  144.1667  134.1642  153.2145 H   0  0  0  0  0  0  0  0  0  0  0  0
  143.2115  135.5787  152.7725 H   0  0  0  0  0  0  0  0  0  0  0  0
  145.1707  134.0688  151.0393 H   0  0  0  0  0  0  0  0  0  0  0  0
  143.5527  134.6168  150.6034 H   0  0  0  0  0  0  0  0  0  0  0  0
  144.3040  136.8704  150.3285 H   0  0  0  0  0  0  0  0  0  0  0  0
  145.7998  136.0241  149.9060 H   0  0  0  0  0  0  0  0  0  0  0  0
  149.5569  142.5536  156.3532 H   0  0  0  0  0  0  0  0  0  0  0  0
  1  2  1  0  0  0  0
  1 21  1  0  0  0  0
  1 22  1  0  0  0  0
  1 23  1  0  0  0  0
  2 20  2  0  0  0  0
  2  3  1  0  0  0  0
  3  4  2  0  0  0  0
  3 24  1  0  0  0  0
  4  5  1  0  0  0  0
  5  6  1  0  0  0  0
  5 20  1  0  0  0  0
  6  7  1  0  0  0  0
  6  8  1  0  0  0  0
  6 25  1  0  0  0  0
  7 26  1  0  0  0  0
  7 27  1  0  0  0  0
  7 28  1  0  0  0  0
  8  9  1  0  0  0  0
  8 10  1  0  0  0  0
  8 29  1  0  0  0  0
  9 30  1  0  0  0  0
  9 31  1  0  0  0  0
  9 32  1  0  0  0  0
 10 11  1  0  0  0  0
 10 33  1  0  0  0  0
 11 12  1  0  0  0  0
 11 13  1  0  0  0  0
 11 34  1  0  0  0  0
 12 35  1  0  0  0  0
 12 36  1  0  0  0  0
 12 37  1  0  0  0  0
 13 14  2  0  0  0  0
 13 15  1  0  0  0  0
 15 19  1  0  0  0  0
 15 16  1  0  0  0  0
 16 17  1  0  0  0  0
 16 38  1  0  0  0  0
 16 39  1  0  0  0  0
 17 18  1  0  0  0  0
 17 40  1  0  0  0  0
 17 41  1  0  0  0  0
 18 19  1  0  0  0  0
 18 42  1  0  0  0  0
 18 43  1  0  0  0  0
 19 44  1  0  0  0  0
 19 45  1  0  0  0  0
 20 46  1  0  0  0  0
M  END
> <s_m_source_file>
AV-unprocessed.smi

> <i_m_source_file_index>
3335

> <i_lp_mmshare_version>
43012

> <i_f3d_flags>
0

> <s_epik_input>
W0NIM11jMVtjSF1ubihbY0hdMSlbQ0BIXShbQ0gzXSlbQ0BIXShbQ0gzXSlbTkhdW0NASF0oW0NIM10pQyg9TylOMltDSDJdW0NIMl1bQ0gyXVtDSDJdMg==

> <s_epik_cmdline>
J2VwaWtfcHl0aG9uJywgJy1waCcsICc3LjAnLCAnLXRuJywgJzgnLCAnLW1hJywgJzIwMCcsICctbWV0YWxfYmluZGluZycsICctaW1hZScsICc8aW5maWxlLm1hZT4nLCAnLW9tYWUnLCAnPG91dGZpbGUubWFlPic=

> <r_lp_tautomer_probability>
1

> <r_epik_Ionization_Penalty>
0.918803

> <r_epik_Ionization_Penalty_Charging>
0

> <r_epik_Ionization_Penalty_Neutral>
0.918803

> <r_epik_State_Penalty>
0.958258

> <r_epik_Charging_Adjusted_Penalty>
0.958258

> <i_epik_Tot_Q>
0

> <i_epik_Tot_abs_Q>
0

> <r_epik_Metal_State_Penalty>
0.956786

> <b_epik_Metal_Only>
0

> <s_lp_Force_Field>
OPLS_2005

> <r_lp_Energy>
37.1763

> <b_lp_Chiralities_Consistent>
1

> <s_lp_Variant>
AV-unprocessed.smi:3335-13

> <Gold.Version>
5.8.1

> <Gold.Id.Protein>
6NUR|6NUR_protein|mol2

> <Gold.PLP.Fitness>
38.7948

> <Gold.PLP.PLP>
-33.2553

> <Gold.PLP.part.hbond>
-3.0000

> <Gold.PLP.part.metal>
0.0000

> <Gold.PLP.part.buried>
2.4922

> <Gold.PLP.part.nonpolar>
-34.1346

> <Gold.PLP.part.repulsive>
0.4541

> <Gold.PLP.ligand.clash>
0.0000

> <Gold.PLP.ligand.torsion>
1.4441

> <Gold.PLP.Chemscore.Hbond>
1.7840

> <Gold.PLP.Chemscore.CHOScore>
1.0000

> <Gold.PLP.Chemscore.Metal>
0.0000

> <Gold.Chemscore.Hbonds>
donor molecule, donor type, donor heavy atom, donor atom, acceptor molecule, acceptor atom, score
      L1  H    10    33       P1  7948  0.83
      P1  H  7954  7966       L1    14  1.00
      L1  C    20    46       P1  8028  1.00

> <Gold.PLP.Chemscore.Internal.Correction>
0.0756

> <Gold.Rescore>
     Score         DG    S(hbond)    S(metal)    S(lipo)     H(rot)  DE(clash)    DE(int)     intcor
     11.81     -16.91       1.75        0.00      83.29       1.62       2.25       2.85       ----

> <Gold.Chemscore.Fitness>
11.8068

> <Gold.Chemscore.DG>
-16.9084

> <Gold.Chemscore.ZeroCoef>
-5.4800

> <Gold.Chemscore.Hbond>
1.7461

> <Gold.Chemscore.Metal>
0.0000

> <Gold.Chemscore.Lipo>
83.2883

> <Gold.Chemscore.Internal_Hbond>
0.0000

> <Gold.Chemscore.DEClash>
2.2502

> <Gold.Chemscore.DEInternal>
2.8514

> <Gold.Chemscore.Rot>
1.6204

> <Gold.Chemscore.Internal.Correction>
   9.000000E+99

> <Gold.Chemscore.Hbonds>
donor molecule, donor type, donor heavy atom, donor atom, acceptor molecule, acceptor atom, score
      L1  H    10    33       P1  7948  0.80
      P1  H  7954  7966       L1    14  0.93

> <Gold.Chemscore.Hbond.Weighted>
-5.8318

> <Gold.Chemscore.Metal.Weighted>
-0.0000

> <Gold.Chemscore.Lipo.Weighted>
-9.7447

> <Gold.Chemscore.Internal_Hbond.Weighted>
0.0000

> <Gold.Chemscore.DEClash.Weighted>
2.2502

> <Gold.Chemscore.DEInternal.Weighted>
2.8514

> <Gold.Chemscore.Rot.Weighted>
4.1482

> <Gold.Chemscore.Internal.Correction.Weighted>
   9.000000E+99

> <Gold.Protein.RotatedTorsions>
[ 6907 6896 6895 6894 ] final  134.56 input  -60.11 | X-H torsion
[ 7974 7965 7964 7962 ] final   62.70 input  175.53 | X-H torsion
[ 8008 7997 7996 7995 ] final  173.33 input   59.86 | X-H torsion
[ 10167 10162 10161 10158 ] final  -91.54 input  -65.29 | X-H torsion
[ 10718 10713 10712 10709 ] final  156.44 input   66.30 | X-H torsion
[ 10763 10752 10751 10750 ] final  -97.12 input  -60.55 | X-H torsion
[ 11005 11000 10999 10996 ] final  144.66 input  -57.11 | X-H torsion

> <Gold.Protein.ActiveResidues>
 VAL166  LYS551  ARG553  GLY616  TRP617  ASP618  TYR619  PRO620  LYS621  CYS622 
 ASP623  PHE694  ASN695  SER759  ASP760  ASP761  ALA762  ILE779  LEU786  VAL792 
 PHE793  MET794  SER795  GLU796  ALA797  LYS798  CYS799  TRP800  GLU811  SER814 

> <Gold.Protein.RotatedAtoms>
  152.3100  133.5743  159.5674 H   0  0  0  0  0  0  0  0  0  0  0  0  # atno 6907 bound_to 6896
  150.7318  134.0166  159.3696 H   0  0  0  0  0  0  0  0  0  0  0  0  # atno 6908 bound_to 6896
  151.8059  135.0695  160.0457 H   0  0  0  0  0  0  0  0  0  0  0  0  # atno 6909 bound_to 6896
  145.8704  139.3374  143.0766 H   0  0  0  0  0  0  0  0  0  0  0  0  # atno 7974 bound_to 7965
  156.1086  140.1463  156.9369 H   0  0  0  0  0  0  0  0  0  0  0  0  # atno 8008 bound_to 7997
  154.4751  140.0897  156.7286 H   0  0  0  0  0  0  0  0  0  0  0  0  # atno 8009 bound_to 7997
  155.4635  140.3439  155.4318 H   0  0  0  0  0  0  0  0  0  0  0  0  # atno 8010 bound_to 7997
  140.3438  143.2927  151.9804 H   0  0  0  0  0  0  0  0  0  0  0  0  # atno 10167 bound_to 10162
  157.2049  131.0684  151.2003 H   0  0  0  0  0  0  0  0  0  0  0  0  # atno 10718 bound_to 10713
  154.7300  135.5058  153.8948 H   0  0  0  0  0  0  0  0  0  0  0  0  # atno 10763 bound_to 10752
  153.0940  135.6667  153.9807 H   0  0  0  0  0  0  0  0  0  0  0  0  # atno 10764 bound_to 10752
  153.9610  135.3048  155.3413 H   0  0  0  0  0  0  0  0  0  0  0  0  # atno 10765 bound_to 10752
  140.0650  134.9183  157.1249 H   0  0  0  0  0  0  0  0  0  0  0  0  # atno 11005 bound_to 11000
  145.9144  140.9158  143.0437 LP  0  0  0  0  0  0  0  0  0  0  0  0  # atno 17320 bound_to 7965
  144.6726  140.1203  143.7450 LP  0  0  0  0  0  0  0  0  0  0  0  0  # atno 17321 bound_to 7965
  139.4836  144.6134  151.7392 LP  0  0  0  0  0  0  0  0  0  0  0  0  # atno 17342 bound_to 10162
  140.5283  144.0770  150.6045 LP  0  0  0  0  0  0  0  0  0  0  0  0  # atno 17343 bound_to 10162
  157.3730  130.7191  149.6578 LP  0  0  0  0  0  0  0  0  0  0  0  0  # atno 17370 bound_to 10713
  155.9696  130.4193  150.4371 LP  0  0  0  0  0  0  0  0  0  0  0  0  # atno 17371 bound_to 10713
  140.3712  134.2388  155.7178 LP  0  0  0  0  0  0  0  0  0  0  0  0  # atno 17394 bound_to 11000
  141.1989  133.8024  157.0561 LP  0  0  0  0  0  0  0  0  0  0  0  0  # atno 17395 bound_to 11000

$$$$
