AV-unprocessed.smi:2852|AV-procd|sdf|10972|dock4
  -GOLD-   2272015423D 1   1.00000     0.00000
 Structure written by MMmdl.
 28 29  0  0  0  0  0  0  0  0  1 V2000
  149.3051  136.2988  155.3183 C   0  0  0  0  0  0  0  0  0  0  0  0
  150.2024  137.4019  155.0114 N   0  0  0  0  0  0  0  0  0  0  0  0
  151.4979  137.4407  155.3566 C   0  0  0  0  0  0  0  0  0  0  0  0
  152.0646  136.5298  155.9607 O   0  0  0  0  0  0  0  0  0  0  0  0
  152.2760  138.6965  154.9594 C   0  0  0  0  0  0  0  0  0  0  0  0
  151.9000  139.8483  155.8360 C   0  0  0  0  0  0  0  0  0  0  0  0
  151.0652  140.7923  155.4167 N   0  0  0  0  0  0  0  0  0  0  0  0
  150.9851  141.6644  156.5121 O   0  0  0  0  0  0  0  0  0  0  0  0
  151.7840  141.1340  157.4687 C   0  0  0  0  0  0  0  0  0  0  0  0
  151.9045  141.8490  158.7343 C   0  0  0  0  0  0  0  0  0  0  0  0
  152.0852  143.1755  158.8623 C   0  0  0  0  0  0  0  0  0  0  0  0
  152.2179  144.0349  160.0964 C   0  0  0  0  0  0  0  0  0  0  0  0
  152.3654  145.1923  159.0905 C   0  0  0  0  0  0  0  0  0  0  0  0
  152.2170  144.2910  157.8505 C   0  0  0  0  0  0  0  0  0  0  0  0
  152.3746  139.9970  157.1042 N   0  0  0  0  0  0  0  0  0  0  0  0
  148.3152  136.4998  154.9090 H   0  0  0  0  0  0  0  0  0  0  0  0
  149.2076  136.1686  156.3967 H   0  0  0  0  0  0  0  0  0  0  0  0
  149.6704  135.3664  154.8859 H   0  0  0  0  0  0  0  0  0  0  0  0
  149.8126  138.1910  154.5158 H   0  0  0  0  0  0  0  0  0  0  0  0
  153.3472  138.5054  155.0376 H   0  0  0  0  0  0  0  0  0  0  0  0
  152.0747  138.9468  153.9170 H   0  0  0  0  0  0  0  0  0  0  0  0
  151.8381  141.2485  159.6298 H   0  0  0  0  0  0  0  0  0  0  0  0
  151.3340  144.1434  160.7256 H   0  0  0  0  0  0  0  0  0  0  0  0
  153.1111  143.8991  160.7066 H   0  0  0  0  0  0  0  0  0  0  0  0
  151.5674  145.9314  159.1746 H   0  0  0  0  0  0  0  0  0  0  0  0
  153.3402  145.6793  159.1456 H   0  0  0  0  0  0  0  0  0  0  0  0
  153.1102  144.2954  157.2250 H   0  0  0  0  0  0  0  0  0  0  0  0
  151.3330  144.5375  157.2617 H   0  0  0  0  0  0  0  0  0  0  0  0
  1  2  1  0  0  0  0
  1 16  1  0  0  0  0
  1 17  1  0  0  0  0
  1 18  1  0  0  0  0
  2  3  1  0  0  0  0
  2 19  1  0  0  0  0
  3  4  2  0  0  0  0
  3  5  1  0  0  0  0
  5  6  1  0  0  0  0
  5 20  1  0  0  0  0
  5 21  1  0  0  0  0
  6 15  1  0  0  0  0
  6  7  2  0  0  0  0
  7  8  1  0  0  0  0
  8  9  1  0  0  0  0
  9 10  1  0  0  0  0
  9 15  2  0  0  0  0
 10 11  2  0  0  0  0
 10 22  1  0  0  0  0
 11 14  1  0  0  0  0
 11 12  1  0  0  0  0
 12 13  1  0  0  0  0
 12 23  1  0  0  0  0
 12 24  1  0  0  0  0
 13 14  1  0  0  0  0
 13 25  1  0  0  0  0
 13 26  1  0  0  0  0
 14 27  1  0  0  0  0
 14 28  1  0  0  0  0
M  END
> <s_m_source_file>
AV-unprocessed.smi

> <i_m_source_file_index>
2852

> <i_lp_mmshare_version>
43012

> <i_f3d_flags>
0

> <s_epik_input>
W0NIM11bTkhdQyg9TylbQ0gyXWMxbm9jKG4xKVtDSF09QzJbQ0gyXVtDSDJdW0NIMl0y

> <s_epik_cmdline>
J2VwaWtfcHl0aG9uJywgJy1waCcsICc3LjAnLCAnLXRuJywgJzgnLCAnLW1hJywgJzIwMCcsICctbWV0YWxfYmluZGluZycsICctaW1hZScsICc8aW5maWxlLm1hZT4nLCAnLW9tYWUnLCAnPG91dGZpbGUubWFlPic=

> <r_lp_tautomer_probability>
1

> <r_epik_Ionization_Penalty>
1.02917e-07

> <r_epik_Ionization_Penalty_Charging>
0

> <r_epik_Ionization_Penalty_Neutral>
1.02917e-07

> <r_epik_State_Penalty>
-0

> <r_epik_Charging_Adjusted_Penalty>
0

> <i_epik_Tot_Q>
0

> <i_epik_Tot_abs_Q>
0

> <r_epik_Metal_State_Penalty>
-0

> <b_epik_Metal_Only>
0

> <s_lp_Force_Field>
OPLS_2005

> <r_lp_Energy>
12.6474

> <b_lp_Chiralities_Consistent>
1

> <s_lp_Variant>
AV-unprocessed.smi:2852-1

> <Gold.Version>
5.8.1

> <Gold.Id.Protein>
6NUR|6NUR_protein|mol2

> <Gold.PLP.Fitness>
40.0932

> <Gold.PLP.PLP>
-33.5266

> <Gold.PLP.part.hbond>
-3.0000

> <Gold.PLP.part.metal>
0.0000

> <Gold.PLP.part.buried>
-4.1092

> <Gold.PLP.part.nonpolar>
-26.7383

> <Gold.PLP.part.repulsive>
0.1713

> <Gold.PLP.ligand.clash>
0.0000

> <Gold.PLP.ligand.torsion>
0.7970

> <Gold.PLP.Chemscore.Hbond>
2.7200

> <Gold.PLP.Chemscore.CHOScore>
0.0000

> <Gold.PLP.Chemscore.Metal>
0.0000

> <Gold.Chemscore.Hbonds>
donor molecule, donor type, donor heavy atom, donor atom, acceptor molecule, acceptor atom, score
      P1  H  7989  7998       L1     7  0.74
      P1  H  7997  8009       L1    15  0.89
      P1  H 10752 10765       L1     4  1.00

> <Gold.PLP.Chemscore.Internal.Correction>
0.0006

> <Gold.Rescore>
     Score         DG    S(hbond)    S(metal)    S(lipo)     H(rot)  DE(clash)    DE(int)     intcor
     16.08     -16.74       1.82        0.00      73.78       1.35       0.01       0.66       ----

> <Gold.Chemscore.Fitness>
16.0789

> <Gold.Chemscore.DG>
-16.7443

> <Gold.Chemscore.ZeroCoef>
-5.4800

> <Gold.Chemscore.Hbond>
1.8242

> <Gold.Chemscore.Metal>
0.0000

> <Gold.Chemscore.Lipo>
73.7808

> <Gold.Chemscore.Internal_Hbond>
0.0000

> <Gold.Chemscore.DEClash>
0.0073

> <Gold.Chemscore.DEInternal>
0.6580

> <Gold.Chemscore.Rot>
1.3519

> <Gold.Chemscore.Internal.Correction>
   9.000000E+99

> <Gold.Chemscore.Hbonds>
donor molecule, donor type, donor heavy atom, donor atom, acceptor molecule, acceptor atom, score
      P1  H  7989  7998       L1     7  0.16
      P1  H  7997  8009       L1    15  0.23
      P1  H 10752 10765       L1     4  0.96

> <Gold.Chemscore.Hbond.Weighted>
-6.0929

> <Gold.Chemscore.Metal.Weighted>
-0.0000

> <Gold.Chemscore.Lipo.Weighted>
-8.6323

> <Gold.Chemscore.Internal_Hbond.Weighted>
0.0000

> <Gold.Chemscore.DEClash.Weighted>
0.0073

> <Gold.Chemscore.DEInternal.Weighted>
0.6580

> <Gold.Chemscore.Rot.Weighted>
3.4610

> <Gold.Chemscore.Internal.Correction.Weighted>
   9.000000E+99

> <Gold.Protein.RotatedTorsions>
[ 6907 6896 6895 6894 ] final   22.14 input  -60.11 | X-H torsion
[ 7974 7965 7964 7962 ] final  -27.51 input  175.53 | X-H torsion
[ 8008 7997 7996 7995 ] final  171.16 input   59.86 | X-H torsion
[ 10167 10162 10161 10158 ] final  173.09 input  -65.29 | X-H torsion
[ 10718 10713 10712 10709 ] final   60.36 input   66.30 | X-H torsion
[ 10763 10752 10751 10750 ] final -144.19 input  -60.55 | X-H torsion
[ 11005 11000 10999 10996 ] final  -22.74 input  -57.11 | X-H torsion

> <Gold.Protein.ActiveResidues>
 VAL166  LYS551  ARG553  GLY616  TRP617  ASP618  TYR619  PRO620  LYS621  CYS622 
 ASP623  PHE694  ASN695  SER759  ASP760  ASP761  ALA762  ILE779  LEU786  VAL792 
 PHE793  MET794  SER795  GLU796  ALA797  LYS798  CYS799  TRP800  GLU811  SER814 

> <Gold.Protein.RotatedAtoms>
  151.9225  135.0292  160.0522 H   0  0  0  0  0  0  0  0  0  0  0  0  # atno 6907 bound_to 6896
  152.2187  133.4962  159.5158 H   0  0  0  0  0  0  0  0  0  0  0  0  # atno 6908 bound_to 6896
  150.6994  134.1288  159.4104 H   0  0  0  0  0  0  0  0  0  0  0  0  # atno 6909 bound_to 6896
  146.1353  140.5161  142.8675 H   0  0  0  0  0  0  0  0  0  0  0  0  # atno 7974 bound_to 7965
  156.1298  140.1519  156.9083 H   0  0  0  0  0  0  0  0  0  0  0  0  # atno 8008 bound_to 7997
  154.4900  140.0854  156.7612 H   0  0  0  0  0  0  0  0  0  0  0  0  # atno 8009 bound_to 7997
  155.4277  140.3426  155.4279 H   0  0  0  0  0  0  0  0  0  0  0  0  # atno 8010 bound_to 7997
  139.5097  144.3300  152.0120 H   0  0  0  0  0  0  0  0  0  0  0  0  # atno 10167 bound_to 10162
  157.5747  130.8934  149.9326 H   0  0  0  0  0  0  0  0  0  0  0  0  # atno 10718 bound_to 10713
  154.8438  135.3447  154.6307 H   0  0  0  0  0  0  0  0  0  0  0  0  # atno 10763 bound_to 10752
  153.6916  135.6974  153.5093 H   0  0  0  0  0  0  0  0  0  0  0  0  # atno 10764 bound_to 10752
  153.2590  135.4329  155.0830 H   0  0  0  0  0  0  0  0  0  0  0  0  # atno 10765 bound_to 10752
  140.8686  133.7737  156.0159 H   0  0  0  0  0  0  0  0  0  0  0  0  # atno 11005 bound_to 11000
  144.7733  140.5685  143.6655 LP  0  0  0  0  0  0  0  0  0  0  0  0  # atno 17320 bound_to 7965
  145.5170  139.1477  143.3573 LP  0  0  0  0  0  0  0  0  0  0  0  0  # atno 17321 bound_to 7965
  140.2740  144.3933  150.6141 LP  0  0  0  0  0  0  0  0  0  0  0  0  # atno 17342 bound_to 10162
  140.6067  143.2168  151.6966 LP  0  0  0  0  0  0  0  0  0  0  0  0  # atno 17343 bound_to 10162
  156.0792  130.3675  150.0616 LP  0  0  0  0  0  0  0  0  0  0  0  0  # atno 17370 bound_to 10713
  156.8764  130.9541  151.3604 LP  0  0  0  0  0  0  0  0  0  0  0  0  # atno 17371 bound_to 10713
  140.8600  134.2852  157.5238 LP  0  0  0  0  0  0  0  0  0  0  0  0  # atno 17394 bound_to 11000
  139.8710  134.9513  156.4081 LP  0  0  0  0  0  0  0  0  0  0  0  0  # atno 17395 bound_to 11000

$$$$
