AV-unprocessed.smi:1441|AV-procd|sdf|5875|dock8
  -GOLD-   22720 5553D 1   1.00000     0.00000
 Structure written by MMmdl.
 45 46  0  0  0  0  0  0  0  0  1 V2000
  147.9271  136.0656  163.2482 C   0  0  0  0  0  0  0  0  0  0  0  0
  147.9055  135.9866  161.7501 C   0  0  0  0  0  0  0  0  0  0  0  0
  147.9516  134.8259  160.9287 C   0  0  0  0  0  0  0  0  0  0  0  0
  147.9025  135.3131  159.6530 C   0  0  0  0  0  0  0  0  0  0  0  0
  147.9132  134.5919  158.3454 C   0  0  0  0  0  0  0  0  0  0  0  0
  147.8324  136.6915  159.7523 N   0  0  0  0  0  0  0  0  0  0  0  0
  147.7524  137.6870  158.6928 C   0  0  0  0  0  0  0  0  0  0  0  0
  149.0184  137.7223  157.8285 C   0  0  0  0  0  0  0  0  0  0  0  0
  149.1507  136.9585  156.8710 O   0  0  0  0  0  0  0  0  0  0  0  0
  149.9504  138.6193  158.1848 N   0  0  0  0  0  0  0  0  0  0  0  0
  151.2158  138.8281  157.4920 C   0  0  0  0  0  0  0  0  0  0  0  0
  151.2940  140.2406  156.8835 C   0  0  0  0  0  0  0  0  0  0  0  0
  151.5902  141.2520  157.9093 N   0  0  0  0  0  0  0  0  0  0  0  0
  150.6566  142.3874  157.9772 C   0  0  0  0  0  0  0  0  0  0  0  0
  151.3239  143.7288  157.6168 C   0  0  0  0  0  0  0  0  0  0  0  0
  152.1083  144.3668  158.7731 C   0  0  0  0  0  0  0  0  0  0  0  0
  153.3074  143.5393  159.2575 C   0  0  0  0  0  0  0  0  0  0  0  0
  152.9082  142.1651  159.8205 C   0  0  0  0  0  0  0  0  0  0  0  0
  152.6666  141.1220  158.7216 C   0  0  0  0  0  0  0  0  0  0  0  0
  153.4599  140.1845  158.6269 O   0  0  0  0  0  0  0  0  0  0  0  0
  147.8359  137.1004  161.0401 N   0  0  0  0  0  0  0  0  0  0  0  0
  148.0019  135.0736  163.6939 H   0  0  0  0  0  0  0  0  0  0  0  0
  147.0191  136.5329  163.6299 H   0  0  0  0  0  0  0  0  0  0  0  0
  148.7775  136.6514  163.5980 H   0  0  0  0  0  0  0  0  0  0  0  0
  148.0099  133.7908  161.2310 H   0  0  0  0  0  0  0  0  0  0  0  0
  147.8851  133.5126  158.4960 H   0  0  0  0  0  0  0  0  0  0  0  0
  148.8141  134.8287  157.7793 H   0  0  0  0  0  0  0  0  0  0  0  0
  147.0490  134.8678  157.7409 H   0  0  0  0  0  0  0  0  0  0  0  0
  146.8798  137.4718  158.0731 H   0  0  0  0  0  0  0  0  0  0  0  0
  147.5904  138.6698  159.1359 H   0  0  0  0  0  0  0  0  0  0  0  0
  149.7643  139.2075  158.9842 H   0  0  0  0  0  0  0  0  0  0  0  0
  152.0225  138.6787  158.2097 H   0  0  0  0  0  0  0  0  0  0  0  0
  151.3483  138.0700  156.7178 H   0  0  0  0  0  0  0  0  0  0  0  0
  152.0431  140.2641  156.0912 H   0  0  0  0  0  0  0  0  0  0  0  0
  150.3551  140.4784  156.3802 H   0  0  0  0  0  0  0  0  0  0  0  0
  149.8272  142.2374  157.2855 H   0  0  0  0  0  0  0  0  0  0  0  0
  150.1957  142.4362  158.9645 H   0  0  0  0  0  0  0  0  0  0  0  0
  151.9641  143.6102  156.7417 H   0  0  0  0  0  0  0  0  0  0  0  0
  150.5430  144.4294  157.3193 H   0  0  0  0  0  0  0  0  0  0  0  0
  152.4654  145.3469  158.4555 H   0  0  0  0  0  0  0  0  0  0  0  0
  151.4336  144.5530  159.6096 H   0  0  0  0  0  0  0  0  0  0  0  0
  154.0318  143.4240  158.4493 H   0  0  0  0  0  0  0  0  0  0  0  0
  153.8218  144.1008  160.0380 H   0  0  0  0  0  0  0  0  0  0  0  0
  153.7183  141.8011  160.4540 H   0  0  0  0  0  0  0  0  0  0  0  0
  152.0366  142.2419  160.4713 H   0  0  0  0  0  0  0  0  0  0  0  0
  1  2  1  0  0  0  0
  1 22  1  0  0  0  0
  1 23  1  0  0  0  0
  1 24  1  0  0  0  0
  2 21  2  0  0  0  0
  2  3  1  0  0  0  0
  3  4  2  0  0  0  0
  3 25  1  0  0  0  0
  4  5  1  0  0  0  0
  4  6  1  0  0  0  0
  5 26  1  0  0  0  0
  5 27  1  0  0  0  0
  5 28  1  0  0  0  0
  6  7  1  0  0  0  0
  6 21  1  0  0  0  0
  7  8  1  0  0  0  0
  7 29  1  0  0  0  0
  7 30  1  0  0  0  0
  8  9  2  0  0  0  0
  8 10  1  0  0  0  0
 10 11  1  0  0  0  0
 10 31  1  0  0  0  0
 11 12  1  0  0  0  0
 11 32  1  0  0  0  0
 11 33  1  0  0  0  0
 12 13  1  0  0  0  0
 12 34  1  0  0  0  0
 12 35  1  0  0  0  0
 13 19  1  0  0  0  0
 13 14  1  0  0  0  0
 14 15  1  0  0  0  0
 14 36  1  0  0  0  0
 14 37  1  0  0  0  0
 15 16  1  0  0  0  0
 15 38  1  0  0  0  0
 15 39  1  0  0  0  0
 16 17  1  0  0  0  0
 16 40  1  0  0  0  0
 16 41  1  0  0  0  0
 17 18  1  0  0  0  0
 17 42  1  0  0  0  0
 17 43  1  0  0  0  0
 18 19  1  0  0  0  0
 18 44  1  0  0  0  0
 18 45  1  0  0  0  0
 19 20  2  0  0  0  0
M  END
> <s_m_source_file>
AV-unprocessed.smi

> <i_m_source_file_index>
1441

> <i_lp_mmshare_version>
43012

> <i_f3d_flags>
0

> <s_epik_input>
W0NIM11jMVtjSF1jKFtDSDNdKW4objEpW0NIMl1DKD1PKVtOSF1bQ0gyXVtDSDJdTjJbQ0gyXVtDSDJdW0NIMl1bQ0gyXVtDSDJdQzI9Tw==

> <s_epik_cmdline>
J2VwaWtfcHl0aG9uJywgJy1waCcsICc3LjAnLCAnLXRuJywgJzgnLCAnLW1hJywgJzIwMCcsICctbWV0YWxfYmluZGluZycsICctaW1hZScsICc8aW5maWxlLm1hZT4nLCAnLW9tYWUnLCAnPG91dGZpbGUubWFlPic=

> <r_lp_tautomer_probability>
1

> <r_epik_Ionization_Penalty>
0.000341945

> <r_epik_Ionization_Penalty_Charging>
0

> <r_epik_Ionization_Penalty_Neutral>
0.000341945

> <r_epik_State_Penalty>
-0

> <r_epik_Charging_Adjusted_Penalty>
0

> <i_epik_Tot_Q>
0

> <i_epik_Tot_abs_Q>
0

> <r_epik_Metal_State_Penalty>
-0

> <b_epik_Metal_Only>
0

> <s_lp_Force_Field>
OPLS_2005

> <r_lp_Energy>
16.3244

> <b_lp_Chiralities_Consistent>
1

> <s_lp_Variant>
AV-unprocessed.smi:1441-1

> <Gold.Version>
5.8.1

> <Gold.Id.Protein>
6NUR|6NUR_protein|mol2

> <Gold.PLP.Fitness>
47.5604

> <Gold.PLP.PLP>
-40.2894

> <Gold.PLP.part.hbond>
-3.0000

> <Gold.PLP.part.metal>
0.0000

> <Gold.PLP.part.buried>
-4.3999

> <Gold.PLP.part.nonpolar>
-33.1765

> <Gold.PLP.part.repulsive>
0.1222

> <Gold.PLP.ligand.clash>
0.0000

> <Gold.PLP.ligand.torsion>
0.5029

> <Gold.PLP.Chemscore.Hbond>
2.7520

> <Gold.PLP.Chemscore.CHOScore>
0.0000

> <Gold.PLP.Chemscore.Metal>
0.0000

> <Gold.Chemscore.Hbonds>
donor molecule, donor type, donor heavy atom, donor atom, acceptor molecule, acceptor atom, score
      P1  H  6931  6943       L1    21  0.98
      P1  H  6934  6947       L1    21  0.83
      P1  H  7997  8009       L1    20  0.93

> <Gold.PLP.Chemscore.Internal.Correction>
0.0209

> <Gold.Rescore>
     Score         DG    S(hbond)    S(metal)    S(lipo)     H(rot)  DE(clash)    DE(int)     intcor
     16.73     -18.46       1.80        0.00      98.21       1.77       0.03       1.71       ----

> <Gold.Chemscore.Fitness>
16.7259

> <Gold.Chemscore.DG>
-18.4632

> <Gold.Chemscore.ZeroCoef>
-5.4800

> <Gold.Chemscore.Hbond>
1.8048

> <Gold.Chemscore.Metal>
0.0000

> <Gold.Chemscore.Lipo>
98.2071

> <Gold.Chemscore.Internal_Hbond>
0.0000

> <Gold.Chemscore.DEClash>
0.0308

> <Gold.Chemscore.DEInternal>
1.7065

> <Gold.Chemscore.Rot>
1.7715

> <Gold.Chemscore.Internal.Correction>
   9.000000E+99

> <Gold.Chemscore.Hbonds>
donor molecule, donor type, donor heavy atom, donor atom, acceptor molecule, acceptor atom, score
      P1  H  6931  6943       L1    21  0.42
      P1  H  6934  6947       L1    21  0.34
      P1  H  7997  8009       L1    20  0.88

> <Gold.Chemscore.Hbond.Weighted>
-6.0280

> <Gold.Chemscore.Metal.Weighted>
-0.0000

> <Gold.Chemscore.Lipo.Weighted>
-11.4902

> <Gold.Chemscore.Internal_Hbond.Weighted>
0.0000

> <Gold.Chemscore.DEClash.Weighted>
0.0308

> <Gold.Chemscore.DEInternal.Weighted>
1.7065

> <Gold.Chemscore.Rot.Weighted>
4.5351

> <Gold.Chemscore.Internal.Correction.Weighted>
   9.000000E+99

> <Gold.Protein.RotatedTorsions>
[ 6907 6896 6895 6894 ] final -156.49 input  -60.11 | X-H torsion
[ 7974 7965 7964 7962 ] final  124.83 input  175.53 | X-H torsion
[ 8008 7997 7996 7995 ] final  139.08 input   59.86 | X-H torsion
[ 10167 10162 10161 10158 ] final   65.59 input  -65.29 | X-H torsion
[ 10718 10713 10712 10709 ] final    6.22 input   66.30 | X-H torsion
[ 10763 10752 10751 10750 ] final -129.67 input  -60.55 | X-H torsion
[ 11005 11000 10999 10996 ] final  -18.97 input  -57.11 | X-H torsion

> <Gold.Protein.ActiveResidues>
 VAL166  LYS551  ARG553  GLY616  TRP617  ASP618  TYR619  PRO620  LYS621  CYS622 
 ASP623  PHE694  ASN695  SER759  ASP760  ASP761  ALA762  ILE779  LEU786  VAL792 
 PHE793  MET794  SER795  GLU796  ALA797  LYS798  CYS799  TRP800  GLU811  SER814 

> <Gold.Protein.RotatedAtoms>
  151.2884  133.4177  159.2631 H   0  0  0  0  0  0  0  0  0  0  0  0  # atno 6907 bound_to 6896
  151.0299  134.9532  159.8115 H   0  0  0  0  0  0  0  0  0  0  0  0  # atno 6908 bound_to 6896
  152.5343  134.2845  159.9072 H   0  0  0  0  0  0  0  0  0  0  0  0  # atno 6909 bound_to 6896
  145.0799  139.3665  143.4914 H   0  0  0  0  0  0  0  0  0  0  0  0  # atno 7974 bound_to 7965
  156.2992  140.2377  156.4179 H   0  0  0  0  0  0  0  0  0  0  0  0  # atno 8008 bound_to 7997
  154.8382  140.0429  157.1543 H   0  0  0  0  0  0  0  0  0  0  0  0  # atno 8009 bound_to 7997
  154.9132  140.2993  155.5259 H   0  0  0  0  0  0  0  0  0  0  0  0  # atno 8010 bound_to 7997
  140.1096  144.4830  150.6986 H   0  0  0  0  0  0  0  0  0  0  0  0  # atno 10167 bound_to 10162
  156.9189  130.5783  149.5647 H   0  0  0  0  0  0  0  0  0  0  0  0  # atno 10718 bound_to 10713
  154.8757  135.3888  154.3957 H   0  0  0  0  0  0  0  0  0  0  0  0  # atno 10763 bound_to 10752
  153.4688  135.7030  153.6011 H   0  0  0  0  0  0  0  0  0  0  0  0  # atno 10764 bound_to 10752
  153.4478  135.3841  155.2234 H   0  0  0  0  0  0  0  0  0  0  0  0  # atno 10765 bound_to 10752
  140.8320  133.7989  155.9769 H   0  0  0  0  0  0  0  0  0  0  0  0  # atno 11005 bound_to 11000
  146.3531  140.0584  142.8631 LP  0  0  0  0  0  0  0  0  0  0  0  0  # atno 17320 bound_to 7965
  145.1191  140.9451  143.4611 LP  0  0  0  0  0  0  0  0  0  0  0  0  # atno 17321 bound_to 7965
  140.6933  143.2388  151.5072 LP  0  0  0  0  0  0  0  0  0  0  0  0  # atno 17342 bound_to 10162
  139.5626  144.2119  152.1715 LP  0  0  0  0  0  0  0  0  0  0  0  0  # atno 17343 bound_to 10162
  156.0500  130.5571  150.8968 LP  0  0  0  0  0  0  0  0  0  0  0  0  # atno 17370 bound_to 10713
  157.5920  131.0944  150.9103 LP  0  0  0  0  0  0  0  0  0  0  0  0  # atno 17371 bound_to 10713
  140.8988  134.2405  157.5054 LP  0  0  0  0  0  0  0  0  0  0  0  0  # atno 17394 bound_to 11000
  139.8705  134.9696  156.4673 LP  0  0  0  0  0  0  0  0  0  0  0  0  # atno 17395 bound_to 11000

$$$$
