AV-unprocessed.smi:105|AV-procd|sdf|1010|dock5
  -GOLD-   2262018 03D 1   1.00000     0.00000
 Structure written by MMmdl.
 42 45  0  0  0  0  0  0  0  0  1 V2000
  151.7642  144.4352  159.8367 C   0  0  0  0  0  0  0  0  0  0  0  0
  151.9828  144.2869  161.2201 C   0  0  0  0  0  0  0  0  0  0  0  0
  152.7361  143.1983  161.7017 C   0  0  0  0  0  0  0  0  0  0  0  0
  153.2742  142.2562  160.8004 C   0  0  0  0  0  0  0  0  0  0  0  0
  154.0754  141.0805  161.3194 C   0  0  0  0  0  0  0  0  0  0  0  0
  155.1920  141.4877  162.1607 N   0  0  0  0  0  0  0  0  0  0  0  0
  155.7874  140.5906  162.9755 C   0  0  0  0  0  0  0  0  0  0  0  0
  156.7369  140.9772  163.8680 N   0  0  0  0  0  0  0  0  0  0  0  0
  157.3152  140.0718  164.6639 C   0  0  0  0  0  0  0  0  0  0  0  0
  157.0971  138.7560  164.7293 N   0  0  0  0  0  0  0  0  0  0  0  0
  156.1448  138.3668  163.8332 C   0  0  0  0  0  0  0  0  0  0  0  0
  155.4453  139.2142  162.9284 C   0  0  0  0  0  0  0  0  0  0  0  0
  154.5493  138.4700  162.1721 N   0  0  0  0  0  0  0  0  0  0  0  0
  154.7112  137.2486  162.6040 C   0  0  0  0  0  0  0  0  0  0  0  0
  155.6492  137.0953  163.6022 N   0  0  0  0  0  0  0  0  0  0  0  0
  156.0323  135.8571  164.2575 C   0  0  1  0  0  0  0  0  0  0  0  0
  154.8427  135.2162  164.9996 C   0  0  0  0  0  0  0  0  0  0  0  0
  155.3211  133.9080  165.6405 C   0  0  0  0  0  0  0  0  0  0  0  0
  155.9138  132.9994  164.5590 C   0  0  0  0  0  0  0  0  0  0  0  0
  157.0078  133.7558  163.7871 C   0  0  0  0  0  0  0  0  0  0  0  0
  156.4804  134.9749  163.2695 O   0  0  0  0  0  0  0  0  0  0  0  0
  153.0527  142.4066  159.4156 C   0  0  0  0  0  0  0  0  0  0  0  0
  152.2990  143.4952  158.9346 C   0  0  0  0  0  0  0  0  0  0  0  0
  151.1858  145.2695  159.4676 H   0  0  0  0  0  0  0  0  0  0  0  0
  151.5718  145.0077  161.9116 H   0  0  0  0  0  0  0  0  0  0  0  0
  152.8992  143.0876  162.7638 H   0  0  0  0  0  0  0  0  0  0  0  0
  153.4156  140.4198  161.8838 H   0  0  0  0  0  0  0  0  0  0  0  0
  154.4502  140.5083  160.4696 H   0  0  0  0  0  0  0  0  0  0  0  0
  155.4642  142.4588  162.1054 H   0  0  0  0  0  0  0  0  0  0  0  0
  158.0594  140.4567  165.3455 H   0  0  0  0  0  0  0  0  0  0  0  0
  154.1483  136.4182  162.2026 H   0  0  0  0  0  0  0  0  0  0  0  0
  156.8557  136.0759  164.9400 H   0  0  0  0  0  0  0  0  0  0  0  0
  154.4764  135.9091  165.7580 H   0  0  0  0  0  0  0  0  0  0  0  0
  154.0311  135.0305  164.2947 H   0  0  0  0  0  0  0  0  0  0  0  0
  156.0707  134.1180  166.4046 H   0  0  0  0  0  0  0  0  0  0  0  0
  154.4920  133.4082  166.1421 H   0  0  0  0  0  0  0  0  0  0  0  0
  156.3219  132.0918  165.0049 H   0  0  0  0  0  0  0  0  0  0  0  0
  155.1284  132.6867  163.8698 H   0  0  0  0  0  0  0  0  0  0  0  0
  157.8657  133.9626  164.4290 H   0  0  0  0  0  0  0  0  0  0  0  0
  157.3708  133.1483  162.9581 H   0  0  0  0  0  0  0  0  0  0  0  0
  153.4581  141.6872  158.7191 H   0  0  0  0  0  0  0  0  0  0  0  0
  152.1303  143.6086  157.8738 H   0  0  0  0  0  0  0  0  0  0  0  0
  1 23  1  0  0  0  0
  1  2  2  0  0  0  0
  1 24  1  0  0  0  0
  2  3  1  0  0  0  0
  2 25  1  0  0  0  0
  3  4  2  0  0  0  0
  3 26  1  0  0  0  0
  4  5  1  0  0  0  0
  4 22  1  0  0  0  0
  5  6  1  0  0  0  0
  5 27  1  0  0  0  0
  5 28  1  0  0  0  0
  6  7  1  0  0  0  0
  6 29  1  0  0  0  0
  7 12  1  0  0  0  0
  7  8  2  0  0  0  0
  8  9  1  0  0  0  0
  9 10  2  0  0  0  0
  9 30  1  0  0  0  0
 10 11  1  0  0  0  0
 11 15  1  0  0  0  0
 11 12  2  0  0  0  0
 12 13  1  0  0  0  0
 13 14  2  0  0  0  0
 14 15  1  0  0  0  0
 14 31  1  0  0  0  0
 15 16  1  0  0  0  0
 16 21  1  0  0  0  0
 16 17  1  0  0  0  0
 16 32  1  0  0  0  0
 17 18  1  0  0  0  0
 17 33  1  0  0  0  0
 17 34  1  0  0  0  0
 18 19  1  0  0  0  0
 18 35  1  0  0  0  0
 18 36  1  0  0  0  0
 19 20  1  0  0  0  0
 19 37  1  0  0  0  0
 19 38  1  0  0  0  0
 20 21  1  0  0  0  0
 20 39  1  0  0  0  0
 20 40  1  0  0  0  0
 22 23  2  0  0  0  0
 22 41  1  0  0  0  0
 23 42  1  0  0  0  0
M  END
> <s_m_source_file>
AV-unprocessed.smi

> <i_m_source_file_index>
105

> <i_lp_mmshare_version>
43012

> <i_f3d_flags>
0

> <s_epik_input>
W2NIXTFbY0hdW2NIXVtjSF1bY0hdYzFbQ0gyXVtOSF1jKG5bY0hdbjIpYyhjMjMpbltjSF1uM1tDQEBIXTRbQ0gyXVtDSDJdW0NIMl1bQ0gyXU80

> <s_epik_cmdline>
J2VwaWtfcHl0aG9uJywgJy1waCcsICc3LjAnLCAnLXRuJywgJzgnLCAnLW1hJywgJzIwMCcsICctbWV0YWxfYmluZGluZycsICctaW1hZScsICc8aW5maWxlLm1hZT4nLCAnLW9tYWUnLCAnPG91dGZpbGUubWFlPic=

> <r_lp_tautomer_probability>
1

> <r_epik_Ionization_Penalty>
0.000653933

> <r_epik_Ionization_Penalty_Charging>
0

> <r_epik_Ionization_Penalty_Neutral>
0.000653933

> <r_epik_State_Penalty>
-0

> <r_epik_Charging_Adjusted_Penalty>
0

> <i_epik_Tot_Q>
0

> <i_epik_Tot_abs_Q>
0

> <r_epik_Metal_State_Penalty>
-0

> <b_epik_Metal_Only>
0

> <s_epik_Chemistry_Notes>
This compound contains an acetal/aminal-like group ( X-CH(R)-Y where X, Y are N, S, or O) that may be acid/base labile, releasing an aldehyde.

> <s_lp_Force_Field>
OPLS_2005

> <r_lp_Energy>
23.9687

> <b_lp_Chiralities_Consistent>
1

> <s_lp_Variant>
AV-unprocessed.smi:105-2

> <Gold.Version>
5.8.1

> <Gold.Id.Protein>
6NUR|6NUR_protein|mol2

> <Gold.PLP.Fitness>
47.7386

> <Gold.PLP.PLP>
-48.0470

> <Gold.PLP.part.hbond>
-1.0000

> <Gold.PLP.part.metal>
0.0000

> <Gold.PLP.part.buried>
-4.5547

> <Gold.PLP.part.nonpolar>
-42.7329

> <Gold.PLP.part.repulsive>
0.0555

> <Gold.PLP.ligand.clash>
0.0000

> <Gold.PLP.ligand.torsion>
0.1611

> <Gold.PLP.Chemscore.Hbond>
0.0000

> <Gold.PLP.Chemscore.CHOScore>
0.0000

> <Gold.PLP.Chemscore.Metal>
0.0000

> <Gold.PLP.Chemscore.Internal.Correction>
0.0138

> <Gold.Rescore>
     Score         DG    S(hbond)    S(metal)    S(lipo)     H(rot)  DE(clash)    DE(int)     intcor
     11.75     -14.95       0.00        0.00     114.96       1.55       1.40       1.80       ----

> <Gold.Chemscore.Fitness>
11.7487

> <Gold.Chemscore.DG>
-14.9502

> <Gold.Chemscore.ZeroCoef>
-5.4800

> <Gold.Chemscore.Hbond>
0.0000

> <Gold.Chemscore.Metal>
0.0000

> <Gold.Chemscore.Lipo>
114.9583

> <Gold.Chemscore.Internal_Hbond>
0.0000

> <Gold.Chemscore.DEClash>
1.3975

> <Gold.Chemscore.DEInternal>
1.8040

> <Gold.Chemscore.Rot>
1.5547

> <Gold.Chemscore.Internal.Correction>
   9.000000E+99

> <Gold.Chemscore.Hbond.Weighted>
-0.0000

> <Gold.Chemscore.Metal.Weighted>
-0.0000

> <Gold.Chemscore.Lipo.Weighted>
-13.4501

> <Gold.Chemscore.Internal_Hbond.Weighted>
0.0000

> <Gold.Chemscore.DEClash.Weighted>
1.3975

> <Gold.Chemscore.DEInternal.Weighted>
1.8040

> <Gold.Chemscore.Rot.Weighted>
3.9800

> <Gold.Chemscore.Internal.Correction.Weighted>
   9.000000E+99

> <Gold.Protein.RotatedTorsions>
[ 6907 6896 6895 6894 ] final  -95.99 input  -60.11 | X-H torsion
[ 7974 7965 7964 7962 ] final   81.56 input  175.53 | X-H torsion
[ 8008 7997 7996 7995 ] final  115.25 input   59.86 | X-H torsion
[ 10167 10162 10161 10158 ] final   96.56 input  -65.29 | X-H torsion
[ 10718 10713 10712 10709 ] final -125.82 input   66.30 | X-H torsion
[ 10763 10752 10751 10750 ] final   66.23 input  -60.55 | X-H torsion
[ 11005 11000 10999 10996 ] final -105.95 input  -57.11 | X-H torsion

> <Gold.Protein.ActiveResidues>
 VAL166  LYS551  ARG553  GLY616  TRP617  ASP618  TYR619  PRO620  LYS621  CYS622 
 ASP623  PHE694  ASN695  SER759  ASP760  ASP761  ALA762  ILE779  LEU786  VAL792 
 PHE793  MET794  SER795  GLU796  ALA797  LYS798  CYS799  TRP800  GLU811  SER814 

> <Gold.Protein.RotatedAtoms>
  150.6977  134.1573  159.4162 H   0  0  0  0  0  0  0  0  0  0  0  0  # atno 6907 bound_to 6896
  151.9554  135.0147  160.0554 H   0  0  0  0  0  0  0  0  0  0  0  0  # atno 6908 bound_to 6896
  152.1974  133.4781  159.5077 H   0  0  0  0  0  0  0  0  0  0  0  0  # atno 6909 bound_to 6896
  145.6366  139.2416  143.2054 H   0  0  0  0  0  0  0  0  0  0  0  0  # atno 7974 bound_to 7965
  156.2370  140.2942  156.0340 H   0  0  0  0  0  0  0  0  0  0  0  0  # atno 8008 bound_to 7997
  155.2062  140.0411  157.2943 H   0  0  0  0  0  0  0  0  0  0  0  0  # atno 8009 bound_to 7997
  154.6097  140.2448  155.7692 H   0  0  0  0  0  0  0  0  0  0  0  0  # atno 8010 bound_to 7997
  139.7882  144.6862  150.9928 H   0  0  0  0  0  0  0  0  0  0  0  0  # atno 10167 bound_to 10162
  156.1710  130.6667  151.0179 H   0  0  0  0  0  0  0  0  0  0  0  0  # atno 10718 bound_to 10713
  153.0131  135.5328  154.6792 H   0  0  0  0  0  0  0  0  0  0  0  0  # atno 10763 bound_to 10752
  154.5956  135.2863  155.0592 H   0  0  0  0  0  0  0  0  0  0  0  0  # atno 10764 bound_to 10752
  154.1668  135.6538  153.5052 H   0  0  0  0  0  0  0  0  0  0  0  0  # atno 10765 bound_to 10752
  141.1029  133.8851  157.1796 H   0  0  0  0  0  0  0  0  0  0  0  0  # atno 11005 bound_to 11000
  146.1314  140.7180  142.9410 LP  0  0  0  0  0  0  0  0  0  0  0  0  # atno 17320 bound_to 7965
  144.7173  140.4254  143.7034 LP  0  0  0  0  0  0  0  0  0  0  0  0  # atno 17321 bound_to 7965
  140.7820  143.4409  151.0553 LP  0  0  0  0  0  0  0  0  0  0  0  0  # atno 17342 bound_to 10162
  139.8086  143.7982  152.3169 LP  0  0  0  0  0  0  0  0  0  0  0  0  # atno 17343 bound_to 10162
  157.6802  131.0840  150.7389 LP  0  0  0  0  0  0  0  0  0  0  0  0  # atno 17370 bound_to 10713
  156.7448  130.4750  149.5469 LP  0  0  0  0  0  0  0  0  0  0  0  0  # atno 17371 bound_to 10713
  139.9887  135.0072  156.9923 LP  0  0  0  0  0  0  0  0  0  0  0  0  # atno 17394 bound_to 11000
  140.4977  134.1129  155.7244 LP  0  0  0  0  0  0  0  0  0  0  0  0  # atno 17395 bound_to 11000

$$$$
