AV-unprocessed.smi:3032|AV-procd|sdf|11560|dock8
  -GOLD-   2272016523D 1   1.00000     0.00000
 Structure written by MMmdl.
 37 38  0  0  0  0  0  0  0  0  1 V2000
  153.5100  142.0837  161.5688 C   0  0  0  0  0  0  0  0  0  0  0  0
  152.4626  142.8248  160.7255 C   0  0  1  0  0  0  0  0  0  0  0  0
  152.3081  144.2873  161.1822 C   0  0  0  0  0  0  0  0  0  0  0  0
  151.2614  145.0342  160.3425 C   0  0  0  0  0  0  0  0  0  0  0  0
  151.6002  144.9739  158.8418 C   0  0  0  0  0  0  0  0  0  0  0  0
  151.8233  143.5368  158.3152 C   0  0  2  0  0  0  0  0  0  0  0  0
  150.5068  142.7706  158.0852 C   0  0  0  0  0  0  0  0  0  0  0  0
  149.7666  142.4847  159.0260 O   0  0  0  0  0  0  0  0  0  0  0  0
  150.2280  142.4377  156.8150 N   0  0  0  0  0  0  0  0  0  0  0  0
  149.0511  141.6939  156.3809 C   0  0  0  0  0  0  0  0  0  0  0  0
  149.3592  140.8123  155.1598 C   0  0  0  0  0  0  0  0  0  0  0  0
  150.6793  140.1222  155.2693 C   0  0  0  0  0  0  0  0  0  0  0  0
  151.4052  140.1447  156.3890 N   0  0  0  0  0  0  0  0  0  0  0  0
  152.5477  139.4534  156.1933 N   0  0  0  0  0  0  0  0  0  0  0  0
  152.4208  139.0575  154.9281 C   0  0  0  0  0  0  0  0  0  0  0  0
  151.2754  139.4474  154.2922 N   0  0  0  0  0  0  0  0  0  0  0  0
  152.8099  142.7630  159.2218 C   0  0  0  0  0  0  0  0  0  0  0  0
  151.1744  140.5933  157.2640 H   0  0  0  0  0  0  0  0  0  0  0  0
  154.4965  142.5367  161.4653 H   0  0  0  0  0  0  0  0  0  0  0  0
  153.5893  141.0394  161.2660 H   0  0  0  0  0  0  0  0  0  0  0  0
  153.2459  142.1003  162.6263 H   0  0  0  0  0  0  0  0  0  0  0  0
  151.5103  142.3194  160.8860 H   0  0  0  0  0  0  0  0  0  0  0  0
  152.0219  144.3215  162.2340 H   0  0  0  0  0  0  0  0  0  0  0  0
  153.2677  144.8007  161.1068 H   0  0  0  0  0  0  0  0  0  0  0  0
  150.2730  144.6134  160.5262 H   0  0  0  0  0  0  0  0  0  0  0  0
  151.2083  146.0749  160.6636 H   0  0  0  0  0  0  0  0  0  0  0  0
  150.8153  145.4695  158.2687 H   0  0  0  0  0  0  0  0  0  0  0  0
  152.5063  145.5548  158.6652 H   0  0  0  0  0  0  0  0  0  0  0  0
  152.3000  143.6312  157.3379 H   0  0  0  0  0  0  0  0  0  0  0  0
  150.8837  142.7136  156.0982 H   0  0  0  0  0  0  0  0  0  0  0  0
  148.6635  141.0896  157.2028 H   0  0  0  0  0  0  0  0  0  0  0  0
  148.2721  142.4141  156.1303 H   0  0  0  0  0  0  0  0  0  0  0  0
  148.5781  140.0618  155.0324 H   0  0  0  0  0  0  0  0  0  0  0  0
  149.3613  141.4139  154.2499 H   0  0  0  0  0  0  0  0  0  0  0  0
  153.1832  138.4660  154.4424 H   0  0  0  0  0  0  0  0  0  0  0  0
  153.8102  143.1721  159.0726 H   0  0  0  0  0  0  0  0  0  0  0  0
  152.8674  141.7215  158.9012 H   0  0  0  0  0  0  0  0  0  0  0  0
  1  2  1  0  0  0  0
  1 19  1  0  0  0  0
  1 20  1  0  0  0  0
  1 21  1  0  0  0  0
  2 17  1  0  0  0  0
  2  3  1  0  0  0  0
  2 22  1  0  0  0  0
  3  4  1  0  0  0  0
  3 23  1  0  0  0  0
  3 24  1  0  0  0  0
  4  5  1  0  0  0  0
  4 25  1  0  0  0  0
  4 26  1  0  0  0  0
  5  6  1  0  0  0  0
  5 27  1  0  0  0  0
  5 28  1  0  0  0  0
  6  7  1  0  0  0  0
  6 17  1  0  0  0  0
  6 29  1  0  0  0  0
  7  8  2  0  0  0  0
  7  9  1  0  0  0  0
  9 10  1  0  0  0  0
  9 30  1  0  0  0  0
 10 11  1  0  0  0  0
 10 31  1  0  0  0  0
 10 32  1  0  0  0  0
 11 33  1  0  0  0  0
 11 34  1  0  0  0  0
 11 12  1  0  0  0  0
 12 16  2  0  0  0  0
 12 13  1  0  0  0  0
 13 18  1  0  0  0  0
 13 14  1  0  0  0  0
 14 15  2  0  0  0  0
 15 16  1  0  0  0  0
 15 35  1  0  0  0  0
 17 36  1  0  0  0  0
 17 37  1  0  0  0  0
M  END
> <s_m_source_file>
AV-unprocessed.smi

> <i_m_source_file_index>
3032

> <i_lp_mmshare_version>
43012

> <i_f3d_flags>
0

> <s_epik_input>
W0NIM11bQ0BASF0xW0NIMl1bQ0gyXVtDSDJdW0NASF0oW0NIMl0xKUMoPU8pW05IXVtDSDJdW0NIMl1jMm5uW2NIXVtuSF0y

> <s_epik_cmdline>
J2VwaWtfcHl0aG9uJywgJy1waCcsICc3LjAnLCAnLXRuJywgJzgnLCAnLW1hJywgJzIwMCcsICctbWV0YWxfYmluZGluZycsICctaW1hZScsICc8aW5maWxlLm1hZT4nLCAnLW9tYWUnLCAnPG91dGZpbGUubWFlPic=

> <r_lp_tautomer_probability>
0.948284

> <r_epik_Ionization_Penalty>
0.000474052

> <r_epik_Ionization_Penalty_Charging>
0

> <r_epik_Ionization_Penalty_Neutral>
0.000474052

> <r_epik_State_Penalty>
0.271807

> <r_epik_Charging_Adjusted_Penalty>
0.271807

> <i_epik_Tot_Q>
0

> <i_epik_Tot_abs_Q>
0

> <r_epik_Metal_State_Penalty>
0.397201

> <b_epik_Metal_Only>
0

> <s_lp_Force_Field>
OPLS_2005

> <r_lp_Energy>
9.09743

> <b_lp_Chiralities_Consistent>
1

> <s_lp_Variant>
AV-unprocessed.smi:3032-4

> <Gold.Version>
5.8.1

> <Gold.Id.Protein>
6NUR|6NUR_protein|mol2

> <Gold.PLP.Fitness>
45.9089

> <Gold.PLP.PLP>
-41.9447

> <Gold.PLP.part.hbond>
-4.0000

> <Gold.PLP.part.metal>
0.0000

> <Gold.PLP.part.buried>
-3.6876

> <Gold.PLP.part.nonpolar>
-34.8902

> <Gold.PLP.part.repulsive>
0.3682

> <Gold.PLP.ligand.clash>
0.0000

> <Gold.PLP.ligand.torsion>
0.3658

> <Gold.PLP.Chemscore.Hbond>
1.5500

> <Gold.PLP.Chemscore.CHOScore>
0.0000

> <Gold.PLP.Chemscore.Metal>
0.0000

> <Gold.Chemscore.Hbonds>
donor molecule, donor type, donor heavy atom, donor atom, acceptor molecule, acceptor atom, score
      P1  H  7989  7998       L1    16  0.60
      P1  H  7997  8010       L1    14  1.00

> <Gold.PLP.Chemscore.Internal.Correction>
0.0458

> <Gold.Rescore>
     Score         DG    S(hbond)    S(metal)    S(lipo)     H(rot)  DE(clash)    DE(int)     intcor
     11.82     -13.81       0.86        0.00      95.77       2.25       0.02       1.97       ----

> <Gold.Chemscore.Fitness>
11.8203

> <Gold.Chemscore.DG>
-13.8106

> <Gold.Chemscore.ZeroCoef>
-5.4800

> <Gold.Chemscore.Hbond>
0.8640

> <Gold.Chemscore.Metal>
0.0000

> <Gold.Chemscore.Lipo>
95.7696

> <Gold.Chemscore.Internal_Hbond>
0.0000

> <Gold.Chemscore.DEClash>
0.0247

> <Gold.Chemscore.DEInternal>
1.9656

> <Gold.Chemscore.Rot>
2.2501

> <Gold.Chemscore.Internal.Correction>
   9.000000E+99

> <Gold.Chemscore.Hbonds>
donor molecule, donor type, donor heavy atom, donor atom, acceptor molecule, acceptor atom, score
      P1  H  7989  7998       L1    16  0.02
      P1  H  7997  8010       L1    14  0.79

> <Gold.Chemscore.Hbond.Weighted>
-2.8859

> <Gold.Chemscore.Metal.Weighted>
-0.0000

> <Gold.Chemscore.Lipo.Weighted>
-11.2050

> <Gold.Chemscore.Internal_Hbond.Weighted>
0.0000

> <Gold.Chemscore.DEClash.Weighted>
0.0247

> <Gold.Chemscore.DEInternal.Weighted>
1.9656

> <Gold.Chemscore.Rot.Weighted>
5.7603

> <Gold.Chemscore.Internal.Correction.Weighted>
   9.000000E+99

> <Gold.Protein.RotatedTorsions>
[ 6907 6896 6895 6894 ] final  -53.68 input  -60.11 | X-H torsion
[ 7974 7965 7964 7962 ] final -179.90 input  175.53 | X-H torsion
[ 8008 7997 7996 7995 ] final   57.40 input   59.86 | X-H torsion
[ 10167 10162 10161 10158 ] final   12.76 input  -65.29 | X-H torsion
[ 10718 10713 10712 10709 ] final -106.07 input   66.30 | X-H torsion
[ 10763 10752 10751 10750 ] final   59.17 input  -60.55 | X-H torsion
[ 11005 11000 10999 10996 ] final   95.96 input  -57.11 | X-H torsion

> <Gold.Protein.ActiveResidues>
 VAL166  LYS551  ARG553  GLY616  TRP617  ASP618  TYR619  PRO620  LYS621  CYS622 
 ASP623  PHE694  ASN695  SER759  ASP760  ASP761  ALA762  ILE779  LEU786  VAL792 
 PHE793  MET794  SER795  GLU796  ALA797  LYS798  CYS799  TRP800  GLU811  SER814 

> <Gold.Protein.RotatedAtoms>
  150.8405  134.7695  159.6927 H   0  0  0  0  0  0  0  0  0  0  0  0  # atno 6907 bound_to 6896
  152.4493  134.5424  159.9853 H   0  0  0  0  0  0  0  0  0  0  0  0  # atno 6908 bound_to 6896
  151.5565  133.3371  159.2999 H   0  0  0  0  0  0  0  0  0  0  0  0  # atno 6909 bound_to 6896
  144.7140  140.0649  143.6431 H   0  0  0  0  0  0  0  0  0  0  0  0  # atno 7974 bound_to 7965
  155.5331  140.3482  155.4430 H   0  0  0  0  0  0  0  0  0  0  0  0  # atno 8008 bound_to 7997
  156.0704  140.1361  156.9862 H   0  0  0  0  0  0  0  0  0  0  0  0  # atno 8009 bound_to 7997
  154.4525  140.0967  156.6635 H   0  0  0  0  0  0  0  0  0  0  0  0  # atno 8010 bound_to 7997
  140.6047  143.8533  150.7001 H   0  0  0  0  0  0  0  0  0  0  0  0  # atno 10167 bound_to 10162
  156.0374  130.5595  150.7629 H   0  0  0  0  0  0  0  0  0  0  0  0  # atno 10718 bound_to 10713
  152.9888  135.5581  154.5670 H   0  0  0  0  0  0  0  0  0  0  0  0  # atno 10763 bound_to 10752
  154.5078  135.2800  155.1370 H   0  0  0  0  0  0  0  0  0  0  0  0  # atno 10764 bound_to 10752
  154.2774  135.6351  153.5386 H   0  0  0  0  0  0  0  0  0  0  0  0  # atno 10765 bound_to 10752
  139.8785  134.8926  156.4088 H   0  0  0  0  0  0  0  0  0  0  0  0  # atno 11005 bound_to 11000
  145.9833  139.2958  143.1029 LP  0  0  0  0  0  0  0  0  0  0  0  0  # atno 17320 bound_to 7965
  145.8986  140.9257  143.0515 LP  0  0  0  0  0  0  0  0  0  0  0  0  # atno 17321 bound_to 7965
  140.2087  143.3901  152.1735 LP  0  0  0  0  0  0  0  0  0  0  0  0  # atno 17342 bound_to 10162
  139.5316  144.7165  151.5036 LP  0  0  0  0  0  0  0  0  0  0  0  0  # atno 17343 bound_to 10162
  157.5144  131.0927  151.0158 LP  0  0  0  0  0  0  0  0  0  0  0  0  # atno 17370 bound_to 10713
  157.0505  130.5785  149.5369 LP  0  0  0  0  0  0  0  0  0  0  0  0  # atno 17371 bound_to 10713
  140.9215  133.7642  155.9912 LP  0  0  0  0  0  0  0  0  0  0  0  0  # atno 17394 bound_to 11000
  140.8434  134.3040  157.5304 LP  0  0  0  0  0  0  0  0  0  0  0  0  # atno 17395 bound_to 11000

$$$$
