#       Name:                AV-unprocessed.smi:520
#       Creating user name   scv26
#       Creation time:       Thu Mar 26 23:27:14 2020


#       File generated by GOLD software.
#

@<TRIPOS>MOLECULE
AV-unprocessed.smi:520
    44    46     1
SMALL
NO_CHARGES


@<TRIPOS>ATOM
      1 ****        -1.6866   2.3454  -0.6866 C.3            1 S1                 0.0000
      2 ****        -2.6312   1.1736  -0.8788 C.ar           1 S1                 0.0000
      3 ****        -4.0246   1.3942  -0.8751 C.ar           1 S1                 0.0000
      4 ****        -4.9136   0.3177  -1.0462 C.ar           1 S1                 0.0000
      5 ****        -4.4108  -0.9836  -1.2221 C.ar           1 S1                 0.0000
      6 ****        -3.0212  -1.2091  -1.2294 C.ar           1 S1                 0.0000
      7 ****        -2.1152  -0.1313  -1.0585 C.ar           1 S1                 0.0000
      8 ****        -0.7438  -0.2773  -1.0583 O.3            1 S1                 0.0000
      9 ****        -0.1971  -1.5830  -1.1857 C.3            1 S1                 0.0000
     10 ****         1.3350  -1.5066  -1.1131 C.3            1 S1                 0.0000
     11 ****         1.8056  -0.8989   0.1409 N.pl3          1 S1                 0.0000
     12 ****         2.0873  -1.4768   1.3437 C.2            1 S1                 0.0000
     13 ****         1.9837  -2.9312   1.6764 C.3            1 S1                 0.0000
     14 ****         2.2467  -3.2135   3.0353 O.3            1 S1                 0.0000
     15 ****         2.4793  -0.4788   2.1868 N.pl3          1 S1                 1.0000
     16 ****         2.4429   0.7465   1.5209 C.ar           1 S1                 0.0000
     17 ****         2.7444   2.0318   1.9604 C.ar           1 S1                 0.0000
     18 ****         2.5946   3.0731   1.0211 C.ar           1 S1                 0.0000
     19 ****         2.1623   2.8168  -0.2962 C.ar           1 S1                 0.0000
     20 ****         1.8634   1.5089  -0.7309 C.ar           1 S1                 0.0000
     21 ****         2.0118   0.4848   0.2044 C.ar           1 S1                 0.0000
     22 ****        -2.2314   3.2750  -0.5199 H              1 S1                 0.0000
     23 ****        -1.0579   2.4733  -1.5681 H              1 S1                 0.0000
     24 ****        -1.0410   2.1738   0.1751 H              1 S1                 0.0000
     25 ****        -4.4183   2.3910  -0.7404 H              1 S1                 0.0000
     26 ****        -5.9798   0.4902  -1.0423 H              1 S1                 0.0000
     27 ****        -5.0920  -1.8116  -1.3529 H              1 S1                 0.0000
     28 ****        -2.6756  -2.2217  -1.3702 H              1 S1                 0.0000
     29 ****        -0.5676  -2.2250  -0.3850 H              1 S1                 0.0000
     30 ****        -0.4930  -2.0252  -2.1380 H              1 S1                 0.0000
     31 ****         1.7615  -2.5079  -1.1781 H              1 S1                 0.0000
     32 ****         1.7395  -0.9470  -1.9565 H              1 S1                 0.0000
     33 ****         0.9818  -3.2840   1.4309 H              1 S1                 0.0000
     34 ****         2.6860  -3.4897   1.0573 H              1 S1                 0.0000
     35 ****         2.1595  -4.1448   3.1712 H              1 S1                 0.0000
     36 ****         3.0744   2.2305   2.9696 H              1 S1                 0.0000
     37 ****         2.8141   4.0886   1.3173 H              1 S1                 0.0000
     38 ****         2.0559   3.6403  -0.9875 H              1 S1                 0.0000
     39 ****         1.5258   1.3259  -1.7402 H              1 S1                 0.0000
     40 ****         2.7465  -0.6331   3.1506 H              1 S1                 0.0000
     41 ****        -0.4077   0.0997  -0.1953 LP             1 S1                 0.0000
     42 ****        -0.3898   0.2657  -1.8197 LP             1 S1                 0.0000
     43 ****         1.5928  -2.7257   3.6136 LP             1 S1                 0.0000
     44 ****         3.1759  -2.9247   3.2659 LP             1 S1                 0.0000
@<TRIPOS>BOND
    1    1    2 1     
    2    1   22 1     
    3    1   23 1     
    4    1   24 1     
    5    2    7 ar    
    6    2    3 ar    
    7    3    4 ar    
    8    3   25 1     
    9    4    5 ar    
   10    4   26 1     
   11    5    6 ar    
   12    5   27 1     
   13    6    7 ar    
   14    6   28 1     
   15    7    8 1     
   16    8    9 1     
   17    9   10 1     
   18    9   29 1     
   19    9   30 1     
   20   10   11 1     
   21   10   31 1     
   22   10   32 1     
   23   11   21 1     
   24   11   12 1     
   25   12   13 1     
   26   12   15 2     
   27   13   14 1     
   28   13   33 1     
   29   13   34 1     
   30   14   35 1     
   31   15   16 1     
   32   15   40 1     
   33   16   21 ar    
   34   16   17 ar    
   35   17   18 ar    
   36   17   36 1     
   37   18   19 ar    
   38   18   37 1     
   39   19   20 ar    
   40   19   38 1     
   41   20   21 ar    
   42   20   39 1     
   43    8   41 1     
   44    8   42 1     
   45   14   43 1     
   46   14   44 1     
@<TRIPOS>SUBSTRUCTURE
      1 S1             1
@<TRIPOS>SET
LONE_PAIRS      STATIC     ATOMS    <user>   **** ""
4 41 42 43 44
DONOR_HYDROGENS      STATIC     ATOMS    <user>   **** ""
2 35 40
ATOM$BLUE        STATIC     ATOMS    COLORGROUP SYSTEM
4 41 42 43 44
ATOM$RED        STATIC     ATOMS    COLORGROUP SYSTEM
2 35 40
