AV-unprocessed.smi:2156|AV-procd|sdf|8779|dock6
  -GOLD-   2272011563D 1   1.00000     0.00000
 Structure written by MMmdl.
 34 34  0  0  0  0  0  0  0  0  1 V2000
  151.1332  145.7231  160.2826 C   0  0  0  0  0  0  0  0  0  0  0  0
  151.2219  144.2722  159.7972 C   0  0  0  0  0  0  0  0  0  0  0  0
  152.2991  143.4654  160.5433 C   0  0  0  0  0  0  0  0  0  0  0  0
  152.4437  142.0089  160.0579 C   0  0  2  0  0  0  0  0  0  0  0  0
  153.8929  141.5170  160.1743 C   0  0  0  0  0  0  0  0  0  0  0  0
  152.0071  141.8788  158.6685 N   0  0  0  0  0  0  0  0  0  0  0  0
  150.7862  141.5022  158.2561 C   0  0  0  0  0  0  0  0  0  0  0  0
  149.8652  141.2287  159.0271 O   0  0  0  0  0  0  0  0  0  0  0  0
  150.5783  141.4586  156.7354 C   0  0  0  0  0  0  0  0  0  0  0  0
  150.7919  140.1228  156.1599 N   0  0  0  0  0  0  0  0  0  0  0  0
  149.8899  139.6045  155.2412 C   0  0  0  0  0  0  0  0  0  0  0  0
  150.0185  138.3790  154.6802 C   0  0  0  0  0  0  0  0  0  0  0  0
  151.1467  137.5220  155.0285 C   0  0  0  0  0  0  0  0  0  0  0  0
  151.3509  136.3988  154.5733 O   0  0  0  0  0  0  0  0  0  0  0  0
  152.0299  138.0771  155.9582 N   0  0  0  0  0  0  0  0  0  0  0  0
  151.9023  139.3386  156.5418 C   0  0  0  0  0  0  0  0  0  0  0  0
  152.7371  139.7306  157.3563 O   0  0  0  0  0  0  0  0  0  0  0  0
  152.8251  137.5189  156.2324 H   0  0  0  0  0  0  0  0  0  0  0  0
  150.3592  146.2665  159.7408 H   0  0  0  0  0  0  0  0  0  0  0  0
  152.0769  146.2473  160.1299 H   0  0  0  0  0  0  0  0  0  0  0  0
  150.8907  145.7702  161.3447 H   0  0  0  0  0  0  0  0  0  0  0  0
  150.2520  143.7904  159.9250 H   0  0  0  0  0  0  0  0  0  0  0  0
  151.4271  144.2725  158.7267 H   0  0  0  0  0  0  0  0  0  0  0  0
  153.2593  143.9765  160.4588 H   0  0  0  0  0  0  0  0  0  0  0  0
  152.0537  143.4587  161.6062 H   0  0  0  0  0  0  0  0  0  0  0  0
  151.8361  141.3722  160.7034 H   0  0  0  0  0  0  0  0  0  0  0  0
  154.2437  141.5693  161.2055 H   0  0  0  0  0  0  0  0  0  0  0  0
  154.5677  142.1175  159.5632 H   0  0  0  0  0  0  0  0  0  0  0  0
  153.9824  140.4797  159.8503 H   0  0  0  0  0  0  0  0  0  0  0  0
  152.6942  142.0916  157.9598 H   0  0  0  0  0  0  0  0  0  0  0  0
  149.5646  141.8011  156.5231 H   0  0  0  0  0  0  0  0  0  0  0  0
  151.2344  142.1866  156.2540 H   0  0  0  0  0  0  0  0  0  0  0  0
  149.0358  140.2025  154.9571 H   0  0  0  0  0  0  0  0  0  0  0  0
  149.2820  138.0304  153.9708 H   0  0  0  0  0  0  0  0  0  0  0  0
  1  2  1  0  0  0  0
  1 19  1  0  0  0  0
  1 20  1  0  0  0  0
  1 21  1  0  0  0  0
  2  3  1  0  0  0  0
  2 22  1  0  0  0  0
  2 23  1  0  0  0  0
  3  4  1  0  0  0  0
  3 24  1  0  0  0  0
  3 25  1  0  0  0  0
  4  5  1  0  0  0  0
  4  6  1  0  0  0  0
  4 26  1  0  0  0  0
  5 27  1  0  0  0  0
  5 28  1  0  0  0  0
  5 29  1  0  0  0  0
  6  7  1  0  0  0  0
  6 30  1  0  0  0  0
  7  8  2  0  0  0  0
  7  9  1  0  0  0  0
  9 10  1  0  0  0  0
  9 31  1  0  0  0  0
  9 32  1  0  0  0  0
 10 16  1  0  0  0  0
 10 11  1  0  0  0  0
 11 12  2  0  0  0  0
 11 33  1  0  0  0  0
 12 13  1  0  0  0  0
 12 34  1  0  0  0  0
 13 14  2  0  0  0  0
 13 15  1  0  0  0  0
 15 18  1  0  0  0  0
 15 16  1  0  0  0  0
 16 17  2  0  0  0  0
M  END
> <s_m_source_file>
AV-unprocessed.smi

> <i_m_source_file_index>
2156

> <i_lp_mmshare_version>
43012

> <i_f3d_flags>
0

> <s_epik_input>
W0NIM11bQ0gyXVtDSDJdW0NASF0oW0NIM10pW05IXUMoPU8pW0NIMl1uMVtjSF1bY0hdYyg9TylbbkhdYzE9Tw==

> <s_epik_cmdline>
J2VwaWtfcHl0aG9uJywgJy1waCcsICc3LjAnLCAnLXRuJywgJzgnLCAnLW1hJywgJzIwMCcsICctbWV0YWxfYmluZGluZycsICctaW1hZScsICc8aW5maWxlLm1hZT4nLCAnLW9tYWUnLCAnPG91dGZpbGUubWFlPic=

> <r_lp_tautomer_probability>
0.999537

> <r_epik_Ionization_Penalty>
0.00324917

> <r_epik_Ionization_Penalty_Charging>
0.00324916

> <r_epik_Ionization_Penalty_Neutral>
1.93017e-08

> <r_epik_State_Penalty>
0.00229371

> <r_epik_Charging_Adjusted_Penalty>
0.00554286

> <i_epik_Tot_Q>
0

> <i_epik_Tot_abs_Q>
0

> <r_epik_Metal_State_Penalty>
0.364744

> <b_epik_Metal_Only>
0

> <s_lp_Force_Field>
OPLS_2005

> <r_lp_Energy>
3.31869

> <b_lp_Chiralities_Consistent>
1

> <s_lp_Variant>
AV-unprocessed.smi:2156-1

> <Gold.Version>
5.8.1

> <Gold.Id.Protein>
6NUR|6NUR_protein|mol2

> <Gold.PLP.Fitness>
42.8597

> <Gold.PLP.PLP>
-39.4480

> <Gold.PLP.part.hbond>
-2.3681

> <Gold.PLP.part.metal>
0.0000

> <Gold.PLP.part.buried>
-3.5030

> <Gold.PLP.part.nonpolar>
-33.7229

> <Gold.PLP.part.repulsive>
1.3923

> <Gold.PLP.ligand.clash>
0.0000

> <Gold.PLP.ligand.torsion>
1.3105

> <Gold.PLP.Chemscore.Hbond>
2.0000

> <Gold.PLP.Chemscore.CHOScore>
0.0000

> <Gold.PLP.Chemscore.Metal>
0.0000

> <Gold.Chemscore.Hbonds>
donor molecule, donor type, donor heavy atom, donor atom, acceptor molecule, acceptor atom, score
      P1  H  7997  8008       L1    17  1.00
      P1  H 10752 10764       L1    14  1.00

> <Gold.PLP.Chemscore.Internal.Correction>
0.0328

> <Gold.Rescore>
     Score         DG    S(hbond)    S(metal)    S(lipo)     H(rot)  DE(clash)    DE(int)     intcor
     11.23     -15.49       1.95        0.00      77.79       2.19       0.09       4.16       ----

> <Gold.Chemscore.Fitness>
11.2325

> <Gold.Chemscore.DG>
-15.4868

> <Gold.Chemscore.ZeroCoef>
-5.4800

> <Gold.Chemscore.Hbond>
1.9533

> <Gold.Chemscore.Metal>
0.0000

> <Gold.Chemscore.Lipo>
77.7913

> <Gold.Chemscore.Internal_Hbond>
0.0000

> <Gold.Chemscore.DEClash>
0.0917

> <Gold.Chemscore.DEInternal>
4.1627

> <Gold.Chemscore.Rot>
2.1949

> <Gold.Chemscore.Internal.Correction>
   9.000000E+99

> <Gold.Chemscore.Hbonds>
donor molecule, donor type, donor heavy atom, donor atom, acceptor molecule, acceptor atom, score
      P1  H  7997  8008       L1    17  0.88
      P1  H 10752 10764       L1    14  1.00

> <Gold.Chemscore.Hbond.Weighted>
-6.5240

> <Gold.Chemscore.Metal.Weighted>
-0.0000

> <Gold.Chemscore.Lipo.Weighted>
-9.1016

> <Gold.Chemscore.Internal_Hbond.Weighted>
0.0000

> <Gold.Chemscore.DEClash.Weighted>
0.0917

> <Gold.Chemscore.DEInternal.Weighted>
4.1627

> <Gold.Chemscore.Rot.Weighted>
5.6188

> <Gold.Chemscore.Internal.Correction.Weighted>
   9.000000E+99

> <Gold.Protein.RotatedTorsions>
[ 6907 6896 6895 6894 ] final  -95.52 input  -60.11 | X-H torsion
[ 7974 7965 7964 7962 ] final  -51.36 input  175.53 | X-H torsion
[ 8008 7997 7996 7995 ] final  -58.77 input   59.86 | X-H torsion
[ 10167 10162 10161 10158 ] final  153.98 input  -65.29 | X-H torsion
[ 10718 10713 10712 10709 ] final -131.48 input   66.30 | X-H torsion
[ 10763 10752 10751 10750 ] final  -60.14 input  -60.55 | X-H torsion
[ 11005 11000 10999 10996 ] final  -32.76 input  -57.11 | X-H torsion

> <Gold.Protein.ActiveResidues>
 VAL166  LYS551  ARG553  GLY616  TRP617  ASP618  TYR619  PRO620  LYS621  CYS622 
 ASP623  PHE694  ASN695  SER759  ASP760  ASP761  ALA762  ILE779  LEU786  VAL792 
 PHE793  MET794  SER795  GLU796  ALA797  LYS798  CYS799  TRP800  GLU811  SER814 

> <Gold.Protein.RotatedAtoms>
  150.6966  134.1644  159.4188 H   0  0  0  0  0  0  0  0  0  0  0  0  # atno 6907 bound_to 6896
  151.9624  135.0115  160.0557 H   0  0  0  0  0  0  0  0  0  0  0  0  # atno 6908 bound_to 6896
  152.1915  133.4741  159.5047 H   0  0  0  0  0  0  0  0  0  0  0  0  # atno 6909 bound_to 6896
  145.9198  140.7844  142.9653 H   0  0  0  0  0  0  0  0  0  0  0  0  # atno 7974 bound_to 7965
  154.4323  140.1076  156.6009 H   0  0  0  0  0  0  0  0  0  0  0  0  # atno 8008 bound_to 7997
  155.5912  140.3492  155.4548 H   0  0  0  0  0  0  0  0  0  0  0  0  # atno 8009 bound_to 7997
  156.0245  140.1247  157.0312 H   0  0  0  0  0  0  0  0  0  0  0  0  # atno 8010 bound_to 7997
  139.4825  144.5226  151.7851 H   0  0  0  0  0  0  0  0  0  0  0  0  # atno 10167 bound_to 10162
  156.2249  130.7001  151.0796 H   0  0  0  0  0  0  0  0  0  0  0  0  # atno 10718 bound_to 10713
  154.2646  135.6302  153.5287 H   0  0  0  0  0  0  0  0  0  0  0  0  # atno 10763 bound_to 10752
  152.9890  135.5595  154.5667 H   0  0  0  0  0  0  0  0  0  0  0  0  # atno 10764 bound_to 10752
  154.5223  135.2883  155.1227 H   0  0  0  0  0  0  0  0  0  0  0  0  # atno 10765 bound_to 10752
  140.9579  133.7182  156.1323 H   0  0  0  0  0  0  0  0  0  0  0  0  # atno 11005 bound_to 11000
  144.6751  140.1957  143.7392 LP  0  0  0  0  0  0  0  0  0  0  0  0  # atno 17320 bound_to 7965
  145.8565  139.2201  143.1742 LP  0  0  0  0  0  0  0  0  0  0  0  0  # atno 17321 bound_to 7965
  140.4742  144.1543  150.5922 LP  0  0  0  0  0  0  0  0  0  0  0  0  # atno 17342 bound_to 10162
  140.4349  143.2552  151.9548 LP  0  0  0  0  0  0  0  0  0  0  0  0  # atno 17343 bound_to 10162
  157.7105  131.0736  150.6516 LP  0  0  0  0  0  0  0  0  0  0  0  0  # atno 17370 bound_to 10713
  156.6581  130.4504  149.5697 LP  0  0  0  0  0  0  0  0  0  0  0  0  # atno 17371 bound_to 10713
  140.7509  134.4045  157.5541 LP  0  0  0  0  0  0  0  0  0  0  0  0  # atno 17394 bound_to 11000
  139.8868  134.8899  156.2563 LP  0  0  0  0  0  0  0  0  0  0  0  0  # atno 17395 bound_to 11000

$$$$
