AV-unprocessed.smi:2442|AV-procd|sdf|9628|dock2
  -GOLD-   2272013263D 1   1.00000     0.00000
 Structure written by MMmdl.
 47 48  0  0  0  0  0  0  0  0  2 V2000
  146.5943  133.3021  151.2920 C   0  0  0  0  0  0  0  0  0  0  0  0
  146.3299  134.5114  151.9852 O   0  0  0  0  0  0  0  0  0  0  0  0
  145.5690  135.4587  151.2412 C   0  0  1  0  0  0  0  0  0  0  0  0
  144.1714  134.8939  150.9083 C   0  0  0  0  0  0  0  0  0  0  0  0
  143.3279  134.6741  152.1745 C   0  0  0  0  0  0  0  0  0  0  0  0
  143.2099  135.9682  152.9938 C   0  0  0  0  0  0  0  0  0  0  0  0
  144.5949  136.5373  153.3399 C   0  0  0  0  0  0  0  0  0  0  0  0
  145.4479  136.7566  152.0750 C   0  0  1  0  0  0  0  0  0  0  0  0
  146.7641  137.2701  152.4473 N   0  0  0  0  0  0  0  0  0  0  0  0
  146.9952  138.4498  153.0389 C   0  0  0  0  0  0  0  0  0  0  0  0
  146.1139  139.2493  153.3563 O   0  0  0  0  0  0  0  0  0  0  0  0
  148.3039  138.6615  153.2362 N   0  0  0  0  0  0  0  0  0  0  0  0
  148.8644  139.8589  153.8508 C   0  0  0  0  0  0  0  0  0  0  0  0
  150.3937  139.7605  153.9877 C   0  0  0  0  0  0  0  0  0  0  0  0
  150.9167  140.5523  155.1762 C   0  0  0  0  0  0  0  0  0  0  0  0
  150.4742  141.8805  155.3685 C   0  0  0  0  0  0  0  0  0  0  0  0
  150.9574  142.6218  156.4649 C   0  0  0  0  0  0  0  0  0  0  0  0
  151.8366  142.0588  157.3200 N   0  3  0  0  0  0  0  0  0  0  0  0
  152.2888  140.7944  157.1764 C   0  0  0  0  0  0  0  0  0  0  0  0
  151.8442  139.9986  156.0977 C   0  0  0  0  0  0  0  0  0  0  0  0
  152.3668  138.5795  155.9547 C   0  0  0  0  0  0  0  0  0  0  0  0
  147.1887  132.6445  151.9263 H   0  0  0  0  0  0  0  0  0  0  0  0
  147.1627  133.4883  150.3800 H   0  0  0  0  0  0  0  0  0  0  0  0
  145.6779  132.7731  151.0318 H   0  0  0  0  0  0  0  0  0  0  0  0
  146.0882  135.6931  150.3102 H   0  0  0  0  0  0  0  0  0  0  0  0
  143.6517  135.5943  150.2532 H   0  0  0  0  0  0  0  0  0  0  0  0
  144.2494  133.9637  150.3465 H   0  0  0  0  0  0  0  0  0  0  0  0
  142.3348  134.3160  151.9018 H   0  0  0  0  0  0  0  0  0  0  0  0
  143.7807  133.8922  152.7856 H   0  0  0  0  0  0  0  0  0  0  0  0
  142.6420  136.7079  152.4282 H   0  0  0  0  0  0  0  0  0  0  0  0
  142.6469  135.7789  153.9081 H   0  0  0  0  0  0  0  0  0  0  0  0
  144.4778  137.4785  153.8787 H   0  0  0  0  0  0  0  0  0  0  0  0
  145.1063  135.8546  154.0200 H   0  0  0  0  0  0  0  0  0  0  0  0
  144.9466  137.5118  151.4664 H   0  0  0  0  0  0  0  0  0  0  0  0
  147.5563  136.6872  152.2206 H   0  0  0  0  0  0  0  0  0  0  0  0
  148.9545  137.9478  152.9407 H   0  0  0  0  0  0  0  0  0  0  0  0
  148.5835  140.7365  153.2664 H   0  0  0  0  0  0  0  0  0  0  0  0
  148.4098  139.9855  154.8338 H   0  0  0  0  0  0  0  0  0  0  0  0
  150.6831  138.7152  154.1050 H   0  0  0  0  0  0  0  0  0  0  0  0
  150.8858  140.0984  153.0757 H   0  0  0  0  0  0  0  0  0  0  0  0
  149.7714  142.3297  154.6816 H   0  0  0  0  0  0  0  0  0  0  0  0
  150.6695  143.6404  156.6812 H   0  0  0  0  0  0  0  0  0  0  0  0
  152.9906  140.4600  157.9264 H   0  0  0  0  0  0  0  0  0  0  0  0
  153.1556  138.3746  156.6792 H   0  0  0  0  0  0  0  0  0  0  0  0
  152.7790  138.4147  154.9592 H   0  0  0  0  0  0  0  0  0  0  0  0
  151.5646  137.8600  156.1205 H   0  0  0  0  0  0  0  0  0  0  0  0
  152.1743  142.6117  158.1083 H   0  0  0  0  0  0  0  0  0  0  0  0
  1  2  1  0  0  0  0
  1 22  1  0  0  0  0
  1 23  1  0  0  0  0
  1 24  1  0  0  0  0
  2  3  1  0  0  0  0
  3  8  1  0  0  0  0
  3  4  1  0  0  0  0
  3 25  1  0  0  0  0
  4  5  1  0  0  0  0
  4 26  1  0  0  0  0
  4 27  1  0  0  0  0
  5  6  1  0  0  0  0
  5 28  1  0  0  0  0
  5 29  1  0  0  0  0
  6  7  1  0  0  0  0
  6 30  1  0  0  0  0
  6 31  1  0  0  0  0
  7  8  1  0  0  0  0
  7 32  1  0  0  0  0
  7 33  1  0  0  0  0
  8  9  1  0  0  0  0
  8 34  1  0  0  0  0
  9 10  1  0  0  0  0
  9 35  1  0  0  0  0
 10 11  2  0  0  0  0
 10 12  1  0  0  0  0
 12 13  1  0  0  0  0
 12 36  1  0  0  0  0
 13 14  1  0  0  0  0
 13 37  1  0  0  0  0
 13 38  1  0  0  0  0
 14 15  1  0  0  0  0
 14 39  1  0  0  0  0
 14 40  1  0  0  0  0
 15 20  1  0  0  0  0
 15 16  2  0  0  0  0
 16 17  1  0  0  0  0
 16 41  1  0  0  0  0
 17 18  2  0  0  0  0
 17 42  1  0  0  0  0
 18 19  1  0  0  0  0
 18 47  1  0  0  0  0
 19 20  2  0  0  0  0
 19 43  1  0  0  0  0
 20 21  1  0  0  0  0
 21 44  1  0  0  0  0
 21 45  1  0  0  0  0
 21 46  1  0  0  0  0
M  CHG  1  18   1
M  END
> <s_m_source_file>
AV-unprocessed.smi

> <i_m_source_file_index>
2442

> <i_lp_mmshare_version>
43012

> <i_f3d_flags>
0

> <s_epik_input>
W0NIM11PW0NAQEhdMVtDSDJdW0NIMl1bQ0gyXVtDSDJdW0NASF0xW05IXUMoPU8pW05IXVtDSDJdW0NIMl1jMltjSF1bY0hdbltjSF1jMltDSDNd

> <s_epik_cmdline>
J2VwaWtfcHl0aG9uJywgJy1waCcsICc3LjAnLCAnLXRuJywgJzgnLCAnLW1hJywgJzIwMCcsICctbWV0YWxfYmluZGluZycsICctaW1hZScsICc8aW5maWxlLm1hZT4nLCAnLW9tYWUnLCAnPG91dGZpbGUubWFlPic=

> <r_epik_Ionization_Penalty>
1.07145

> <r_epik_Ionization_Penalty_Charging>
1.0714

> <r_epik_Ionization_Penalty_Neutral>
4.9109e-05

> <r_epik_State_Penalty>
1.12601

> <r_epik_Charging_Adjusted_Penalty>
2.19741

> <i_epik_Tot_Q>
1

> <i_epik_Tot_abs_Q>
1

> <r_epik_Metal_State_Penalty>
1.2173

> <b_epik_Metal_Only>
0

> <s_lp_Force_Field>
OPLS_2005

> <r_lp_Energy>
15.5832

> <b_lp_Chiralities_Consistent>
1

> <s_lp_Variant>
AV-unprocessed.smi:2442-6

> <Gold.Version>
5.8.1

> <Gold.Id.Protein>
6NUR|6NUR_protein|mol2

> <Gold.PLP.Fitness>
38.8804

> <Gold.PLP.PLP>
-34.2091

> <Gold.PLP.part.hbond>
-2.7707

> <Gold.PLP.part.metal>
0.0000

> <Gold.PLP.part.buried>
-3.7495

> <Gold.PLP.part.nonpolar>
-31.0524

> <Gold.PLP.part.repulsive>
1.4198

> <Gold.PLP.ligand.clash>
0.0000

> <Gold.PLP.ligand.torsion>
0.3639

> <Gold.PLP.Chemscore.Hbond>
1.7843

> <Gold.PLP.Chemscore.CHOScore>
0.0000

> <Gold.PLP.Chemscore.Metal>
0.0000

> <Gold.Chemscore.Hbonds>
donor molecule, donor type, donor heavy atom, donor atom, acceptor molecule, acceptor atom, score
      L1  H     9    35       P1  7948  0.93
      L1  H    12    36       P1  7948  0.80

> <Gold.PLP.Chemscore.Internal.Correction>
0.0463

> <Gold.Rescore>
     Score         DG    S(hbond)    S(metal)    S(lipo)     H(rot)  DE(clash)    DE(int)     intcor
     16.47     -17.38       1.86        0.00      86.43       1.72       0.35       0.55       ----

> <Gold.Chemscore.Fitness>
16.4695

> <Gold.Chemscore.DG>
-17.3766

> <Gold.Chemscore.ZeroCoef>
-5.4800

> <Gold.Chemscore.Hbond>
1.8558

> <Gold.Chemscore.Metal>
0.0000

> <Gold.Chemscore.Lipo>
86.4343

> <Gold.Chemscore.Internal_Hbond>
0.0000

> <Gold.Chemscore.DEClash>
0.3543

> <Gold.Chemscore.DEInternal>
0.5529

> <Gold.Chemscore.Rot>
1.7244

> <Gold.Chemscore.Internal.Correction>
   9.000000E+99

> <Gold.Chemscore.Hbonds>
donor molecule, donor type, donor heavy atom, donor atom, acceptor molecule, acceptor atom, score
      L1  H     9    35       P1  7948  0.88
      L1  H    12    36       P1  7948  0.76

> <Gold.Chemscore.Hbond.Weighted>
-6.1983

> <Gold.Chemscore.Metal.Weighted>
-0.0000

> <Gold.Chemscore.Lipo.Weighted>
-10.1128

> <Gold.Chemscore.Internal_Hbond.Weighted>
0.0000

> <Gold.Chemscore.DEClash.Weighted>
0.3543

> <Gold.Chemscore.DEInternal.Weighted>
0.5529

> <Gold.Chemscore.Rot.Weighted>
4.4145

> <Gold.Chemscore.Internal.Correction.Weighted>
   9.000000E+99

> <Gold.Protein.RotatedTorsions>
[ 6907 6896 6895 6894 ] final   33.64 input  -60.11 | X-H torsion
[ 7974 7965 7964 7962 ] final  146.57 input  175.53 | X-H torsion
[ 8008 7997 7996 7995 ] final   87.46 input   59.86 | X-H torsion
[ 10167 10162 10161 10158 ] final  127.77 input  -65.29 | X-H torsion
[ 10718 10713 10712 10709 ] final   -6.72 input   66.30 | X-H torsion
[ 10763 10752 10751 10750 ] final  103.18 input  -60.55 | X-H torsion
[ 11005 11000 10999 10996 ] final -129.59 input  -57.11 | X-H torsion

> <Gold.Protein.ActiveResidues>
 VAL166  LYS551  ARG553  GLY616  TRP617  ASP618  TYR619  PRO620  LYS621  CYS622 
 ASP623  PHE694  ASN695  SER759  ASP760  ASP761  ALA762  ILE779  LEU786  VAL792 
 PHE793  MET794  SER795  GLU796  ALA797  LYS798  CYS799  TRP800  GLU811  SER814 

> <Gold.Protein.RotatedAtoms>
  152.0913  134.9405  160.0571 H   0  0  0  0  0  0  0  0  0  0  0  0  # atno 6907 bound_to 6896
  152.0656  133.4077  159.4445 H   0  0  0  0  0  0  0  0  0  0  0  0  # atno 6908 bound_to 6896
  150.6837  134.3071  159.4774 H   0  0  0  0  0  0  0  0  0  0  0  0  # atno 6909 bound_to 6896
  144.8661  139.5921  143.5908 H   0  0  0  0  0  0  0  0  0  0  0  0  # atno 7974 bound_to 7965
  155.9756  140.3382  155.6615 H   0  0  0  0  0  0  0  0  0  0  0  0  # atno 8008 bound_to 7997
  155.6617  140.0717  157.2570 H   0  0  0  0  0  0  0  0  0  0  0  0  # atno 8009 bound_to 7997
  154.4178  140.1707  156.1771 H   0  0  0  0  0  0  0  0  0  0  0  0  # atno 8010 bound_to 7997
  139.5561  144.6850  151.4178 H   0  0  0  0  0  0  0  0  0  0  0  0  # atno 10167 bound_to 10162
  156.7277  130.5170  149.5853 H   0  0  0  0  0  0  0  0  0  0  0  0  # atno 10718 bound_to 10713
  153.3492  135.3985  155.1633 H   0  0  0  0  0  0  0  0  0  0  0  0  # atno 10763 bound_to 10752
  154.8659  135.3652  154.5244 H   0  0  0  0  0  0  0  0  0  0  0  0  # atno 10764 bound_to 10752
  153.5694  135.7079  153.5571 H   0  0  0  0  0  0  0  0  0  0  0  0  # atno 10765 bound_to 10752
  140.9418  134.1182  157.4143 H   0  0  0  0  0  0  0  0  0  0  0  0  # atno 11005 bound_to 11000
  146.2896  139.7102  142.9170 LP  0  0  0  0  0  0  0  0  0  0  0  0  # atno 17320 bound_to 7965
  145.4220  141.0407  143.2959 LP  0  0  0  0  0  0  0  0  0  0  0  0  # atno 17321 bound_to 7965
  140.6834  143.8029  150.7153 LP  0  0  0  0  0  0  0  0  0  0  0  0  # atno 17342 bound_to 10162
  140.1490  143.4375  152.2144 LP  0  0  0  0  0  0  0  0  0  0  0  0  # atno 17343 bound_to 10162
  156.1550  130.6336  151.0645 LP  0  0  0  0  0  0  0  0  0  0  0  0  # atno 17370 bound_to 10713
  157.6872  131.0821  150.7211 LP  0  0  0  0  0  0  0  0  0  0  0  0  # atno 17371 bound_to 10713
  139.8822  135.0039  156.6216 LP  0  0  0  0  0  0  0  0  0  0  0  0  # atno 17394 bound_to 11000
  140.7723  133.8728  155.8501 LP  0  0  0  0  0  0  0  0  0  0  0  0  # atno 17395 bound_to 11000

$$$$
