AV-unprocessed.smi:3343|AV-procd|sdf|12894|dock4
  -GOLD-   2272019303D 1   1.00000     0.00000
 Structure written by MMmdl.
 41 42  0  0  0  0  0  0  0  0  1 V2000
  150.8720  137.7938  158.4641 C   0  0  0  0  0  0  0  0  0  0  0  0
  151.2520  137.0789  157.1514 C   0  0  1  0  0  0  0  0  0  0  0  0
  150.5912  135.6979  157.0264 C   0  0  0  0  0  0  0  0  0  0  0  0
  149.9810  135.2090  157.9777 O   0  0  0  0  0  0  0  0  0  0  0  0
  150.7236  135.0808  155.8412 N   0  0  0  0  0  0  0  0  0  0  0  0
  150.2037  133.7572  155.5138 C   0  0  0  0  0  0  0  0  0  0  0  0
  149.5697  133.7291  154.1092 C   0  0  0  0  0  0  0  0  0  0  0  0
  148.5183  132.7316  153.9107 N   0  0  0  0  0  0  0  0  0  0  0  0
  147.7658  132.9435  152.6704 C   0  0  0  0  0  0  0  0  0  0  0  0
  146.6589  131.8872  152.4959 C   0  0  0  0  0  0  0  0  0  0  0  0
  147.2101  130.5336  152.4821 N   0  0  0  0  0  0  0  0  0  0  0  0
  146.1667  129.5340  152.3139 C   0  0  0  0  0  0  0  0  0  0  0  0
  147.9669  130.3182  153.7135 C   0  0  0  0  0  0  0  0  0  0  0  0
  149.0718  131.3773  153.8858 C   0  0  0  0  0  0  0  0  0  0  0  0
  150.9576  137.8854  155.9732 N   0  0  0  0  0  0  0  0  0  0  0  0
  151.3357  139.1295  155.6711 C   0  0  0  0  0  0  0  0  0  0  0  0
  150.9242  139.5448  154.4814 N   0  0  0  0  0  0  0  0  0  0  0  0
  150.2618  138.4247  154.0661 C   0  0  0  0  0  0  0  0  0  0  0  0
  150.2605  137.3983  154.9161 N   0  0  0  0  0  0  0  0  0  0  0  0
  151.1483  137.1928  159.3312 H   0  0  0  0  0  0  0  0  0  0  0  0
  149.8016  137.9932  158.5303 H   0  0  0  0  0  0  0  0  0  0  0  0
  151.3913  138.7487  158.5501 H   0  0  0  0  0  0  0  0  0  0  0  0
  152.3329  136.9278  157.1715 H   0  0  0  0  0  0  0  0  0  0  0  0
  151.2417  135.5557  155.1165 H   0  0  0  0  0  0  0  0  0  0  0  0
  150.9662  132.9867  155.6320 H   0  0  0  0  0  0  0  0  0  0  0  0
  149.4353  133.5231  156.2506 H   0  0  0  0  0  0  0  0  0  0  0  0
  149.1770  134.7196  153.8754 H   0  0  0  0  0  0  0  0  0  0  0  0
  150.3693  133.5520  153.3886 H   0  0  0  0  0  0  0  0  0  0  0  0
  147.3039  133.9298  152.6691 H   0  0  0  0  0  0  0  0  0  0  0  0
  148.4401  132.9141  151.8130 H   0  0  0  0  0  0  0  0  0  0  0  0
  145.9298  131.9870  153.3018 H   0  0  0  0  0  0  0  0  0  0  0  0
  146.1230  132.0762  151.5651 H   0  0  0  0  0  0  0  0  0  0  0  0
  146.5942  128.5313  152.2819 H   0  0  0  0  0  0  0  0  0  0  0  0
  145.6258  129.6944  151.3808 H   0  0  0  0  0  0  0  0  0  0  0  0
  145.4488  129.5712  153.1343 H   0  0  0  0  0  0  0  0  0  0  0  0
  147.2969  130.3461  154.5745 H   0  0  0  0  0  0  0  0  0  0  0  0
  148.4173  129.3251  153.7001 H   0  0  0  0  0  0  0  0  0  0  0  0
  149.7988  131.2843  153.0772 H   0  0  0  0  0  0  0  0  0  0  0  0
  149.6106  131.1821  154.8137 H   0  0  0  0  0  0  0  0  0  0  0  0
  151.9275  139.7436  156.3341 H   0  0  0  0  0  0  0  0  0  0  0  0
  149.7708  138.3615  153.1062 H   0  0  0  0  0  0  0  0  0  0  0  0
  1  2  1  0  0  0  0
  1 20  1  0  0  0  0
  1 21  1  0  0  0  0
  1 22  1  0  0  0  0
  2  3  1  0  0  0  0
  2 15  1  0  0  0  0
  2 23  1  0  0  0  0
  3  4  2  0  0  0  0
  3  5  1  0  0  0  0
  5  6  1  0  0  0  0
  5 24  1  0  0  0  0
  6  7  1  0  0  0  0
  6 25  1  0  0  0  0
  6 26  1  0  0  0  0
  7  8  1  0  0  0  0
  7 27  1  0  0  0  0
  7 28  1  0  0  0  0
  8 14  1  0  0  0  0
  8  9  1  0  0  0  0
  9 10  1  0  0  0  0
  9 29  1  0  0  0  0
  9 30  1  0  0  0  0
 10 11  1  0  0  0  0
 10 31  1  0  0  0  0
 10 32  1  0  0  0  0
 11 12  1  0  0  0  0
 11 13  1  0  0  0  0
 12 33  1  0  0  0  0
 12 34  1  0  0  0  0
 12 35  1  0  0  0  0
 13 14  1  0  0  0  0
 13 36  1  0  0  0  0
 13 37  1  0  0  0  0
 14 38  1  0  0  0  0
 14 39  1  0  0  0  0
 15 19  1  0  0  0  0
 15 16  1  0  0  0  0
 16 17  2  0  0  0  0
 16 40  1  0  0  0  0
 17 18  1  0  0  0  0
 18 19  2  0  0  0  0
 18 41  1  0  0  0  0
M  END
> <s_m_source_file>
AV-unprocessed.smi

> <i_m_source_file_index>
3343

> <i_lp_mmshare_version>
43012

> <i_f3d_flags>
0

> <s_epik_input>
bjFbY0hdbltjSF1uMVtDQEhdKFtDSDNdKUMoPU8pW05IXVtDSDJdW0NIMl1OMltDSDJdW0NIMl1OKFtDSDNdKVtDSDJdW0NIMl0y

> <s_epik_cmdline>
J2VwaWtfcHl0aG9uJywgJy1waCcsICc3LjAnLCAnLXRuJywgJzgnLCAnLW1hJywgJzIwMCcsICctbWV0YWxfYmluZGluZycsICctaW1hZScsICc8aW5maWxlLm1hZT4nLCAnLW9tYWUnLCAnPG91dGZpbGUubWFlPic=

> <r_lp_tautomer_probability>
1

> <r_epik_Ionization_Penalty>
1.97295

> <r_epik_Ionization_Penalty_Charging>
0

> <r_epik_Ionization_Penalty_Neutral>
1.97295

> <r_epik_State_Penalty>
1.8027

> <r_epik_Charging_Adjusted_Penalty>
1.8027

> <i_epik_Tot_Q>
0

> <i_epik_Tot_abs_Q>
0

> <r_epik_Metal_State_Penalty>
1.8027

> <b_epik_Metal_Only>
0

> <s_lp_Force_Field>
OPLS_2005

> <r_lp_Energy>
40.9653

> <b_lp_Chiralities_Consistent>
1

> <s_lp_Variant>
AV-unprocessed.smi:3343-4

> <Gold.Version>
5.8.1

> <Gold.Id.Protein>
6NUR|6NUR_protein|mol2

> <Gold.PLP.Fitness>
37.4257

> <Gold.PLP.PLP>
-26.7132

> <Gold.PLP.part.hbond>
-2.0000

> <Gold.PLP.part.metal>
0.0000

> <Gold.PLP.part.buried>
-5.3856

> <Gold.PLP.part.nonpolar>
-21.4472

> <Gold.PLP.part.repulsive>
1.8048

> <Gold.PLP.ligand.clash>
0.0000

> <Gold.PLP.ligand.torsion>
0.6626

> <Gold.PLP.Chemscore.Hbond>
1.9920

> <Gold.PLP.Chemscore.CHOScore>
1.9757

> <Gold.PLP.Chemscore.Metal>
0.0000

> <Gold.Chemscore.Hbonds>
donor molecule, donor type, donor heavy atom, donor atom, acceptor molecule, acceptor atom, score
      P1  H  6896  6909       L1     4  0.88
      P1  H  7989  7998       L1    17  1.00
      L1  C    18    41       P1  7948  0.91
      L1  C    18    41       P1  7957  0.93

> <Gold.PLP.Chemscore.Internal.Correction>
0.1347

> <Gold.Rescore>
     Score         DG    S(hbond)    S(metal)    S(lipo)     H(rot)  DE(clash)    DE(int)     intcor
      8.89     -10.92       1.91        0.00      47.88       2.56       0.00       2.03       ----

> <Gold.Chemscore.Fitness>
8.8884

> <Gold.Chemscore.DG>
-10.9229

> <Gold.Chemscore.ZeroCoef>
-5.4800

> <Gold.Chemscore.Hbond>
1.9126

> <Gold.Chemscore.Metal>
0.0000

> <Gold.Chemscore.Lipo>
47.8832

> <Gold.Chemscore.Internal_Hbond>
0.0000

> <Gold.Chemscore.DEClash>
0.0004

> <Gold.Chemscore.DEInternal>
2.0340

> <Gold.Chemscore.Rot>
2.5577

> <Gold.Chemscore.Internal.Correction>
   9.000000E+99

> <Gold.Chemscore.Hbonds>
donor molecule, donor type, donor heavy atom, donor atom, acceptor molecule, acceptor atom, score
      P1  H  6896  6909       L1     4  0.86
      P1  H  7989  7998       L1    17  1.00

> <Gold.Chemscore.Hbond.Weighted>
-6.3882

> <Gold.Chemscore.Metal.Weighted>
-0.0000

> <Gold.Chemscore.Lipo.Weighted>
-5.6023

> <Gold.Chemscore.Internal_Hbond.Weighted>
0.0000

> <Gold.Chemscore.DEClash.Weighted>
0.0004

> <Gold.Chemscore.DEInternal.Weighted>
2.0340

> <Gold.Chemscore.Rot.Weighted>
6.5477

> <Gold.Chemscore.Internal.Correction.Weighted>
   9.000000E+99

> <Gold.Protein.RotatedTorsions>
[ 6907 6896 6895 6894 ] final   42.84 input  -60.11 | X-H torsion
[ 7974 7965 7964 7962 ] final   34.64 input  175.53 | X-H torsion
[ 8008 7997 7996 7995 ] final -115.70 input   59.86 | X-H torsion
[ 10167 10162 10161 10158 ] final -141.15 input  -65.29 | X-H torsion
[ 10718 10713 10712 10709 ] final -152.85 input   66.30 | X-H torsion
[ 10763 10752 10751 10750 ] final   42.98 input  -60.55 | X-H torsion
[ 11005 11000 10999 10996 ] final   36.55 input  -57.11 | X-H torsion

> <Gold.Protein.ActiveResidues>
 VAL166  LYS551  ARG553  GLY616  TRP617  ASP618  TYR619  PRO620  LYS621  CYS622 
 ASP623  PHE694  ASN695  SER759  ASP760  ASP761  ALA762  ILE779  LEU786  VAL792 
 PHE793  MET794  SER795  GLU796  ALA797  LYS798  CYS799  TRP800  GLU811  SER814 

> <Gold.Protein.RotatedAtoms>
  152.2129  134.8485  160.0495 H   0  0  0  0  0  0  0  0  0  0  0  0  # atno 6907 bound_to 6896
  151.9297  133.3602  159.3934 H   0  0  0  0  0  0  0  0  0  0  0  0  # atno 6908 bound_to 6896
  150.6980  134.4475  159.5365 H   0  0  0  0  0  0  0  0  0  0  0  0  # atno 6909 bound_to 6896
  146.1339  139.6243  142.9208 H   0  0  0  0  0  0  0  0  0  0  0  0  # atno 7974 bound_to 7965
  155.0561  140.0393  157.2561 H   0  0  0  0  0  0  0  0  0  0  0  0  # atno 8008 bound_to 7997
  154.7097  140.2690  155.6616 H   0  0  0  0  0  0  0  0  0  0  0  0  # atno 8009 bound_to 7997
  156.2786  140.2724  156.1735 H   0  0  0  0  0  0  0  0  0  0  0  0  # atno 8010 bound_to 7997
  139.8212  143.7571  152.2666 H   0  0  0  0  0  0  0  0  0  0  0  0  # atno 10167 bound_to 10162
  156.4780  130.8289  151.2517 H   0  0  0  0  0  0  0  0  0  0  0  0  # atno 10718 bound_to 10713
  152.9870  135.6115  154.3038 H   0  0  0  0  0  0  0  0  0  0  0  0  # atno 10763 bound_to 10752
  154.2757  135.2778  155.2721 H   0  0  0  0  0  0  0  0  0  0  0  0  # atno 10764 bound_to 10752
  154.5083  135.5848  153.6641 H   0  0  0  0  0  0  0  0  0  0  0  0  # atno 10765 bound_to 10752
  140.2314  134.3523  155.7962 H   0  0  0  0  0  0  0  0  0  0  0  0  # atno 11005 bound_to 11000
  145.5200  141.0432  143.2440 LP  0  0  0  0  0  0  0  0  0  0  0  0  # atno 17320 bound_to 7965
  144.7719  139.6716  143.7191 LP  0  0  0  0  0  0  0  0  0  0  0  0  # atno 17321 bound_to 7965
  139.7750  144.7464  151.0170 LP  0  0  0  0  0  0  0  0  0  0  0  0  # atno 17342 bound_to 10162
  140.7813  143.4604  151.0286 LP  0  0  0  0  0  0  0  0  0  0  0  0  # atno 17343 bound_to 10162
  157.7486  131.0054  150.3113 LP  0  0  0  0  0  0  0  0  0  0  0  0  # atno 17370 bound_to 10713
  156.3551  130.3837  149.7297 LP  0  0  0  0  0  0  0  0  0  0  0  0  # atno 17371 bound_to 10713
  141.2217  133.7247  156.8737 LP  0  0  0  0  0  0  0  0  0  0  0  0  # atno 17394 bound_to 11000
  140.1747  134.9075  157.2876 LP  0  0  0  0  0  0  0  0  0  0  0  0  # atno 17395 bound_to 11000

$$$$
