AV-unprocessed.smi:1230|AV-procd|sdf|5158|dock2
  -GOLD-   22720 4233D 1   1.00000     0.00000
 Structure written by MMmdl.
 39 40  0  0  0  0  0  0  0  0  1 V2000
  153.7834  141.0121  160.1118 C   0  0  0  0  0  0  0  0  0  0  0  0
  153.3293  142.4686  159.9310 C   0  0  2  0  0  0  0  0  0  0  0  0
  152.5314  142.9679  161.1522 C   0  0  0  0  0  0  0  0  0  0  0  0
  152.1205  144.4403  160.9932 C   0  0  0  0  0  0  0  0  0  0  0  0
  151.3281  144.6618  159.6962 C   0  0  0  0  0  0  0  0  0  0  0  0
  152.1117  144.1622  158.4705 C   0  0  0  0  0  0  0  0  0  0  0  0
  152.5375  142.6896  158.6200 C   0  0  2  0  0  0  0  0  0  0  0  0
  151.3580  141.8962  158.6360 O   0  0  0  0  0  0  0  0  0  0  0  0
  150.4476  142.1612  157.5798 C   0  0  0  0  0  0  0  0  0  0  0  0
  150.9317  141.4104  156.3302 C   0  0  0  0  0  0  0  0  0  0  0  0
  149.8384  141.0154  155.4768 N   0  0  0  0  0  0  0  0  0  0  0  0
  148.6446  141.7189  155.4351 C   0  0  0  0  0  0  0  0  0  0  0  0
  147.5853  141.3217  154.6917 C   0  0  0  0  0  0  0  0  0  0  0  0
  146.3606  142.0505  154.6675 C   0  0  0  0  0  0  0  0  0  0  0  0
  145.3787  142.6628  154.6559 N   0  0  0  0  0  0  0  0  0  0  0  0
  147.6547  140.1067  153.8821 C   0  0  0  0  0  0  0  0  0  0  0  0
  146.7527  139.6649  153.1729 O   0  0  0  0  0  0  0  0  0  0  0  0
  148.8753  139.4284  153.9638 N   0  0  0  0  0  0  0  0  0  0  0  0
  149.9742  139.8207  154.7308 C   0  0  0  0  0  0  0  0  0  0  0  0
  150.9920  139.1284  154.7421 O   0  0  0  0  0  0  0  0  0  0  0  0
  148.9674  138.5780  153.4274 H   0  0  0  0  0  0  0  0  0  0  0  0
  152.9335  140.3446  160.2510 H   0  0  0  0  0  0  0  0  0  0  0  0
  154.4272  140.9088  160.9855 H   0  0  0  0  0  0  0  0  0  0  0  0
  154.3456  140.6635  159.2453 H   0  0  0  0  0  0  0  0  0  0  0  0
  154.2351  143.0731  159.8645 H   0  0  0  0  0  0  0  0  0  0  0  0
  151.6412  142.3524  161.2908 H   0  0  0  0  0  0  0  0  0  0  0  0
  153.1271  142.8536  162.0584 H   0  0  0  0  0  0  0  0  0  0  0  0
  151.5257  144.7554  161.8510 H   0  0  0  0  0  0  0  0  0  0  0  0
  153.0117  145.0692  160.9875 H   0  0  0  0  0  0  0  0  0  0  0  0
  150.3716  144.1409  159.7589 H   0  0  0  0  0  0  0  0  0  0  0  0
  151.0941  145.7203  159.5804 H   0  0  0  0  0  0  0  0  0  0  0  0
  151.5114  144.2868  157.5688 H   0  0  0  0  0  0  0  0  0  0  0  0
  152.9991  144.7817  158.3353 H   0  0  0  0  0  0  0  0  0  0  0  0
  153.1695  142.4327  157.7675 H   0  0  0  0  0  0  0  0  0  0  0  0
  149.4517  141.8217  157.8663 H   0  0  0  0  0  0  0  0  0  0  0  0
  150.3818  143.2312  157.3772 H   0  0  0  0  0  0  0  0  0  0  0  0
  151.5851  142.0384  155.7226 H   0  0  0  0  0  0  0  0  0  0  0  0
  151.5082  140.5163  156.5759 H   0  0  0  0  0  0  0  0  0  0  0  0
  148.5474  142.6175  156.0286 H   0  0  0  0  0  0  0  0  0  0  0  0
  1  2  1  0  0  0  0
  1 22  1  0  0  0  0
  1 23  1  0  0  0  0
  1 24  1  0  0  0  0
  2  7  1  0  0  0  0
  2  3  1  0  0  0  0
  2 25  1  0  0  0  0
  3  4  1  0  0  0  0
  3 26  1  0  0  0  0
  3 27  1  0  0  0  0
  4  5  1  0  0  0  0
  4 28  1  0  0  0  0
  4 29  1  0  0  0  0
  5  6  1  0  0  0  0
  5 30  1  0  0  0  0
  5 31  1  0  0  0  0
  6  7  1  0  0  0  0
  6 32  1  0  0  0  0
  6 33  1  0  0  0  0
  7  8  1  0  0  0  0
  7 34  1  0  0  0  0
  8  9  1  0  0  0  0
  9 10  1  0  0  0  0
  9 35  1  0  0  0  0
  9 36  1  0  0  0  0
 10 11  1  0  0  0  0
 10 37  1  0  0  0  0
 10 38  1  0  0  0  0
 11 19  1  0  0  0  0
 11 12  1  0  0  0  0
 12 13  2  0  0  0  0
 12 39  1  0  0  0  0
 13 14  1  0  0  0  0
 13 16  1  0  0  0  0
 14 15  3  0  0  0  0
 16 17  2  0  0  0  0
 16 18  1  0  0  0  0
 18 21  1  0  0  0  0
 18 19  1  0  0  0  0
 19 20  2  0  0  0  0
M  END
> <s_m_source_file>
AV-unprocessed.smi

> <i_m_source_file_index>
1230

> <i_lp_mmshare_version>
43012

> <i_f3d_flags>
0

> <s_epik_input>
W0NIM11bQ0BASF0xW0NIMl1bQ0gyXVtDSDJdW0NIMl1bQ0BIXTFPW0NIMl1bQ0gyXW4yW2NIXWMoQyNOKWMoPU8pW25IXWMyPU8=

> <s_epik_cmdline>
J2VwaWtfcHl0aG9uJywgJy1waCcsICc3LjAnLCAnLXRuJywgJzgnLCAnLW1hJywgJzIwMCcsICctbWV0YWxfYmluZGluZycsICctaW1hZScsICc8aW5maWxlLm1hZT4nLCAnLW9tYWUnLCAnPG91dGZpbGUubWFlPic=

> <r_epik_Ionization_Penalty>
0.421541

> <r_epik_Ionization_Penalty_Charging>
0.421541

> <r_epik_Ionization_Penalty_Neutral>
2.29267e-11

> <r_epik_State_Penalty>
0.422277

> <r_epik_Charging_Adjusted_Penalty>
0.843818

> <i_epik_Tot_Q>
0

> <i_epik_Tot_abs_Q>
0

> <r_epik_Metal_State_Penalty>
4.11629

> <b_epik_Metal_Only>
0

> <s_lp_Force_Field>
OPLS_2005

> <r_lp_Energy>
14.6453

> <b_lp_Chiralities_Consistent>
1

> <s_lp_Variant>
AV-unprocessed.smi:1230-7

> <Gold.Version>
5.8.1

> <Gold.Id.Protein>
6NUR|6NUR_protein|mol2

> <Gold.PLP.Fitness>
50.0941

> <Gold.PLP.PLP>
-48.4631

> <Gold.PLP.part.hbond>
-1.2603

> <Gold.PLP.part.metal>
0.0000

> <Gold.PLP.part.buried>
-4.2794

> <Gold.PLP.part.nonpolar>
-44.3470

> <Gold.PLP.part.repulsive>
0.9675

> <Gold.PLP.ligand.clash>
0.0000

> <Gold.PLP.ligand.torsion>
0.7150

> <Gold.PLP.Chemscore.Hbond>
0.0000

> <Gold.PLP.Chemscore.CHOScore>
1.0000

> <Gold.PLP.Chemscore.Metal>
0.0000

> <Gold.Chemscore.Hbonds>
donor molecule, donor type, donor heavy atom, donor atom, acceptor molecule, acceptor atom, score
      L1  C    12    39       P1  8028  1.00

> <Gold.PLP.Chemscore.Internal.Correction>
0.0610

> <Gold.Rescore>
     Score         DG    S(hbond)    S(metal)    S(lipo)     H(rot)  DE(clash)    DE(int)     intcor
     12.96     -13.73       0.00        0.00     112.92       1.94       0.09       0.68       ----

> <Gold.Chemscore.Fitness>
12.9624

> <Gold.Chemscore.DG>
-13.7289

> <Gold.Chemscore.ZeroCoef>
-5.4800

> <Gold.Chemscore.Hbond>
0.0000

> <Gold.Chemscore.Metal>
0.0000

> <Gold.Chemscore.Lipo>
112.9186

> <Gold.Chemscore.Internal_Hbond>
0.0000

> <Gold.Chemscore.DEClash>
0.0868

> <Gold.Chemscore.DEInternal>
0.6798

> <Gold.Chemscore.Rot>
1.9385

> <Gold.Chemscore.Internal.Correction>
   9.000000E+99

> <Gold.Chemscore.Hbond.Weighted>
-0.0000

> <Gold.Chemscore.Metal.Weighted>
-0.0000

> <Gold.Chemscore.Lipo.Weighted>
-13.2115

> <Gold.Chemscore.Internal_Hbond.Weighted>
0.0000

> <Gold.Chemscore.DEClash.Weighted>
0.0868

> <Gold.Chemscore.DEInternal.Weighted>
0.6798

> <Gold.Chemscore.Rot.Weighted>
4.9625

> <Gold.Chemscore.Internal.Correction.Weighted>
   9.000000E+99

> <Gold.Protein.RotatedTorsions>
[ 6907 6896 6895 6894 ] final  -21.97 input  -60.11 | X-H torsion
[ 7974 7965 7964 7962 ] final  -51.57 input  175.53 | X-H torsion
[ 8008 7997 7996 7995 ] final   -9.27 input   59.86 | X-H torsion
[ 10167 10162 10161 10158 ] final   34.61 input  -65.29 | X-H torsion
[ 10718 10713 10712 10709 ] final   12.10 input   66.30 | X-H torsion
[ 10763 10752 10751 10750 ] final  105.94 input  -60.55 | X-H torsion
[ 11005 11000 10999 10996 ] final  102.13 input  -57.11 | X-H torsion

> <Gold.Protein.ActiveResidues>
 VAL166  LYS551  ARG553  GLY616  TRP617  ASP618  TYR619  PRO620  LYS621  CYS622 
 ASP623  PHE694  ASN695  SER759  ASP760  ASP761  ALA762  ILE779  LEU786  VAL792 
 PHE793  MET794  SER795  GLU796  ALA797  LYS798  CYS799  TRP800  GLU811  SER814 

> <Gold.Protein.RotatedAtoms>
  151.2255  135.0534  159.8966 H   0  0  0  0  0  0  0  0  0  0  0  0  # atno 6907 bound_to 6896
  152.5411  134.0594  159.8155 H   0  0  0  0  0  0  0  0  0  0  0  0  # atno 6908 bound_to 6896
  151.0766  133.5375  159.2655 H   0  0  0  0  0  0  0  0  0  0  0  0  # atno 6909 bound_to 6896
  145.9175  140.7862  142.9664 H   0  0  0  0  0  0  0  0  0  0  0  0  # atno 7974 bound_to 7965
  154.5663  140.2359  155.8259 H   0  0  0  0  0  0  0  0  0  0  0  0  # atno 8008 bound_to 7997
  156.2070  140.3037  155.9608 H   0  0  0  0  0  0  0  0  0  0  0  0  # atno 8009 bound_to 7997
  155.2796  140.0422  157.3005 H   0  0  0  0  0  0  0  0  0  0  0  0  # atno 8010 bound_to 7997
  140.4299  144.1339  150.6158 H   0  0  0  0  0  0  0  0  0  0  0  0  # atno 10167 bound_to 10162
  157.0053  130.6095  149.5701 H   0  0  0  0  0  0  0  0  0  0  0  0  # atno 10718 bound_to 10713
  153.3862  135.3893  155.1891 H   0  0  0  0  0  0  0  0  0  0  0  0  # atno 10763 bound_to 10752
  154.8714  135.3737  154.4795 H   0  0  0  0  0  0  0  0  0  0  0  0  # atno 10764 bound_to 10752
  153.5277  135.7086  153.5760 H   0  0  0  0  0  0  0  0  0  0  0  0  # atno 10765 bound_to 10752
  139.8776  134.9212  156.5012 H   0  0  0  0  0  0  0  0  0  0  0  0  # atno 11005 bound_to 11000
  144.6749  140.1923  143.7395 LP  0  0  0  0  0  0  0  0  0  0  0  0  # atno 17320 bound_to 7965
  145.8593  139.2214  143.1726 LP  0  0  0  0  0  0  0  0  0  0  0  0  # atno 17321 bound_to 7965
  140.4438  143.2515  151.9437 LP  0  0  0  0  0  0  0  0  0  0  0  0  # atno 17342 bound_to 10162
  139.4784  144.5628  151.8212 LP  0  0  0  0  0  0  0  0  0  0  0  0  # atno 17343 bound_to 10162
  156.0156  130.5250  150.8124 LP  0  0  0  0  0  0  0  0  0  0  0  0  # atno 17370 bound_to 10713
  157.5360  131.0939  150.9891 LP  0  0  0  0  0  0  0  0  0  0  0  0  # atno 17371 bound_to 10713
  140.8588  133.8076  155.9243 LP  0  0  0  0  0  0  0  0  0  0  0  0  # atno 17394 bound_to 11000
  140.9070  134.2307  157.5008 LP  0  0  0  0  0  0  0  0  0  0  0  0  # atno 17395 bound_to 11000

$$$$
