AV-unprocessed.smi:2453|AV-procd|sdf|9689|dock9
  -GOLD-   2272013323D 1   1.00000     0.00000
 Structure written by MMmdl.
 40 41  0  0  0  0  0  0  0  0  1 V2000
  150.9999  145.2858  158.6569 C   0  0  0  0  0  0  0  0  0  0  0  0
  151.6322  143.9459  158.9907 C   0  0  0  0  0  0  0  0  0  0  0  0
  152.7655  143.8928  159.8309 C   0  0  0  0  0  0  0  0  0  0  0  0
  153.3837  142.7457  160.1788 N   0  0  0  0  0  0  0  0  0  0  0  0
  152.8803  141.5905  159.6980 C   0  0  0  0  0  0  0  0  0  0  0  0
  151.7549  141.5262  158.8537 C   0  0  0  0  0  0  0  0  0  0  0  0
  151.1158  142.7320  158.4746 C   0  0  0  0  0  0  0  0  0  0  0  0
  149.9649  142.7828  157.6370 N   0  0  0  0  0  0  0  0  0  0  0  0
  149.0120  141.8534  157.4472 C   0  0  0  0  0  0  0  0  0  0  0  0
  148.9707  140.7493  157.9891 O   0  0  0  0  0  0  0  0  0  0  0  0
  148.0987  142.2755  156.5611 N   0  0  0  0  0  0  0  0  0  0  0  0
  146.9240  141.5190  156.1231 C   0  0  2  0  0  0  0  0  0  0  0  0
  147.1002  141.0140  154.6741 C   0  0  0  0  0  0  0  0  0  0  0  0
  147.0560  142.1603  153.6500 C   0  0  0  0  0  0  0  0  0  0  0  0
  145.7687  142.9841  153.7954 C   0  0  0  0  0  0  0  0  0  0  0  0
  145.5975  143.5058  155.2310 C   0  0  0  0  0  0  0  0  0  0  0  0
  145.6262  142.3592  156.2645 C   0  0  2  0  0  0  0  0  0  0  0  0
  145.3848  142.8934  157.6923 C   0  0  0  0  0  0  0  0  0  0  0  0
  146.5585  143.4796  158.2150 O   0  0  0  0  0  0  0  0  0  0  0  0
  151.5436  146.1083  159.1224 H   0  0  0  0  0  0  0  0  0  0  0  0
  149.9696  145.3195  159.0124 H   0  0  0  0  0  0  0  0  0  0  0  0
  151.0001  145.4499  157.5790 H   0  0  0  0  0  0  0  0  0  0  0  0
  153.1907  144.7979  160.2392 H   0  0  0  0  0  0  0  0  0  0  0  0
  153.3867  140.6862  160.0014 H   0  0  0  0  0  0  0  0  0  0  0  0
  151.4038  140.5593  158.5288 H   0  0  0  0  0  0  0  0  0  0  0  0
  149.8925  143.6087  157.0612 H   0  0  0  0  0  0  0  0  0  0  0  0
  148.2183  143.1936  156.1589 H   0  0  0  0  0  0  0  0  0  0  0  0
  146.8279  140.6449  156.7697 H   0  0  0  0  0  0  0  0  0  0  0  0
  148.0333  140.4589  154.5720 H   0  0  0  0  0  0  0  0  0  0  0  0
  146.3041  140.3043  154.4460 H   0  0  0  0  0  0  0  0  0  0  0  0
  147.9237  142.8080  153.7815 H   0  0  0  0  0  0  0  0  0  0  0  0
  147.1240  141.7566  152.6395 H   0  0  0  0  0  0  0  0  0  0  0  0
  145.7821  143.8196  153.0951 H   0  0  0  0  0  0  0  0  0  0  0  0
  144.9093  142.3690  153.5253 H   0  0  0  0  0  0  0  0  0  0  0  0
  146.3842  144.2280  155.4530 H   0  0  0  0  0  0  0  0  0  0  0  0
  144.6549  144.0493  155.3043 H   0  0  0  0  0  0  0  0  0  0  0  0
  144.7881  141.7017  156.0268 H   0  0  0  0  0  0  0  0  0  0  0  0
  144.5734  143.6211  157.7170 H   0  0  0  0  0  0  0  0  0  0  0  0
  145.0962  142.0767  158.3546 H   0  0  0  0  0  0  0  0  0  0  0  0
  146.6387  144.3552  157.8685 H   0  0  0  0  0  0  0  0  0  0  0  0
  1  2  1  0  0  0  0
  1 20  1  0  0  0  0
  1 21  1  0  0  0  0
  1 22  1  0  0  0  0
  2  7  1  0  0  0  0
  2  3  2  0  0  0  0
  3  4  1  0  0  0  0
  3 23  1  0  0  0  0
  4  5  2  0  0  0  0
  5  6  1  0  0  0  0
  5 24  1  0  0  0  0
  6  7  2  0  0  0  0
  6 25  1  0  0  0  0
  7  8  1  0  0  0  0
  8  9  1  0  0  0  0
  8 26  1  0  0  0  0
  9 10  2  0  0  0  0
  9 11  1  0  0  0  0
 11 12  1  0  0  0  0
 11 27  1  0  0  0  0
 12 17  1  0  0  0  0
 12 13  1  0  0  0  0
 12 28  1  0  0  0  0
 13 14  1  0  0  0  0
 13 29  1  0  0  0  0
 13 30  1  0  0  0  0
 14 15  1  0  0  0  0
 14 31  1  0  0  0  0
 14 32  1  0  0  0  0
 15 16  1  0  0  0  0
 15 33  1  0  0  0  0
 15 34  1  0  0  0  0
 16 17  1  0  0  0  0
 16 35  1  0  0  0  0
 16 36  1  0  0  0  0
 17 18  1  0  0  0  0
 17 37  1  0  0  0  0
 18 19  1  0  0  0  0
 18 38  1  0  0  0  0
 18 39  1  0  0  0  0
 19 40  1  0  0  0  0
M  END
> <s_m_source_file>
AV-unprocessed.smi

> <i_m_source_file_index>
2453

> <i_lp_mmshare_version>
43012

> <i_f3d_flags>
0

> <s_epik_input>
W0NIM11jMVtjSF1uW2NIXVtjSF1jMVtOSF1DKD1PKVtOSF1bQ0BASF0yW0NIMl1bQ0gyXVtDSDJdW0NIMl1bQ0BIXTJbQ0gyXVtPSF0=

> <s_epik_cmdline>
J2VwaWtfcHl0aG9uJywgJy1waCcsICc3LjAnLCAnLXRuJywgJzgnLCAnLW1hJywgJzIwMCcsICctbWV0YWxfYmluZGluZycsICctaW1hZScsICc8aW5maWxlLm1hZT4nLCAnLW9tYWUnLCAnPG91dGZpbGUubWFlPic=

> <r_epik_Ionization_Penalty>
0.210691

> <r_epik_Ionization_Penalty_Charging>
0

> <r_epik_Ionization_Penalty_Neutral>
0.210691

> <r_epik_State_Penalty>
0.200732

> <r_epik_Charging_Adjusted_Penalty>
0.200732

> <i_epik_Tot_Q>
0

> <i_epik_Tot_abs_Q>
0

> <r_epik_Metal_State_Penalty>
0.147519

> <b_epik_Metal_Only>
0

> <s_lp_Force_Field>
OPLS_2005

> <r_lp_Energy>
18.5766

> <b_lp_Chiralities_Consistent>
1

> <s_lp_Variant>
AV-unprocessed.smi:2453-3

> <Gold.Version>
5.8.1

> <Gold.Id.Protein>
6NUR|6NUR_protein|mol2

> <Gold.PLP.Fitness>
43.1233

> <Gold.PLP.PLP>
-34.8921

> <Gold.PLP.part.hbond>
-3.0000

> <Gold.PLP.part.metal>
0.0000

> <Gold.PLP.part.buried>
-6.4948

> <Gold.PLP.part.nonpolar>
-24.0470

> <Gold.PLP.part.repulsive>
0.0560

> <Gold.PLP.ligand.clash>
0.0000

> <Gold.PLP.ligand.torsion>
0.3808

> <Gold.PLP.Chemscore.Hbond>
2.9913

> <Gold.PLP.Chemscore.CHOScore>
0.0000

> <Gold.PLP.Chemscore.Metal>
0.0000

> <Gold.Chemscore.Hbonds>
donor molecule, donor type, donor heavy atom, donor atom, acceptor molecule, acceptor atom, score
      L1  H     8    26       P1  8028  0.98
      L1  H    11    27       P1  8028  1.00
      L1  H    19    40       P1  8029  0.87

> <Gold.PLP.Chemscore.Internal.Correction>
0.0191

> <Gold.Rescore>
     Score         DG    S(hbond)    S(metal)    S(lipo)     H(rot)  DE(clash)    DE(int)     intcor
     16.61     -18.85       2.08        0.00      93.22       1.75       0.19       2.05       ----

> <Gold.Chemscore.Fitness>
16.6058

> <Gold.Chemscore.DG>
-18.8533

> <Gold.Chemscore.ZeroCoef>
-5.4800

> <Gold.Chemscore.Hbond>
2.0791

> <Gold.Chemscore.Metal>
0.0000

> <Gold.Chemscore.Lipo>
93.2239

> <Gold.Chemscore.Internal_Hbond>
0.0000

> <Gold.Chemscore.DEClash>
0.1939

> <Gold.Chemscore.DEInternal>
2.0536

> <Gold.Chemscore.Rot>
1.7493

> <Gold.Chemscore.Internal.Correction>
   9.000000E+99

> <Gold.Chemscore.Hbonds>
donor molecule, donor type, donor heavy atom, donor atom, acceptor molecule, acceptor atom, score
      L1  H     8    26       P1  8028  0.85
      L1  H    11    27       P1  8028  0.65
      L1  H    19    40       P1  8029  0.21

> <Gold.Chemscore.Hbond.Weighted>
-6.9442

> <Gold.Chemscore.Metal.Weighted>
-0.0000

> <Gold.Chemscore.Lipo.Weighted>
-10.9072

> <Gold.Chemscore.Internal_Hbond.Weighted>
0.0000

> <Gold.Chemscore.DEClash.Weighted>
0.1939

> <Gold.Chemscore.DEInternal.Weighted>
2.0536

> <Gold.Chemscore.Rot.Weighted>
4.4782

> <Gold.Chemscore.Internal.Correction.Weighted>
   9.000000E+99

> <Gold.Protein.RotatedTorsions>
[ 6907 6896 6895 6894 ] final   61.58 input  -60.11 | X-H torsion
[ 7974 7965 7964 7962 ] final  -53.35 input  175.53 | X-H torsion
[ 8008 7997 7996 7995 ] final  -69.84 input   59.86 | X-H torsion
[ 10167 10162 10161 10158 ] final  115.61 input  -65.29 | X-H torsion
[ 10718 10713 10712 10709 ] final   95.33 input   66.30 | X-H torsion
[ 10763 10752 10751 10750 ] final  141.95 input  -60.55 | X-H torsion
[ 11005 11000 10999 10996 ] final   35.63 input  -57.11 | X-H torsion

> <Gold.Protein.ActiveResidues>
 VAL166  LYS551  ARG553  GLY616  TRP617  ASP618  TYR619  PRO620  LYS621  CYS622 
 ASP623  PHE694  ASN695  SER759  ASP760  ASP761  ALA762  ILE779  LEU786  VAL792 
 PHE793  MET794  SER795  GLU796  ALA797  LYS798  CYS799  TRP800  GLU811  SER814 

> <Gold.Protein.RotatedAtoms>
  152.4101  134.6140  160.0032 H   0  0  0  0  0  0  0  0  0  0  0  0  # atno 6907 bound_to 6896
  151.6320  133.3326  159.3119 H   0  0  0  0  0  0  0  0  0  0  0  0  # atno 6908 bound_to 6896
  150.7992  134.7114  159.6651 H   0  0  0  0  0  0  0  0  0  0  0  0  # atno 6909 bound_to 6896
  145.8978  140.8018  142.9758 H   0  0  0  0  0  0  0  0  0  0  0  0  # atno 7974 bound_to 7965
  154.4968  140.0846  156.7713 H   0  0  0  0  0  0  0  0  0  0  0  0  # atno 8008 bound_to 7997
  155.4098  140.3441  155.4244 H   0  0  0  0  0  0  0  0  0  0  0  0  # atno 8009 bound_to 7997
  156.1404  140.1527  156.8917 H   0  0  0  0  0  0  0  0  0  0  0  0  # atno 8010 bound_to 7997
  139.6305  144.7114  151.2443 H   0  0  0  0  0  0  0  0  0  0  0  0  # atno 10167 bound_to 10162
  157.6940  131.0542  150.4322 H   0  0  0  0  0  0  0  0  0  0  0  0  # atno 10718 bound_to 10713
  153.9477  135.2973  155.3440 H   0  0  0  0  0  0  0  0  0  0  0  0  # atno 10763 bound_to 10752
  154.7443  135.5010  153.9180 H   0  0  0  0  0  0  0  0  0  0  0  0  # atno 10764 bound_to 10752
  153.1010  135.6734  153.9781 H   0  0  0  0  0  0  0  0  0  0  0  0  # atno 10765 bound_to 10752
  140.2407  134.3418  155.7927 H   0  0  0  0  0  0  0  0  0  0  0  0  # atno 11005 bound_to 11000
  144.6734  140.1630  143.7421 LP  0  0  0  0  0  0  0  0  0  0  0  0  # atno 17320 bound_to 7965
  145.8828  139.2332  143.1595 LP  0  0  0  0  0  0  0  0  0  0  0  0  # atno 17321 bound_to 7965
  140.7436  143.6489  150.8266 LP  0  0  0  0  0  0  0  0  0  0  0  0  # atno 17342 bound_to 10162
  140.0113  143.5639  152.2837 LP  0  0  0  0  0  0  0  0  0  0  0  0  # atno 17343 bound_to 10162
  156.4688  130.4048  149.6531 LP  0  0  0  0  0  0  0  0  0  0  0  0  # atno 17370 bound_to 10713
  156.3619  130.7486  151.2459 LP  0  0  0  0  0  0  0  0  0  0  0  0  # atno 17371 bound_to 10713
  141.2210  133.7297  156.8881 LP  0  0  0  0  0  0  0  0  0  0  0  0  # atno 17394 bound_to 11000
  140.1656  134.9135  157.2769 LP  0  0  0  0  0  0  0  0  0  0  0  0  # atno 17395 bound_to 11000

$$$$
