#       Name:                AV-unprocessed.smi:2983
#       Creating user name   scv26
#       Creation time:       Fri Mar 27 16:29:45 2020


#       File generated by GOLD software.
#

@<TRIPOS>MOLECULE
AV-unprocessed.smi:2983
    45    46     1
SMALL
NO_CHARGES


@<TRIPOS>ATOM
      1 ****        -3.8297   3.6920  -0.8123 C.3            1 S1                 0.0000
      2 ****        -2.2979   3.6517  -0.7917 C.3            1 S1                 0.0000
      3 ****        -1.7429   2.2467  -1.0608 C.3            1 S1                 0.0000
      4 ****        -0.2061   2.2073  -1.0259 C.3            1 S1                 0.0000
      5 ****         0.3207   0.8769  -1.2551 N.am           1 S1                 0.0000
      6 ****         0.5590  -0.0477  -0.2340 C.2            1 S1                 0.0000
      7 ****         0.2733   0.3280   1.0687 N.pl3          1 S1                 0.0000
      8 ****         1.0519  -1.2939  -0.4908 C.2            1 S1                 0.0000
      9 ****         1.2932  -2.2474   0.4920 N.pl3          1 S1                 0.0000
     10 ****         0.2412  -3.0260   1.1328 C.3            1 S1                 0.0000
     11 ****         0.2256  -2.7696   2.6513 C.3            1 S1                 0.0000
     12 ****         1.5192  -3.0158   3.1953 O.3            1 S1                 0.0000
     13 ****         2.5144  -2.1737   2.6203 C.3            1 S1                 0.0000
     14 ****         2.5989  -2.4399   1.1075 C.3            1 S1                 0.0000
     15 ****         1.3480  -1.7076  -1.8662 C.2            1 S1                 0.0000
     16 ****         1.8054  -2.7988  -2.2047 O.2            1 S1                 0.0000
     17 ****         1.0631  -0.7542  -2.8409 N.am           1 S1                 0.0000
     18 ****         0.5503   0.5165  -2.6044 C.2            1 S1                 0.0000
     19 ****         0.3190   1.2615  -3.5573 O.2            1 S1                 0.0000
     20 ****         1.2369  -1.0104  -3.8018 H              1 S1                 0.0000
     21 ****        -4.1954   4.7010  -0.6205 H              1 S1                 0.0000
     22 ****        -4.2502   3.0352  -0.0504 H              1 S1                 0.0000
     23 ****        -4.2183   3.3757  -1.7806 H              1 S1                 0.0000
     24 ****        -1.9096   4.3467  -1.5374 H              1 S1                 0.0000
     25 ****        -1.9426   4.0064   0.1765 H              1 S1                 0.0000
     26 ****        -2.1407   1.5516  -0.3204 H              1 S1                 0.0000
     27 ****        -2.0974   1.8981  -2.0317 H              1 S1                 0.0000
     28 ****         0.2404   2.8824  -1.7583 H              1 S1                 0.0000
     29 ****         0.1817   2.5410  -0.0639 H              1 S1                 0.0000
     30 ****        -0.0972   1.2420   1.2859 H              1 S1                 0.0000
     31 ****         0.3943  -0.3052   1.8459 H              1 S1                 0.0000
     32 ****        -0.7287  -2.7785   0.6996 H              1 S1                 0.0000
     33 ****         0.4156  -4.0836   0.9305 H              1 S1                 0.0000
     34 ****        -0.0835  -1.7482   2.8756 H              1 S1                 0.0000
     35 ****        -0.4940  -3.4297   3.1356 H              1 S1                 0.0000
     36 ****         2.2807  -1.1269   2.8201 H              1 S1                 0.0000
     37 ****         3.4736  -2.3826   3.0940 H              1 S1                 0.0000
     38 ****         2.9348  -3.4602   0.9190 H              1 S1                 0.0000
     39 ****         3.3338  -1.7760   0.6502 H              1 S1                 0.0000
     40 ****         1.7651  -3.9695   3.0221 LP             1 S1                 0.0000
     41 ****         1.4901  -2.8529   4.1815 LP             1 S1                 0.0000
     42 ****         2.0070  -3.4926  -1.5134 LP             1 S1                 0.0000
     43 ****         1.9754  -2.9917  -3.1711 LP             1 S1                 0.0000
     44 ****        -0.0516   2.1766  -3.3981 LP             1 S1                 0.0000
     45 ****         0.5017   0.9514  -4.4903 LP             1 S1                 0.0000
@<TRIPOS>BOND
    1    1    2 1     
    2    1   21 1     
    3    1   22 1     
    4    1   23 1     
    5    2    3 1     
    6    2   24 1     
    7    2   25 1     
    8    3    4 1     
    9    3   26 1     
   10    3   27 1     
   11    4    5 1     
   12    4   28 1     
   13    4   29 1     
   14    5   18 1     
   15    5    6 1     
   16    6    7 1     
   17    6    8 2     
   18    7   30 1     
   19    7   31 1     
   20    8    9 1     
   21    8   15 1     
   22    9   14 1     
   23    9   10 1     
   24   10   11 1     
   25   10   32 1     
   26   10   33 1     
   27   11   12 1     
   28   11   34 1     
   29   11   35 1     
   30   12   13 1     
   31   13   14 1     
   32   13   36 1     
   33   13   37 1     
   34   14   38 1     
   35   14   39 1     
   36   15   16 2     
   37   15   17 1     
   38   17   20 1     
   39   17   18 1     
   40   18   19 2     
   41   12   40 1     
   42   12   41 1     
   43   16   42 1     
   44   16   43 1     
   45   19   44 1     
   46   19   45 1     
@<TRIPOS>SUBSTRUCTURE
      1 S1             1
@<TRIPOS>SET
LONE_PAIRS      STATIC     ATOMS    <user>   **** ""
6 40 41 42 43 44 45
DONOR_HYDROGENS      STATIC     ATOMS    <user>   **** ""
3 30 31 20
ATOM$BLUE        STATIC     ATOMS    COLORGROUP SYSTEM
6 40 41 42 43 44 45
ATOM$RED        STATIC     ATOMS    COLORGROUP SYSTEM
3 30 31 20
