#       Name:                AV-unprocessed.smi:269
#       Creating user name   scv26
#       Creation time:       Thu Mar 26 21:26:10 2020


#       File generated by GOLD software.
#

@<TRIPOS>MOLECULE
AV-unprocessed.smi:269
    72    75     1
SMALL
NO_CHARGES


@<TRIPOS>ATOM
      1 ****        -5.7476   1.1126   7.3078 C.3            1 S1                 0.0000
      2 ****        -4.4898   0.3342   6.8998 C.3            1 S1                 0.0000
      3 ****        -3.7204   1.0463   5.8859 N.am           1 S1                 0.0000
      4 ****        -3.9917   1.0463   4.5720 C.2            1 S1                 0.0000
      5 ****        -4.9470   0.4464   4.0780 O.2            1 S1                 0.0000
      6 ****        -3.0456   1.8616   3.6841 C.3            1 S1                 0.0000
      7 ****        -3.0249   1.3933   2.2745 N.4            1 S1                 1.0000
      8 ****        -2.2753   0.1214   2.0896 C.3            1 S1                 0.0000
      9 ****        -2.3596  -0.3631   0.6318 C.3            1 S1                 0.0000
     10 ****        -1.9095   0.6799  -0.2862 N.3            1 S1                 0.0000
     11 ****        -0.5838   0.6835  -0.5916 C.ar           1 S1                 0.0000
     12 ****         0.1606   1.7973  -0.3581 N.ar           1 S1                 0.0000
     13 ****         1.4666   1.8111  -0.6381 C.ar           1 S1                 0.0000
     14 ****         2.2183   0.8373  -1.1523 N.ar           1 S1                 0.0000
     15 ****         1.4790  -0.2793  -1.4069 C.ar           1 S1                 0.0000
     16 ****         0.0863  -0.4405  -1.1558 C.ar           1 S1                 0.0000
     17 ****        -0.3162  -1.7125  -1.5444 N.2            1 S1                 0.0000
     18 ****         0.7762  -2.2748  -1.9825 C.2            1 S1                 0.0000
     19 ****         1.9007  -1.4801  -1.9541 N.pl3          1 S1                 0.0000
     20 ****         3.2446  -1.8527  -2.3779 C.3            1 S1                 0.0000
     21 ****         3.5518  -1.6204  -3.8922 C.3            1 S1                 0.0000
     22 ****         2.5406  -2.3826  -4.7898 C.3            1 S1                 0.0000
     23 ****         2.5588  -3.7763  -4.5529 O.3            1 S1                 0.0000
     24 ****         3.4777  -0.1192  -4.2698 C.3            1 S1                 0.0000
     25 ****         4.6407   0.7027  -3.6840 C.3            1 S1                 0.0000
     26 ****         5.8816   0.1544  -4.1082 O.3            1 S1                 0.0000
     27 ****         6.0779  -1.1769  -3.6504 C.3            1 S1                 0.0000
     28 ****         4.9874  -2.0985  -4.2270 C.3            1 S1                 0.0000
     29 ****        -2.6118   1.9535  -0.1265 C.3            1 S1                 0.0000
     30 ****        -2.5653   2.4472   1.3337 C.3            1 S1                 0.0000
     31 ****        -6.2947   0.5808   8.0866 H              1 S1                 0.0000
     32 ****        -6.4242   1.2470   6.4632 H              1 S1                 0.0000
     33 ****        -5.4930   2.0995   7.6956 H              1 S1                 0.0000
     34 ****        -3.8505   0.1870   7.7707 H              1 S1                 0.0000
     35 ****        -4.7587  -0.6608   6.5412 H              1 S1                 0.0000
     36 ****        -2.9205   1.5718   6.2087 H              1 S1                 0.0000
     37 ****        -3.3942   2.8946   3.7207 H              1 S1                 0.0000
     38 ****        -2.0336   1.8571   4.0932 H              1 S1                 0.0000
     39 ****        -1.2319   0.2712   2.3720 H              1 S1                 0.0000
     40 ****        -2.6720  -0.6523   2.7471 H              1 S1                 0.0000
     41 ****        -1.7886  -1.2836   0.5218 H              1 S1                 0.0000
     42 ****        -3.3916  -0.6151   0.3846 H              1 S1                 0.0000
     43 ****         1.9836   2.7338  -0.4185 H              1 S1                 0.0000
     44 ****         0.7876  -3.2913  -2.3479 H              1 S1                 0.0000
     45 ****         3.9498  -1.3126  -1.7477 H              1 S1                 0.0000
     46 ****         3.3887  -2.9042  -2.1264 H              1 S1                 0.0000
     47 ****         1.5260  -2.0124  -4.6439 H              1 S1                 0.0000
     48 ****         2.7691  -2.2237  -5.8445 H              1 S1                 0.0000
     49 ****         2.3506  -3.9305  -3.6444 H              1 S1                 0.0000
     50 ****         3.5158  -0.0174  -5.3553 H              1 S1                 0.0000
     51 ****         2.5233   0.3135  -3.9716 H              1 S1                 0.0000
     52 ****         4.5784   1.7329  -4.0345 H              1 S1                 0.0000
     53 ****         4.6023   0.7418  -2.5956 H              1 S1                 0.0000
     54 ****         7.0598  -1.5155  -3.9817 H              1 S1                 0.0000
     55 ****         6.0923  -1.2035  -2.5604 H              1 S1                 0.0000
     56 ****         5.1449  -3.1172  -3.8710 H              1 S1                 0.0000
     57 ****         5.1162  -2.1355  -5.3097 H              1 S1                 0.0000
     58 ****        -2.2140   2.7104  -0.8037 H              1 S1                 0.0000
     59 ****        -3.6498   1.8019  -0.4246 H              1 S1                 0.0000
     60 ****        -3.1936   3.3327   1.4352 H              1 S1                 0.0000
     61 ****        -1.5514   2.7481   1.6009 H              1 S1                 0.0000
     62 ****        -3.9858   1.1997   2.0297 H              1 S1                 0.0000
     63 ****        -5.5673  -0.0749   4.6642 LP             1 S1                 0.0000
     64 ****        -5.1024   0.4804   3.0908 LP             1 S1                 0.0000
     65 ****        -2.2372   0.4002  -1.1886 LP             1 S1                 0.0000
     66 ****        -0.2731   2.6123   0.0262 LP             1 S1                 0.0000
     67 ****         3.1995   0.9160  -1.3287 LP             1 S1                 0.0000
     68 ****        -1.2340  -2.1068  -1.4986 LP             1 S1                 0.0000
     69 ****         3.4674  -4.1409  -4.7568 LP             1 S1                 0.0000
     70 ****         1.8810  -4.2258  -5.1347 LP             1 S1                 0.0000
     71 ****         6.6217   0.7267  -3.7549 LP             1 S1                 0.0000
     72 ****         5.9071   0.1561  -5.1078 LP             1 S1                 0.0000
@<TRIPOS>BOND
    1    1    2 1     
    2    1   31 1     
    3    1   32 1     
    4    1   33 1     
    5    2    3 1     
    6    2   34 1     
    7    2   35 1     
    8    3    4 am    
    9    3   36 1     
   10    4    5 2     
   11    4    6 1     
   12    6    7 1     
   13    6   37 1     
   14    6   38 1     
   15    7   30 1     
   16    7    8 1     
   17    7   62 1     
   18    8    9 1     
   19    8   39 1     
   20    8   40 1     
   21    9   10 1     
   22    9   41 1     
   23    9   42 1     
   24   10   11 1     
   25   10   29 1     
   26   11   16 ar    
   27   11   12 ar    
   28   12   13 ar    
   29   13   14 ar    
   30   13   43 1     
   31   14   15 ar    
   32   15   19 1     
   33   15   16 ar    
   34   16   17 1     
   35   17   18 2     
   36   18   19 1     
   37   18   44 1     
   38   19   20 1     
   39   20   21 1     
   40   20   45 1     
   41   20   46 1     
   42   21   28 1     
   43   21   22 1     
   44   21   24 1     
   45   22   23 1     
   46   22   47 1     
   47   22   48 1     
   48   23   49 1     
   49   24   25 1     
   50   24   50 1     
   51   24   51 1     
   52   25   26 1     
   53   25   52 1     
   54   25   53 1     
   55   26   27 1     
   56   27   28 1     
   57   27   54 1     
   58   27   55 1     
   59   28   56 1     
   60   28   57 1     
   61   29   30 1     
   62   29   58 1     
   63   29   59 1     
   64   30   60 1     
   65   30   61 1     
   66    5   63 1     
   67    5   64 1     
   68   10   65 1     
   69   12   66 1     
   70   14   67 1     
   71   17   68 1     
   72   23   69 1     
   73   23   70 1     
   74   26   71 1     
   75   26   72 1     
@<TRIPOS>SUBSTRUCTURE
      1 S1             1
@<TRIPOS>SET
LONE_PAIRS      STATIC     ATOMS    <user>   **** ""
10 63 64 65 66 67 68 69 70 71 72
DONOR_HYDROGENS      STATIC     ATOMS    <user>   **** ""
3 36 62 49
ATOM$BLUE        STATIC     ATOMS    COLORGROUP SYSTEM
10 63 64 65 66 67 68 69 70 71 72
ATOM$RED        STATIC     ATOMS    COLORGROUP SYSTEM
3 36 62 49
