AV-unprocessed.smi:2482|AV-procd|sdf|9778|dock8
  -GOLD-   2272013423D 1   1.00000     0.00000
 Structure written by MMmdl.
 35 36  0  0  0  0  0  0  0  0  2 V2000
  153.0892  142.8514  160.5617 C   0  0  0  0  0  0  0  0  0  0  0  0
  152.7183  141.6513  159.7104 C   0  0  0  0  0  0  0  0  0  0  0  0
  153.2373  140.4692  160.1078 N   0  0  0  0  0  0  0  0  0  0  0  0
  152.9433  139.3707  159.3829 C   0  0  0  0  0  0  0  0  0  0  0  0
  152.1209  139.3936  158.2402 C   0  0  0  0  0  0  0  0  0  0  0  0
  151.5625  140.6280  157.8301 C   0  0  0  0  0  0  0  0  0  0  0  0
  150.7366  140.7724  156.6811 N   0  0  0  0  0  0  0  0  0  0  0  0
  150.7243  140.0459  155.5475 C   0  0  0  0  0  0  0  0  0  0  0  0
  151.4807  139.1021  155.3189 O   0  0  0  0  0  0  0  0  0  0  0  0
  149.6810  140.4628  154.4990 C   0  0  1  0  0  0  0  0  0  0  0  0
  148.7361  139.3045  154.1011 C   0  0  0  0  0  0  0  0  0  0  0  0
  147.7053  139.7752  153.1475 N   0  3  1  0  0  0  0  0  0  0  0  0
  146.7995  138.6929  152.7072 C   0  0  0  0  0  0  0  0  0  0  0  0
  146.9770  140.9441  153.6892 C   0  0  0  0  0  0  0  0  0  0  0  0
  147.9678  142.0490  154.0874 C   0  0  0  0  0  0  0  0  0  0  0  0
  148.9006  141.5338  155.0291 O   0  0  0  0  0  0  0  0  0  0  0  0
  151.8813  141.7857  158.5778 C   0  0  0  0  0  0  0  0  0  0  0  0
  151.2543  143.3347  158.1207 Cl  0  0  0  0  0  0  0  0  0  0  0  0
  152.1925  143.3139  160.9746 H   0  0  0  0  0  0  0  0  0  0  0  0
  153.6171  143.5938  159.9627 H   0  0  0  0  0  0  0  0  0  0  0  0
  153.7354  142.5686  161.3940 H   0  0  0  0  0  0  0  0  0  0  0  0
  153.3833  138.4439  159.7197 H   0  0  0  0  0  0  0  0  0  0  0  0
  151.9497  138.4749  157.7013 H   0  0  0  0  0  0  0  0  0  0  0  0
  150.0061  141.4647  156.7646 H   0  0  0  0  0  0  0  0  0  0  0  0
  150.2243  140.8151  153.6206 H   0  0  0  0  0  0  0  0  0  0  0  0
  149.3037  138.4955  153.6385 H   0  0  0  0  0  0  0  0  0  0  0  0
  148.2486  138.8904  154.9860 H   0  0  0  0  0  0  0  0  0  0  0  0
  146.2327  138.2895  153.5474 H   0  0  0  0  0  0  0  0  0  0  0  0
  147.3661  137.8786  152.2545 H   0  0  0  0  0  0  0  0  0  0  0  0
  146.0932  139.0613  151.9626 H   0  0  0  0  0  0  0  0  0  0  0  0
  146.2793  141.3230  152.9414 H   0  0  0  0  0  0  0  0  0  0  0  0
  146.3869  140.6410  154.5556 H   0  0  0  0  0  0  0  0  0  0  0  0
  148.4917  142.4383  153.2131 H   0  0  0  0  0  0  0  0  0  0  0  0
  147.4358  142.8863  154.5390 H   0  0  0  0  0  0  0  0  0  0  0  0
  148.1954  140.0952  152.3240 H   0  0  0  0  0  0  0  0  0  0  0  0
  1  2  1  0  0  0  0
  1 19  1  0  0  0  0
  1 20  1  0  0  0  0
  1 21  1  0  0  0  0
  2 17  1  0  0  0  0
  2  3  2  0  0  0  0
  3  4  1  0  0  0  0
  4  5  2  0  0  0  0
  4 22  1  0  0  0  0
  5  6  1  0  0  0  0
  5 23  1  0  0  0  0
  6  7  1  0  0  0  0
  6 17  2  0  0  0  0
  7  8  1  0  0  0  0
  7 24  1  0  0  0  0
  8  9  2  0  0  0  0
  8 10  1  0  0  0  0
 10 16  1  0  0  0  0
 10 11  1  0  0  0  0
 10 25  1  0  0  0  0
 11 12  1  0  0  0  0
 11 26  1  0  0  0  0
 11 27  1  0  0  0  0
 12 13  1  0  0  0  0
 12 14  1  0  0  0  0
 12 35  1  0  0  0  0
 13 28  1  0  0  0  0
 13 29  1  0  0  0  0
 13 30  1  0  0  0  0
 14 15  1  0  0  0  0
 14 31  1  0  0  0  0
 14 32  1  0  0  0  0
 15 16  1  0  0  0  0
 15 33  1  0  0  0  0
 15 34  1  0  0  0  0
 17 18  1  0  0  0  0
M  CHG  1  12   1
M  END
> <s_m_source_file>
AV-unprocessed.smi

> <i_m_source_file_index>
2482

> <i_lp_mmshare_version>
43012

> <i_f3d_flags>
0

> <s_epik_input>
W0NIM11jMW5bY0hdW2NIXWMoYzFDbClbTkhdQyg9TylbQ0BASF0yW0NIMl1OKFtDSDNdKVtDSDJdW0NIMl1PMg==

> <s_epik_cmdline>
J2VwaWtfcHl0aG9uJywgJy1waCcsICc3LjAnLCAnLXRuJywgJzgnLCAnLW1hJywgJzIwMCcsICctbWV0YWxfYmluZGluZycsICctaW1hZScsICc8aW5maWxlLm1hZT4nLCAnLW9tYWUnLCAnPG91dGZpbGUubWFlPic=

> <r_epik_Ionization_Penalty>
0.314226

> <r_epik_Ionization_Penalty_Charging>
0.314023

> <r_epik_Ionization_Penalty_Neutral>
0.00020299

> <r_epik_State_Penalty>
0.308208

> <r_epik_Charging_Adjusted_Penalty>
0.62223

> <i_epik_Tot_Q>
1

> <i_epik_Tot_abs_Q>
1

> <r_epik_Metal_State_Penalty>
0.314444

> <b_epik_Metal_Only>
0

> <s_lp_Force_Field>
OPLS_2005

> <r_lp_Energy>
22.3096

> <b_lp_Chiralities_Consistent>
1

> <s_lp_Variant>
AV-unprocessed.smi:2482-4

> <Gold.Version>
5.8.1

> <Gold.Id.Protein>
6NUR|6NUR_protein|mol2

> <Gold.PLP.Fitness>
37.1259

> <Gold.PLP.PLP>
-34.5219

> <Gold.PLP.part.hbond>
-1.0000

> <Gold.PLP.part.metal>
0.0000

> <Gold.PLP.part.buried>
-2.8857

> <Gold.PLP.part.nonpolar>
-30.0765

> <Gold.PLP.part.repulsive>
0.2840

> <Gold.PLP.ligand.clash>
0.0000

> <Gold.PLP.ligand.torsion>
0.1988

> <Gold.PLP.Chemscore.Hbond>
1.0000

> <Gold.PLP.Chemscore.CHOScore>
0.0000

> <Gold.PLP.Chemscore.Metal>
0.0000

> <Gold.Chemscore.Hbonds>
donor molecule, donor type, donor heavy atom, donor atom, acceptor molecule, acceptor atom, score
      L1  H    12    35       P1  7957  1.00

> <Gold.PLP.Chemscore.Internal.Correction>
0.0014

> <Gold.Rescore>
     Score         DG    S(hbond)    S(metal)    S(lipo)     H(rot)  DE(clash)    DE(int)     intcor
     15.62     -16.90       1.00        0.00      91.10       1.00       0.09       1.20       ----

> <Gold.Chemscore.Fitness>
15.6179

> <Gold.Chemscore.DG>
-16.9040

> <Gold.Chemscore.ZeroCoef>
-5.4800

> <Gold.Chemscore.Hbond>
0.9955

> <Gold.Chemscore.Metal>
0.0000

> <Gold.Chemscore.Lipo>
91.1037

> <Gold.Chemscore.Internal_Hbond>
0.0000

> <Gold.Chemscore.DEClash>
0.0859

> <Gold.Chemscore.DEInternal>
1.2003

> <Gold.Chemscore.Rot>
1.0000

> <Gold.Chemscore.Internal.Correction>
   9.000000E+99

> <Gold.Chemscore.Hbonds>
donor molecule, donor type, donor heavy atom, donor atom, acceptor molecule, acceptor atom, score
      L1  H    12    35       P1  7957  0.97

> <Gold.Chemscore.Hbond.Weighted>
-3.3249

> <Gold.Chemscore.Metal.Weighted>
-0.0000

> <Gold.Chemscore.Lipo.Weighted>
-10.6591

> <Gold.Chemscore.Internal_Hbond.Weighted>
0.0000

> <Gold.Chemscore.DEClash.Weighted>
0.0859

> <Gold.Chemscore.DEInternal.Weighted>
1.2003

> <Gold.Chemscore.Rot.Weighted>
2.5600

> <Gold.Chemscore.Internal.Correction.Weighted>
   9.000000E+99

> <Gold.Protein.RotatedTorsions>
[ 6907 6896 6895 6894 ] final   43.69 input  -60.11 | X-H torsion
[ 7974 7965 7964 7962 ] final  -27.42 input  175.53 | X-H torsion
[ 8008 7997 7996 7995 ] final -101.91 input   59.86 | X-H torsion
[ 10167 10162 10161 10158 ] final   -8.07 input  -65.29 | X-H torsion
[ 10718 10713 10712 10709 ] final  112.62 input   66.30 | X-H torsion
[ 10763 10752 10751 10750 ] final  124.28 input  -60.55 | X-H torsion
[ 11005 11000 10999 10996 ] final  130.70 input  -57.11 | X-H torsion

> <Gold.Protein.ActiveResidues>
 VAL166  LYS551  ARG553  GLY616  TRP617  ASP618  TYR619  PRO620  LYS621  CYS622 
 ASP623  PHE694  ASN695  SER759  ASP760  ASP761  ALA762  ILE779  LEU786  VAL792 
 PHE793  MET794  SER795  GLU796  ALA797  LYS798  CYS799  TRP800  GLU811  SER814 

> <Gold.Protein.RotatedAtoms>
  152.2233  134.8392  160.0482 H   0  0  0  0  0  0  0  0  0  0  0  0  # atno 6907 bound_to 6896
  151.9167  133.3570  159.3891 H   0  0  0  0  0  0  0  0  0  0  0  0  # atno 6908 bound_to 6896
  150.7006  134.4602  159.5421 H   0  0  0  0  0  0  0  0  0  0  0  0  # atno 6909 bound_to 6896
  146.1359  140.5149  142.8673 H   0  0  0  0  0  0  0  0  0  0  0  0  # atno 7974 bound_to 7965
  154.8493  140.0431  157.1593 H   0  0  0  0  0  0  0  0  0  0  0  0  # atno 8008 bound_to 7997
  154.8961  140.2993  155.5323 H   0  0  0  0  0  0  0  0  0  0  0  0  # atno 8009 bound_to 7997
  156.2995  140.2384  156.3983 H   0  0  0  0  0  0  0  0  0  0  0  0  # atno 8010 bound_to 7997
  140.7048  143.6010  150.8798 H   0  0  0  0  0  0  0  0  0  0  0  0  # atno 10167 bound_to 10162
  157.6383  131.0970  150.6921 H   0  0  0  0  0  0  0  0  0  0  0  0  # atno 10718 bound_to 10713
  153.6589  135.3350  155.3121 H   0  0  0  0  0  0  0  0  0  0  0  0  # atno 10763 bound_to 10752
  154.8520  135.4359  154.1826 H   0  0  0  0  0  0  0  0  0  0  0  0  # atno 10764 bound_to 10752
  153.2787  135.7007  153.7482 H   0  0  0  0  0  0  0  0  0  0  0  0  # atno 10765 bound_to 10752
  139.9687  134.9583  156.9331 H   0  0  0  0  0  0  0  0  0  0  0  0  # atno 11005 bound_to 11000
  144.7739  140.5698  143.6651 LP  0  0  0  0  0  0  0  0  0  0  0  0  # atno 17320 bound_to 7965
  145.5157  139.1478  143.3580 LP  0  0  0  0  0  0  0  0  0  0  0  0  # atno 17321 bound_to 7965
  139.9734  143.6031  152.2966 LP  0  0  0  0  0  0  0  0  0  0  0  0  # atno 17342 bound_to 10162
  139.6626  144.7662  151.1934 LP  0  0  0  0  0  0  0  0  0  0  0  0  # atno 17343 bound_to 10162
  156.7249  130.4692  149.5514 LP  0  0  0  0  0  0  0  0  0  0  0  0  # atno 17370 bound_to 10713
  156.1641  130.6393  151.0755 LP  0  0  0  0  0  0  0  0  0  0  0  0  # atno 17371 bound_to 10713
  140.5340  134.0785  155.7323 LP  0  0  0  0  0  0  0  0  0  0  0  0  # atno 17394 bound_to 11000
  141.1367  133.9210  157.2418 LP  0  0  0  0  0  0  0  0  0  0  0  0  # atno 17395 bound_to 11000

$$$$
