#       Name:                AV-unprocessed.smi:729
#       Creating user name   scv26
#       Creation time:       Fri Mar 27 00:51:33 2020


#       File generated by GOLD software.
#

@<TRIPOS>MOLECULE
AV-unprocessed.smi:729
    29    29     1
SMALL
NO_CHARGES


@<TRIPOS>ATOM
      1 ****         0.2424   2.0978  -0.8534 C.3            1 S1                 0.0000
      2 ****        -0.5053   0.8596  -0.3763 C.2            1 S1                 0.0000
      3 ****        -1.8406   0.9272  -0.1667 C.2            1 S1                 0.0000
      4 ****        -2.5936  -0.2506   0.2979 C.2            1 S1                 0.0000
      5 ****        -3.8073  -0.2150   0.4915 O.2            1 S1                 0.0000
      6 ****        -1.8045  -1.4713   0.5139 C.2            1 S1                 0.0000
      7 ****        -0.4790  -1.4449   0.2763 C.2            1 S1                 0.0000
      8 ****         0.2827  -2.5343   0.4575 O.3            1 S1                 0.0000
      9 ****         0.2423  -0.3213  -0.1727 N.pl3          1 S1                 0.0000
     10 ****         1.6998  -0.3657  -0.3788 C.3            1 S1                 0.0000
     11 ****         2.5391  -0.0002   0.8499 C.2            1 S1                 0.0000
     12 ****         3.2978   0.9885   0.7464 O.co2          1 S1                 0.0000
     13 ****         2.4180  -0.7174   1.8673 O.co2          1 S1                -1.0000
     14 ****        -0.4017   2.9773  -0.8311 H              1 S1                 0.0000
     15 ****         0.5850   1.9675  -1.8800 H              1 S1                 0.0000
     16 ****         1.1002   2.3172  -0.2187 H              1 S1                 0.0000
     17 ****        -2.3863   1.8447  -0.3322 H              1 S1                 0.0000
     18 ****        -2.3042  -2.3649   0.8585 H              1 S1                 0.0000
     19 ****         2.0104  -1.3541  -0.7168 H              1 S1                 0.0000
     20 ****         1.9831   0.2863  -1.2041 H              1 S1                 0.0000
     21 ****        -0.2791  -3.2258   0.7714 H              1 S1                 0.0000
     22 ****        -4.3142   0.6323   0.3334 LP             1 S1                 0.0000
     23 ****        -4.2875  -1.0334   0.8071 LP             1 S1                 0.0000
     24 ****         0.9971  -2.3430   1.1307 LP             1 S1                 0.0000
     25 ****         0.7042  -2.8038  -0.4084 LP             1 S1                 0.0000
     26 ****         3.8719   1.2612   1.5185 LP             1 S1                 0.0000
     27 ****         3.3305   1.5063  -0.1084 LP             1 S1                 0.0000
     28 ****         2.9547  -0.5171   2.6870 LP             1 S1                 0.0000
     29 ****         1.7846  -1.4912   1.8611 LP             1 S1                 0.0000
@<TRIPOS>BOND
    1    1    2 1     
    2    1   14 1     
    3    1   15 1     
    4    1   16 1     
    5    2    9 1     
    6    2    3 2     
    7    3    4 1     
    8    3   17 1     
    9    4    5 2     
   10    4    6 1     
   11    6    7 2     
   12    6   18 1     
   13    7    8 1     
   14    7    9 1     
   15    8   21 1     
   16    9   10 1     
   17   10   11 1     
   18   10   19 1     
   19   10   20 1     
   20   11   12 ar    
   21   11   13 ar    
   22    5   22 1     
   23    5   23 1     
   24    8   24 1     
   25    8   25 1     
   26   12   26 1     
   27   12   27 1     
   28   13   28 1     
   29   13   29 1     
@<TRIPOS>SUBSTRUCTURE
      1 S1             1
@<TRIPOS>SET
LONE_PAIRS      STATIC     ATOMS    <user>   **** ""
8 22 23 24 25 26 27 28 29
DONOR_HYDROGENS      STATIC     ATOMS    <user>   **** ""
1 21
ATOM$BLUE        STATIC     ATOMS    COLORGROUP SYSTEM
8 22 23 24 25 26 27 28 29
ATOM$RED        STATIC     ATOMS    COLORGROUP SYSTEM
1 21
