AV-unprocessed.smi:1531|AV-procd|sdf|6158|dock8
  -GOLD-   22720 6303D 1   1.00000     0.00000
 Structure written by MMmdl.
 44 45  0  0  0  0  0  0  0  0  1 V2000
  145.6586  132.0684  149.3095 C   0  0  0  0  0  0  0  0  0  0  0  0
  145.8265  132.9222  150.5738 C   0  0  0  0  0  0  0  0  0  0  0  0
  146.4735  132.1736  151.7616 C   0  0  2  0  0  0  0  0  0  0  0  0
  145.8934  130.7484  151.8937 C   0  0  0  0  0  0  0  0  0  0  0  0
  146.5580  129.9621  153.0345 C   0  0  0  0  0  0  0  0  0  0  0  0
  146.4363  130.7100  154.3692 C   0  0  0  0  0  0  0  0  0  0  0  0
  147.0193  132.1286  154.2620 C   0  0  0  0  0  0  0  0  0  0  0  0
  146.3854  132.9366  153.1109 C   0  0  2  0  0  0  0  0  0  0  0  0
  145.0013  133.2847  153.4369 N   0  0  0  0  0  0  0  0  0  0  0  0
  144.4437  134.4967  153.3063 C   0  0  0  0  0  0  0  0  0  0  0  0
  145.0458  135.4871  152.8910 O   0  0  0  0  0  0  0  0  0  0  0  0
  143.1566  134.4822  153.6894 N   0  0  0  0  0  0  0  0  0  0  0  0
  142.2372  135.5607  153.6536 C   0  0  0  0  0  0  0  0  0  0  0  0
  142.5955  136.9276  153.5242 C   0  0  0  0  0  0  0  0  0  0  0  0
  141.5242  137.7061  153.5285 N   0  0  0  0  0  0  0  0  0  0  0  0
  140.4729  136.8588  153.6621 N   0  0  0  0  0  0  0  0  0  0  0  0
  139.1217  137.3892  153.7053 C   0  0  0  0  0  0  0  0  0  0  0  0
  138.4688  137.1386  155.0659 C   0  0  0  0  0  0  0  0  0  0  0  0
  137.1848  137.4827  155.1997 N   0  0  0  0  0  0  0  0  0  0  0  0
  139.1137  136.6363  155.9837 O   0  0  0  0  0  0  0  0  0  0  0  0
  140.8741  135.5396  153.7427 C   0  0  0  0  0  0  0  0  0  0  0  0
  145.1169  132.6204  148.5413 H   0  0  0  0  0  0  0  0  0  0  0  0
  145.0983  131.1569  149.5195 H   0  0  0  0  0  0  0  0  0  0  0  0
  146.6216  131.7835  148.8863 H   0  0  0  0  0  0  0  0  0  0  0  0
  146.3974  133.8195  150.3327 H   0  0  0  0  0  0  0  0  0  0  0  0
  144.8394  133.2736  150.8765 H   0  0  0  0  0  0  0  0  0  0  0  0
  147.5330  132.0612  151.5264 H   0  0  0  0  0  0  0  0  0  0  0  0
  144.8175  130.7988  152.0650 H   0  0  0  0  0  0  0  0  0  0  0  0
  146.0271  130.2045  150.9579 H   0  0  0  0  0  0  0  0  0  0  0  0
  146.1034  128.9747  153.1196 H   0  0  0  0  0  0  0  0  0  0  0  0
  147.6108  129.7985  152.8012 H   0  0  0  0  0  0  0  0  0  0  0  0
  145.3885  130.7610  154.6677 H   0  0  0  0  0  0  0  0  0  0  0  0
  146.9523  130.1555  155.1533 H   0  0  0  0  0  0  0  0  0  0  0  0
  146.8941  132.6563  155.2084 H   0  0  0  0  0  0  0  0  0  0  0  0
  148.0951  132.0575  154.0972 H   0  0  0  0  0  0  0  0  0  0  0  0
  146.9692  133.8527  153.0105 H   0  0  0  0  0  0  0  0  0  0  0  0
  144.4231  132.5360  153.7892 H   0  0  0  0  0  0  0  0  0  0  0  0
  142.7937  133.6061  154.0358 H   0  0  0  0  0  0  0  0  0  0  0  0
  143.5754  137.3721  153.4286 H   0  0  0  0  0  0  0  0  0  0  0  0
  139.1564  138.4595  153.4969 H   0  0  0  0  0  0  0  0  0  0  0  0
  138.5257  136.9294  152.9152 H   0  0  0  0  0  0  0  0  0  0  0  0
  136.7096  137.3331  156.0782 H   0  0  0  0  0  0  0  0  0  0  0  0
  136.6923  137.8890  154.4175 H   0  0  0  0  0  0  0  0  0  0  0  0
  140.1666  134.7313  153.8545 H   0  0  0  0  0  0  0  0  0  0  0  0
  1  2  1  0  0  0  0
  1 22  1  0  0  0  0
  1 23  1  0  0  0  0
  1 24  1  0  0  0  0
  2  3  1  0  0  0  0
  2 25  1  0  0  0  0
  2 26  1  0  0  0  0
  3  8  1  0  0  0  0
  3  4  1  0  0  0  0
  3 27  1  0  0  0  0
  4  5  1  0  0  0  0
  4 28  1  0  0  0  0
  4 29  1  0  0  0  0
  5  6  1  0  0  0  0
  5 30  1  0  0  0  0
  5 31  1  0  0  0  0
  6  7  1  0  0  0  0
  6 32  1  0  0  0  0
  6 33  1  0  0  0  0
  7  8  1  0  0  0  0
  7 34  1  0  0  0  0
  7 35  1  0  0  0  0
  8  9  1  0  0  0  0
  8 36  1  0  0  0  0
  9 10  1  0  0  0  0
  9 37  1  0  0  0  0
 10 11  2  0  0  0  0
 10 12  1  0  0  0  0
 12 13  1  0  0  0  0
 12 38  1  0  0  0  0
 13 21  2  0  0  0  0
 13 14  1  0  0  0  0
 14 15  2  0  0  0  0
 14 39  1  0  0  0  0
 15 16  1  0  0  0  0
 16 17  1  0  0  0  0
 16 21  1  0  0  0  0
 17 18  1  0  0  0  0
 17 40  1  0  0  0  0
 17 41  1  0  0  0  0
 18 19  1  0  0  0  0
 18 20  2  0  0  0  0
 19 42  1  0  0  0  0
 19 43  1  0  0  0  0
 21 44  1  0  0  0  0
M  END
> <s_m_source_file>
AV-unprocessed.smi

> <i_m_source_file_index>
1531

> <i_lp_mmshare_version>
43012

> <i_f3d_flags>
0

> <s_epik_input>
W0NIM11bQ0gyXVtDQEBIXTFbQ0gyXVtDSDJdW0NIMl1bQ0gyXVtDQEhdMVtOSF1DKD1PKVtOSF1jMltjSF1ubihbY0hdMilbQ0gyXUMoPU8pW05IMl0=

> <s_epik_cmdline>
J2VwaWtfcHl0aG9uJywgJy1waCcsICc3LjAnLCAnLXRuJywgJzgnLCAnLW1hJywgJzIwMCcsICctbWV0YWxfYmluZGluZycsICctaW1hZScsICc8aW5maWxlLm1hZT4nLCAnLW9tYWUnLCAnPG91dGZpbGUubWFlPic=

> <r_lp_tautomer_probability>
1

> <r_epik_Ionization_Penalty>
4.83437e-05

> <r_epik_Ionization_Penalty_Charging>
0

> <r_epik_Ionization_Penalty_Neutral>
4.83437e-05

> <r_epik_State_Penalty>
-0

> <r_epik_Charging_Adjusted_Penalty>
0

> <i_epik_Tot_Q>
0

> <i_epik_Tot_abs_Q>
0

> <r_epik_Metal_State_Penalty>
-0

> <b_epik_Metal_Only>
0

> <s_lp_Force_Field>
OPLS_2005

> <r_lp_Energy>
15.1652

> <b_lp_Chiralities_Consistent>
1

> <s_lp_Variant>
AV-unprocessed.smi:1531-3

> <Gold.Version>
5.8.1

> <Gold.Id.Protein>
6NUR|6NUR_protein|mol2

> <Gold.PLP.Fitness>
42.2647

> <Gold.PLP.PLP>
-34.8045

> <Gold.PLP.part.hbond>
-2.8665

> <Gold.PLP.part.metal>
0.0000

> <Gold.PLP.part.buried>
-5.9766

> <Gold.PLP.part.nonpolar>
-25.8848

> <Gold.PLP.part.repulsive>
0.3466

> <Gold.PLP.ligand.clash>
0.0000

> <Gold.PLP.ligand.torsion>
0.4044

> <Gold.PLP.Chemscore.Hbond>
2.7475

> <Gold.PLP.Chemscore.CHOScore>
0.0000

> <Gold.PLP.Chemscore.Metal>
0.0000

> <Gold.Chemscore.Hbonds>
donor molecule, donor type, donor heavy atom, donor atom, acceptor molecule, acceptor atom, score
      L1  H     9    37       P1 10957  0.71
      L1  H    12    38       P1 10957  1.00
      P1  H 11000 11005       L1    20  1.00

> <Gold.PLP.Chemscore.Internal.Correction>
0.0266

> <Gold.Rescore>
     Score         DG    S(hbond)    S(metal)    S(lipo)     H(rot)  DE(clash)    DE(int)     intcor
     14.17     -16.61       2.27        0.00      76.88       2.13       0.00       2.43       ----

> <Gold.Chemscore.Fitness>
14.1725

> <Gold.Chemscore.DG>
-16.6060

> <Gold.Chemscore.ZeroCoef>
-5.4800

> <Gold.Chemscore.Hbond>
2.2734

> <Gold.Chemscore.Metal>
0.0000

> <Gold.Chemscore.Lipo>
76.8781

> <Gold.Chemscore.Internal_Hbond>
0.0000

> <Gold.Chemscore.DEClash>
0.0038

> <Gold.Chemscore.DEInternal>
2.4297

> <Gold.Chemscore.Rot>
2.1335

> <Gold.Chemscore.Internal.Correction>
   9.000000E+99

> <Gold.Chemscore.Hbonds>
donor molecule, donor type, donor heavy atom, donor atom, acceptor molecule, acceptor atom, score
      L1  H     9    37       P1 10957  0.31
      L1  H    12    38       P1 10957  0.97
      P1  H 11000 11005       L1    20  1.00

> <Gold.Chemscore.Hbond.Weighted>
-7.5931

> <Gold.Chemscore.Metal.Weighted>
-0.0000

> <Gold.Chemscore.Lipo.Weighted>
-8.9947

> <Gold.Chemscore.Internal_Hbond.Weighted>
0.0000

> <Gold.Chemscore.DEClash.Weighted>
0.0038

> <Gold.Chemscore.DEInternal.Weighted>
2.4297

> <Gold.Chemscore.Rot.Weighted>
5.4618

> <Gold.Chemscore.Internal.Correction.Weighted>
   9.000000E+99

> <Gold.Protein.RotatedTorsions>
[ 6907 6896 6895 6894 ] final   48.56 input  -60.11 | X-H torsion
[ 7974 7965 7964 7962 ] final  151.14 input  175.53 | X-H torsion
[ 8008 7997 7996 7995 ] final  -89.47 input   59.86 | X-H torsion
[ 10167 10162 10161 10158 ] final  -32.69 input  -65.29 | X-H torsion
[ 10718 10713 10712 10709 ] final    6.49 input   66.30 | X-H torsion
[ 10763 10752 10751 10750 ] final  -81.95 input  -60.55 | X-H torsion
[ 11005 11000 10999 10996 ] final  103.97 input  -57.11 | X-H torsion

> <Gold.Protein.ActiveResidues>
 VAL166  LYS551  ARG553  GLY616  TRP617  ASP618  TYR619  PRO620  LYS621  CYS622 
 ASP623  PHE694  ASN695  SER759  ASP760  ASP761  ALA762  ILE779  LEU786  VAL792 
 PHE793  MET794  SER795  GLU796  ALA797  LYS798  CYS799  TRP800  GLU811  SER814 

> <Gold.Protein.RotatedAtoms>
  152.2808  134.7830  160.0396 H   0  0  0  0  0  0  0  0  0  0  0  0  # atno 6907 bound_to 6896
  151.8410  133.3418  159.3651 H   0  0  0  0  0  0  0  0  0  0  0  0  # atno 6908 bound_to 6896
  150.7189  134.5320  159.5749 H   0  0  0  0  0  0  0  0  0  0  0  0  # atno 6909 bound_to 6896
  144.8314  139.6499  143.6057 H   0  0  0  0  0  0  0  0  0  0  0  0  # atno 7974 bound_to 7965
  154.6870  140.0541  157.0325 H   0  0  0  0  0  0  0  0  0  0  0  0  # atno 8008 bound_to 7997
  155.0870  140.3215  155.4566 H   0  0  0  0  0  0  0  0  0  0  0  0  # atno 8009 bound_to 7997
  156.2715  140.2055  156.5997 H   0  0  0  0  0  0  0  0  0  0  0  0  # atno 8010 bound_to 7997
  140.7217  143.3676  151.1841 H   0  0  0  0  0  0  0  0  0  0  0  0  # atno 10167 bound_to 10162
  156.9230  130.5798  149.5648 H   0  0  0  0  0  0  0  0  0  0  0  0  # atno 10718 bound_to 10713
  154.5698  135.5608  153.7084 H   0  0  0  0  0  0  0  0  0  0  0  0  # atno 10763 bound_to 10752
  153.0045  135.6294  154.2130 H   0  0  0  0  0  0  0  0  0  0  0  0  # atno 10764 bound_to 10752
  154.2069  135.2875  155.2951 H   0  0  0  0  0  0  0  0  0  0  0  0  # atno 10765 bound_to 10752
  139.8788  134.9283  156.5290 H   0  0  0  0  0  0  0  0  0  0  0  0  # atno 11005 bound_to 11000
  146.2616  139.6424  142.9358 LP  0  0  0  0  0  0  0  0  0  0  0  0  # atno 17320 bound_to 7965
  145.4888  141.0438  143.2604 LP  0  0  0  0  0  0  0  0  0  0  0  0  # atno 17321 bound_to 7965
  139.7240  143.9177  152.2996 LP  0  0  0  0  0  0  0  0  0  0  0  0  # atno 17342 bound_to 10162
  139.8944  144.6947  150.8735 LP  0  0  0  0  0  0  0  0  0  0  0  0  # atno 17343 bound_to 10162
  156.0482  130.5555  150.8930 LP  0  0  0  0  0  0  0  0  0  0  0  0  # atno 17370 bound_to 10713
  157.5896  131.0945  150.9141 LP  0  0  0  0  0  0  0  0  0  0  0  0  # atno 17371 bound_to 10713
  140.8395  133.8216  155.9061 LP  0  0  0  0  0  0  0  0  0  0  0  0  # atno 17394 bound_to 11000
  140.9251  134.2092  157.4901 LP  0  0  0  0  0  0  0  0  0  0  0  0  # atno 17395 bound_to 11000

$$$$
