AV-unprocessed.smi:69|AV-procd|sdf|658|dock6
  -GOLD-   2262016563D 1   1.00000     0.00000
 Structure written by MMmdl.
 32 34  0  0  0  0  0  0  0  0  1 V2000
  152.9240  138.3043  158.6221 N   0  0  0  0  0  0  0  0  0  0  0  0
  152.5499  138.6347  157.3783 C   0  0  0  0  0  0  0  0  0  0  0  0
  153.3753  138.3175  156.3532 N   0  0  0  0  0  0  0  0  0  0  0  0
  153.0257  138.6380  155.1031 C   0  0  0  0  0  0  0  0  0  0  0  0
  151.9224  139.2589  154.6773 N   0  0  0  0  0  0  0  0  0  0  0  0
  151.0905  139.5769  155.7122 C   0  0  0  0  0  0  0  0  0  0  0  0
  151.3325  139.3005  157.0863 C   0  0  0  0  0  0  0  0  0  0  0  0
  150.2757  139.7671  157.8561 N   0  0  0  0  0  0  0  0  0  0  0  0
  149.4578  140.2900  156.9820 C   0  0  0  0  0  0  0  0  0  0  0  0
  149.8676  140.2158  155.6682 N   0  0  0  0  0  0  0  0  0  0  0  0
  149.1521  140.7240  154.4577 C   0  0  1  0  0  0  0  0  0  0  0  0
  148.5873  139.6310  153.8020 O   0  0  0  0  0  0  0  0  0  0  0  0
  147.2797  139.9638  153.3517 C   0  0  1  0  0  0  0  0  0  0  0  0
  146.4486  138.6827  153.1832 C   0  0  0  0  0  0  0  0  0  0  0  0
  146.8223  138.0149  151.9970 O   0  0  0  0  0  0  0  0  0  0  0  0
  146.7699  140.8818  154.4640 C   0  0  2  0  0  0  0  0  0  0  0  0
  145.6841  141.6914  154.0512 O   0  0  0  0  0  0  0  0  0  0  0  0
  148.0132  141.6815  154.8509 C   0  0  2  0  0  0  0  0  0  0  0  0
  148.1079  142.9019  154.1380 O   0  0  0  0  0  0  0  0  0  0  0  0
  149.9279  141.1849  153.8435 H   0  0  0  0  0  0  0  0  0  0  0  0
  147.3497  140.5216  152.4155 H   0  0  0  0  0  0  0  0  0  0  0  0
  146.4488  140.2825  155.3161 H   0  0  0  0  0  0  0  0  0  0  0  0
  148.0337  141.9007  155.9195 H   0  0  0  0  0  0  0  0  0  0  0  0
  152.3258  138.5306  159.4038 H   0  0  0  0  0  0  0  0  0  0  0  0
  153.8036  137.8329  158.7756 H   0  0  0  0  0  0  0  0  0  0  0  0
  153.7295  138.3562  154.3340 H   0  0  0  0  0  0  0  0  0  0  0  0
  148.5233  140.7462  157.2752 H   0  0  0  0  0  0  0  0  0  0  0  0
  146.5589  138.0223  154.0444 H   0  0  0  0  0  0  0  0  0  0  0  0
  145.3902  138.9301  153.0988 H   0  0  0  0  0  0  0  0  0  0  0  0
  147.6284  137.5481  152.1560 H   0  0  0  0  0  0  0  0  0  0  0  0
  145.1165  141.1727  153.5014 H   0  0  0  0  0  0  0  0  0  0  0  0
  148.0939  143.6128  154.7607 H   0  0  0  0  0  0  0  0  0  0  0  0
  1  2  1  0  0  0  0
  1 24  1  0  0  0  0
  1 25  1  0  0  0  0
  2  7  1  0  0  0  0
  2  3  2  0  0  0  0
  3  4  1  0  0  0  0
  4  5  2  0  0  0  0
  4 26  1  0  0  0  0
  5  6  1  0  0  0  0
  6 10  1  0  0  0  0
  6  7  2  0  0  0  0
  7  8  1  0  0  0  0
  8  9  2  0  0  0  0
  9 10  1  0  0  0  0
  9 27  1  0  0  0  0
 10 11  1  0  0  0  0
 11 20  1  0  0  0  0
 11 18  1  0  0  0  0
 11 12  1  0  0  0  0
 12 13  1  0  0  0  0
 13 21  1  0  0  0  0
 13 14  1  0  0  0  0
 13 16  1  0  0  0  0
 14 15  1  0  0  0  0
 14 28  1  0  0  0  0
 14 29  1  0  0  0  0
 15 30  1  0  0  0  0
 16 22  1  0  0  0  0
 16 17  1  0  0  0  0
 16 18  1  0  0  0  0
 17 31  1  0  0  0  0
 18 23  1  0  0  0  0
 18 19  1  0  0  0  0
 19 32  1  0  0  0  0
M  END
> <s_m_source_file>
AV-unprocessed.smi

> <i_m_source_file_index>
69

> <i_lp_mmshare_version>
43012

> <i_f3d_flags>
0

> <s_epik_input>
bjFbY0hdbmMoW05IMl0pYyhjMTIpbltjSF1uMltDQEBIXTNPW0NASF0oW0NIMl1bT0hdKVtDQEBIXShbT0hdKVtDQEhdM1tPSF0=

> <s_epik_cmdline>
J2VwaWtfcHl0aG9uJywgJy1waCcsICc3LjAnLCAnLXRuJywgJzgnLCAnLW1hJywgJzIwMCcsICctbWV0YWxfYmluZGluZycsICctaW1hZScsICc8aW5maWxlLm1hZT4nLCAnLW9tYWUnLCAnPG91dGZpbGUubWFlPic=

> <r_lp_tautomer_probability>
1

> <r_epik_Ionization_Penalty>
0.000428445

> <r_epik_Ionization_Penalty_Charging>
0

> <r_epik_Ionization_Penalty_Neutral>
0.000428445

> <r_epik_State_Penalty>
-0

> <r_epik_Charging_Adjusted_Penalty>
0

> <i_epik_Tot_Q>
0

> <i_epik_Tot_abs_Q>
0

> <r_epik_Metal_State_Penalty>
-0

> <b_epik_Metal_Only>
0

> <s_epik_Chemistry_Notes>
This compound contains an acetal/aminal-like group ( X-CH(R)-Y where X, Y are N, S, or O) that may be acid/base labile, releasing an aldehyde.

> <s_lp_Force_Field>
OPLS_2005

> <r_lp_Energy>
38.6546

> <b_lp_Chiralities_Consistent>
1

> <s_lp_Variant>
AV-unprocessed.smi:69-16

> <Gold.Version>
5.8.1

> <Gold.Id.Protein>
6NUR|6NUR_protein|mol2

> <Gold.PLP.Fitness>
39.4638

> <Gold.PLP.PLP>
-27.5306

> <Gold.PLP.part.hbond>
-6.8321

> <Gold.PLP.part.metal>
0.0000

> <Gold.PLP.part.buried>
-2.2643

> <Gold.PLP.part.nonpolar>
-19.3483

> <Gold.PLP.part.repulsive>
1.9591

> <Gold.PLP.ligand.clash>
0.0000

> <Gold.PLP.ligand.torsion>
0.4875

> <Gold.PLP.Chemscore.Hbond>
4.2984

> <Gold.PLP.Chemscore.CHOScore>
0.0000

> <Gold.PLP.Chemscore.Metal>
0.0000

> <Gold.Chemscore.Hbonds>
donor molecule, donor type, donor heavy atom, donor atom, acceptor molecule, acceptor atom, score
      L1  H    15    30       P1  7948  1.00
      L1  H    17    31       P1 10175  1.00
      L1  H    19    32       P1  8028  1.00
      P1  H  7989  7998       L1     5  0.96
      P1  H  7997  8009       L1     3  0.26

> <Gold.PLP.Chemscore.Internal.Correction>
0.0131

> <Gold.Rescore>
     Score         DG    S(hbond)    S(metal)    S(lipo)     H(rot)  DE(clash)    DE(int)     intcor
      7.27      -7.97       2.89        0.00      26.88       4.03       0.30       0.41       ----

> <Gold.Chemscore.Fitness>
7.2661

> <Gold.Chemscore.DG>
-7.9731

> <Gold.Chemscore.ZeroCoef>
-5.4800

> <Gold.Chemscore.Hbond>
2.8920

> <Gold.Chemscore.Metal>
0.0000

> <Gold.Chemscore.Lipo>
26.8797

> <Gold.Chemscore.Internal_Hbond>
0.0000

> <Gold.Chemscore.DEClash>
0.2990

> <Gold.Chemscore.DEInternal>
0.4080

> <Gold.Chemscore.Rot>
4.0277

> <Gold.Chemscore.Internal.Correction>
   9.000000E+99

> <Gold.Chemscore.Hbonds>
donor molecule, donor type, donor heavy atom, donor atom, acceptor molecule, acceptor atom, score
      L1  H    15    30       P1  7948  0.98
      L1  H    17    31       P1 10175  0.40
      L1  H    19    32       P1  8028  0.73
      P1  H  7989  7998       L1     5  0.27

> <Gold.Chemscore.Hbond.Weighted>
-9.6592

> <Gold.Chemscore.Metal.Weighted>
-0.0000

> <Gold.Chemscore.Lipo.Weighted>
-3.1449

> <Gold.Chemscore.Internal_Hbond.Weighted>
0.0000

> <Gold.Chemscore.DEClash.Weighted>
0.2990

> <Gold.Chemscore.DEInternal.Weighted>
0.4080

> <Gold.Chemscore.Rot.Weighted>
10.3110

> <Gold.Chemscore.Internal.Correction.Weighted>
   9.000000E+99

> <Gold.Protein.RotatedTorsions>
[ 6907 6896 6895 6894 ] final -163.40 input  -60.11 | X-H torsion
[ 7974 7965 7964 7962 ] final   73.87 input  175.53 | X-H torsion
[ 8008 7997 7996 7995 ] final  170.64 input   59.86 | X-H torsion
[ 10167 10162 10161 10158 ] final  -60.28 input  -65.29 | X-H torsion
[ 10718 10713 10712 10709 ] final  -24.22 input   66.30 | X-H torsion
[ 10763 10752 10751 10750 ] final   42.90 input  -60.55 | X-H torsion
[ 11005 11000 10999 10996 ] final -170.35 input  -57.11 | X-H torsion

> <Gold.Protein.ActiveResidues>
 VAL166  LYS551  ARG553  GLY616  TRP617  ASP618  TYR619  PRO620  LYS621  CYS622 
 ASP623  PHE694  ASN695  SER759  ASP760  ASP761  ALA762  ILE779  LEU786  VAL792 
 PHE793  MET794  SER795  GLU796  ALA797  LYS798  CYS799  TRP800  GLU811  SER814 

> <Gold.Protein.RotatedAtoms>
  151.3954  133.3775  159.2725 H   0  0  0  0  0  0  0  0  0  0  0  0  # atno 6907 bound_to 6896
  150.9473  134.8878  159.7661 H   0  0  0  0  0  0  0  0  0  0  0  0  # atno 6908 bound_to 6896
  152.5097  134.3908  159.9435 H   0  0  0  0  0  0  0  0  0  0  0  0  # atno 6909 bound_to 6896
  145.7355  139.2700  143.1517 H   0  0  0  0  0  0  0  0  0  0  0  0  # atno 7974 bound_to 7965
  156.1346  140.1532  156.9013 H   0  0  0  0  0  0  0  0  0  0  0  0  # atno 8008 bound_to 7997
  154.4937  140.0844  156.7690 H   0  0  0  0  0  0  0  0  0  0  0  0  # atno 8009 bound_to 7997
  155.4192  140.3422  155.4272 H   0  0  0  0  0  0  0  0  0  0  0  0  # atno 8010 bound_to 7997
  140.6081  143.2379  151.5774 H   0  0  0  0  0  0  0  0  0  0  0  0  # atno 10167 bound_to 10162
  156.4805  130.4544  149.6814 H   0  0  0  0  0  0  0  0  0  0  0  0  # atno 10718 bound_to 10713
  152.9872  135.6117  154.3025 H   0  0  0  0  0  0  0  0  0  0  0  0  # atno 10763 bound_to 10752
  154.2745  135.2778  155.2726 H   0  0  0  0  0  0  0  0  0  0  0  0  # atno 10764 bound_to 10752
  154.5093  135.5845  153.6649 H   0  0  0  0  0  0  0  0  0  0  0  0  # atno 10765 bound_to 10752
  140.5205  134.5714  157.5046 H   0  0  0  0  0  0  0  0  0  0  0  0  # atno 11005 bound_to 11000
  146.0497  140.8081  142.9787 LP  0  0  0  0  0  0  0  0  0  0  0  0  # atno 17320 bound_to 7965
  144.6883  140.3035  143.7259 LP  0  0  0  0  0  0  0  0  0  0  0  0  # atno 17321 bound_to 7965
  139.5340  144.2834  152.1211 LP  0  0  0  0  0  0  0  0  0  0  0  0  # atno 17342 bound_to 10162
  140.2027  144.4641  150.6423 LP  0  0  0  0  0  0  0  0  0  0  0  0  # atno 17343 bound_to 10162
  156.3526  130.7440  151.2401 LP  0  0  0  0  0  0  0  0  0  0  0  0  # atno 17370 bound_to 10713
  157.7483  131.0373  150.4448 LP  0  0  0  0  0  0  0  0  0  0  0  0  # atno 17371 bound_to 10713
  139.9608  134.7455  156.0240 LP  0  0  0  0  0  0  0  0  0  0  0  0  # atno 17394 bound_to 11000
  141.1337  133.6580  156.3534 LP  0  0  0  0  0  0  0  0  0  0  0  0  # atno 17395 bound_to 11000

$$$$
