AV-unprocessed.smi:508|AV-procd|sdf|2758|dock2
  -GOLD-   2262023223D 1   1.00000     0.00000
 Structure written by MMmdl.
 49 51  0  0  0  0  0  0  0  0  1 V2000
  153.8056  137.5251  160.7282 C   0  0  0  0  0  0  0  0  0  0  0  0
  152.5035  137.5679  159.9254 C   0  0  0  0  0  0  0  0  0  0  0  0
  152.7281  138.2884  158.7256 O   0  0  0  0  0  0  0  0  0  0  0  0
  151.5273  138.6164  158.0478 C   0  0  0  0  0  0  0  0  0  0  0  0
  151.8851  139.4248  156.7901 C   0  0  0  0  0  0  0  0  0  0  0  0
  150.7633  140.2145  156.2914 N   0  0  0  0  0  0  0  0  0  0  0  0
  150.2642  141.4087  156.7346 C   0  0  0  0  0  0  0  0  0  0  0  0
  150.8077  142.1483  157.8003 N   0  0  0  0  0  0  0  0  0  0  0  0
  150.7188  143.5931  158.0195 C   0  0  0  0  0  0  0  0  0  0  0  0
  152.0801  144.3157  158.0997 C   0  0  0  0  0  0  0  0  0  0  0  0
  152.7982  144.1048  159.4407 C   0  0  0  0  0  0  0  0  0  0  0  0
  153.5946  142.7922  159.5483 C   0  0  0  0  0  0  0  0  0  0  0  0
  152.9484  141.5482  158.9112 C   0  0  0  0  0  0  0  0  0  0  0  0
  151.4126  141.5063  158.9705 C   0  0  0  0  0  0  0  0  0  0  0  0
  149.1727  141.8130  156.0743 N   0  0  0  0  0  0  0  0  0  0  0  0
  148.9666  140.8201  155.1334 C   0  0  0  0  0  0  0  0  0  0  0  0
  149.9057  139.8499  155.2494 C   0  0  0  0  0  0  0  0  0  0  0  0
  149.9093  138.6568  154.3890 C   0  0  0  0  0  0  0  0  0  0  0  0
  150.7347  137.7514  154.4854 O   0  0  0  0  0  0  0  0  0  0  0  0
  148.9073  138.6542  153.4766 N   0  0  0  0  0  0  0  0  0  0  0  0
  147.9380  139.6034  153.3036 C   0  0  0  0  0  0  0  0  0  0  0  0
  147.0913  139.4647  152.4209 O   0  0  0  0  0  0  0  0  0  0  0  0
  147.9543  140.6892  154.1405 N   0  0  0  0  0  0  0  0  0  0  0  0
  146.9364  141.7334  154.0080 C   0  0  0  0  0  0  0  0  0  0  0  0
  148.8706  137.8596  152.8549 H   0  0  0  0  0  0  0  0  0  0  0  0
  153.6708  136.9770  161.6607 H   0  0  0  0  0  0  0  0  0  0  0  0
  154.1447  138.5311  160.9772 H   0  0  0  0  0  0  0  0  0  0  0  0
  154.5979  137.0338  160.1629 H   0  0  0  0  0  0  0  0  0  0  0  0
  152.1736  136.5530  159.6991 H   0  0  0  0  0  0  0  0  0  0  0  0
  151.7192  138.0486  160.5117 H   0  0  0  0  0  0  0  0  0  0  0  0
  150.9855  137.7070  157.7882 H   0  0  0  0  0  0  0  0  0  0  0  0
  150.8763  139.1939  158.7043 H   0  0  0  0  0  0  0  0  0  0  0  0
  152.7173  140.0955  157.0027 H   0  0  0  0  0  0  0  0  0  0  0  0
  152.2535  138.7739  156.0038 H   0  0  0  0  0  0  0  0  0  0  0  0
  150.1214  144.0413  157.2323 H   0  0  0  0  0  0  0  0  0  0  0  0
  150.1480  143.7799  158.9301 H   0  0  0  0  0  0  0  0  0  0  0  0
  152.7339  144.0462  157.2706 H   0  0  0  0  0  0  0  0  0  0  0  0
  151.8880  145.3833  157.9912 H   0  0  0  0  0  0  0  0  0  0  0  0
  153.4863  144.9332  159.6118 H   0  0  0  0  0  0  0  0  0  0  0  0
  152.0709  144.1614  160.2517 H   0  0  0  0  0  0  0  0  0  0  0  0
  154.5790  142.9311  159.0998 H   0  0  0  0  0  0  0  0  0  0  0  0
  153.7813  142.5969  160.6050 H   0  0  0  0  0  0  0  0  0  0  0  0
  153.2737  141.4511  157.8741 H   0  0  0  0  0  0  0  0  0  0  0  0
  153.3463  140.6687  159.4183 H   0  0  0  0  0  0  0  0  0  0  0  0
  151.0448  141.9457  159.8988 H   0  0  0  0  0  0  0  0  0  0  0  0
  151.1018  140.4625  159.0092 H   0  0  0  0  0  0  0  0  0  0  0  0
  147.0708  142.2747  153.0709 H   0  0  0  0  0  0  0  0  0  0  0  0
  146.9762  142.4617  154.8182 H   0  0  0  0  0  0  0  0  0  0  0  0
  145.9337  141.3033  154.0131 H   0  0  0  0  0  0  0  0  0  0  0  0
  1  2  1  0  0  0  0
  1 26  1  0  0  0  0
  1 27  1  0  0  0  0
  1 28  1  0  0  0  0
  2  3  1  0  0  0  0
  2 29  1  0  0  0  0
  2 30  1  0  0  0  0
  3  4  1  0  0  0  0
  4  5  1  0  0  0  0
  4 31  1  0  0  0  0
  4 32  1  0  0  0  0
  5  6  1  0  0  0  0
  5 33  1  0  0  0  0
  5 34  1  0  0  0  0
  6 17  1  0  0  0  0
  6  7  1  0  0  0  0
  7  8  1  0  0  0  0
  7 15  2  0  0  0  0
  8 14  1  0  0  0  0
  8  9  1  0  0  0  0
  9 10  1  0  0  0  0
  9 35  1  0  0  0  0
  9 36  1  0  0  0  0
 10 11  1  0  0  0  0
 10 37  1  0  0  0  0
 10 38  1  0  0  0  0
 11 12  1  0  0  0  0
 11 39  1  0  0  0  0
 11 40  1  0  0  0  0
 12 13  1  0  0  0  0
 12 41  1  0  0  0  0
 12 42  1  0  0  0  0
 13 14  1  0  0  0  0
 13 43  1  0  0  0  0
 13 44  1  0  0  0  0
 14 45  1  0  0  0  0
 14 46  1  0  0  0  0
 15 16  1  0  0  0  0
 16 23  1  0  0  0  0
 16 17  2  0  0  0  0
 17 18  1  0  0  0  0
 18 19  2  0  0  0  0
 18 20  1  0  0  0  0
 20 25  1  0  0  0  0
 20 21  1  0  0  0  0
 21 22  2  0  0  0  0
 21 23  1  0  0  0  0
 23 24  1  0  0  0  0
 24 47  1  0  0  0  0
 24 48  1  0  0  0  0
 24 49  1  0  0  0  0
M  END
> <s_m_source_file>
AV-unprocessed.smi

> <i_m_source_file_index>
508

> <i_lp_mmshare_version>
43012

> <i_f3d_flags>
0

> <s_epik_input>
W0NIM11uMWMoPU8pW25IXWMoPU8pYyhjMTIpbihbQ0gyXVtDSDJdT1tDSDJdW0NIM10pYyhuMilOM1tDSDJdW0NIMl1bQ0gyXVtDSDJdW0NIMl1bQ0gyXTM=

> <s_epik_cmdline>
J2VwaWtfcHl0aG9uJywgJy1waCcsICc3LjAnLCAnLXRuJywgJzgnLCAnLW1hJywgJzIwMCcsICctbWV0YWxfYmluZGluZycsICctaW1hZScsICc8aW5maWxlLm1hZT4nLCAnLW9tYWUnLCAnPG91dGZpbGUubWFlPic=

> <r_lp_tautomer_probability>
1

> <r_epik_Ionization_Penalty>
0.000193589

> <r_epik_Ionization_Penalty_Charging>
2.00901e-05

> <r_epik_Ionization_Penalty_Neutral>
0.000173499

> <r_epik_State_Penalty>
-0

> <r_epik_Charging_Adjusted_Penalty>
2.00901e-05

> <i_epik_Tot_Q>
0

> <i_epik_Tot_abs_Q>
0

> <r_epik_Metal_State_Penalty>
0.0191145

> <b_epik_Metal_Only>
0

> <s_lp_Force_Field>
OPLS_2005

> <r_lp_Energy>
44.1417

> <b_lp_Chiralities_Consistent>
1

> <s_lp_Variant>
AV-unprocessed.smi:508-1

> <Gold.Version>
5.8.1

> <Gold.Id.Protein>
6NUR|6NUR_protein|mol2

> <Gold.PLP.Fitness>
44.4320

> <Gold.PLP.PLP>
-42.9504

> <Gold.PLP.part.hbond>
-2.0000

> <Gold.PLP.part.metal>
0.0000

> <Gold.PLP.part.buried>
-4.7666

> <Gold.PLP.part.nonpolar>
-39.7354

> <Gold.PLP.part.repulsive>
3.6395

> <Gold.PLP.ligand.clash>
0.0000

> <Gold.PLP.ligand.torsion>
0.8285

> <Gold.PLP.Chemscore.Hbond>
1.0000

> <Gold.PLP.Chemscore.CHOScore>
0.0000

> <Gold.PLP.Chemscore.Metal>
0.0000

> <Gold.Chemscore.Hbonds>
donor molecule, donor type, donor heavy atom, donor atom, acceptor molecule, acceptor atom, score
      L1  H    20    25       P1  7948  1.00

> <Gold.PLP.Chemscore.Internal.Correction>
0.1386

> <Gold.Rescore>
     Score         DG    S(hbond)    S(metal)    S(lipo)     H(rot)  DE(clash)    DE(int)     intcor
     14.57     -16.25       0.99        0.00      98.33       1.58       0.01       1.68       ----

> <Gold.Chemscore.Fitness>
14.5682

> <Gold.Chemscore.DG>
-16.2548

> <Gold.Chemscore.ZeroCoef>
-5.4800

> <Gold.Chemscore.Hbond>
0.9928

> <Gold.Chemscore.Metal>
0.0000

> <Gold.Chemscore.Lipo>
98.3333

> <Gold.Chemscore.Internal_Hbond>
0.0000

> <Gold.Chemscore.DEClash>
0.0090

> <Gold.Chemscore.DEInternal>
1.6776

> <Gold.Chemscore.Rot>
1.5806

> <Gold.Chemscore.Internal.Correction>
   9.000000E+99

> <Gold.Chemscore.Hbonds>
donor molecule, donor type, donor heavy atom, donor atom, acceptor molecule, acceptor atom, score
      L1  H    20    25       P1  7948  1.00

> <Gold.Chemscore.Hbond.Weighted>
-3.3161

> <Gold.Chemscore.Metal.Weighted>
-0.0000

> <Gold.Chemscore.Lipo.Weighted>
-11.5050

> <Gold.Chemscore.Internal_Hbond.Weighted>
0.0000

> <Gold.Chemscore.DEClash.Weighted>
0.0090

> <Gold.Chemscore.DEInternal.Weighted>
1.6776

> <Gold.Chemscore.Rot.Weighted>
4.0463

> <Gold.Chemscore.Internal.Correction.Weighted>
   9.000000E+99

> <Gold.Protein.RotatedTorsions>
[ 6907 6896 6895 6894 ] final -139.46 input  -60.11 | X-H torsion
[ 7974 7965 7964 7962 ] final   60.56 input  175.53 | X-H torsion
[ 8008 7997 7996 7995 ] final  -70.76 input   59.86 | X-H torsion
[ 10167 10162 10161 10158 ] final  102.93 input  -65.29 | X-H torsion
[ 10718 10713 10712 10709 ] final -160.46 input   66.30 | X-H torsion
[ 10763 10752 10751 10750 ] final  -65.12 input  -60.55 | X-H torsion
[ 11005 11000 10999 10996 ] final -100.56 input  -57.11 | X-H torsion

> <Gold.Protein.ActiveResidues>
 VAL166  LYS551  ARG553  GLY616  TRP617  ASP618  TYR619  PRO620  LYS621  CYS622 
 ASP623  PHE694  ASN695  SER759  ASP760  ASP761  ALA762  ILE779  LEU786  VAL792 
 PHE793  MET794  SER795  GLU796  ALA797  LYS798  CYS799  TRP800  GLU811  SER814 

> <Gold.Protein.RotatedAtoms>
  151.0481  133.5648  159.2644 H   0  0  0  0  0  0  0  0  0  0  0  0  # atno 6907 bound_to 6896
  151.2669  135.0671  159.9129 H   0  0  0  0  0  0  0  0  0  0  0  0  # atno 6908 bound_to 6896
  152.5377  134.0217  159.8038 H   0  0  0  0  0  0  0  0  0  0  0  0  # atno 6909 bound_to 6896
  145.8946  139.3536  143.0629 H   0  0  0  0  0  0  0  0  0  0  0  0  # atno 7974 bound_to 7965
  154.5036  140.0828  156.7849 H   0  0  0  0  0  0  0  0  0  0  0  0  # atno 8008 bound_to 7997
  155.3944  140.3434  155.4235 H   0  0  0  0  0  0  0  0  0  0  0  0  # atno 8009 bound_to 7997
  156.1488  140.1552  156.8791 H   0  0  0  0  0  0  0  0  0  0  0  0  # atno 8010 bound_to 7997
  139.7307  144.7036  151.0726 H   0  0  0  0  0  0  0  0  0  0  0  0  # atno 10167 bound_to 10162
  156.5824  130.8735  151.2868 H   0  0  0  0  0  0  0  0  0  0  0  0  # atno 10718 bound_to 10713
  154.3403  135.6158  153.5593 H   0  0  0  0  0  0  0  0  0  0  0  0  # atno 10763 bound_to 10752
  152.9804  135.5768  154.4860 H   0  0  0  0  0  0  0  0  0  0  0  0  # atno 10764 bound_to 10752
  154.4563  135.2854  155.1722 H   0  0  0  0  0  0  0  0  0  0  0  0  # atno 10765 bound_to 10752
  141.1266  133.8409  157.1119 H   0  0  0  0  0  0  0  0  0  0  0  0  # atno 11005 bound_to 11000
  145.8866  140.9330  143.0574 LP  0  0  0  0  0  0  0  0  0  0  0  0  # atno 17320 bound_to 7965
  144.6732  140.0850  143.7467 LP  0  0  0  0  0  0  0  0  0  0  0  0  # atno 17321 bound_to 7965
  140.7771  143.5047  150.9727 LP  0  0  0  0  0  0  0  0  0  0  0  0  # atno 17342 bound_to 10162
  139.8735  143.7163  152.3164 LP  0  0  0  0  0  0  0  0  0  0  0  0  # atno 17343 bound_to 10162
  157.7323  130.9713  150.1923 LP  0  0  0  0  0  0  0  0  0  0  0  0  # atno 17370 bound_to 10713
  156.2620  130.3712  149.8121 LP  0  0  0  0  0  0  0  0  0  0  0  0  # atno 17371 bound_to 10713
  140.0270  134.9919  157.0705 LP  0  0  0  0  0  0  0  0  0  0  0  0  # atno 17394 bound_to 11000
  140.4347  134.1744  155.7170 LP  0  0  0  0  0  0  0  0  0  0  0  0  # atno 17395 bound_to 11000

$$$$
