AV-unprocessed.smi:2034|AV-procd|sdf|8264|dock3
  -GOLD-   2272010533D 1   1.00000     0.00000
 Structure written by MMmdl.
 50 52  0  0  0  0  0  0  0  0  1 V2000
  153.5758  141.4513  161.1048 C   0  0  0  0  0  0  0  0  0  0  0  0
  153.2318  141.7630  159.6446 C   0  0  1  0  0  0  0  0  0  0  0  0
  152.3549  140.6666  159.0112 C   0  0  0  0  0  0  0  0  0  0  0  0
  151.9536  141.0523  157.6609 N   0  0  0  0  0  0  0  0  0  0  0  0
  151.4036  140.0246  156.8637 C   0  0  0  0  0  0  0  0  0  0  0  0
  150.8818  140.3185  155.5818 C   0  0  0  0  0  0  0  0  0  0  0  0
  150.3386  139.2798  154.8018 C   0  0  0  0  0  0  0  0  0  0  0  0
  150.3196  137.9664  155.3262 C   0  0  0  0  0  0  0  0  0  0  0  0
  149.8144  136.8279  154.6399 N   0  0  0  0  0  0  0  0  0  0  0  0
  149.6216  135.5798  155.1003 C   0  0  0  0  0  0  0  0  0  0  0  0
  149.8834  135.1880  156.2371 O   0  0  0  0  0  0  0  0  0  0  0  0
  149.1100  134.7874  154.1484 N   0  0  0  0  0  0  0  0  0  0  0  0
  148.7710  133.3802  154.3264 C   0  0  0  0  0  0  0  0  0  0  0  0
  148.2525  132.7557  153.0208 C   0  0  2  0  0  0  0  0  0  0  0  0
  147.1887  133.5967  152.3183 C   0  0  0  0  0  0  0  0  0  0  0  0
  146.4560  132.5482  151.5135 C   0  0  0  0  0  0  0  0  0  0  0  0
  146.4487  131.3656  152.4776 C   0  0  0  0  0  0  0  0  0  0  0  0
  147.6192  131.5044  153.2795 O   0  0  0  0  0  0  0  0  0  0  0  0
  150.8671  137.7709  156.6096 C   0  0  0  0  0  0  0  0  0  0  0  0
  151.3875  138.7637  157.3608 N   0  0  0  0  0  0  0  0  0  0  0  0
  151.3382  142.3765  157.5990 C   0  0  0  0  0  0  0  0  0  0  0  0
  152.2439  143.4236  158.2741 C   0  0  1  0  0  0  0  0  0  0  0  0
  151.5811  144.8035  158.3388 C   0  0  0  0  0  0  0  0  0  0  0  0
  152.5331  143.0041  159.6049 O   0  0  0  0  0  0  0  0  0  0  0  0
  154.1216  140.5113  161.1873 H   0  0  0  0  0  0  0  0  0  0  0  0
  152.6749  141.3700  161.7136 H   0  0  0  0  0  0  0  0  0  0  0  0
  154.1985  142.2364  161.5342 H   0  0  0  0  0  0  0  0  0  0  0  0
  154.1628  141.8581  159.0828 H   0  0  0  0  0  0  0  0  0  0  0  0
  152.9051  139.7270  159.0169 H   0  0  0  0  0  0  0  0  0  0  0  0
  151.4568  140.5104  159.6105 H   0  0  0  0  0  0  0  0  0  0  0  0
  150.8805  141.3247  155.1908 H   0  0  0  0  0  0  0  0  0  0  0  0
  149.9603  139.5164  153.8202 H   0  0  0  0  0  0  0  0  0  0  0  0
  149.6073  136.9728  153.6625 H   0  0  0  0  0  0  0  0  0  0  0  0
  148.9253  135.1881  153.2405 H   0  0  0  0  0  0  0  0  0  0  0  0
  149.6614  132.8511  154.6672 H   0  0  0  0  0  0  0  0  0  0  0  0
  148.0265  133.2752  155.1175 H   0  0  0  0  0  0  0  0  0  0  0  0
  149.0752  132.5787  152.3257 H   0  0  0  0  0  0  0  0  0  0  0  0
  146.5119  134.0502  153.0440 H   0  0  0  0  0  0  0  0  0  0  0  0
  147.6134  134.3903  151.7026 H   0  0  0  0  0  0  0  0  0  0  0  0
  145.4557  132.8585  151.2106 H   0  0  0  0  0  0  0  0  0  0  0  0
  147.0248  132.2996  150.6167 H   0  0  0  0  0  0  0  0  0  0  0  0
  145.5767  131.4115  153.1305 H   0  0  0  0  0  0  0  0  0  0  0  0
  146.4328  130.4071  151.9586 H   0  0  0  0  0  0  0  0  0  0  0  0
  150.8868  136.7861  157.0531 H   0  0  0  0  0  0  0  0  0  0  0  0
  151.1673  142.6636  156.5606 H   0  0  0  0  0  0  0  0  0  0  0  0
  150.3660  142.3435  158.0932 H   0  0  0  0  0  0  0  0  0  0  0  0
  153.1783  143.5142  157.7170 H   0  0  0  0  0  0  0  0  0  0  0  0
  151.3485  145.1744  157.3404 H   0  0  0  0  0  0  0  0  0  0  0  0
  152.2388  145.5286  158.8185 H   0  0  0  0  0  0  0  0  0  0  0  0
  150.6521  144.7686  158.9084 H   0  0  0  0  0  0  0  0  0  0  0  0
  1  2  1  0  0  0  0
  1 25  1  0  0  0  0
  1 26  1  0  0  0  0
  1 27  1  0  0  0  0
  2 24  1  0  0  0  0
  2  3  1  0  0  0  0
  2 28  1  0  0  0  0
  3  4  1  0  0  0  0
  3 29  1  0  0  0  0
  3 30  1  0  0  0  0
  4  5  1  0  0  0  0
  4 21  1  0  0  0  0
  5 20  1  0  0  0  0
  5  6  2  0  0  0  0
  6  7  1  0  0  0  0
  6 31  1  0  0  0  0
  7  8  2  0  0  0  0
  7 32  1  0  0  0  0
  8  9  1  0  0  0  0
  8 19  1  0  0  0  0
  9 10  1  0  0  0  0
  9 33  1  0  0  0  0
 10 11  2  0  0  0  0
 10 12  1  0  0  0  0
 12 13  1  0  0  0  0
 12 34  1  0  0  0  0
 13 14  1  0  0  0  0
 13 35  1  0  0  0  0
 13 36  1  0  0  0  0
 14 18  1  0  0  0  0
 14 15  1  0  0  0  0
 14 37  1  0  0  0  0
 15 16  1  0  0  0  0
 15 38  1  0  0  0  0
 15 39  1  0  0  0  0
 16 17  1  0  0  0  0
 16 40  1  0  0  0  0
 16 41  1  0  0  0  0
 17 18  1  0  0  0  0
 17 42  1  0  0  0  0
 17 43  1  0  0  0  0
 19 20  2  0  0  0  0
 19 44  1  0  0  0  0
 21 22  1  0  0  0  0
 21 45  1  0  0  0  0
 21 46  1  0  0  0  0
 22 23  1  0  0  0  0
 22 24  1  0  0  0  0
 22 47  1  0  0  0  0
 23 48  1  0  0  0  0
 23 49  1  0  0  0  0
 23 50  1  0  0  0  0
M  END
> <s_m_source_file>
AV-unprocessed.smi

> <i_m_source_file_index>
2034

> <i_lp_mmshare_version>
43012

> <i_f3d_flags>
0

> <s_epik_input>
W0NIM11bQ0BASF0xW0NIMl1OKFtDSDJdW0NASF0oTzEpW0NIM10pYzJbY0hdW2NIXWMoW2NIXW4yKVtOSF1DKD1PKVtOSF1bQ0gyXVtDQEBIXTNbQ0gyXVtDSDJdW0NIMl1PMw==

> <s_epik_cmdline>
J2VwaWtfcHl0aG9uJywgJy1waCcsICc3LjAnLCAnLXRuJywgJzgnLCAnLW1hJywgJzIwMCcsICctbWV0YWxfYmluZGluZycsICctaW1hZScsICc8aW5maWxlLm1hZT4nLCAnLW9tYWUnLCAnPG91dGZpbGUubWFlPic=

> <r_lp_tautomer_probability>
1

> <r_epik_Ionization_Penalty>
0.00268225

> <r_epik_Ionization_Penalty_Charging>
0

> <r_epik_Ionization_Penalty_Neutral>
0.00268225

> <r_epik_State_Penalty>
0.00184408

> <r_epik_Charging_Adjusted_Penalty>
0.00184408

> <i_epik_Tot_Q>
0

> <i_epik_Tot_abs_Q>
0

> <r_epik_Metal_State_Penalty>
-0

> <b_epik_Metal_Only>
0

> <s_lp_Force_Field>
OPLS_2005

> <r_lp_Energy>
33.1724

> <b_lp_Chiralities_Consistent>
1

> <s_lp_Variant>
AV-unprocessed.smi:2034-2

> <Gold.Version>
5.8.1

> <Gold.Id.Protein>
6NUR|6NUR_protein|mol2

> <Gold.PLP.Fitness>
49.3953

> <Gold.PLP.PLP>
-44.0200

> <Gold.PLP.part.hbond>
-2.0000

> <Gold.PLP.part.metal>
0.0000

> <Gold.PLP.part.buried>
-5.3150

> <Gold.PLP.part.nonpolar>
-36.7861

> <Gold.PLP.part.repulsive>
0.1576

> <Gold.PLP.ligand.clash>
0.0000

> <Gold.PLP.ligand.torsion>
0.4766

> <Gold.PLP.Chemscore.Hbond>
1.9920

> <Gold.PLP.Chemscore.CHOScore>
0.0000

> <Gold.PLP.Chemscore.Metal>
0.0000

> <Gold.Chemscore.Hbonds>
donor molecule, donor type, donor heavy atom, donor atom, acceptor molecule, acceptor atom, score
      L1  H     9    33       P1  7948  0.99
      L1  H    12    34       P1  7948  1.00

> <Gold.PLP.Chemscore.Internal.Correction>
0.3525

> <Gold.Rescore>
     Score         DG    S(hbond)    S(metal)    S(lipo)     H(rot)  DE(clash)    DE(int)     intcor
     18.95     -20.91       1.74        0.00     112.16       1.37       0.02       1.94       ----

> <Gold.Chemscore.Fitness>
18.9523

> <Gold.Chemscore.DG>
-20.9060

> <Gold.Chemscore.ZeroCoef>
-5.4800

> <Gold.Chemscore.Hbond>
1.7366

> <Gold.Chemscore.Metal>
0.0000

> <Gold.Chemscore.Lipo>
112.1648

> <Gold.Chemscore.Internal_Hbond>
0.0000

> <Gold.Chemscore.DEClash>
0.0186

> <Gold.Chemscore.DEInternal>
1.9350

> <Gold.Chemscore.Rot>
1.3663

> <Gold.Chemscore.Internal.Correction>
   9.000000E+99

> <Gold.Chemscore.Hbonds>
donor molecule, donor type, donor heavy atom, donor atom, acceptor molecule, acceptor atom, score
      L1  H     9    33       P1  7948  0.69
      L1  H    12    34       P1  7948  0.45

> <Gold.Chemscore.Hbond.Weighted>
-5.8004

> <Gold.Chemscore.Metal.Weighted>
-0.0000

> <Gold.Chemscore.Lipo.Weighted>
-13.1233

> <Gold.Chemscore.Internal_Hbond.Weighted>
0.0000

> <Gold.Chemscore.DEClash.Weighted>
0.0186

> <Gold.Chemscore.DEInternal.Weighted>
1.9350

> <Gold.Chemscore.Rot.Weighted>
3.4977

> <Gold.Chemscore.Internal.Correction.Weighted>
   9.000000E+99

> <Gold.Protein.RotatedTorsions>
[ 6907 6896 6895 6894 ] final    1.15 input  -60.11 | X-H torsion
[ 7974 7965 7964 7962 ] final  106.60 input  175.53 | X-H torsion
[ 8008 7997 7996 7995 ] final   -4.14 input   59.86 | X-H torsion
[ 10167 10162 10161 10158 ] final  107.47 input  -65.29 | X-H torsion
[ 10718 10713 10712 10709 ] final -107.25 input   66.30 | X-H torsion
[ 10763 10752 10751 10750 ] final   22.60 input  -60.55 | X-H torsion
[ 11005 11000 10999 10996 ] final -179.07 input  -57.11 | X-H torsion

> <Gold.Protein.ActiveResidues>
 VAL166  LYS551  ARG553  GLY616  TRP617  ASP618  TYR619  PRO620  LYS621  CYS622 
 ASP623  PHE694  ASN695  SER759  ASP760  ASP761  ALA762  ILE779  LEU786  VAL792 
 PHE793  MET794  SER795  GLU796  ALA797  LYS798  CYS799  TRP800  GLU811  SER814 

> <Gold.Protein.RotatedAtoms>
  151.5880  135.1055  160.0032 H   0  0  0  0  0  0  0  0  0  0  0  0  # atno 6907 bound_to 6896
  152.4321  133.7291  159.6588 H   0  0  0  0  0  0  0  0  0  0  0  0  # atno 6908 bound_to 6896
  150.8214  133.8176  159.3160 H   0  0  0  0  0  0  0  0  0  0  0  0  # atno 6909 bound_to 6896
  145.3045  139.2559  143.3796 H   0  0  0  0  0  0  0  0  0  0  0  0  # atno 7974 bound_to 7965
  154.6175  140.2491  155.7591 H   0  0  0  0  0  0  0  0  0  0  0  0  # atno 8008 bound_to 7997
  156.2407  140.2933  156.0386 H   0  0  0  0  0  0  0  0  0  0  0  0  # atno 8009 bound_to 7997
  155.1951  140.0392  157.2898 H   0  0  0  0  0  0  0  0  0  0  0  0  # atno 8010 bound_to 7997
  139.6925  144.7106  151.1324 H   0  0  0  0  0  0  0  0  0  0  0  0  # atno 10167 bound_to 10162
  156.0428  130.5653  150.7795 H   0  0  0  0  0  0  0  0  0  0  0  0  # atno 10718 bound_to 10713
  153.0902  135.6644  153.9868 H   0  0  0  0  0  0  0  0  0  0  0  0  # atno 10763 bound_to 10752
  153.9467  135.2988  155.3442 H   0  0  0  0  0  0  0  0  0  0  0  0  # atno 10764 bound_to 10752
  154.7316  135.5120  153.9046 H   0  0  0  0  0  0  0  0  0  0  0  0  # atno 10765 bound_to 10752
  140.4227  134.6591  157.4672 H   0  0  0  0  0  0  0  0  0  0  0  0  # atno 11005 bound_to 11000
  146.3140  140.3566  142.8661 LP  0  0  0  0  0  0  0  0  0  0  0  0  # atno 17320 bound_to 7965
  144.9066  140.7707  143.5833 LP  0  0  0  0  0  0  0  0  0  0  0  0  # atno 17321 bound_to 7965
  140.7687  143.5539  150.9174 LP  0  0  0  0  0  0  0  0  0  0  0  0  # atno 17342 bound_to 10162
  139.9217  143.6598  152.3095 LP  0  0  0  0  0  0  0  0  0  0  0  0  # atno 17343 bound_to 10162
  157.5267  131.0934  151.0009 LP  0  0  0  0  0  0  0  0  0  0  0  0  # atno 17370 bound_to 10713
  157.0326  130.5717  149.5345 LP  0  0  0  0  0  0  0  0  0  0  0  0  # atno 17371 bound_to 10713
  140.0189  134.6578  155.9269 LP  0  0  0  0  0  0  0  0  0  0  0  0  # atno 17394 bound_to 11000
  141.1777  133.6542  156.4895 LP  0  0  0  0  0  0  0  0  0  0  0  0  # atno 17395 bound_to 11000

$$$$
