#       Name:                AV-unprocessed.smi:2695
#       Creating user name   scv26
#       Creation time:       Fri Mar 27 14:44:31 2020


#       File generated by GOLD software.
#

@<TRIPOS>MOLECULE
AV-unprocessed.smi:2695
    48    49     1
SMALL
NO_CHARGES


@<TRIPOS>ATOM
      1 ****        -2.3623   1.5654  -1.6686 C.3            1 S1                 0.0000
      2 ****        -2.6275   2.3149  -0.3682 C.2            1 S1                 0.0000
      3 ****        -3.1051   3.5728  -0.3765 C.2            1 S1                 0.0000
      4 ****        -3.3099   4.2701   0.8692 C.2            1 S1                 0.0000
      5 ****        -3.7938   5.5183   0.8664 O.3            1 S1                 0.0000
      6 ****        -3.0022   3.6631   2.0302 C.2            1 S1                 0.0000
      7 ****        -2.4713   2.2985   2.0733 C.2            1 S1                 0.0000
      8 ****        -2.1781   1.7596   3.1416 O.2            1 S1                 0.0000
      9 ****        -2.3280   1.6642   0.8649 N.am           1 S1                 0.0000
     10 ****        -1.8456   0.2635   0.8601 C.3            1 S1                 0.0000
     11 ****        -0.3145   0.1399   0.8371 C.2            1 S1                 0.0000
     12 ****         0.3999   1.1334   0.6960 O.2            1 S1                 0.0000
     13 ****         0.1695  -1.1056   0.9590 N.am           1 S1                 0.0000
     14 ****         1.5840  -1.4849   0.9569 C.3            1 S1                 0.0000
     15 ****         1.9333  -2.1841  -0.3833 C.3            1 S1                 0.0000
     16 ****         3.4177  -2.5259  -0.5701 C.3            1 S1                 0.0000
     17 ****         3.6355  -2.6622  -2.0830 C.3            1 S1                 0.0000
     18 ****         2.4188  -2.0152  -2.7573 C.3            1 S1                 0.0000
     19 ****         1.6220  -1.3507  -1.6336 C.3            1 S1                 0.0000
     20 ****         1.8660  -2.3494   2.2070 C.3            1 S1                 0.0000
     21 ****         1.4815  -1.6957   3.3041 F              1 S1                 0.0000
     22 ****         1.1988  -3.5023   2.1416 F              1 S1                 0.0000
     23 ****         3.1674  -2.6092   2.3260 F              1 S1                 0.0000
     24 ****        -2.3852   2.2499  -2.5170 H              1 S1                 0.0000
     25 ****        -3.1268   0.8067  -1.8372 H              1 S1                 0.0000
     26 ****        -1.3813   1.0907  -1.6752 H              1 S1                 0.0000
     27 ****        -3.3218   4.0691  -1.3115 H              1 S1                 0.0000
     28 ****        -3.8420   5.8073   1.7648 H              1 S1                 0.0000
     29 ****        -3.1516   4.1897   2.9619 H              1 S1                 0.0000
     30 ****        -2.2166  -0.2736   1.7353 H              1 S1                 0.0000
     31 ****        -2.2596  -0.3039   0.0278 H              1 S1                 0.0000
     32 ****        -0.4949  -1.8578   1.0704 H              1 S1                 0.0000
     33 ****         2.2001  -0.5878   1.0410 H              1 S1                 0.0000
     34 ****         1.3638  -3.1120  -0.4559 H              1 S1                 0.0000
     35 ****         4.0367  -1.7120  -0.1901 H              1 S1                 0.0000
     36 ****         3.7047  -3.4336  -0.0385 H              1 S1                 0.0000
     37 ****         4.5641  -2.1764  -2.3839 H              1 S1                 0.0000
     38 ****         3.7098  -3.7116  -2.3707 H              1 S1                 0.0000
     39 ****         2.7039  -1.3019  -3.5313 H              1 S1                 0.0000
     40 ****         1.8114  -2.7874  -3.2314 H              1 S1                 0.0000
     41 ****         0.5557  -1.3069  -1.8584 H              1 S1                 0.0000
     42 ****         1.9727  -0.3268  -1.4942 H              1 S1                 0.0000
     43 ****        -4.7051   5.5300   0.4549 LP             1 S1                 0.0000
     44 ****        -3.1858   6.1188   0.3470 LP             1 S1                 0.0000
     45 ****        -2.3011   2.2547   4.0017 LP             1 S1                 0.0000
     46 ****        -1.8171   0.8271   3.1487 LP             1 S1                 0.0000
     47 ****        -0.0153   2.0374   0.5943 LP             1 S1                 0.0000
     48 ****         1.3951   1.0359   0.6832 LP             1 S1                 0.0000
@<TRIPOS>BOND
    1    1    2 1     
    2    1   24 1     
    3    1   25 1     
    4    1   26 1     
    5    2    9 1     
    6    2    3 2     
    7    3    4 1     
    8    3   27 1     
    9    4    5 1     
   10    4    6 2     
   11    5   28 1     
   12    6    7 1     
   13    6   29 1     
   14    7    8 2     
   15    7    9 am    
   16    9   10 1     
   17   10   11 1     
   18   10   30 1     
   19   10   31 1     
   20   11   12 2     
   21   11   13 am    
   22   13   14 1     
   23   13   32 1     
   24   14   15 1     
   25   14   20 1     
   26   14   33 1     
   27   15   19 1     
   28   15   16 1     
   29   15   34 1     
   30   16   17 1     
   31   16   35 1     
   32   16   36 1     
   33   17   18 1     
   34   17   37 1     
   35   17   38 1     
   36   18   19 1     
   37   18   39 1     
   38   18   40 1     
   39   19   41 1     
   40   19   42 1     
   41   20   21 1     
   42   20   22 1     
   43   20   23 1     
   44    5   43 1     
   45    5   44 1     
   46    8   45 1     
   47    8   46 1     
   48   12   47 1     
   49   12   48 1     
@<TRIPOS>SUBSTRUCTURE
      1 S1             1
@<TRIPOS>SET
LONE_PAIRS      STATIC     ATOMS    <user>   **** ""
6 43 44 45 46 47 48
DONOR_HYDROGENS      STATIC     ATOMS    <user>   **** ""
2 28 32
ATOM$BLUE        STATIC     ATOMS    COLORGROUP SYSTEM
6 43 44 45 46 47 48
ATOM$RED        STATIC     ATOMS    COLORGROUP SYSTEM
2 28 32
