AV-unprocessed.smi:2976|AV-procd|sdf|11359|dock3
  -GOLD-   2272016273D 1   1.00000     0.00000
 Structure written by MMmdl.
 40 41  0  0  0  0  0  0  0  0  1 V2000
  150.2714  141.8384  157.7369 C   0  0  0  0  0  0  0  0  0  0  0  0
  150.6847  140.4925  157.1156 C   0  0  2  0  0  0  0  0  0  0  0  0
  152.0278  140.0301  157.7183 C   0  0  0  0  0  0  0  0  0  0  0  0
  152.4870  138.6820  157.1464 C   0  0  0  0  0  0  0  0  0  0  0  0
  152.5703  138.7319  155.6133 C   0  0  0  0  0  0  0  0  0  0  0  0
  151.2392  139.1781  154.9805 C   0  0  1  0  0  0  0  0  0  0  0  0
  150.2341  138.1287  155.1613 N   0  0  0  0  0  0  0  0  0  0  0  0
  150.4156  136.8123  154.9742 C   0  0  0  0  0  0  0  0  0  0  0  0
  151.4933  136.3116  154.6517 O   0  0  0  0  0  0  0  0  0  0  0  0
  149.1848  135.9235  155.1920 C   0  0  0  0  0  0  0  0  0  0  0  0
  149.5004  134.4940  155.0626 N   0  0  0  0  0  0  0  0  0  0  0  0
  149.0799  133.9256  153.8732 N   0  0  0  0  0  0  0  0  0  0  0  0
  149.2911  132.6724  153.6601 C   0  0  0  0  0  0  0  0  0  0  0  0
  149.9618  131.8287  154.6245 C   0  0  0  0  0  0  0  0  0  0  0  0
  150.2167  130.1538  154.2826 Cl  0  0  0  0  0  0  0  0  0  0  0  0
  150.3754  132.3975  155.7847 C   0  0  0  0  0  0  0  0  0  0  0  0
  151.1863  131.4535  156.9870 Cl  0  0  0  0  0  0  0  0  0  0  0  0
  150.1528  133.8233  156.0620 C   0  0  0  0  0  0  0  0  0  0  0  0
  150.5169  134.3775  157.1003 O   0  0  0  0  0  0  0  0  0  0  0  0
  150.7694  140.5394  155.5642 C   0  0  1  0  0  0  0  0  0  0  0  0
  149.4659  141.0310  154.9022 C   0  0  0  0  0  0  0  0  0  0  0  0
  150.9454  142.6397  157.4332 H   0  0  0  0  0  0  0  0  0  0  0  0
  150.2869  141.7873  158.8260 H   0  0  0  0  0  0  0  0  0  0  0  0
  149.2593  142.1220  157.4492 H   0  0  0  0  0  0  0  0  0  0  0  0
  149.9246  139.7615  157.3958 H   0  0  0  0  0  0  0  0  0  0  0  0
  152.7944  140.7825  157.5271 H   0  0  0  0  0  0  0  0  0  0  0  0
  151.9419  139.9497  158.8026 H   0  0  0  0  0  0  0  0  0  0  0  0
  153.4595  138.4161  157.5617 H   0  0  0  0  0  0  0  0  0  0  0  0
  151.7963  137.8975  157.4578 H   0  0  0  0  0  0  0  0  0  0  0  0
  153.3580  139.4276  155.3212 H   0  0  0  0  0  0  0  0  0  0  0  0
  152.8671  137.7575  155.2227 H   0  0  0  0  0  0  0  0  0  0  0  0
  151.4237  139.3107  153.9129 H   0  0  0  0  0  0  0  0  0  0  0  0
  149.3105  138.4378  155.4271 H   0  0  0  0  0  0  0  0  0  0  0  0
  148.7855  136.1383  156.1848 H   0  0  0  0  0  0  0  0  0  0  0  0
  148.3910  136.1944  154.4928 H   0  0  0  0  0  0  0  0  0  0  0  0
  148.9752  132.1804  152.7401 H   0  0  0  0  0  0  0  0  0  0  0  0
  151.5376  141.2699  155.3050 H   0  0  0  0  0  0  0  0  0  0  0  0
  148.6044  140.4449  155.2222 H   0  0  0  0  0  0  0  0  0  0  0  0
  149.5295  140.9631  153.8159 H   0  0  0  0  0  0  0  0  0  0  0  0
  149.2630  142.0747  155.1404 H   0  0  0  0  0  0  0  0  0  0  0  0
  1  2  1  0  0  0  0
  1 22  1  0  0  0  0
  1 23  1  0  0  0  0
  1 24  1  0  0  0  0
  2 20  1  0  0  0  0
  2  3  1  0  0  0  0
  2 25  1  0  0  0  0
  3  4  1  0  0  0  0
  3 26  1  0  0  0  0
  3 27  1  0  0  0  0
  4  5  1  0  0  0  0
  4 28  1  0  0  0  0
  4 29  1  0  0  0  0
  5  6  1  0  0  0  0
  5 30  1  0  0  0  0
  5 31  1  0  0  0  0
  6  7  1  0  0  0  0
  6 20  1  0  0  0  0
  6 32  1  0  0  0  0
  7  8  1  0  0  0  0
  7 33  1  0  0  0  0
  8  9  2  0  0  0  0
  8 10  1  0  0  0  0
 10 11  1  0  0  0  0
 10 34  1  0  0  0  0
 10 35  1  0  0  0  0
 11 18  1  0  0  0  0
 11 12  1  0  0  0  0
 12 13  2  0  0  0  0
 13 14  1  0  0  0  0
 13 36  1  0  0  0  0
 14 15  1  0  0  0  0
 14 16  2  0  0  0  0
 16 17  1  0  0  0  0
 16 18  1  0  0  0  0
 18 19  2  0  0  0  0
 20 21  1  0  0  0  0
 20 37  1  0  0  0  0
 21 38  1  0  0  0  0
 21 39  1  0  0  0  0
 21 40  1  0  0  0  0
M  END
> <s_m_source_file>
AV-unprocessed.smi

> <i_m_source_file_index>
2976

> <i_lp_mmshare_version>
43012

> <i_f3d_flags>
0

> <s_epik_input>
W0NIM11bQ0BASF0xW0NIMl1bQ0gyXVtDSDJdW0NASF0oW0NASF0xW0NIM10pW05IXUMoPU8pW0NIMl1uMm5bY0hdYyhDbCljKENsKWMyPU8=

> <s_epik_cmdline>
J2VwaWtfcHl0aG9uJywgJy1waCcsICc3LjAnLCAnLXRuJywgJzgnLCAnLW1hJywgJzIwMCcsICctbWV0YWxfYmluZGluZycsICctaW1hZScsICc8aW5maWxlLm1hZT4nLCAnLW9tYWUnLCAnPG91dGZpbGUubWFlPic=

> <r_lp_tautomer_probability>
1

> <r_epik_Ionization_Penalty>
1.90777e-08

> <r_epik_Ionization_Penalty_Charging>
3.07942e-11

> <r_epik_Ionization_Penalty_Neutral>
1.90469e-08

> <r_epik_State_Penalty>
-0

> <r_epik_Charging_Adjusted_Penalty>
3.07942e-11

> <i_epik_Tot_Q>
0

> <i_epik_Tot_abs_Q>
0

> <r_epik_Metal_State_Penalty>
-0

> <b_epik_Metal_Only>
0

> <s_lp_Force_Field>
OPLS_2005

> <r_lp_Energy>
25.2962

> <b_lp_Chiralities_Consistent>
1

> <s_lp_Variant>
AV-unprocessed.smi:2976-1

> <Gold.Version>
5.8.1

> <Gold.Id.Protein>
6NUR|6NUR_protein|mol2

> <Gold.PLP.Fitness>
40.5941

> <Gold.PLP.PLP>
-36.5665

> <Gold.PLP.part.hbond>
-2.0000

> <Gold.PLP.part.metal>
0.0000

> <Gold.PLP.part.buried>
-4.6152

> <Gold.PLP.part.nonpolar>
-31.0366

> <Gold.PLP.part.repulsive>
0.6714

> <Gold.PLP.ligand.clash>
0.0000

> <Gold.PLP.ligand.torsion>
0.3858

> <Gold.PLP.Chemscore.Hbond>
1.3458

> <Gold.PLP.Chemscore.CHOScore>
0.2509

> <Gold.PLP.Chemscore.Metal>
0.0000

> <Gold.Chemscore.Hbonds>
donor molecule, donor type, donor heavy atom, donor atom, acceptor molecule, acceptor atom, score
      P1  H  6896  6908       L1    19  0.25
      P1  H 10752 10765       L1     9  1.00
      L1  C    13    36       P1 10747  0.40

> <Gold.PLP.Chemscore.Internal.Correction>
0.0090

> <Gold.Rescore>
     Score         DG    S(hbond)    S(metal)    S(lipo)     H(rot)  DE(clash)    DE(int)     intcor
     14.60     -16.61       1.67        0.00      80.01       1.49       0.00       2.01       ----

> <Gold.Chemscore.Fitness>
14.6012

> <Gold.Chemscore.DG>
-16.6099

> <Gold.Chemscore.ZeroCoef>
-5.4800

> <Gold.Chemscore.Hbond>
1.6690

> <Gold.Chemscore.Metal>
0.0000

> <Gold.Chemscore.Lipo>
80.0096

> <Gold.Chemscore.Internal_Hbond>
0.0000

> <Gold.Chemscore.DEClash>
0.0021

> <Gold.Chemscore.DEInternal>
2.0066

> <Gold.Chemscore.Rot>
1.4866

> <Gold.Chemscore.Internal.Correction>
   9.000000E+99

> <Gold.Chemscore.Hbonds>
donor molecule, donor type, donor heavy atom, donor atom, acceptor molecule, acceptor atom, score
      P1  H  6896  6908       L1    19  0.25
      P1  H 10752 10765       L1     9  0.99

> <Gold.Chemscore.Hbond.Weighted>
-5.5745

> <Gold.Chemscore.Metal.Weighted>
-0.0000

> <Gold.Chemscore.Lipo.Weighted>
-9.3611

> <Gold.Chemscore.Internal_Hbond.Weighted>
0.0000

> <Gold.Chemscore.DEClash.Weighted>
0.0021

> <Gold.Chemscore.DEInternal.Weighted>
2.0066

> <Gold.Chemscore.Rot.Weighted>
3.8057

> <Gold.Chemscore.Internal.Correction.Weighted>
   9.000000E+99

> <Gold.Protein.RotatedTorsions>
[ 6907 6896 6895 6894 ] final  111.86 input  -60.11 | X-H torsion
[ 7974 7965 7964 7962 ] final   40.63 input  175.53 | X-H torsion
[ 8008 7997 7996 7995 ] final  -90.42 input   59.86 | X-H torsion
[ 10167 10162 10161 10158 ] final  143.18 input  -65.29 | X-H torsion
[ 10718 10713 10712 10709 ] final  170.73 input   66.30 | X-H torsion
[ 10763 10752 10751 10750 ] final  160.41 input  -60.55 | X-H torsion
[ 11005 11000 10999 10996 ] final   54.42 input  -57.11 | X-H torsion

> <Gold.Protein.ActiveResidues>
 VAL166  LYS551  ARG553  GLY616  TRP617  ASP618  TYR619  PRO620  LYS621  CYS622 
 ASP623  PHE694  ASN695  SER759  ASP760  ASP761  ALA762  ILE779  LEU786  VAL792 
 PHE793  MET794  SER795  GLU796  ALA797  LYS798  CYS799  TRP800  GLU811  SER814 

> <Gold.Protein.RotatedAtoms>
  152.4947  133.8598  159.7244 H   0  0  0  0  0  0  0  0  0  0  0  0  # atno 6907 bound_to 6896
  150.9113  133.6985  159.2861 H   0  0  0  0  0  0  0  0  0  0  0  0  # atno 6908 bound_to 6896
  151.4394  135.1023  159.9718 H   0  0  0  0  0  0  0  0  0  0  0  0  # atno 6909 bound_to 6896
  146.0889  139.5511  142.9488 H   0  0  0  0  0  0  0  0  0  0  0  0  # atno 7974 bound_to 7965
  154.6983  140.0530  157.0433 H   0  0  0  0  0  0  0  0  0  0  0  0  # atno 8008 bound_to 7997
  155.0720  140.3200  155.4608 H   0  0  0  0  0  0  0  0  0  0  0  0  # atno 8009 bound_to 7997
  156.2751  140.2080  156.5848 H   0  0  0  0  0  0  0  0  0  0  0  0  # atno 8010 bound_to 7997
  139.4976  144.6057  151.6383 H   0  0  0  0  0  0  0  0  0  0  0  0  # atno 10167 bound_to 10162
  157.0039  131.0184  151.2823 H   0  0  0  0  0  0  0  0  0  0  0  0  # atno 10718 bound_to 10713
  154.2469  135.2773  155.2832 H   0  0  0  0  0  0  0  0  0  0  0  0  # atno 10763 bound_to 10752
  154.5498  135.5678  153.6915 H   0  0  0  0  0  0  0  0  0  0  0  0  # atno 10764 bound_to 10752
  152.9988  135.6271  154.2615 H   0  0  0  0  0  0  0  0  0  0  0  0  # atno 10765 bound_to 10752
  140.0688  134.5499  155.9069 H   0  0  0  0  0  0  0  0  0  0  0  0  # atno 11005 bound_to 11000
  145.6076  141.0345  143.1984 LP  0  0  0  0  0  0  0  0  0  0  0  0  # atno 17320 bound_to 7965
  144.7346  139.7624  143.7334 LP  0  0  0  0  0  0  0  0  0  0  0  0  # atno 17321 bound_to 7965
  140.5718  144.0095  150.6221 LP  0  0  0  0  0  0  0  0  0  0  0  0  # atno 17342 bound_to 10162
  140.3215  143.3134  152.0779 LP  0  0  0  0  0  0  0  0  0  0  0  0  # atno 17343 bound_to 10162
  157.5370  130.8095  149.7983 LP  0  0  0  0  0  0  0  0  0  0  0  0  # atno 17370 bound_to 10713
  156.0161  130.3813  150.2108 LP  0  0  0  0  0  0  0  0  0  0  0  0  # atno 17371 bound_to 10713
  141.2003  133.6612  156.5892 LP  0  0  0  0  0  0  0  0  0  0  0  0  # atno 17394 bound_to 11000
  140.3658  134.7648  157.4565 LP  0  0  0  0  0  0  0  0  0  0  0  0  # atno 17395 bound_to 11000

$$$$
