#       Name:                AV-unprocessed.smi:2563
#       Creating user name   scv26
#       Creation time:       Fri Mar 27 14:09:53 2020


#       File generated by GOLD software.
#

@<TRIPOS>MOLECULE
AV-unprocessed.smi:2563
    39    40     1
SMALL
NO_CHARGES


@<TRIPOS>ATOM
      1 ****        -3.1930   1.6332   0.3380 C.3            1 S1                 0.0000
      2 ****        -2.3250   0.3869   0.5559 C.3            1 S1                 0.0000
      3 ****        -0.8988   0.7093   0.6050 N.pl3          1 S1                 0.0000
      4 ****        -0.1526   0.7756  -0.6504 C.3            1 S1                 0.0000
      5 ****         0.5675  -0.5448  -0.9764 C.3            1 S1                 0.0000
      6 ****         1.5703  -0.3704  -2.1344 C.3            1 S1                 0.0000
      7 ****         2.1916  -1.6508  -2.4701 N.3            1 S1                 0.0000
      8 ****         1.1843  -2.6646  -2.7759 C.3            1 S1                 0.0000
      9 ****         0.1776  -2.7812  -1.6186 C.3            1 S1                 0.0000
     10 ****        -0.4072  -1.5073  -1.3719 O.3            1 S1                 0.0000
     11 ****        -0.2756   1.0312   1.8354 C.ar           1 S1                 0.0000
     12 ****         1.1265   1.2068   1.9405 C.ar           1 S1                 0.0000
     13 ****         1.6638   1.5252   3.1992 C.ar           1 S1                 0.0000
     14 ****         0.7662   1.6482   4.2728 C.ar           1 S1                 0.0000
     15 ****        -0.5644   1.4719   4.1285 N.ar           1 S1                 0.0000
     16 ****        -1.0711   1.1682   2.9289 N.ar           1 S1                 0.0000
     17 ****        -4.2481   1.3639   0.2873 H              1 S1                 0.0000
     18 ****        -2.9348   2.1386  -0.5929 H              1 S1                 0.0000
     19 ****        -3.0727   2.3481   1.1525 H              1 S1                 0.0000
     20 ****        -2.6367  -0.1424   1.4567 H              1 S1                 0.0000
     21 ****        -2.4953  -0.3115  -0.2638 H              1 S1                 0.0000
     22 ****        -0.8364   1.0252  -1.4627 H              1 S1                 0.0000
     23 ****         0.5569   1.6021  -0.6127 H              1 S1                 0.0000
     24 ****         1.0978  -0.9002  -0.0908 H              1 S1                 0.0000
     25 ****         1.0587   0.0341  -3.0090 H              1 S1                 0.0000
     26 ****         2.3383   0.3529  -1.8587 H              1 S1                 0.0000
     27 ****         2.8079  -1.5321  -3.2677 H              1 S1                 0.0000
     28 ****         0.6579  -2.3990  -3.6934 H              1 S1                 0.0000
     29 ****         1.6628  -3.6274  -2.9561 H              1 S1                 0.0000
     30 ****        -0.6114  -3.4873  -1.8775 H              1 S1                 0.0000
     31 ****         0.6588  -3.1590  -0.7151 H              1 S1                 0.0000
     32 ****         1.7920   1.0976   1.0982 H              1 S1                 0.0000
     33 ****         2.7253   1.6677   3.3363 H              1 S1                 0.0000
     34 ****         1.1199   1.8903   5.2641 H              1 S1                 0.0000
     35 ****         2.7165  -1.9604  -1.6773 LP             1 S1                 0.0000
     36 ****        -0.8554  -1.1896  -2.2075 LP             1 S1                 0.0000
     37 ****        -1.0863  -1.5984  -0.6435 LP             1 S1                 0.0000
     38 ****        -1.1706   1.5684   4.9179 LP             1 S1                 0.0000
     39 ****        -2.0582   1.0389   2.8341 LP             1 S1                 0.0000
@<TRIPOS>BOND
    1    1    2 1     
    2    1   17 1     
    3    1   18 1     
    4    1   19 1     
    5    2    3 1     
    6    2   20 1     
    7    2   21 1     
    8    3    4 1     
    9    3   11 1     
   10    4    5 1     
   11    4   22 1     
   12    4   23 1     
   13    5   10 1     
   14    5    6 1     
   15    5   24 1     
   16    6    7 1     
   17    6   25 1     
   18    6   26 1     
   19    7    8 1     
   20    7   27 1     
   21    8    9 1     
   22    8   28 1     
   23    8   29 1     
   24    9   10 1     
   25    9   30 1     
   26    9   31 1     
   27   11   16 ar    
   28   11   12 ar    
   29   12   13 ar    
   30   12   32 1     
   31   13   14 ar    
   32   13   33 1     
   33   14   15 ar    
   34   14   34 1     
   35   15   16 ar    
   36    7   35 1     
   37   10   36 1     
   38   10   37 1     
   39   15   38 1     
   40   16   39 1     
@<TRIPOS>SUBSTRUCTURE
      1 S1             1
@<TRIPOS>SET
LONE_PAIRS      STATIC     ATOMS    <user>   **** ""
5 35 36 37 38 39
DONOR_HYDROGENS      STATIC     ATOMS    <user>   **** ""
1 27
ATOM$BLUE        STATIC     ATOMS    COLORGROUP SYSTEM
5 35 36 37 38 39
ATOM$RED        STATIC     ATOMS    COLORGROUP SYSTEM
1 27
