AV-unprocessed.smi:1940|AV-procd|sdf|7841|dock7
  -GOLD-   22720 9583D 1   1.00000     0.00000
 Structure written by MMmdl.
 50 52  0  0  0  0  0  0  0  0  2 V2000
  144.4557  137.0723  153.1220 C   0  0  0  0  0  0  0  0  0  0  0  0
  145.5448  135.9950  153.0046 C   0  0  2  0  0  0  0  0  0  0  0  0
  146.8505  136.6339  153.1536 N   0  0  0  0  0  0  0  0  0  0  0  0
  147.2594  137.3503  154.2106 C   0  0  0  0  0  0  0  0  0  0  0  0
  146.5601  137.5750  155.1981 O   0  0  0  0  0  0  0  0  0  0  0  0
  148.5286  137.7622  154.0509 N   0  0  0  0  0  0  0  0  0  0  0  0
  149.3095  138.5783  154.9126 C   0  0  0  0  0  0  0  0  0  0  0  0
  150.6283  138.8822  154.5119 C   0  0  0  0  0  0  0  0  0  0  0  0
  151.4328  139.7100  155.3208 C   0  0  0  0  0  0  0  0  0  0  0  0
  150.8992  140.2340  156.5203 C   0  0  0  0  0  0  0  0  0  0  0  0
  151.6189  141.0730  157.3810 N   0  0  0  0  0  0  0  0  0  0  0  0
  151.0396  142.4108  157.4735 C   0  0  0  0  0  0  0  0  0  0  0  0
  151.9529  143.3493  158.2809 C   0  0  0  0  0  0  0  0  0  0  0  0
  152.2725  142.7515  159.6604 C   0  0  0  0  0  0  0  0  0  0  0  0
  152.8561  141.3383  159.5032 C   0  0  0  0  0  0  0  0  0  0  0  0
  151.9199  140.4489  158.6677 C   0  0  0  0  0  0  0  0  0  0  0  0
  149.6312  139.9255  156.8683 N   0  3  0  0  0  0  0  0  0  0  0  0
  148.8283  139.1347  156.1231 C   0  0  0  0  0  0  0  0  0  0  0  0
  145.4906  135.2468  151.6578 C   0  0  2  0  0  0  0  0  0  0  0  0
  144.1821  134.5007  151.3930 C   0  0  0  0  0  0  0  0  0  0  0  0
  144.6242  133.4525  150.3987 C   0  0  0  0  0  0  0  0  0  0  0  0
  146.0001  133.0745  150.9377 C   0  0  0  0  0  0  0  0  0  0  0  0
  146.4934  134.2332  151.6053 O   0  0  0  0  0  0  0  0  0  0  0  0
  143.4576  136.6376  153.0701 H   0  0  0  0  0  0  0  0  0  0  0  0
  144.5395  137.8107  152.3240 H   0  0  0  0  0  0  0  0  0  0  0  0
  144.5291  137.6000  154.0737 H   0  0  0  0  0  0  0  0  0  0  0  0
  145.3847  135.2731  153.8075 H   0  0  0  0  0  0  0  0  0  0  0  0
  147.5012  136.5018  152.3934 H   0  0  0  0  0  0  0  0  0  0  0  0
  149.0036  137.4207  153.2282 H   0  0  0  0  0  0  0  0  0  0  0  0
  151.0263  138.4826  153.5905 H   0  0  0  0  0  0  0  0  0  0  0  0
  152.4443  139.9385  155.0187 H   0  0  0  0  0  0  0  0  0  0  0  0
  150.8858  142.8154  156.4724 H   0  0  0  0  0  0  0  0  0  0  0  0
  150.0591  142.3514  157.9482 H   0  0  0  0  0  0  0  0  0  0  0  0
  152.8809  143.5169  157.7322 H   0  0  0  0  0  0  0  0  0  0  0  0
  151.4794  144.3248  158.3948 H   0  0  0  0  0  0  0  0  0  0  0  0
  152.9731  143.3920  160.1969 H   0  0  0  0  0  0  0  0  0  0  0  0
  151.3638  142.7091  160.2622 H   0  0  0  0  0  0  0  0  0  0  0  0
  153.8321  141.3979  159.0196 H   0  0  0  0  0  0  0  0  0  0  0  0
  153.0221  140.8896  160.4830 H   0  0  0  0  0  0  0  0  0  0  0  0
  150.9941  140.2735  159.2175 H   0  0  0  0  0  0  0  0  0  0  0  0
  152.3838  139.4753  158.5036 H   0  0  0  0  0  0  0  0  0  0  0  0
  147.8341  138.9966  156.5201 H   0  0  0  0  0  0  0  0  0  0  0  0
  145.6782  135.9381  150.8343 H   0  0  0  0  0  0  0  0  0  0  0  0
  143.8191  134.0210  152.3032 H   0  0  0  0  0  0  0  0  0  0  0  0
  143.3930  135.1465  151.0069 H   0  0  0  0  0  0  0  0  0  0  0  0
  143.9428  132.6038  150.3339 H   0  0  0  0  0  0  0  0  0  0  0  0
  144.7168  133.8945  149.4057 H   0  0  0  0  0  0  0  0  0  0  0  0
  145.9160  132.2669  151.6658 H   0  0  0  0  0  0  0  0  0  0  0  0
  146.6790  132.7501  150.1491 H   0  0  0  0  0  0  0  0  0  0  0  0
  149.2576  140.3144  157.7346 H   0  0  0  0  0  0  0  0  0  0  0  0
  1  2  1  0  0  0  0
  1 24  1  0  0  0  0
  1 25  1  0  0  0  0
  1 26  1  0  0  0  0
  2  3  1  0  0  0  0
  2 19  1  0  0  0  0
  2 27  1  0  0  0  0
  3  4  1  0  0  0  0
  3 28  1  0  0  0  0
  4  5  2  0  0  0  0
  4  6  1  0  0  0  0
  6  7  1  0  0  0  0
  6 29  1  0  0  0  0
  7 18  1  0  0  0  0
  7  8  2  0  0  0  0
  8  9  1  0  0  0  0
  8 30  1  0  0  0  0
  9 10  2  0  0  0  0
  9 31  1  0  0  0  0
 10 11  1  0  0  0  0
 10 17  1  0  0  0  0
 11 16  1  0  0  0  0
 11 12  1  0  0  0  0
 12 13  1  0  0  0  0
 12 32  1  0  0  0  0
 12 33  1  0  0  0  0
 13 14  1  0  0  0  0
 13 34  1  0  0  0  0
 13 35  1  0  0  0  0
 14 15  1  0  0  0  0
 14 36  1  0  0  0  0
 14 37  1  0  0  0  0
 15 16  1  0  0  0  0
 15 38  1  0  0  0  0
 15 39  1  0  0  0  0
 16 40  1  0  0  0  0
 16 41  1  0  0  0  0
 17 18  2  0  0  0  0
 17 50  1  0  0  0  0
 18 42  1  0  0  0  0
 19 23  1  0  0  0  0
 19 20  1  0  0  0  0
 19 43  1  0  0  0  0
 20 21  1  0  0  0  0
 20 44  1  0  0  0  0
 20 45  1  0  0  0  0
 21 22  1  0  0  0  0
 21 46  1  0  0  0  0
 21 47  1  0  0  0  0
 22 23  1  0  0  0  0
 22 48  1  0  0  0  0
 22 49  1  0  0  0  0
M  CHG  1  17   1
M  END
> <s_m_source_file>
AV-unprocessed.smi

> <i_m_source_file_index>
1940

> <i_lp_mmshare_version>
43012

> <i_f3d_flags>
0

> <s_epik_input>
TzFbQ0gyXVtDSDJdW0NIMl1bQ0BIXTFbQ0BIXShbQ0gzXSlbTkhdQyg9TylbTkhdYzJbY0hdW2NIXWMobltjSF0yKU4zW0NIMl1bQ0gyXVtDSDJdW0NIMl1bQ0gyXTM=

> <s_epik_cmdline>
J2VwaWtfcHl0aG9uJywgJy1waCcsICc3LjAnLCAnLXRuJywgJzgnLCAnLW1hJywgJzIwMCcsICctbWV0YWxfYmluZGluZycsICctaW1hZScsICc8aW5maWxlLm1hZT4nLCAnLW9tYWUnLCAnPG91dGZpbGUubWFlPic=

> <r_lp_tautomer_probability>
0.999994

> <r_epik_Ionization_Penalty>
1.10603

> <r_epik_Ionization_Penalty_Charging>
1.10601

> <r_epik_Ionization_Penalty_Neutral>
1.929e-05

> <r_epik_State_Penalty>
1.16358

> <r_epik_Charging_Adjusted_Penalty>
2.26959

> <i_epik_Tot_Q>
1

> <i_epik_Tot_abs_Q>
1

> <r_epik_Metal_State_Penalty>
1.25013

> <b_epik_Metal_Only>
0

> <s_lp_Force_Field>
OPLS_2005

> <r_lp_Energy>
41.0283

> <b_lp_Chiralities_Consistent>
1

> <s_lp_Variant>
AV-unprocessed.smi:1940-5

> <Gold.Version>
5.8.1

> <Gold.Id.Protein>
6NUR|6NUR_protein|mol2

> <Gold.PLP.Fitness>
42.8556

> <Gold.PLP.PLP>
-37.0315

> <Gold.PLP.part.hbond>
-1.9066

> <Gold.PLP.part.metal>
0.0000

> <Gold.PLP.part.buried>
-4.3792

> <Gold.PLP.part.nonpolar>
-32.1250

> <Gold.PLP.part.repulsive>
0.2718

> <Gold.PLP.ligand.clash>
0.0000

> <Gold.PLP.ligand.torsion>
0.0782

> <Gold.PLP.Chemscore.Hbond>
1.9440

> <Gold.PLP.Chemscore.CHOScore>
0.0000

> <Gold.PLP.Chemscore.Metal>
0.0000

> <Gold.Chemscore.Hbonds>
donor molecule, donor type, donor heavy atom, donor atom, acceptor molecule, acceptor atom, score
      L1  H     3    28       P1  7948  1.00
      L1  H     6    29       P1  7948  0.94

> <Gold.PLP.Chemscore.Internal.Correction>
0.1485

> <Gold.Rescore>
     Score         DG    S(hbond)    S(metal)    S(lipo)     H(rot)  DE(clash)    DE(int)     intcor
     18.40     -19.80       1.96        0.00      96.06       1.36       0.01       1.38       ----

> <Gold.Chemscore.Fitness>
18.4038

> <Gold.Chemscore.DG>
-19.8034

> <Gold.Chemscore.ZeroCoef>
-5.4800

> <Gold.Chemscore.Hbond>
1.9636

> <Gold.Chemscore.Metal>
0.0000

> <Gold.Chemscore.Lipo>
96.0600

> <Gold.Chemscore.Internal_Hbond>
0.0000

> <Gold.Chemscore.DEClash>
0.0149

> <Gold.Chemscore.DEInternal>
1.3847

> <Gold.Chemscore.Rot>
1.3571

> <Gold.Chemscore.Internal.Correction>
   9.000000E+99

> <Gold.Chemscore.Hbonds>
donor molecule, donor type, donor heavy atom, donor atom, acceptor molecule, acceptor atom, score
      L1  H     3    28       P1  7948  0.92
      L1  H     6    29       P1  7948  0.91

> <Gold.Chemscore.Hbond.Weighted>
-6.5584

> <Gold.Chemscore.Metal.Weighted>
-0.0000

> <Gold.Chemscore.Lipo.Weighted>
-11.2390

> <Gold.Chemscore.Internal_Hbond.Weighted>
0.0000

> <Gold.Chemscore.DEClash.Weighted>
0.0149

> <Gold.Chemscore.DEInternal.Weighted>
1.3847

> <Gold.Chemscore.Rot.Weighted>
3.4741

> <Gold.Chemscore.Internal.Correction.Weighted>
   9.000000E+99

> <Gold.Protein.RotatedTorsions>
[ 6907 6896 6895 6894 ] final  -98.90 input  -60.11 | X-H torsion
[ 7974 7965 7964 7962 ] final -150.63 input  175.53 | X-H torsion
[ 8008 7997 7996 7995 ] final    9.41 input   59.86 | X-H torsion
[ 10167 10162 10161 10158 ] final  174.51 input  -65.29 | X-H torsion
[ 10718 10713 10712 10709 ] final -179.43 input   66.30 | X-H torsion
[ 10763 10752 10751 10750 ] final  -43.42 input  -60.55 | X-H torsion
[ 11005 11000 10999 10996 ] final -105.39 input  -57.11 | X-H torsion

> <Gold.Protein.ActiveResidues>
 VAL166  LYS551  ARG553  GLY616  TRP617  ASP618  TYR619  PRO620  LYS621  CYS622 
 ASP623  PHE694  ASN695  SER759  ASP760  ASP761  ALA762  ILE779  LEU786  VAL792 
 PHE793  MET794  SER795  GLU796  ALA797  LYS798  CYS799  TRP800  GLU811  SER814 

> <Gold.Protein.RotatedAtoms>
  150.7062  134.1124  159.4004 H   0  0  0  0  0  0  0  0  0  0  0  0  # atno 6907 bound_to 6896
  151.9110  135.0336  160.0524 H   0  0  0  0  0  0  0  0  0  0  0  0  # atno 6908 bound_to 6896
  152.2335  133.5042  159.5266 H   0  0  0  0  0  0  0  0  0  0  0  0  # atno 6909 bound_to 6896
  144.7896  140.4906  143.5782 H   0  0  0  0  0  0  0  0  0  0  0  0  # atno 7974 bound_to 7965
  154.7797  140.2816  155.6073 H   0  0  0  0  0  0  0  0  0  0  0  0  # atno 8008 bound_to 7997
  156.2948  140.2625  156.2547 H   0  0  0  0  0  0  0  0  0  0  0  0  # atno 8009 bound_to 7997
  154.9799  140.0375  157.2262 H   0  0  0  0  0  0  0  0  0  0  0  0  # atno 8010 bound_to 7997
  139.5144  144.3138  152.0267 H   0  0  0  0  0  0  0  0  0  0  0  0  # atno 10167 bound_to 10162
  156.8590  130.9745  151.3085 H   0  0  0  0  0  0  0  0  0  0  0  0  # atno 10718 bound_to 10713
  153.9952  135.6700  153.4756 H   0  0  0  0  0  0  0  0  0  0  0  0  # atno 10763 bound_to 10752
  153.0687  135.4986  154.8253 H   0  0  0  0  0  0  0  0  0  0  0  0  # atno 10764 bound_to 10752
  154.7085  135.3092  154.9196 H   0  0  0  0  0  0  0  0  0  0  0  0  # atno 10765 bound_to 10752
  141.1056  133.8804  157.1728 H   0  0  0  0  0  0  0  0  0  0  0  0  # atno 11005 bound_to 11000
  145.5829  139.1490  143.3225 LP  0  0  0  0  0  0  0  0  0  0  0  0  # atno 17320 bound_to 7965
  146.2143  140.5958  142.9045 LP  0  0  0  0  0  0  0  0  0  0  0  0  # atno 17321 bound_to 7965
  140.2582  144.4096  150.6196 LP  0  0  0  0  0  0  0  0  0  0  0  0  # atno 17342 bound_to 10162
  140.6176  143.2173  151.6759 LP  0  0  0  0  0  0  0  0  0  0  0  0  # atno 17343 bound_to 10162
  157.6261  130.8692  149.9191 LP  0  0  0  0  0  0  0  0  0  0  0  0  # atno 17370 bound_to 10713
  156.0787  130.3675  150.0625 LP  0  0  0  0  0  0  0  0  0  0  0  0  # atno 17371 bound_to 10713
  139.9924  135.0059  157.0006 LP  0  0  0  0  0  0  0  0  0  0  0  0  # atno 17394 bound_to 11000
  140.4912  134.1191  155.7233 LP  0  0  0  0  0  0  0  0  0  0  0  0  # atno 17395 bound_to 11000

$$$$
