AV-unprocessed.smi:1645|AV-procd|sdf|6620|dock3
  -GOLD-   22720 7313D 1   1.00000     0.00000
 Structure written by MMmdl.
 55 58  0  0  0  0  0  0  0  0  4 V2000
  151.6633  136.5976  154.3826 O   0  0  0  0  0  0  0  0  0  0  0  0
  150.6791  136.2558  155.0456 C   0  0  0  0  0  0  0  0  0  0  0  0
  150.1921  137.0460  156.0194 N   0  0  0  0  0  0  0  0  0  0  0  0
  150.6324  138.3136  156.4935 C   0  0  0  0  0  0  0  0  0  0  0  0
  150.3601  138.6215  157.8423 C   0  0  0  0  0  0  0  0  0  0  0  0
  150.7689  139.8581  158.3814 C   0  0  0  0  0  0  0  0  0  0  0  0
  151.4547  140.7913  157.5645 C   0  0  0  0  0  0  0  0  0  0  0  0
  151.9007  142.0553  158.0126 N   0  0  0  0  0  0  0  0  0  0  0  0
  152.6136  142.0724  159.2942 C   0  0  0  0  0  0  0  0  0  0  0  0
  153.4038  143.3783  159.4828 C   0  0  0  0  0  0  0  0  0  0  0  0
  152.5016  144.6044  159.2867 C   0  0  0  0  0  0  0  0  0  0  0  0
  151.8215  144.5346  157.9130 C   0  0  0  0  0  0  0  0  0  0  0  0
  151.0495  143.2155  157.7406 C   0  0  0  0  0  0  0  0  0  0  0  0
  151.6891  140.4527  156.2738 N   0  3  0  0  0  0  0  0  0  0  0  0
  151.3144  139.2808  155.7168 C   0  0  0  0  0  0  0  0  0  0  0  0
  149.9680  135.1020  154.9310 N   0  5  0  0  0  0  0  0  0  0  0  0
  149.5245  134.2708  156.0577 C   0  0  2  0  0  0  0  0  0  0  0  0
  150.6418  133.2942  156.4423 C   0  0  0  0  0  0  0  0  0  0  0  0
  150.4636  132.0728  155.5202 C   0  0  0  0  0  0  0  0  0  0  0  0
  149.0823  132.1286  154.9764 N   0  3  2  0  0  0  0  0  0  0  0  0
  149.0522  132.1307  153.4855 C   0  0  0  0  0  0  0  0  0  0  0  0
  147.6523  132.4180  152.9307 C   0  0  0  0  0  0  0  0  0  0  0  0
  147.1695  133.7846  153.4200 C   0  0  0  0  0  0  0  0  0  0  0  0
  147.1164  133.7927  154.9537 C   0  0  0  0  0  0  0  0  0  0  0  0
  148.4131  133.2808  155.6425 C   0  0  2  0  0  0  0  0  0  0  0  0
  149.3899  136.6677  156.5016 H   0  0  0  0  0  0  0  0  0  0  0  0
  149.8409  137.9108  158.4688 H   0  0  0  0  0  0  0  0  0  0  0  0
  150.5555  140.0599  159.4198 H   0  0  0  0  0  0  0  0  0  0  0  0
  151.8844  141.9601  160.0975 H   0  0  0  0  0  0  0  0  0  0  0  0
  153.3067  141.2361  159.3817 H   0  0  0  0  0  0  0  0  0  0  0  0
  153.8550  143.4004  160.4751 H   0  0  0  0  0  0  0  0  0  0  0  0
  154.2270  143.4133  158.7677 H   0  0  0  0  0  0  0  0  0  0  0  0
  151.7464  144.6389  160.0731 H   0  0  0  0  0  0  0  0  0  0  0  0
  153.0862  145.5209  159.3721 H   0  0  0  0  0  0  0  0  0  0  0  0
  151.1460  145.3808  157.7858 H   0  0  0  0  0  0  0  0  0  0  0  0
  152.5754  144.6207  157.1289 H   0  0  0  0  0  0  0  0  0  0  0  0
  150.6677  143.1734  156.7202 H   0  0  0  0  0  0  0  0  0  0  0  0
  150.1904  143.1929  158.4123 H   0  0  0  0  0  0  0  0  0  0  0  0
  151.5801  139.1822  154.6763 H   0  0  0  0  0  0  0  0  0  0  0  0
  149.2201  134.8612  156.9229 H   0  0  0  0  0  0  0  0  0  0  0  0
  151.6403  133.7292  156.3766 H   0  0  0  0  0  0  0  0  0  0  0  0
  150.4993  132.9824  157.4777 H   0  0  0  0  0  0  0  0  0  0  0  0
  151.2070  132.0905  154.7207 H   0  0  0  0  0  0  0  0  0  0  0  0
  150.6126  131.1428  156.0697 H   0  0  0  0  0  0  0  0  0  0  0  0
  149.7458  132.8789  153.0985 H   0  0  0  0  0  0  0  0  0  0  0  0
  149.4048  131.1637  153.1255 H   0  0  0  0  0  0  0  0  0  0  0  0
  147.6762  132.4030  151.8407 H   0  0  0  0  0  0  0  0  0  0  0  0
  146.9561  131.6377  153.2402 H   0  0  0  0  0  0  0  0  0  0  0  0
  147.8337  134.5681  153.0554 H   0  0  0  0  0  0  0  0  0  0  0  0
  146.1822  134.0031  153.0126 H   0  0  0  0  0  0  0  0  0  0  0  0
  146.8277  134.7800  155.3192 H   0  0  0  0  0  0  0  0  0  0  0  0
  146.3003  133.1320  155.2495 H   0  0  0  0  0  0  0  0  0  0  0  0
  148.0667  132.8666  156.5913 H   0  0  0  0  0  0  0  0  0  0  0  0
  148.5904  131.2981  155.2720 H   0  0  0  0  0  0  0  0  0  0  0  0
  152.1769  141.1252  155.6823 H   0  0  0  0  0  0  0  0  0  0  0  0
  1  2  2  0  0  0  0
  2  3  1  0  0  0  0
  2 16  1  0  0  0  0
  3  4  1  0  0  0  0
  3 26  1  0  0  0  0
  4 15  1  0  0  0  0
  4  5  2  0  0  0  0
  5  6  1  0  0  0  0
  5 27  1  0  0  0  0
  6  7  2  0  0  0  0
  6 28  1  0  0  0  0
  7  8  1  0  0  0  0
  7 14  1  0  0  0  0
  8 13  1  0  0  0  0
  8  9  1  0  0  0  0
  9 10  1  0  0  0  0
  9 29  1  0  0  0  0
  9 30  1  0  0  0  0
 10 11  1  0  0  0  0
 10 31  1  0  0  0  0
 10 32  1  0  0  0  0
 11 12  1  0  0  0  0
 11 33  1  0  0  0  0
 11 34  1  0  0  0  0
 12 13  1  0  0  0  0
 12 35  1  0  0  0  0
 12 36  1  0  0  0  0
 13 37  1  0  0  0  0
 13 38  1  0  0  0  0
 14 15  2  0  0  0  0
 14 55  1  0  0  0  0
 15 39  1  0  0  0  0
 16 17  1  0  0  0  0
 17 25  1  0  0  0  0
 17 18  1  0  0  0  0
 17 40  1  0  0  0  0
 18 19  1  0  0  0  0
 18 41  1  0  0  0  0
 18 42  1  0  0  0  0
 19 20  1  0  0  0  0
 19 43  1  0  0  0  0
 19 44  1  0  0  0  0
 20 25  1  0  0  0  0
 20 21  1  0  0  0  0
 20 54  1  0  0  0  0
 21 22  1  0  0  0  0
 21 45  1  0  0  0  0
 21 46  1  0  0  0  0
 22 23  1  0  0  0  0
 22 47  1  0  0  0  0
 22 48  1  0  0  0  0
 23 24  1  0  0  0  0
 23 49  1  0  0  0  0
 23 50  1  0  0  0  0
 24 25  1  0  0  0  0
 24 51  1  0  0  0  0
 24 52  1  0  0  0  0
 25 53  1  0  0  0  0
M  CHG  1  14   1
M  CHG  1  16  -1
M  CHG  1  20   1
M  END
> <s_m_source_file>
AV-unprocessed.smi

> <i_m_source_file_index>
1645

> <i_lp_mmshare_version>
43012

> <i_f3d_flags>
0

> <s_epik_input>
W0NIMl0xW0NIMl1bQ0gyXVtDSDJdW0NASF0oTjEyKVtDQEBIXShbQ0gyXVtDSDJdMilbTkhdQyg9TylbTkhdYzNbY0hdW2NIXWMobltjSF0zKU40W0NIMl1bQ0gyXVtDSDJdW0NIMl1bQ0gyXTQ=

> <s_epik_cmdline>
J2VwaWtfcHl0aG9uJywgJy1waCcsICc3LjAnLCAnLXRuJywgJzgnLCAnLW1hJywgJzIwMCcsICctbWV0YWxfYmluZGluZycsICctaW1hZScsICc8aW5maWxlLm1hZT4nLCAnLW9tYWUnLCAnPG91dGZpbGUubWFlPic=

> <r_lp_tautomer_probability>
0.999994

> <r_epik_Ionization_Penalty>
8.55589

> <r_epik_Ionization_Penalty_Charging>
8.55589

> <r_epik_Ionization_Penalty_Neutral>
3.8092e-06

> <r_epik_State_Penalty>
8.15703

> <r_epik_Charging_Adjusted_Penalty>
16.7129

> <i_epik_Tot_Q>
1

> <i_epik_Tot_abs_Q>
3

> <r_epik_Metal_State_Penalty>
4.13781

> <b_epik_Metal_Only>
1

> <s_lp_Force_Field>
OPLS_2005

> <r_lp_Energy>
58.0783

> <b_lp_Chiralities_Consistent>
1

> <s_lp_Variant>
AV-unprocessed.smi:1645-21

> <Gold.Version>
5.8.1

> <Gold.Id.Protein>
6NUR|6NUR_protein|mol2

> <Gold.PLP.Fitness>
40.5076

> <Gold.PLP.PLP>
-39.5669

> <Gold.PLP.part.hbond>
-1.0000

> <Gold.PLP.part.metal>
0.0000

> <Gold.PLP.part.buried>
-6.0245

> <Gold.PLP.part.nonpolar>
-33.3621

> <Gold.PLP.part.repulsive>
1.2660

> <Gold.PLP.ligand.clash>
0.0000

> <Gold.PLP.ligand.torsion>
1.3091

> <Gold.PLP.Chemscore.Hbond>
1.0000

> <Gold.PLP.Chemscore.CHOScore>
0.0000

> <Gold.PLP.Chemscore.Metal>
0.0000

> <Gold.Chemscore.Hbonds>
donor molecule, donor type, donor heavy atom, donor atom, acceptor molecule, acceptor atom, score
      P1  H 10752 10765       L1     1  1.00

> <Gold.PLP.Chemscore.Internal.Correction>
0.5589

> <Gold.Rescore>
     Score         DG    S(hbond)    S(metal)    S(lipo)     H(rot)  DE(clash)    DE(int)     intcor
     17.56     -18.97       1.00        0.00     112.52       1.17       0.04       1.37       ----

> <Gold.Chemscore.Fitness>
17.5596

> <Gold.Chemscore.DG>
-18.9687

> <Gold.Chemscore.ZeroCoef>
-5.4800

> <Gold.Chemscore.Hbond>
0.9960

> <Gold.Chemscore.Metal>
0.0000

> <Gold.Chemscore.Lipo>
112.5250

> <Gold.Chemscore.Internal_Hbond>
0.0000

> <Gold.Chemscore.DEClash>
0.0379

> <Gold.Chemscore.DEInternal>
1.3712

> <Gold.Chemscore.Rot>
1.1731

> <Gold.Chemscore.Internal.Correction>
   9.000000E+99

> <Gold.Chemscore.Hbonds>
donor molecule, donor type, donor heavy atom, donor atom, acceptor molecule, acceptor atom, score
      P1  H 10752 10765       L1     1  0.96

> <Gold.Chemscore.Hbond.Weighted>
-3.3265

> <Gold.Chemscore.Metal.Weighted>
-0.0000

> <Gold.Chemscore.Lipo.Weighted>
-13.1654

> <Gold.Chemscore.Internal_Hbond.Weighted>
0.0000

> <Gold.Chemscore.DEClash.Weighted>
0.0379

> <Gold.Chemscore.DEInternal.Weighted>
1.3712

> <Gold.Chemscore.Rot.Weighted>
3.0032

> <Gold.Chemscore.Internal.Correction.Weighted>
   9.000000E+99

> <Gold.Protein.RotatedTorsions>
[ 6907 6896 6895 6894 ] final -160.59 input  -60.11 | X-H torsion
[ 7974 7965 7964 7962 ] final  -66.57 input  175.53 | X-H torsion
[ 8008 7997 7996 7995 ] final -145.74 input   59.86 | X-H torsion
[ 10167 10162 10161 10158 ] final -146.59 input  -65.29 | X-H torsion
[ 10718 10713 10712 10709 ] final   76.87 input   66.30 | X-H torsion
[ 10763 10752 10751 10750 ] final  164.29 input  -60.55 | X-H torsion
[ 11005 11000 10999 10996 ] final -154.07 input  -57.11 | X-H torsion

> <Gold.Protein.ActiveResidues>
 VAL166  LYS551  ARG553  GLY616  TRP617  ASP618  TYR619  PRO620  LYS621  CYS622 
 ASP623  PHE694  ASN695  SER759  ASP760  ASP761  ALA762  ILE779  LEU786  VAL792 
 PHE793  MET794  SER795  GLU796  ALA797  LYS798  CYS799  TRP800  GLU811  SER814 

> <Gold.Protein.RotatedAtoms>
  151.3514  133.3924  159.2680 H   0  0  0  0  0  0  0  0  0  0  0  0  # atno 6907 bound_to 6896
  150.9798  134.9156  159.7848 H   0  0  0  0  0  0  0  0  0  0  0  0  # atno 6908 bound_to 6896
  152.5213  134.3477  159.9292 H   0  0  0  0  0  0  0  0  0  0  0  0  # atno 6909 bound_to 6896
  145.7402  140.8957  143.0534 H   0  0  0  0  0  0  0  0  0  0  0  0  # atno 7974 bound_to 7965
  155.5481  140.0614  157.2856 H   0  0  0  0  0  0  0  0  0  0  0  0  # atno 8008 bound_to 7997
  154.4429  140.1907  156.0703 H   0  0  0  0  0  0  0  0  0  0  0  0  # atno 8009 bound_to 7997
  156.0536  140.3281  155.7383 H   0  0  0  0  0  0  0  0  0  0  0  0  # atno 8010 bound_to 7997
  139.7699  143.8252  152.2623 H   0  0  0  0  0  0  0  0  0  0  0  0  # atno 10167 bound_to 10162
  157.6690  130.9795  150.1559 H   0  0  0  0  0  0  0  0  0  0  0  0  # atno 10718 bound_to 10713
  154.3066  135.2758  155.2586 H   0  0  0  0  0  0  0  0  0  0  0  0  # atno 10763 bound_to 10752
  154.4999  135.5811  153.6526 H   0  0  0  0  0  0  0  0  0  0  0  0  # atno 10764 bound_to 10752
  152.9893  135.6155  154.3240 H   0  0  0  0  0  0  0  0  0  0  0  0  # atno 10765 bound_to 10752
  140.7013  134.3934  157.5209 H   0  0  0  0  0  0  0  0  0  0  0  0  # atno 11005 bound_to 11000
  144.6872  139.9450  143.7476 LP  0  0  0  0  0  0  0  0  0  0  0  0  # atno 17320 bound_to 7965
  146.0455  139.3462  143.0671 LP  0  0  0  0  0  0  0  0  0  0  0  0  # atno 17321 bound_to 7965
  139.8284  144.7265  150.9482 LP  0  0  0  0  0  0  0  0  0  0  0  0  # atno 17342 bound_to 10162
  140.7813  143.4093  151.1019 LP  0  0  0  0  0  0  0  0  0  0  0  0  # atno 17343 bound_to 10162
  156.2347  130.3685  149.8404 LP  0  0  0  0  0  0  0  0  0  0  0  0  # atno 17370 bound_to 10713
  156.6221  130.8631  151.3477 LP  0  0  0  0  0  0  0  0  0  0  0  0  # atno 17371 bound_to 10713
  139.8896  134.8826  156.2413 LP  0  0  0  0  0  0  0  0  0  0  0  0  # atno 17394 bound_to 11000
  141.0161  133.7068  156.1191 LP  0  0  0  0  0  0  0  0  0  0  0  0  # atno 17395 bound_to 11000

$$$$
