AV-unprocessed.smi:1605|AV-procd|sdf|6456|dock9
  -GOLD-   22720 7113D 1   1.00000     0.00000
 Structure written by MMmdl.
 52 54  0  0  0  0  0  0  0  0  3 V2000
  146.3109  132.7172  151.1753 C   0  0  0  0  0  0  0  0  0  0  0  0
  145.9087  132.3632  152.4897 O   0  0  0  0  0  0  0  0  0  0  0  0
  146.6607  132.9872  153.5217 C   0  0  2  0  0  0  0  0  0  0  0  0
  146.3556  134.4916  153.4741 C   0  0  0  0  0  0  0  0  0  0  0  0
  147.2101  135.2674  154.4898 C   0  0  0  0  0  0  0  0  0  0  0  0
  148.6587  135.0298  154.2610 N   0  3  1  0  0  0  0  0  0  0  0  0
  149.5136  135.8800  155.1300 C   0  0  0  0  0  0  0  0  0  0  0  0
  149.3499  137.3895  154.8438 C   0  0  1  0  0  0  0  0  0  0  0  0
  148.4967  137.9504  155.8225 O   0  0  0  0  0  0  0  0  0  0  0  0
  150.6917  138.1576  154.8326 C   0  0  0  0  0  0  0  0  0  0  0  0
  150.5681  139.6031  155.0851 N   0  0  0  0  0  0  0  0  0  0  0  0
  149.9890  140.5753  154.3280 C   0  0  0  0  0  0  0  0  0  0  0  0
  150.1274  141.7542  154.9951 N   0  3  0  0  0  0  0  0  0  0  0  0
  150.7950  141.5321  156.2011 C   0  0  0  0  0  0  0  0  0  0  0  0
  151.1659  142.4119  157.2113 C   0  0  0  0  0  0  0  0  0  0  0  0
  151.8410  141.8662  158.3265 C   0  0  0  0  0  0  0  0  0  0  0  0
  152.2674  142.8011  159.4456 C   0  0  0  0  0  0  0  0  0  0  0  0
  152.1166  140.4765  158.4039 C   0  0  0  0  0  0  0  0  0  0  0  0
  152.8397  139.8981  159.6083 C   0  0  0  0  0  0  0  0  0  0  0  0
  151.7292  139.5987  157.3667 C   0  0  0  0  0  0  0  0  0  0  0  0
  151.0729  140.1531  156.2702 C   0  0  0  0  0  0  0  0  0  0  0  0
  148.9884  133.5817  154.3420 C   0  0  0  0  0  0  0  0  0  0  0  0
  148.1722  132.7693  153.3228 C   0  0  0  0  0  0  0  0  0  0  0  0
  145.7105  132.1644  150.4528 H   0  0  0  0  0  0  0  0  0  0  0  0
  147.3576  132.4653  151.0007 H   0  0  0  0  0  0  0  0  0  0  0  0
  146.1679  133.7792  150.9778 H   0  0  0  0  0  0  0  0  0  0  0  0
  146.3520  132.6009  154.4949 H   0  0  0  0  0  0  0  0  0  0  0  0
  146.5464  134.8754  152.4709 H   0  0  0  0  0  0  0  0  0  0  0  0
  145.2972  134.6625  153.6735 H   0  0  0  0  0  0  0  0  0  0  0  0
  146.9903  136.3317  154.3972 H   0  0  0  0  0  0  0  0  0  0  0  0
  146.9468  134.9755  155.5078 H   0  0  0  0  0  0  0  0  0  0  0  0
  149.2654  135.6951  156.1762 H   0  0  0  0  0  0  0  0  0  0  0  0
  150.5555  135.5794  155.0082 H   0  0  0  0  0  0  0  0  0  0  0  0
  148.8810  137.5449  153.8730 H   0  0  0  0  0  0  0  0  0  0  0  0
  147.6286  138.0402  155.4601 H   0  0  0  0  0  0  0  0  0  0  0  0
  151.3460  137.7556  155.6072 H   0  0  0  0  0  0  0  0  0  0  0  0
  151.2197  138.0073  153.8903 H   0  0  0  0  0  0  0  0  0  0  0  0
  149.5087  140.4383  153.3699 H   0  0  0  0  0  0  0  0  0  0  0  0
  150.9491  143.4683  157.1475 H   0  0  0  0  0  0  0  0  0  0  0  0
  151.7789  142.5264  160.3806 H   0  0  0  0  0  0  0  0  0  0  0  0
  152.0054  143.8358  159.2231 H   0  0  0  0  0  0  0  0  0  0  0  0
  153.3469  142.7563  159.5924 H   0  0  0  0  0  0  0  0  0  0  0  0
  152.9581  138.8176  159.5210 H   0  0  0  0  0  0  0  0  0  0  0  0
  152.2821  140.0987  160.5233 H   0  0  0  0  0  0  0  0  0  0  0  0
  153.8338  140.3355  159.7040 H   0  0  0  0  0  0  0  0  0  0  0  0
  151.9435  138.5420  157.4260 H   0  0  0  0  0  0  0  0  0  0  0  0
  150.0481  133.4186  154.1510 H   0  0  0  0  0  0  0  0  0  0  0  0
  148.7926  133.2182  155.3522 H   0  0  0  0  0  0  0  0  0  0  0  0
  148.4253  131.7140  153.4210 H   0  0  0  0  0  0  0  0  0  0  0  0
  148.4561  133.0629  152.3112 H   0  0  0  0  0  0  0  0  0  0  0  0
  148.8401  135.3221  153.3114 H   0  0  0  0  0  0  0  0  0  0  0  0
  149.7854  142.6435  154.6534 H   0  0  0  0  0  0  0  0  0  0  0  0
  1  2  1  0  0  0  0
  1 24  1  0  0  0  0
  1 25  1  0  0  0  0
  1 26  1  0  0  0  0
  2  3  1  0  0  0  0
  3 23  1  0  0  0  0
  3  4  1  0  0  0  0
  3 27  1  0  0  0  0
  4  5  1  0  0  0  0
  4 28  1  0  0  0  0
  4 29  1  0  0  0  0
  5  6  1  0  0  0  0
  5 30  1  0  0  0  0
  5 31  1  0  0  0  0
  6  7  1  0  0  0  0
  6 22  1  0  0  0  0
  6 51  1  0  0  0  0
  7  8  1  0  0  0  0
  7 32  1  0  0  0  0
  7 33  1  0  0  0  0
  8  9  1  0  0  0  0
  8 10  1  0  0  0  0
  8 34  1  0  0  0  0
  9 35  1  0  0  0  0
 10 11  1  0  0  0  0
 10 36  1  0  0  0  0
 10 37  1  0  0  0  0
 11 21  1  0  0  0  0
 11 12  1  0  0  0  0
 12 13  2  0  0  0  0
 12 38  1  0  0  0  0
 13 14  1  0  0  0  0
 13 52  1  0  0  0  0
 14 21  2  0  0  0  0
 14 15  1  0  0  0  0
 15 16  2  0  0  0  0
 15 39  1  0  0  0  0
 16 17  1  0  0  0  0
 16 18  1  0  0  0  0
 17 40  1  0  0  0  0
 17 41  1  0  0  0  0
 17 42  1  0  0  0  0
 18 19  1  0  0  0  0
 18 20  2  0  0  0  0
 19 43  1  0  0  0  0
 19 44  1  0  0  0  0
 19 45  1  0  0  0  0
 20 21  1  0  0  0  0
 20 46  1  0  0  0  0
 22 23  1  0  0  0  0
 22 47  1  0  0  0  0
 22 48  1  0  0  0  0
 23 49  1  0  0  0  0
 23 50  1  0  0  0  0
M  CHG  1   6   1
M  CHG  1  13   1
M  END
> <s_m_source_file>
AV-unprocessed.smi

> <i_m_source_file_index>
1605

> <i_lp_mmshare_version>
43012

> <i_f3d_flags>
0

> <s_epik_input>
W0NIM11PW0NIXTFbQ0gyXVtDSDJdTihbQ0gyXVtDSDJdMSlbQ0gyXVtDQEhdKFtPSF0pW0NIMl1uKFtjSF1uMiljKGMyMylbY0hdYyhbQ0gzXSljKFtjSF0zKVtDSDNd

> <s_epik_cmdline>
J2VwaWtfcHl0aG9uJywgJy1waCcsICc3LjAnLCAnLXRuJywgJzgnLCAnLW1hJywgJzIwMCcsICctbWV0YWxfYmluZGluZycsICctaW1hZScsICc8aW5maWxlLm1hZT4nLCAnLW9tYWUnLCAnPG91dGZpbGUubWFlPic=

> <r_epik_Ionization_Penalty>
1.19848

> <r_epik_Ionization_Penalty_Charging>
1.19848

> <r_epik_Ionization_Penalty_Neutral>
1.67134e-06

> <r_epik_State_Penalty>
1.2782

> <r_epik_Charging_Adjusted_Penalty>
2.47668

> <i_epik_Tot_Q>
2

> <i_epik_Tot_abs_Q>
2

> <r_epik_Metal_State_Penalty>
5.29544

> <b_epik_Metal_Only>
0

> <s_lp_Force_Field>
OPLS_2005

> <r_lp_Energy>
33.6993

> <b_lp_Chiralities_Consistent>
1

> <s_lp_Variant>
AV-unprocessed.smi:1605-6

> <Gold.Version>
5.8.1

> <Gold.Id.Protein>
6NUR|6NUR_protein|mol2

> <Gold.PLP.Fitness>
51.6300

> <Gold.PLP.PLP>
-39.4090

> <Gold.PLP.part.hbond>
-2.0000

> <Gold.PLP.part.metal>
0.0000

> <Gold.PLP.part.buried>
-1.9937

> <Gold.PLP.part.nonpolar>
-35.9088

> <Gold.PLP.part.repulsive>
0.3273

> <Gold.PLP.ligand.clash>
0.0000

> <Gold.PLP.ligand.torsion>
0.9454

> <Gold.PLP.Chemscore.Hbond>
3.8240

> <Gold.PLP.Chemscore.CHOScore>
0.8606

> <Gold.PLP.Chemscore.Metal>
0.0000

> <Gold.Chemscore.Hbonds>
donor molecule, donor type, donor heavy atom, donor atom, acceptor molecule, acceptor atom, score
      L1  H     6    51       P1  7948  2.00
      L1  C    12    38       P1  7957  1.00

> <Gold.PLP.Chemscore.Internal.Correction>
0.0580

> <Gold.Rescore>
     Score         DG    S(hbond)    S(metal)    S(lipo)     H(rot)  DE(clash)    DE(int)     intcor
     17.33     -18.30       1.96        0.00     103.57       2.28       0.05       0.91       ----

> <Gold.Chemscore.Fitness>
17.3341

> <Gold.Chemscore.DG>
-18.2970

> <Gold.Chemscore.ZeroCoef>
-5.4800

> <Gold.Chemscore.Hbond>
1.9599

> <Gold.Chemscore.Metal>
0.0000

> <Gold.Chemscore.Lipo>
103.5720

> <Gold.Chemscore.Internal_Hbond>
0.0000

> <Gold.Chemscore.DEClash>
0.0542

> <Gold.Chemscore.DEInternal>
0.9087

> <Gold.Chemscore.Rot>
2.2839

> <Gold.Chemscore.Internal.Correction>
   9.000000E+99

> <Gold.Chemscore.Hbonds>
donor molecule, donor type, donor heavy atom, donor atom, acceptor molecule, acceptor atom, score
      L1  H     6    51       P1  7948  0.70
      L1  H    13    52       P1  8028  0.03

> <Gold.Chemscore.Hbond.Weighted>
-6.5459

> <Gold.Chemscore.Metal.Weighted>
-0.0000

> <Gold.Chemscore.Lipo.Weighted>
-12.1179

> <Gold.Chemscore.Internal_Hbond.Weighted>
0.0000

> <Gold.Chemscore.DEClash.Weighted>
0.0542

> <Gold.Chemscore.DEInternal.Weighted>
0.9087

> <Gold.Chemscore.Rot.Weighted>
5.8469

> <Gold.Chemscore.Internal.Correction.Weighted>
   9.000000E+99

> <Gold.Protein.RotatedTorsions>
[ 6907 6896 6895 6894 ] final -177.65 input  -60.11 | X-H torsion
[ 7974 7965 7964 7962 ] final   16.29 input  175.53 | X-H torsion
[ 8008 7997 7996 7995 ] final  120.61 input   59.86 | X-H torsion
[ 10167 10162 10161 10158 ] final  131.48 input  -65.29 | X-H torsion
[ 10718 10713 10712 10709 ] final   98.22 input   66.30 | X-H torsion
[ 10763 10752 10751 10750 ] final  -77.20 input  -60.55 | X-H torsion
[ 11005 11000 10999 10996 ] final   73.42 input  -57.11 | X-H torsion

> <Gold.Protein.ActiveResidues>
 VAL166  LYS551  ARG553  GLY616  TRP617  ASP618  TYR619  PRO620  LYS621  CYS622 
 ASP623  PHE694  ASN695  SER759  ASP760  ASP761  ALA762  ILE779  LEU786  VAL792 
 PHE793  MET794  SER795  GLU796  ALA797  LYS798  CYS799  TRP800  GLU811  SER814 

> <Gold.Protein.RotatedAtoms>
  151.6245  133.3336  159.3094 H   0  0  0  0  0  0  0  0  0  0  0  0  # atno 6907 bound_to 6896
  150.8089  134.7235  159.6681 H   0  0  0  0  0  0  0  0  0  0  0  0  # atno 6908 bound_to 6896
  152.4185  134.6003  160.0050 H   0  0  0  0  0  0  0  0  0  0  0  0  # atno 6909 bound_to 6896
  146.2254  139.8769  142.8577 H   0  0  0  0  0  0  0  0  0  0  0  0  # atno 7974 bound_to 7965
  156.2650  140.2827  156.1176 H   0  0  0  0  0  0  0  0  0  0  0  0  # atno 8008 bound_to 7997
  155.1190  140.0392  157.2762 H   0  0  0  0  0  0  0  0  0  0  0  0  # atno 8009 bound_to 7997
  154.6685  140.2582  155.7038 H   0  0  0  0  0  0  0  0  0  0  0  0  # atno 8010 bound_to 7997
  139.5382  144.6704  151.4714 H   0  0  0  0  0  0  0  0  0  0  0  0  # atno 10167 bound_to 10162
  157.6899  131.0633  150.4763 H   0  0  0  0  0  0  0  0  0  0  0  0  # atno 10718 bound_to 10713
  154.5098  135.5772  153.6596 H   0  0  0  0  0  0  0  0  0  0  0  0  # atno 10763 bound_to 10752
  152.9895  135.6156  154.2893 H   0  0  0  0  0  0  0  0  0  0  0  0  # atno 10764 bound_to 10752
  154.2807  135.2851  155.2678 H   0  0  0  0  0  0  0  0  0  0  0  0  # atno 10765 bound_to 10752
  139.9441  134.7345  156.1024 H   0  0  0  0  0  0  0  0  0  0  0  0  # atno 11005 bound_to 11000
  145.2551  141.0058  143.3858 LP  0  0  0  0  0  0  0  0  0  0  0  0  # atno 17320 bound_to 7965
  144.9343  139.4262  143.6480 LP  0  0  0  0  0  0  0  0  0  0  0  0  # atno 17321 bound_to 7965
  140.6599  143.8520  150.6876 LP  0  0  0  0  0  0  0  0  0  0  0  0  # atno 17342 bound_to 10162
  140.1911  143.4035  152.1862 LP  0  0  0  0  0  0  0  0  0  0  0  0  # atno 17343 bound_to 10162
  156.5098  130.4136  149.6307 LP  0  0  0  0  0  0  0  0  0  0  0  0  # atno 17370 bound_to 10713
  156.3251  130.7301  151.2221 LP  0  0  0  0  0  0  0  0  0  0  0  0  # atno 17371 bound_to 10713
  141.1085  133.6651  156.2922 LP  0  0  0  0  0  0  0  0  0  0  0  0  # atno 17394 bound_to 11000
  140.5879  134.5680  157.5493 LP  0  0  0  0  0  0  0  0  0  0  0  0  # atno 17395 bound_to 11000

$$$$
