AV-unprocessed.smi:1896|AV-procd|sdf|7682|dock9
  -GOLD-   22720 9423D 1   1.00000     0.00000
 Structure written by MMmdl.
 47 48  0  0  0  0  0  0  0  0  2 V2000
  147.8803  140.8436  153.7316 C   0  0  0  0  0  0  0  0  0  0  0  0
  149.0802  140.8001  154.6342 C   0  0  0  0  0  0  0  0  0  0  0  0
  149.4066  141.8762  155.3303 N   0  0  0  0  0  0  0  0  0  0  0  0
  150.5096  141.5202  156.0186 N   0  0  0  0  0  0  0  0  0  0  0  0
  151.1398  142.4838  156.9002 C   0  0  0  0  0  0  0  0  0  0  0  0
  150.8808  140.2158  155.7572 C   0  0  0  0  0  0  0  0  0  0  0  0
  152.0754  139.5850  156.3971 C   0  0  0  0  0  0  0  0  0  0  0  0
  149.9769  139.7141  154.8588 C   0  0  0  0  0  0  0  0  0  0  0  0
  149.9297  138.3410  154.2384 C   0  0  0  0  0  0  0  0  0  0  0  0
  148.9169  137.4770  154.9889 C   0  0  0  0  0  0  0  0  0  0  0  0
  148.9527  137.4136  156.2175 O   0  0  0  0  0  0  0  0  0  0  0  0
  148.0209  136.8157  154.2386 N   0  0  0  0  0  0  0  0  0  0  0  0
  147.0032  135.8984  154.7449 C   0  0  0  0  0  0  0  0  0  0  0  0
  146.9587  134.5529  153.9746 C   0  0  2  0  0  0  0  0  0  0  0  0
  148.3029  133.7969  154.0805 C   0  0  0  0  0  0  0  0  0  0  0  0
  146.5813  134.7845  152.5494 N   0  3  0  0  0  0  0  0  0  0  0  0
  146.4030  133.5720  151.7200 C   0  0  0  0  0  0  0  0  0  0  0  0
  145.5730  134.0279  150.5259 C   0  0  0  0  0  0  0  0  0  0  0  0
  144.6096  135.0337  151.1443 C   0  0  0  0  0  0  0  0  0  0  0  0
  145.3703  135.6196  152.3419 C   0  0  0  0  0  0  0  0  0  0  0  0
  148.1828  140.8611  152.6847 H   0  0  0  0  0  0  0  0  0  0  0  0
  147.2682  141.7275  153.9151 H   0  0  0  0  0  0  0  0  0  0  0  0
  147.2468  139.9694  153.8803 H   0  0  0  0  0  0  0  0  0  0  0  0
  151.0218  142.1636  157.9354 H   0  0  0  0  0  0  0  0  0  0  0  0
  150.6872  143.4690  156.7802 H   0  0  0  0  0  0  0  0  0  0  0  0
  152.2025  142.5564  156.6682 H   0  0  0  0  0  0  0  0  0  0  0  0
  152.1966  138.5503  156.0771 H   0  0  0  0  0  0  0  0  0  0  0  0
  151.9816  139.5902  157.4830 H   0  0  0  0  0  0  0  0  0  0  0  0
  152.9859  140.1229  156.1321 H   0  0  0  0  0  0  0  0  0  0  0  0
  149.6456  138.3888  153.1865 H   0  0  0  0  0  0  0  0  0  0  0  0
  150.9063  137.8560  154.2607 H   0  0  0  0  0  0  0  0  0  0  0  0
  148.0711  136.9326  153.2366 H   0  0  0  0  0  0  0  0  0  0  0  0
  147.2432  135.7337  155.7948 H   0  0  0  0  0  0  0  0  0  0  0  0
  146.0181  136.3683  154.7362 H   0  0  0  0  0  0  0  0  0  0  0  0
  146.1882  133.9233  154.4231 H   0  0  0  0  0  0  0  0  0  0  0  0
  148.5728  133.5977  155.1170 H   0  0  0  0  0  0  0  0  0  0  0  0
  149.1148  134.3700  153.6318 H   0  0  0  0  0  0  0  0  0  0  0  0
  148.2690  132.8237  153.5917 H   0  0  0  0  0  0  0  0  0  0  0  0
  147.3567  133.1433  151.4109 H   0  0  0  0  0  0  0  0  0  0  0  0
  145.8527  132.8162  152.2832 H   0  0  0  0  0  0  0  0  0  0  0  0
  146.2134  134.5261  149.7967 H   0  0  0  0  0  0  0  0  0  0  0  0
  145.0643  133.2051  150.0225 H   0  0  0  0  0  0  0  0  0  0  0  0
  144.2920  135.7975  150.4337 H   0  0  0  0  0  0  0  0  0  0  0  0
  143.7155  134.5164  151.4953 H   0  0  0  0  0  0  0  0  0  0  0  0
  144.7226  135.6192  153.2202 H   0  0  0  0  0  0  0  0  0  0  0  0
  145.6741  136.6497  152.1532 H   0  0  0  0  0  0  0  0  0  0  0  0
  147.3435  135.2931  152.1239 H   0  0  0  0  0  0  0  0  0  0  0  0
  1  2  1  0  0  0  0
  1 21  1  0  0  0  0
  1 22  1  0  0  0  0
  1 23  1  0  0  0  0
  2  8  1  0  0  0  0
  2  3  2  0  0  0  0
  3  4  1  0  0  0  0
  4  5  1  0  0  0  0
  4  6  1  0  0  0  0
  5 24  1  0  0  0  0
  5 25  1  0  0  0  0
  5 26  1  0  0  0  0
  6  7  1  0  0  0  0
  6  8  2  0  0  0  0
  7 27  1  0  0  0  0
  7 28  1  0  0  0  0
  7 29  1  0  0  0  0
  8  9  1  0  0  0  0
  9 10  1  0  0  0  0
  9 30  1  0  0  0  0
  9 31  1  0  0  0  0
 10 11  2  0  0  0  0
 10 12  1  0  0  0  0
 12 13  1  0  0  0  0
 12 32  1  0  0  0  0
 13 14  1  0  0  0  0
 13 33  1  0  0  0  0
 13 34  1  0  0  0  0
 14 15  1  0  0  0  0
 14 16  1  0  0  0  0
 14 35  1  0  0  0  0
 15 36  1  0  0  0  0
 15 37  1  0  0  0  0
 15 38  1  0  0  0  0
 16 20  1  0  0  0  0
 16 17  1  0  0  0  0
 16 47  1  0  0  0  0
 17 18  1  0  0  0  0
 17 39  1  0  0  0  0
 17 40  1  0  0  0  0
 18 19  1  0  0  0  0
 18 41  1  0  0  0  0
 18 42  1  0  0  0  0
 19 20  1  0  0  0  0
 19 43  1  0  0  0  0
 19 44  1  0  0  0  0
 20 45  1  0  0  0  0
 20 46  1  0  0  0  0
M  CHG  1  16   1
M  END
> <s_m_source_file>
AV-unprocessed.smi

> <i_m_source_file_index>
1896

> <i_lp_mmshare_version>
43012

> <i_f3d_flags>
0

> <s_epik_input>
W0NIM11jMW5uKFtDSDNdKWMoW0NIM10pYzFbQ0gyXUMoPU8pW05IXVtDSDJdW0NASF0oW0NIM10pTjJbQ0gyXVtDSDJdW0NIMl1bQ0gyXTI=

> <s_epik_cmdline>
J2VwaWtfcHl0aG9uJywgJy1waCcsICc3LjAnLCAnLXRuJywgJzgnLCAnLW1hJywgJzIwMCcsICctbWV0YWxfYmluZGluZycsICctaW1hZScsICc8aW5maWxlLm1hZT4nLCAnLW9tYWUnLCAnPG91dGZpbGUubWFlPic=

> <r_lp_tautomer_probability>
1

> <r_epik_Ionization_Penalty>
0.00723064

> <r_epik_Ionization_Penalty_Charging>
0.0050435

> <r_epik_Ionization_Penalty_Neutral>
0.00218714

> <r_epik_State_Penalty>
-0

> <r_epik_Charging_Adjusted_Penalty>
0.0050435

> <i_epik_Tot_Q>
1

> <i_epik_Tot_abs_Q>
1

> <r_epik_Metal_State_Penalty>
-0

> <b_epik_Metal_Only>
0

> <s_lp_Force_Field>
OPLS_2005

> <r_lp_Energy>
25.1325

> <b_lp_Chiralities_Consistent>
1

> <s_lp_Variant>
AV-unprocessed.smi:1896-1

> <Gold.Version>
5.8.1

> <Gold.Id.Protein>
6NUR|6NUR_protein|mol2

> <Gold.PLP.Fitness>
42.7095

> <Gold.PLP.PLP>
-34.6658

> <Gold.PLP.part.hbond>
-1.8442

> <Gold.PLP.part.metal>
0.0000

> <Gold.PLP.part.buried>
-1.7280

> <Gold.PLP.part.nonpolar>
-32.2371

> <Gold.PLP.part.repulsive>
0.7163

> <Gold.PLP.ligand.clash>
0.0000

> <Gold.PLP.ligand.torsion>
0.5062

> <Gold.PLP.Chemscore.Hbond>
3.0000

> <Gold.PLP.Chemscore.CHOScore>
0.0000

> <Gold.PLP.Chemscore.Metal>
0.0000

> <Gold.Chemscore.Hbonds>
donor molecule, donor type, donor heavy atom, donor atom, acceptor molecule, acceptor atom, score
      L1  H    12    32       P1  7948  0.77
      L1  H    16    47       P1  7948  2.00

> <Gold.PLP.Chemscore.Internal.Correction>
0.0561

> <Gold.Rescore>
     Score         DG    S(hbond)    S(metal)    S(lipo)     H(rot)  DE(clash)    DE(int)     intcor
     16.31     -17.61       1.93        0.00      84.82       1.65       0.68       0.62       ----

> <Gold.Chemscore.Fitness>
16.3085

> <Gold.Chemscore.DG>
-17.6116

> <Gold.Chemscore.ZeroCoef>
-5.4800

> <Gold.Chemscore.Hbond>
1.9252

> <Gold.Chemscore.Metal>
0.0000

> <Gold.Chemscore.Lipo>
84.8209

> <Gold.Chemscore.Internal_Hbond>
0.0000

> <Gold.Chemscore.DEClash>
0.6833

> <Gold.Chemscore.DEInternal>
0.6198

> <Gold.Chemscore.Rot>
1.6495

> <Gold.Chemscore.Internal.Correction>
   9.000000E+99

> <Gold.Chemscore.Hbonds>
donor molecule, donor type, donor heavy atom, donor atom, acceptor molecule, acceptor atom, score
      L1  H    12    32       P1  7948  0.76
      L1  H    16    47       P1  7948  1.00

> <Gold.Chemscore.Hbond.Weighted>
-6.4302

> <Gold.Chemscore.Metal.Weighted>
-0.0000

> <Gold.Chemscore.Lipo.Weighted>
-9.9240

> <Gold.Chemscore.Internal_Hbond.Weighted>
0.0000

> <Gold.Chemscore.DEClash.Weighted>
0.6833

> <Gold.Chemscore.DEInternal.Weighted>
0.6198

> <Gold.Chemscore.Rot.Weighted>
4.2227

> <Gold.Chemscore.Internal.Correction.Weighted>
   9.000000E+99

> <Gold.Protein.RotatedTorsions>
[ 6907 6896 6895 6894 ] final   49.36 input  -60.11 | X-H torsion
[ 7974 7965 7964 7962 ] final   24.67 input  175.53 | X-H torsion
[ 8008 7997 7996 7995 ] final -134.93 input   59.86 | X-H torsion
[ 10167 10162 10161 10158 ] final  -85.25 input  -65.29 | X-H torsion
[ 10718 10713 10712 10709 ] final  -33.18 input   66.30 | X-H torsion
[ 10763 10752 10751 10750 ] final  -39.18 input  -60.55 | X-H torsion
[ 11005 11000 10999 10996 ] final   93.00 input  -57.11 | X-H torsion

> <Gold.Protein.ActiveResidues>
 VAL166  LYS551  ARG553  GLY616  TRP617  ASP618  TYR619  PRO620  LYS621  CYS622 
 ASP623  PHE694  ASN695  SER759  ASP760  ASP761  ALA762  ILE779  LEU786  VAL792 
 PHE793  MET794  SER795  GLU796  ALA797  LYS798  CYS799  TRP800  GLU811  SER814 

> <Gold.Protein.RotatedAtoms>
  152.2898  134.7734  160.0379 H   0  0  0  0  0  0  0  0  0  0  0  0  # atno 6907 bound_to 6896
  151.8284  133.3399  159.3614 H   0  0  0  0  0  0  0  0  0  0  0  0  # atno 6908 bound_to 6896
  150.7225  134.5435  159.5803 H   0  0  0  0  0  0  0  0  0  0  0  0  # atno 6909 bound_to 6896
  146.1926  139.7572  142.8820 H   0  0  0  0  0  0  0  0  0  0  0  0  # atno 7974 bound_to 7965
  155.3702  140.0488  157.3045 H   0  0  0  0  0  0  0  0  0  0  0  0  # atno 8008 bound_to 7997
  154.5134  140.2199  155.9075 H   0  0  0  0  0  0  0  0  0  0  0  0  # atno 8009 bound_to 7997
  156.1608  140.3116  155.8810 H   0  0  0  0  0  0  0  0  0  0  0  0  # atno 8010 bound_to 7997
  140.4056  143.2644  151.9086 H   0  0  0  0  0  0  0  0  0  0  0  0  # atno 10167 bound_to 10162
  156.3657  130.4331  149.7586 H   0  0  0  0  0  0  0  0  0  0  0  0  # atno 10718 bound_to 10713
  153.9251  135.6778  153.4747 H   0  0  0  0  0  0  0  0  0  0  0  0  # atno 10763 bound_to 10752
  153.1008  135.4829  154.8861 H   0  0  0  0  0  0  0  0  0  0  0  0  # atno 10764 bound_to 10752
  154.7457  135.3172  154.8605 H   0  0  0  0  0  0  0  0  0  0  0  0  # atno 10765 bound_to 10752
  139.8816  134.8765  156.3654 H   0  0  0  0  0  0  0  0  0  0  0  0  # atno 11005 bound_to 11000
  145.3744  141.0348  143.3213 LP  0  0  0  0  0  0  0  0  0  0  0  0  # atno 17320 bound_to 7965
  144.8517  139.5312  143.6853 LP  0  0  0  0  0  0  0  0  0  0  0  0  # atno 17321 bound_to 7965
  139.4783  144.5590  151.8269 LP  0  0  0  0  0  0  0  0  0  0  0  0  # atno 17342 bound_to 10162
  140.4693  144.1609  150.5916 LP  0  0  0  0  0  0  0  0  0  0  0  0  # atno 17343 bound_to 10162
  156.4733  130.8007  151.3024 LP  0  0  0  0  0  0  0  0  0  0  0  0  # atno 17370 bound_to 10713
  157.7478  131.0029  150.3017 LP  0  0  0  0  0  0  0  0  0  0  0  0  # atno 17371 bound_to 10713
  140.9501  133.7457  156.0260 LP  0  0  0  0  0  0  0  0  0  0  0  0  # atno 17394 bound_to 11000
  140.8116  134.3392  157.5410 LP  0  0  0  0  0  0  0  0  0  0  0  0  # atno 17395 bound_to 11000

$$$$
