#       Name:                AV-unprocessed.smi:970
#       Creating user name   scv26
#       Creation time:       Fri Mar 27 02:20:06 2020


#       File generated by GOLD software.
#

@<TRIPOS>MOLECULE
AV-unprocessed.smi:970
    37    37     1
SMALL
NO_CHARGES


@<TRIPOS>ATOM
      1 ****        -3.8219   2.8892   0.5657 C.3            1 S1                 0.0000
      2 ****        -3.1863   1.5953   0.3715 N.am           1 S1                 0.0000
      3 ****        -2.1211   1.3879  -0.4157 C.2            1 S1                 0.0000
      4 ****        -1.5778   2.2849  -1.0629 O.2            1 S1                 0.0000
      5 ****        -1.6035  -0.0579  -0.4935 C.3            1 S1                 0.0000
      6 ****        -2.1000  -0.6731  -1.8126 C.3            1 S1                 0.0000
      7 ****        -0.1422  -0.0829  -0.5089 N.am           1 S1                 0.0000
      8 ****         0.6474   0.0052   0.5743 C.2            1 S1                 0.0000
      9 ****         0.2066   0.1139   1.7193 O.2            1 S1                 0.0000
     10 ****         2.1613  -0.0380   0.3163 C.3            1 S1                 0.0000
     11 ****         2.9669   0.7299   1.3841 C.3            1 S1                 0.0000
     12 ****         2.6058  -1.4192   0.1731 N.pl3          1 S1                 0.0000
     13 ****         2.7726  -2.1561  -0.9276 C.2            1 S1                 0.0000
     14 ****         3.1442  -3.4059  -0.6887 N.2            1 S1                 0.0000
     15 ****         3.1797  -3.3759   0.6764 C.2            1 S1                 0.0000
     16 ****         2.8553  -2.2144   1.2436 N.2            1 S1                 0.0000
     17 ****        -4.6171   2.8057   1.3063 H              1 S1                 0.0000
     18 ****        -4.2599   3.2481  -0.3665 H              1 S1                 0.0000
     19 ****        -3.1022   3.6283   0.9203 H              1 S1                 0.0000
     20 ****        -3.5759   0.8088   0.8708 H              1 S1                 0.0000
     21 ****        -1.9796  -0.6425   0.3486 H              1 S1                 0.0000
     22 ****        -3.1898  -0.6843  -1.8598 H              1 S1                 0.0000
     23 ****        -1.7617  -1.7050  -1.9116 H              1 S1                 0.0000
     24 ****        -1.7348  -0.1230  -2.6813 H              1 S1                 0.0000
     25 ****         0.2999  -0.1603  -1.4131 H              1 S1                 0.0000
     26 ****         2.3444   0.4564  -0.6394 H              1 S1                 0.0000
     27 ****         2.6588   1.7749   1.4309 H              1 S1                 0.0000
     28 ****         4.0323   0.7143   1.1529 H              1 S1                 0.0000
     29 ****         2.8396   0.3041   2.3803 H              1 S1                 0.0000
     30 ****         2.6142  -1.7715  -1.9245 H              1 S1                 0.0000
     31 ****         3.4458  -4.2378   1.2705 H              1 S1                 0.0000
     32 ****        -1.9299   3.2197  -1.0149 LP             1 S1                 0.0000
     33 ****        -0.7849   2.0781  -1.6360 LP             1 S1                 0.0000
     34 ****        -0.7810   0.1400   1.8746 LP             1 S1                 0.0000
     35 ****         0.8362   0.1761   2.4937 LP             1 S1                 0.0000
     36 ****         3.3412  -4.1532  -1.3232 LP             1 S1                 0.0000
     37 ****         2.8076  -1.9859   2.2160 LP             1 S1                 0.0000
@<TRIPOS>BOND
    1    1    2 1     
    2    1   17 1     
    3    1   18 1     
    4    1   19 1     
    5    2    3 am    
    6    2   20 1     
    7    3    4 2     
    8    3    5 1     
    9    5    6 1     
   10    5    7 1     
   11    5   21 1     
   12    6   22 1     
   13    6   23 1     
   14    6   24 1     
   15    7    8 am    
   16    7   25 1     
   17    8    9 2     
   18    8   10 1     
   19   10   11 1     
   20   10   12 1     
   21   10   26 1     
   22   11   27 1     
   23   11   28 1     
   24   11   29 1     
   25   12   16 1     
   26   12   13 1     
   27   13   14 2     
   28   13   30 1     
   29   14   15 1     
   30   15   16 2     
   31   15   31 1     
   32    4   32 1     
   33    4   33 1     
   34    9   34 1     
   35    9   35 1     
   36   14   36 1     
   37   16   37 1     
@<TRIPOS>SUBSTRUCTURE
      1 S1             1
@<TRIPOS>SET
LONE_PAIRS      STATIC     ATOMS    <user>   **** ""
6 32 33 34 35 36 37
DONOR_HYDROGENS      STATIC     ATOMS    <user>   **** ""
2 20 25
ATOM$BLUE        STATIC     ATOMS    COLORGROUP SYSTEM
6 32 33 34 35 36 37
ATOM$RED        STATIC     ATOMS    COLORGROUP SYSTEM
2 20 25
