AV-unprocessed.smi:1413|AV-procd|sdf|5759|dock1
  -GOLD-   22720 5393D 1   1.00000     0.00000
 Structure written by MMmdl.
 53 55  0  0  0  0  0  0  0  0  1 V2000
  152.1568  144.2645  157.3492 C   0  0  0  0  0  0  0  0  0  0  0  0
  151.2192  143.5937  158.3690 C   0  0  1  0  0  0  0  0  0  0  0  0
  150.4865  142.3589  157.8079 C   0  0  0  0  0  0  0  0  0  0  0  0
  151.3857  141.2122  157.7180 N   0  0  0  0  0  0  0  0  0  0  0  0
  150.9087  140.1265  156.9537 C   0  0  0  0  0  0  0  0  0  0  0  0
  151.1080  140.1055  155.5538 C   0  0  0  0  0  0  0  0  0  0  0  0
  150.6238  139.0143  154.8083 C   0  0  0  0  0  0  0  0  0  0  0  0
  149.9451  137.9740  155.4717 C   0  0  0  0  0  0  0  0  0  0  0  0
  149.4853  136.8747  154.6981 N   0  0  0  0  0  0  0  0  0  0  0  0
  149.0489  135.6777  155.1253 C   0  0  0  0  0  0  0  0  0  0  0  0
  148.9343  135.3427  156.3040 O   0  0  0  0  0  0  0  0  0  0  0  0
  148.7308  134.8850  154.0916 N   0  0  0  0  0  0  0  0  0  0  0  0
  148.1995  133.5260  154.1827 C   0  0  1  0  0  0  0  0  0  0  0  0
  147.5747  133.1506  152.8312 C   0  0  0  0  0  0  0  0  0  0  0  0
  149.3095  132.5361  154.5924 C   0  0  1  0  0  0  0  0  0  0  0  0
  149.8707  132.7325  156.0010 C   0  0  0  0  0  0  0  0  0  0  0  0
  150.4504  131.3694  156.3388 C   0  0  0  0  0  0  0  0  0  0  0  0
  149.7506  130.4171  155.3643 C   0  0  0  0  0  0  0  0  0  0  0  0
  148.8006  131.2135  154.6682 O   0  0  0  0  0  0  0  0  0  0  0  0
  149.8066  138.0724  156.8764 C   0  0  0  0  0  0  0  0  0  0  0  0
  150.2728  139.1156  157.5951 N   0  0  0  0  0  0  0  0  0  0  0  0
  152.0715  140.9209  158.9735 C   0  0  0  0  0  0  0  0  0  0  0  0
  152.8091  142.1718  159.4833 C   0  0  2  0  0  0  0  0  0  0  0  0
  153.4324  141.9441  160.8645 C   0  0  0  0  0  0  0  0  0  0  0  0
  151.8919  143.2604  159.5857 O   0  0  0  0  0  0  0  0  0  0  0  0
  151.5947  144.6237  156.4871 H   0  0  0  0  0  0  0  0  0  0  0  0
  152.9189  143.5814  156.9747 H   0  0  0  0  0  0  0  0  0  0  0  0
  152.6633  145.1223  157.7921 H   0  0  0  0  0  0  0  0  0  0  0  0
  150.4634  144.3337  158.6340 H   0  0  0  0  0  0  0  0  0  0  0  0
  149.6629  142.0920  158.4713 H   0  0  0  0  0  0  0  0  0  0  0  0
  150.0418  142.6068  156.8447 H   0  0  0  0  0  0  0  0  0  0  0  0
  151.6368  140.9015  155.0510 H   0  0  0  0  0  0  0  0  0  0  0  0
  150.7731  138.9810  153.7389 H   0  0  0  0  0  0  0  0  0  0  0  0
  149.4381  137.0352  153.7027 H   0  0  0  0  0  0  0  0  0  0  0  0
  148.8603  135.2533  153.1608 H   0  0  0  0  0  0  0  0  0  0  0  0
  147.4070  133.4881  154.9325 H   0  0  0  0  0  0  0  0  0  0  0  0
  147.1341  132.1539  152.8634 H   0  0  0  0  0  0  0  0  0  0  0  0
  148.3180  133.1591  152.0332 H   0  0  0  0  0  0  0  0  0  0  0  0
  146.7831  133.8489  152.5577 H   0  0  0  0  0  0  0  0  0  0  0  0
  150.1242  132.5576  153.8654 H   0  0  0  0  0  0  0  0  0  0  0  0
  150.6086  133.5333  156.0578 H   0  0  0  0  0  0  0  0  0  0  0  0
  149.0639  132.9678  156.6967 H   0  0  0  0  0  0  0  0  0  0  0  0
  151.5286  131.3509  156.1761 H   0  0  0  0  0  0  0  0  0  0  0  0
  150.2624  131.1047  157.3797 H   0  0  0  0  0  0  0  0  0  0  0  0
  150.4660  130.0036  154.6523 H   0  0  0  0  0  0  0  0  0  0  0  0
  149.2589  129.5874  155.8724 H   0  0  0  0  0  0  0  0  0  0  0  0
  149.3347  137.2977  157.4603 H   0  0  0  0  0  0  0  0  0  0  0  0
  151.3411  140.5852  159.7113 H   0  0  0  0  0  0  0  0  0  0  0  0
  152.7887  140.1114  158.8316 H   0  0  0  0  0  0  0  0  0  0  0  0
  153.6102  142.4309  158.7909 H   0  0  0  0  0  0  0  0  0  0  0  0
  154.1506  141.1242  160.8404 H   0  0  0  0  0  0  0  0  0  0  0  0
  152.6712  141.7004  161.6062 H   0  0  0  0  0  0  0  0  0  0  0  0
  153.9577  142.8361  161.2067 H   0  0  0  0  0  0  0  0  0  0  0  0
  1  2  1  0  0  0  0
  1 26  1  0  0  0  0
  1 27  1  0  0  0  0
  1 28  1  0  0  0  0
  2 25  1  0  0  0  0
  2  3  1  0  0  0  0
  2 29  1  0  0  0  0
  3  4  1  0  0  0  0
  3 30  1  0  0  0  0
  3 31  1  0  0  0  0
  4  5  1  0  0  0  0
  4 22  1  0  0  0  0
  5 21  1  0  0  0  0
  5  6  2  0  0  0  0
  6  7  1  0  0  0  0
  6 32  1  0  0  0  0
  7  8  2  0  0  0  0
  7 33  1  0  0  0  0
  8  9  1  0  0  0  0
  8 20  1  0  0  0  0
  9 10  1  0  0  0  0
  9 34  1  0  0  0  0
 10 11  2  0  0  0  0
 10 12  1  0  0  0  0
 12 13  1  0  0  0  0
 12 35  1  0  0  0  0
 13 14  1  0  0  0  0
 13 15  1  0  0  0  0
 13 36  1  0  0  0  0
 14 37  1  0  0  0  0
 14 38  1  0  0  0  0
 14 39  1  0  0  0  0
 15 19  1  0  0  0  0
 15 16  1  0  0  0  0
 15 40  1  0  0  0  0
 16 17  1  0  0  0  0
 16 41  1  0  0  0  0
 16 42  1  0  0  0  0
 17 18  1  0  0  0  0
 17 43  1  0  0  0  0
 17 44  1  0  0  0  0
 18 19  1  0  0  0  0
 18 45  1  0  0  0  0
 18 46  1  0  0  0  0
 20 21  2  0  0  0  0
 20 47  1  0  0  0  0
 22 23  1  0  0  0  0
 22 48  1  0  0  0  0
 22 49  1  0  0  0  0
 23 24  1  0  0  0  0
 23 25  1  0  0  0  0
 23 50  1  0  0  0  0
 24 51  1  0  0  0  0
 24 52  1  0  0  0  0
 24 53  1  0  0  0  0
M  END
> <s_m_source_file>
AV-unprocessed.smi

> <i_m_source_file_index>
1413

> <i_lp_mmshare_version>
43012

> <i_f3d_flags>
0

> <s_epik_input>
W0NIM11bQ0BASF0xW0NIMl1OKFtDSDJdW0NASF0oTzEpW0NIM10pYzJbY0hdW2NIXWMoW2NIXW4yKVtOSF1DKD1PKVtOSF1bQ0BIXShbQ0gzXSlbQ0BASF0zW0NIMl1bQ0gyXVtDSDJdTzM=

> <s_epik_cmdline>
J2VwaWtfcHl0aG9uJywgJy1waCcsICc3LjAnLCAnLXRuJywgJzgnLCAnLW1hJywgJzIwMCcsICctbWV0YWxfYmluZGluZycsICctaW1hZScsICc8aW5maWxlLm1hZT4nLCAnLW9tYWUnLCAnPG91dGZpbGUubWFlPic=

> <r_lp_tautomer_probability>
1

> <r_epik_Ionization_Penalty>
0.00271172

> <r_epik_Ionization_Penalty_Charging>
0

> <r_epik_Ionization_Penalty_Neutral>
0.00271172

> <r_epik_State_Penalty>
0.00186503

> <r_epik_Charging_Adjusted_Penalty>
0.00186503

> <i_epik_Tot_Q>
0

> <i_epik_Tot_abs_Q>
0

> <r_epik_Metal_State_Penalty>
-0

> <b_epik_Metal_Only>
0

> <s_lp_Force_Field>
OPLS_2005

> <r_lp_Energy>
37.0854

> <b_lp_Chiralities_Consistent>
1

> <s_lp_Variant>
AV-unprocessed.smi:1413-12

> <Gold.Version>
5.8.1

> <Gold.Id.Protein>
6NUR|6NUR_protein|mol2

> <Gold.PLP.Fitness>
49.1216

> <Gold.PLP.PLP>
-44.6112

> <Gold.PLP.part.hbond>
-2.0000

> <Gold.PLP.part.metal>
0.0000

> <Gold.PLP.part.buried>
-5.3900

> <Gold.PLP.part.nonpolar>
-36.7546

> <Gold.PLP.part.repulsive>
0.1013

> <Gold.PLP.ligand.clash>
0.0000

> <Gold.PLP.ligand.torsion>
0.8252

> <Gold.PLP.Chemscore.Hbond>
1.9199

> <Gold.PLP.Chemscore.CHOScore>
0.0000

> <Gold.PLP.Chemscore.Metal>
0.0000

> <Gold.Chemscore.Hbonds>
donor molecule, donor type, donor heavy atom, donor atom, acceptor molecule, acceptor atom, score
      L1  H     9    34       P1  7948  0.90
      L1  H    12    35       P1  7948  1.00

> <Gold.PLP.Chemscore.Internal.Correction>
0.4011

> <Gold.Rescore>
     Score         DG    S(hbond)    S(metal)    S(lipo)     H(rot)  DE(clash)    DE(int)     intcor
     16.96     -20.53       1.65        0.00     110.95       1.35       0.12       3.44       ----

> <Gold.Chemscore.Fitness>
16.9632

> <Gold.Chemscore.DG>
-20.5323

> <Gold.Chemscore.ZeroCoef>
-5.4800

> <Gold.Chemscore.Hbond>
1.6528

> <Gold.Chemscore.Metal>
0.0000

> <Gold.Chemscore.Lipo>
110.9457

> <Gold.Chemscore.Internal_Hbond>
0.0000

> <Gold.Chemscore.DEClash>
0.1247

> <Gold.Chemscore.DEInternal>
3.4445

> <Gold.Chemscore.Rot>
1.3471

> <Gold.Chemscore.Internal.Correction>
   9.000000E+99

> <Gold.Chemscore.Hbonds>
donor molecule, donor type, donor heavy atom, donor atom, acceptor molecule, acceptor atom, score
      L1  H     9    34       P1  7948  0.76
      L1  H    12    35       P1  7948  0.54

> <Gold.Chemscore.Hbond.Weighted>
-5.5202

> <Gold.Chemscore.Metal.Weighted>
-0.0000

> <Gold.Chemscore.Lipo.Weighted>
-12.9806

> <Gold.Chemscore.Internal_Hbond.Weighted>
0.0000

> <Gold.Chemscore.DEClash.Weighted>
0.1247

> <Gold.Chemscore.DEInternal.Weighted>
3.4445

> <Gold.Chemscore.Rot.Weighted>
3.4485

> <Gold.Chemscore.Internal.Correction.Weighted>
   9.000000E+99

> <Gold.Protein.RotatedTorsions>
[ 6907 6896 6895 6894 ] final   79.05 input  -60.11 | X-H torsion
[ 7974 7965 7964 7962 ] final -164.14 input  175.53 | X-H torsion
[ 8008 7997 7996 7995 ] final  -78.25 input   59.86 | X-H torsion
[ 10167 10162 10161 10158 ] final   63.40 input  -65.29 | X-H torsion
[ 10718 10713 10712 10709 ] final  -32.19 input   66.30 | X-H torsion
[ 10763 10752 10751 10750 ] final   99.13 input  -60.55 | X-H torsion
[ 11005 11000 10999 10996 ] final   41.93 input  -57.11 | X-H torsion

> <Gold.Protein.ActiveResidues>
 VAL166  LYS551  ARG553  GLY616  TRP617  ASP618  TYR619  PRO620  LYS621  CYS622 
 ASP623  PHE694  ASN695  SER759  ASP760  ASP761  ALA762  ILE779  LEU786  VAL792 
 PHE793  MET794  SER795  GLU796  ALA797  LYS798  CYS799  TRP800  GLU811  SER814 

> <Gold.Protein.RotatedAtoms>
  152.5184  134.3570  159.9271 H   0  0  0  0  0  0  0  0  0  0  0  0  # atno 6907 bound_to 6896
  151.3522  133.3915  159.2689 H   0  0  0  0  0  0  0  0  0  0  0  0  # atno 6908 bound_to 6896
  150.9718  134.9108  159.7850 H   0  0  0  0  0  0  0  0  0  0  0  0  # atno 6909 bound_to 6896
  144.7305  140.3005  143.6205 H   0  0  0  0  0  0  0  0  0  0  0  0  # atno 7974 bound_to 7965
  154.5672  140.0697  156.8909 H   0  0  0  0  0  0  0  0  0  0  0  0  # atno 8008 bound_to 7997
  155.2702  140.3364  155.4247 H   0  0  0  0  0  0  0  0  0  0  0  0  # atno 8009 bound_to 7997
  156.2089  140.1751  156.7723 H   0  0  0  0  0  0  0  0  0  0  0  0  # atno 8010 bound_to 7997
  140.1335  144.4621  150.6851 H   0  0  0  0  0  0  0  0  0  0  0  0  # atno 10167 bound_to 10162
  156.3780  130.4351  149.7492 H   0  0  0  0  0  0  0  0  0  0  0  0  # atno 10718 bound_to 10713
  153.2976  135.4124  155.1224 H   0  0  0  0  0  0  0  0  0  0  0  0  # atno 10763 bound_to 10752
  154.8540  135.3533  154.5895 H   0  0  0  0  0  0  0  0  0  0  0  0  # atno 10764 bound_to 10752
  153.6319  135.7060  153.5330 H   0  0  0  0  0  0  0  0  0  0  0  0  # atno 10765 bound_to 10752
  140.1787  134.4131  155.8213 H   0  0  0  0  0  0  0  0  0  0  0  0  # atno 11005 bound_to 11000
  145.7765  139.1876  143.2182 LP  0  0  0  0  0  0  0  0  0  0  0  0  # atno 17320 bound_to 7965
  146.0868  140.7701  142.9614 LP  0  0  0  0  0  0  0  0  0  0  0  0  # atno 17321 bound_to 7965
  140.6803  143.2323  151.5401 LP  0  0  0  0  0  0  0  0  0  0  0  0  # atno 17342 bound_to 10162
  139.5508  144.2402  152.1526 LP  0  0  0  0  0  0  0  0  0  0  0  0  # atno 17343 bound_to 10162
  156.4594  130.7944  151.2965 LP  0  0  0  0  0  0  0  0  0  0  0  0  # atno 17370 bound_to 10713
  157.7490  131.0070  150.3175 LP  0  0  0  0  0  0  0  0  0  0  0  0  # atno 17371 bound_to 10713
  141.2222  133.6990  156.7892 LP  0  0  0  0  0  0  0  0  0  0  0  0  # atno 17394 bound_to 11000
  140.2293  134.8698  157.3459 LP  0  0  0  0  0  0  0  0  0  0  0  0  # atno 17395 bound_to 11000

$$$$
