AV-unprocessed.smi:500|AV-procd|sdf|2740|dock1
  -GOLD-   2262023193D 1   1.00000     0.00000
 Structure written by MMmdl.
 45 47  0  0  0  0  0  0  0  0  3 V2000
  151.6450  137.2140  155.3018 C   0  0  0  0  0  0  0  0  0  0  0  0
  152.8828  138.0984  155.4672 C   0  0  0  0  0  0  0  0  0  0  0  0
  152.8041  138.7637  156.7191 O   0  0  0  0  0  0  0  0  0  0  0  0
  151.7997  139.7661  156.7872 C   0  0  0  0  0  0  0  0  0  0  0  0
  151.2232  139.9037  158.2068 C   0  0  0  0  0  0  0  0  0  0  0  0
  152.0207  140.8349  159.0280 N   0  0  0  0  0  0  0  0  0  0  0  0
  153.1484  140.6487  159.7877 C   0  0  0  0  0  0  0  0  0  0  0  0
  153.9270  139.3777  160.0188 C   0  0  2  0  0  0  0  0  0  0  0  0
  153.8272  138.9603  161.4920 C   0  0  0  0  0  0  0  0  0  0  0  0
  155.3381  139.5229  159.6558 N   0  5  0  0  0  0  0  0  0  0  0  0
  156.3754  139.1226  160.4454 C   0  0  0  0  0  0  0  0  0  0  0  0
  156.4479  138.1645  161.2228 O   0  0  0  0  0  0  0  0  0  0  0  0
  157.5645  139.9948  160.2989 C   0  0  0  0  0  0  0  0  0  0  0  0
  157.9081  140.8523  159.2873 C   0  0  0  0  0  0  0  0  0  0  0  0
  159.1505  141.4420  159.6509 C   0  0  0  0  0  0  0  0  0  0  0  0
  159.4806  140.9051  160.8616 C   0  0  0  0  0  0  0  0  0  0  0  0
  158.5283  140.0241  161.2707 O   0  0  0  0  0  0  0  0  0  0  0  0
  153.4594  141.8590  160.3359 N   0  3  0  0  0  0  0  0  0  0  0  0
  152.5519  142.8275  159.9128 C   0  0  0  0  0  0  0  0  0  0  0  0
  152.4747  144.1875  160.1946 C   0  0  0  0  0  0  0  0  0  0  0  0
  151.4182  144.8995  159.5901 C   0  0  0  0  0  0  0  0  0  0  0  0
  150.4916  144.2577  158.7430 C   0  0  0  0  0  0  0  0  0  0  0  0
  150.5809  142.8776  158.4658 C   0  0  0  0  0  0  0  0  0  0  0  0
  151.6273  142.1795  159.0698 C   0  0  0  0  0  0  0  0  0  0  0  0
  151.6688  136.6849  154.3490 H   0  0  0  0  0  0  0  0  0  0  0  0
  150.7320  137.8092  155.3315 H   0  0  0  0  0  0  0  0  0  0  0  0
  151.5865  136.4700  156.0966 H   0  0  0  0  0  0  0  0  0  0  0  0
  153.7831  137.4840  155.4214 H   0  0  0  0  0  0  0  0  0  0  0  0
  152.9300  138.8158  154.6483 H   0  0  0  0  0  0  0  0  0  0  0  0
  152.2646  140.7104  156.5017 H   0  0  0  0  0  0  0  0  0  0  0  0
  151.0133  139.5772  156.0547 H   0  0  0  0  0  0  0  0  0  0  0  0
  150.1899  140.2485  158.1959 H   0  0  0  0  0  0  0  0  0  0  0  0
  151.2053  138.9327  158.7017 H   0  0  0  0  0  0  0  0  0  0  0  0
  153.4551  138.5922  159.4270 H   0  0  0  0  0  0  0  0  0  0  0  0
  152.7875  138.8107  161.7841 H   0  0  0  0  0  0  0  0  0  0  0  0
  154.2521  139.7173  162.1525 H   0  0  0  0  0  0  0  0  0  0  0  0
  154.3560  138.0240  161.6738 H   0  0  0  0  0  0  0  0  0  0  0  0
  157.3325  141.0324  158.3911 H   0  0  0  0  0  0  0  0  0  0  0  0
  159.7286  142.1666  159.0970 H   0  0  0  0  0  0  0  0  0  0  0  0
  160.3132  141.0312  161.5377 H   0  0  0  0  0  0  0  0  0  0  0  0
  153.1871  144.6792  160.8404 H   0  0  0  0  0  0  0  0  0  0  0  0
  151.3183  145.9586  159.7783 H   0  0  0  0  0  0  0  0  0  0  0  0
  149.6962  144.8357  158.2955 H   0  0  0  0  0  0  0  0  0  0  0  0
  149.8680  142.3982  157.8116 H   0  0  0  0  0  0  0  0  0  0  0  0
  154.2584  141.9993  160.9410 H   0  0  0  0  0  0  0  0  0  0  0  0
  1  2  1  0  0  0  0
  1 25  1  0  0  0  0
  1 26  1  0  0  0  0
  1 27  1  0  0  0  0
  2  3  1  0  0  0  0
  2 28  1  0  0  0  0
  2 29  1  0  0  0  0
  3  4  1  0  0  0  0
  4  5  1  0  0  0  0
  4 30  1  0  0  0  0
  4 31  1  0  0  0  0
  5  6  1  0  0  0  0
  5 32  1  0  0  0  0
  5 33  1  0  0  0  0
  6 24  1  0  0  0  0
  6  7  1  0  0  0  0
  7  8  1  0  0  0  0
  7 18  2  0  0  0  0
  8  9  1  0  0  0  0
  8 10  1  0  0  0  0
  8 34  1  0  0  0  0
  9 35  1  0  0  0  0
  9 36  1  0  0  0  0
  9 37  1  0  0  0  0
 10 11  1  0  0  0  0
 11 12  2  0  0  0  0
 11 13  1  0  0  0  0
 13 17  1  0  0  0  0
 13 14  2  0  0  0  0
 14 15  1  0  0  0  0
 14 38  1  0  0  0  0
 15 16  2  0  0  0  0
 15 39  1  0  0  0  0
 16 17  1  0  0  0  0
 16 40  1  0  0  0  0
 18 19  1  0  0  0  0
 18 45  1  0  0  0  0
 19 24  2  0  0  0  0
 19 20  1  0  0  0  0
 20 21  2  0  0  0  0
 20 41  1  0  0  0  0
 21 22  1  0  0  0  0
 21 42  1  0  0  0  0
 22 23  2  0  0  0  0
 22 43  1  0  0  0  0
 23 24  1  0  0  0  0
 23 44  1  0  0  0  0
M  CHG  1  10  -1
M  CHG  1  18   1
M  END
> <s_m_source_file>
AV-unprocessed.smi

> <i_m_source_file_index>
500

> <i_lp_mmshare_version>
43012

> <i_f3d_flags>
0

> <s_epik_input>
W0NIM11bQ0gyXU9bQ0gyXVtDSDJdbihjKGMxMilbY0hdW2NIXVtjSF1bY0hdMiljKG4xKVtDQEhdKFtDSDNdKVtOSF1DKD1PKWMzW2NIXVtjSF1bY0hdbzM=

> <s_epik_cmdline>
J2VwaWtfcHl0aG9uJywgJy1waCcsICc3LjAnLCAnLXRuJywgJzgnLCAnLW1hJywgJzIwMCcsICctbWV0YWxfYmluZGluZycsICctaW1hZScsICc8aW5maWxlLm1hZT4nLCAnLW9tYWUnLCAnPG91dGZpbGUubWFlPic=

> <r_epik_Ionization_Penalty>
6.22753

> <r_epik_Ionization_Penalty_Charging>
6.22753

> <r_epik_Ionization_Penalty_Neutral>
2.56065e-12

> <r_epik_State_Penalty>
7.17947

> <r_epik_Charging_Adjusted_Penalty>
13.407

> <i_epik_Tot_Q>
0

> <i_epik_Tot_abs_Q>
2

> <r_epik_Metal_State_Penalty>
3.2092

> <b_epik_Metal_Only>
1

> <s_lp_Force_Field>
OPLS_2005

> <r_lp_Energy>
11.6209

> <b_lp_Chiralities_Consistent>
1

> <s_lp_Variant>
AV-unprocessed.smi:500-7

> <Gold.Version>
5.8.1

> <Gold.Id.Protein>
6NUR|6NUR_protein|mol2

> <Gold.PLP.Fitness>
55.4382

> <Gold.PLP.PLP>
-48.3805

> <Gold.PLP.part.hbond>
-2.0000

> <Gold.PLP.part.metal>
0.0000

> <Gold.PLP.part.buried>
-7.4398

> <Gold.PLP.part.nonpolar>
-39.7320

> <Gold.PLP.part.repulsive>
0.1589

> <Gold.PLP.ligand.clash>
0.0000

> <Gold.PLP.ligand.torsion>
1.3126

> <Gold.PLP.Chemscore.Hbond>
3.0000

> <Gold.PLP.Chemscore.CHOScore>
0.0000

> <Gold.PLP.Chemscore.Metal>
0.0000

> <Gold.Chemscore.Hbonds>
donor molecule, donor type, donor heavy atom, donor atom, acceptor molecule, acceptor atom, score
      P1  H  7997  8008       L1    10  0.33
      P1  H  7997  8009       L1     3  0.15

> <Gold.PLP.Chemscore.Internal.Correction>
0.6828

> <Gold.Rescore>
     Score         DG    S(hbond)    S(metal)    S(lipo)     H(rot)  DE(clash)    DE(int)     intcor
     16.81     -19.98       1.35        0.00     126.93       1.90       0.08       3.10       ----

> <Gold.Chemscore.Fitness>
16.8068

> <Gold.Chemscore.DG>
-19.9795

> <Gold.Chemscore.ZeroCoef>
-5.4800

> <Gold.Chemscore.Hbond>
1.3507

> <Gold.Chemscore.Metal>
0.0000

> <Gold.Chemscore.Lipo>
126.9255

> <Gold.Chemscore.Internal_Hbond>
0.0000

> <Gold.Chemscore.DEClash>
0.0771

> <Gold.Chemscore.DEInternal>
3.0957

> <Gold.Chemscore.Rot>
1.8993

> <Gold.Chemscore.Internal.Correction>
   9.000000E+99

> <Gold.Chemscore.Hbonds>
donor molecule, donor type, donor heavy atom, donor atom, acceptor molecule, acceptor atom, score
      P1  H  7997  8008       L1    10  0.13

> <Gold.Chemscore.Hbond.Weighted>
-4.5115

> <Gold.Chemscore.Metal.Weighted>
-0.0000

> <Gold.Chemscore.Lipo.Weighted>
-14.8503

> <Gold.Chemscore.Internal_Hbond.Weighted>
0.0000

> <Gold.Chemscore.DEClash.Weighted>
0.0771

> <Gold.Chemscore.DEInternal.Weighted>
3.0957

> <Gold.Chemscore.Rot.Weighted>
4.8622

> <Gold.Chemscore.Internal.Correction.Weighted>
   9.000000E+99

> <Gold.Protein.RotatedTorsions>
[ 6907 6896 6895 6894 ] final  -17.41 input  -60.11 | X-H torsion
[ 7974 7965 7964 7962 ] final  -20.92 input  175.53 | X-H torsion
[ 8008 7997 7996 7995 ] final -144.48 input   59.86 | X-H torsion
[ 10167 10162 10161 10158 ] final  105.61 input  -65.29 | X-H torsion
[ 10718 10713 10712 10709 ] final  -36.27 input   66.30 | X-H torsion
[ 10763 10752 10751 10750 ] final  101.84 input  -60.55 | X-H torsion
[ 11005 11000 10999 10996 ] final  -66.52 input  -57.11 | X-H torsion

> <Gold.Protein.ActiveResidues>
 VAL166  LYS551  ARG553  GLY616  TRP617  ASP618  TYR619  PRO620  LYS621  CYS622 
 ASP623  PHE694  ASN695  SER759  ASP760  ASP761  ALA762  ILE779  LEU786  VAL792 
 PHE793  MET794  SER795  GLU796  ALA797  LYS798  CYS799  TRP800  GLU811  SER814 

> <Gold.Protein.RotatedAtoms>
  151.2937  135.0749  159.9213 H   0  0  0  0  0  0  0  0  0  0  0  0  # atno 6907 bound_to 6896
  152.5311  133.9905  159.7859 H   0  0  0  0  0  0  0  0  0  0  0  0  # atno 6908 bound_to 6896
  151.0180  133.5852  159.2705 H   0  0  0  0  0  0  0  0  0  0  0  0  # atno 6909 bound_to 6896
  146.1761  140.4270  142.8513 H   0  0  0  0  0  0  0  0  0  0  0  0  # atno 7974 bound_to 7965
  155.5276  140.0597  157.2895 H   0  0  0  0  0  0  0  0  0  0  0  0  # atno 8008 bound_to 7997
  154.4496  140.1941  156.0506 H   0  0  0  0  0  0  0  0  0  0  0  0  # atno 8009 bound_to 7997
  156.0675  140.3264  155.7539 H   0  0  0  0  0  0  0  0  0  0  0  0  # atno 8010 bound_to 7997
  139.7078  144.7083  151.1078 H   0  0  0  0  0  0  0  0  0  0  0  0  # atno 10167 bound_to 10162
  156.3288  130.4276  149.7892 H   0  0  0  0  0  0  0  0  0  0  0  0  # atno 10718 bound_to 10713
  153.3319  135.4031  155.1502 H   0  0  0  0  0  0  0  0  0  0  0  0  # atno 10763 bound_to 10752
  154.8625  135.3612  154.5460 H   0  0  0  0  0  0  0  0  0  0  0  0  # atno 10764 bound_to 10752
  153.5899  135.7074  153.5487 H   0  0  0  0  0  0  0  0  0  0  0  0  # atno 10765 bound_to 10752
  141.1484  133.6701  156.6153 H   0  0  0  0  0  0  0  0  0  0  0  0  # atno 11005 bound_to 11000
  144.8239  140.6596  143.6335 LP  0  0  0  0  0  0  0  0  0  0  0  0  # atno 17320 bound_to 7965
  145.4206  139.1564  143.4076 LP  0  0  0  0  0  0  0  0  0  0  0  0  # atno 17321 bound_to 7965
  140.7726  143.5335  150.9396 LP  0  0  0  0  0  0  0  0  0  0  0  0  # atno 17342 bound_to 10162
  139.9019  143.6826  152.3130 LP  0  0  0  0  0  0  0  0  0  0  0  0  # atno 17343 bound_to 10162
  156.5172  130.8199  151.3190 LP  0  0  0  0  0  0  0  0  0  0  0  0  # atno 17370 bound_to 10713
  157.7426  130.9894  150.2531 LP  0  0  0  0  0  0  0  0  0  0  0  0  # atno 17371 bound_to 10713
  140.3583  134.7710  157.4516 LP  0  0  0  0  0  0  0  0  0  0  0  0  # atno 17394 bound_to 11000
  140.0805  134.5737  155.8545 LP  0  0  0  0  0  0  0  0  0  0  0  0  # atno 17395 bound_to 11000

$$$$
