AV-unprocessed.smi:3089|AV-procd|sdf|11773|dock2
  -GOLD-   2272017153D 1   1.00000     0.00000
 Structure written by MMmdl.
 24 24  0  0  0  0  0  0  0  0  1 V2000
  144.0945  132.2973  149.6949 C   0  0  0  0  0  0  0  0  0  0  0  0
  144.7090  133.3264  150.5057 N   0  0  0  0  0  0  0  0  0  0  0  0
  144.1789  134.5307  150.9142 C   0  0  0  0  0  0  0  0  0  0  0  0
  145.1302  135.1722  151.6589 C   0  0  0  0  0  0  0  0  0  0  0  0
  145.0465  136.5259  152.3326 C   0  0  2  0  0  0  0  0  0  0  0  0
  145.1158  136.3517  153.8600 C   0  0  0  0  0  0  0  0  0  0  0  0
  143.8136  137.1747  152.0852 O   0  0  0  0  0  0  0  0  0  0  0  0
  146.1659  137.4792  151.8582 C   0  0  0  0  0  0  0  0  0  0  0  0
  146.2301  137.6347  150.3949 N   0  0  0  0  0  0  0  0  0  0  0  0
  146.2213  134.2537  151.6478 C   0  0  0  0  0  0  0  0  0  0  0  0
  145.9672  133.1539  150.9574 N   0  0  0  0  0  0  0  0  0  0  0  0
  143.0879  132.6003  149.4058 H   0  0  0  0  0  0  0  0  0  0  0  0
  144.0359  131.3669  150.2604 H   0  0  0  0  0  0  0  0  0  0  0  0
  144.6871  132.1341  148.7943 H   0  0  0  0  0  0  0  0  0  0  0  0
  143.1778  134.8323  150.6435 H   0  0  0  0  0  0  0  0  0  0  0  0
  146.0552  135.8893  154.1654 H   0  0  0  0  0  0  0  0  0  0  0  0
  144.3058  135.7185  154.2247 H   0  0  0  0  0  0  0  0  0  0  0  0
  145.0430  137.3100  154.3758 H   0  0  0  0  0  0  0  0  0  0  0  0
  143.8993  137.6910  151.2985 H   0  0  0  0  0  0  0  0  0  0  0  0
  146.0473  138.4550  152.3307 H   0  0  0  0  0  0  0  0  0  0  0  0
  147.1265  137.0967  152.2048 H   0  0  0  0  0  0  0  0  0  0  0  0
  146.0578  136.7409  149.9364 H   0  0  0  0  0  0  0  0  0  0  0  0
  145.5111  138.2806  150.0723 H   0  0  0  0  0  0  0  0  0  0  0  0
  147.1879  134.3549  152.1191 H   0  0  0  0  0  0  0  0  0  0  0  0
  1  2  1  0  0  0  0
  1 12  1  0  0  0  0
  1 13  1  0  0  0  0
  1 14  1  0  0  0  0
  2 11  1  0  0  0  0
  2  3  1  0  0  0  0
  3  4  2  0  0  0  0
  3 15  1  0  0  0  0
  4  5  1  0  0  0  0
  4 10  1  0  0  0  0
  5  6  1  0  0  0  0
  5  7  1  0  0  0  0
  5  8  1  0  0  0  0
  6 16  1  0  0  0  0
  6 17  1  0  0  0  0
  6 18  1  0  0  0  0
  7 19  1  0  0  0  0
  8  9  1  0  0  0  0
  8 20  1  0  0  0  0
  8 21  1  0  0  0  0
  9 22  1  0  0  0  0
  9 23  1  0  0  0  0
 10 11  2  0  0  0  0
 10 24  1  0  0  0  0
M  END
> <s_m_source_file>
AV-unprocessed.smi

> <i_m_source_file_index>
3089

> <i_lp_mmshare_version>
43012

> <i_f3d_flags>
0

> <s_epik_input>
W0NIM11uMVtjSF1jKFtjSF1uMSlbQ0BAXShbQ0gzXSkoW09IXSlbQ0gyXVtOSDJd

> <s_epik_cmdline>
J2VwaWtfcHl0aG9uJywgJy1waCcsICc3LjAnLCAnLXRuJywgJzgnLCAnLW1hJywgJzIwMCcsICctbWV0YWxfYmluZGluZycsICctaW1hZScsICc8aW5maWxlLm1hZT4nLCAnLW9tYWUnLCAnPG91dGZpbGUubWFlPic=

> <r_lp_tautomer_probability>
1

> <r_epik_Ionization_Penalty>
2.22427

> <r_epik_Ionization_Penalty_Charging>
0

> <r_epik_Ionization_Penalty_Neutral>
2.22427

> <r_epik_State_Penalty>
2.36938

> <r_epik_Charging_Adjusted_Penalty>
2.36938

> <i_epik_Tot_Q>
0

> <i_epik_Tot_abs_Q>
0

> <r_epik_Metal_State_Penalty>
2.36933

> <b_epik_Metal_Only>
0

> <s_lp_Force_Field>
OPLS_2005

> <r_lp_Energy>
8.30456

> <b_lp_Chiralities_Consistent>
1

> <s_lp_Variant>
AV-unprocessed.smi:3089-4

> <Gold.Version>
5.8.1

> <Gold.Id.Protein>
6NUR|6NUR_protein|mol2

> <Gold.PLP.Fitness>
35.0715

> <Gold.PLP.PLP>
-20.8016

> <Gold.PLP.part.hbond>
-3.1163

> <Gold.PLP.part.metal>
0.0000

> <Gold.PLP.part.buried>
-3.3865

> <Gold.PLP.part.nonpolar>
-15.8287

> <Gold.PLP.part.repulsive>
0.1647

> <Gold.PLP.ligand.clash>
0.0000

> <Gold.PLP.ligand.torsion>
0.0754

> <Gold.PLP.Chemscore.Hbond>
2.8000

> <Gold.PLP.Chemscore.CHOScore>
2.0000

> <Gold.PLP.Chemscore.Metal>
0.0000

> <Gold.Chemscore.Hbonds>
donor molecule, donor type, donor heavy atom, donor atom, acceptor molecule, acceptor atom, score
      L1  H     7    19       P1 10171  1.00
      L1  H     9    23       P1 10171  0.99
      P1  H  7954  7966       L1     9  0.76
      L1  C     3    15       P1 10186  0.98
      L1  C    10    24       P1  7948  0.95

> <Gold.PLP.Chemscore.Internal.Correction>
0.0207

> <Gold.Rescore>
     Score         DG    S(hbond)    S(metal)    S(lipo)     H(rot)  DE(clash)    DE(int)     intcor
     12.62     -12.81       2.19        0.00      40.43       1.84       0.09       0.09       ----

> <Gold.Chemscore.Fitness>
12.6207

> <Gold.Chemscore.DG>
-12.8084

> <Gold.Chemscore.ZeroCoef>
-5.4800

> <Gold.Chemscore.Hbond>
2.1871

> <Gold.Chemscore.Metal>
0.0000

> <Gold.Chemscore.Lipo>
40.4301

> <Gold.Chemscore.Internal_Hbond>
0.0000

> <Gold.Chemscore.DEClash>
0.0931

> <Gold.Chemscore.DEInternal>
0.0946

> <Gold.Chemscore.Rot>
1.8386

> <Gold.Chemscore.Internal.Correction>
   9.000000E+99

> <Gold.Chemscore.Hbonds>
donor molecule, donor type, donor heavy atom, donor atom, acceptor molecule, acceptor atom, score
      L1  H     7    19       P1 10171  1.00
      L1  H     9    23       P1 10171  0.94
      P1  H  7954  7966       L1     9  0.10

> <Gold.Chemscore.Hbond.Weighted>
-7.3050

> <Gold.Chemscore.Metal.Weighted>
-0.0000

> <Gold.Chemscore.Lipo.Weighted>
-4.7303

> <Gold.Chemscore.Internal_Hbond.Weighted>
0.0000

> <Gold.Chemscore.DEClash.Weighted>
0.0931

> <Gold.Chemscore.DEInternal.Weighted>
0.0946

> <Gold.Chemscore.Rot.Weighted>
4.7069

> <Gold.Chemscore.Internal.Correction.Weighted>
   9.000000E+99

> <Gold.Protein.RotatedTorsions>
[ 6907 6896 6895 6894 ] final  -74.54 input  -60.11 | X-H torsion
[ 7974 7965 7964 7962 ] final  100.07 input  175.53 | X-H torsion
[ 8008 7997 7996 7995 ] final  153.96 input   59.86 | X-H torsion
[ 10167 10162 10161 10158 ] final  -87.19 input  -65.29 | X-H torsion
[ 10718 10713 10712 10709 ] final  103.35 input   66.30 | X-H torsion
[ 10763 10752 10751 10750 ] final  170.52 input  -60.55 | X-H torsion
[ 11005 11000 10999 10996 ] final   61.88 input  -57.11 | X-H torsion

> <Gold.Protein.ActiveResidues>
 VAL166  LYS551  ARG553  GLY616  TRP617  ASP618  TYR619  PRO620  LYS621  CYS622 
 ASP623  PHE694  ASN695  SER759  ASP760  ASP761  ALA762  ILE779  LEU786  VAL792 
 PHE793  MET794  SER795  GLU796  ALA797  LYS798  CYS799  TRP800  GLU811  SER814 

> <Gold.Protein.RotatedAtoms>
  150.7089  134.4854  159.5489 H   0  0  0  0  0  0  0  0  0  0  0  0  # atno 6907 bound_to 6896
  152.2482  134.8157  160.0459 H   0  0  0  0  0  0  0  0  0  0  0  0  # atno 6908 bound_to 6896
  151.8914  133.3482  159.3836 H   0  0  0  0  0  0  0  0  0  0  0  0  # atno 6909 bound_to 6896
  145.3904  139.2364  143.3355 H   0  0  0  0  0  0  0  0  0  0  0  0  # atno 7974 bound_to 7965
  156.2555  140.1979  156.6571 H   0  0  0  0  0  0  0  0  0  0  0  0  # atno 8008 bound_to 7997
  154.6492  140.0574  156.9961 H   0  0  0  0  0  0  0  0  0  0  0  0  # atno 8009 bound_to 7997
  155.1444  140.3245  155.4447 H   0  0  0  0  0  0  0  0  0  0  0  0  # atno 8010 bound_to 7997
  140.3868  143.2723  151.9314 H   0  0  0  0  0  0  0  0  0  0  0  0  # atno 10167 bound_to 10162
  157.6775  131.0776  150.5541 H   0  0  0  0  0  0  0  0  0  0  0  0  # atno 10718 bound_to 10713
  154.3988  135.2755  155.2109 H   0  0  0  0  0  0  0  0  0  0  0  0  # atno 10763 bound_to 10752
  154.4144  135.6015  153.5975 H   0  0  0  0  0  0  0  0  0  0  0  0  # atno 10764 bound_to 10752
  152.9831  135.5957  154.4253 H   0  0  0  0  0  0  0  0  0  0  0  0  # atno 10765 bound_to 10752
  140.0130  134.6267  155.9751 H   0  0  0  0  0  0  0  0  0  0  0  0  # atno 11005 bound_to 11000
  146.2800  140.4586  142.8780 LP  0  0  0  0  0  0  0  0  0  0  0  0  # atno 17320 bound_to 7965
  144.8444  140.6906  143.6208 LP  0  0  0  0  0  0  0  0  0  0  0  0  # atno 17321 bound_to 7965
  139.4791  144.5766  151.8002 LP  0  0  0  0  0  0  0  0  0  0  0  0  # atno 17342 bound_to 10162
  140.4881  144.1351  150.5945 LP  0  0  0  0  0  0  0  0  0  0  0  0  # atno 17343 bound_to 10162
  156.5846  130.4313  149.5963 LP  0  0  0  0  0  0  0  0  0  0  0  0  # atno 17370 bound_to 10713
  156.2633  130.6975  151.1751 LP  0  0  0  0  0  0  0  0  0  0  0  0  # atno 17371 bound_to 10713
  141.1724  133.6538  156.4701 LP  0  0  0  0  0  0  0  0  0  0  0  0  # atno 17394 bound_to 11000
  140.4520  134.6920  157.5044 LP  0  0  0  0  0  0  0  0  0  0  0  0  # atno 17395 bound_to 11000

$$$$
