AV-unprocessed.smi:1308|AV-procd|sdf|5443|dock7
  -GOLD-   22720 5 13D 1   1.00000     0.00000
 Structure written by MMmdl.
 44 44  0  0  0  0  0  0  0  0  2 V2000
  147.7117  135.7456  159.4102 C   0  0  0  0  0  0  0  0  0  0  0  0
  148.9056  136.3426  158.6967 C   0  0  0  0  0  0  0  0  0  0  0  0
  148.9182  136.3761  157.4191 N   0  0  0  0  0  0  0  0  0  0  0  0
  150.0212  136.9356  156.7528 C   0  0  0  0  0  0  0  0  0  0  0  0
  149.9334  136.9610  155.2368 C   0  0  0  0  0  0  0  0  0  0  0  0
  151.0837  137.4390  157.4451 C   0  0  0  0  0  0  0  0  0  0  0  0
  152.2913  138.0897  156.7677 C   0  0  0  0  0  0  0  0  0  0  0  0
  151.9913  139.4122  156.0619 C   0  0  0  0  0  0  0  0  0  0  0  0
  152.0834  139.4895  154.8372 O   0  0  0  0  0  0  0  0  0  0  0  0
  151.5907  140.4242  156.8509 N   0  0  0  0  0  0  0  0  0  0  0  0
  151.0033  141.6981  156.4325 C   0  0  1  0  0  0  0  0  0  0  0  0
  149.6639  141.5037  155.6999 C   0  0  0  0  0  0  0  0  0  0  0  0
  150.9014  142.7004  157.6052 C   0  0  0  0  0  0  0  0  0  0  0  0
  152.1270  142.6880  158.5439 C   0  0  0  0  0  0  0  0  0  0  0  0
  151.9266  143.4787  159.8516 C   0  0  0  0  0  0  0  0  0  0  0  0
  151.9851  144.9997  159.6333 C   0  0  0  0  0  0  0  0  0  0  0  0
  152.9527  143.0452  160.9099 C   0  0  0  0  0  0  0  0  0  0  0  0
  151.0303  137.3791  158.9169 C   0  0  0  0  0  0  0  0  0  0  0  0
  151.9545  137.8324  159.5909 O   0  0  0  0  0  0  0  0  0  0  0  0
  149.9253  136.8216  159.4881 N   0  5  0  0  0  0  0  0  0  0  0  0
  146.9148  135.5006  158.7067 H   0  0  0  0  0  0  0  0  0  0  0  0
  147.3152  136.4508  160.1414 H   0  0  0  0  0  0  0  0  0  0  0  0
  148.0024  134.8331  159.9312 H   0  0  0  0  0  0  0  0  0  0  0  0
  150.7808  136.4392  154.7920 H   0  0  0  0  0  0  0  0  0  0  0  0
  149.9246  137.9883  154.8721 H   0  0  0  0  0  0  0  0  0  0  0  0
  149.0213  136.4767  154.8863 H   0  0  0  0  0  0  0  0  0  0  0  0
  153.1053  138.2496  157.4749 H   0  0  0  0  0  0  0  0  0  0  0  0
  152.6949  137.3895  156.0360 H   0  0  0  0  0  0  0  0  0  0  0  0
  151.5766  140.2419  157.8445 H   0  0  0  0  0  0  0  0  0  0  0  0
  151.7042  142.1150  155.7086 H   0  0  0  0  0  0  0  0  0  0  0  0
  149.3177  142.4438  155.2702 H   0  0  0  0  0  0  0  0  0  0  0  0
  148.8815  141.1446  156.3681 H   0  0  0  0  0  0  0  0  0  0  0  0
  149.7627  140.7871  154.8840 H   0  0  0  0  0  0  0  0  0  0  0  0
  150.7731  143.7019  157.1946 H   0  0  0  0  0  0  0  0  0  0  0  0
  149.9999  142.4979  158.1841 H   0  0  0  0  0  0  0  0  0  0  0  0
  152.3618  141.6578  158.8104 H   0  0  0  0  0  0  0  0  0  0  0  0
  153.0023  143.0628  158.0121 H   0  0  0  0  0  0  0  0  0  0  0  0
  150.9392  143.2335  160.2454 H   0  0  0  0  0  0  0  0  0  0  0  0
  152.9397  145.3015  159.2010 H   0  0  0  0  0  0  0  0  0  0  0  0
  151.8638  145.5351  160.5753 H   0  0  0  0  0  0  0  0  0  0  0  0
  151.1934  145.3411  158.9669 H   0  0  0  0  0  0  0  0  0  0  0  0
  153.9719  143.2543  160.5839 H   0  0  0  0  0  0  0  0  0  0  0  0
  152.8819  141.9760  161.1132 H   0  0  0  0  0  0  0  0  0  0  0  0
  152.7901  143.5673  161.8531 H   0  0  0  0  0  0  0  0  0  0  0  0
  1  2  1  0  0  0  0
  1 21  1  0  0  0  0
  1 22  1  0  0  0  0
  1 23  1  0  0  0  0
  2 20  1  0  0  0  0
  2  3  2  0  0  0  0
  3  4  1  0  0  0  0
  4  5  1  0  0  0  0
  4  6  2  0  0  0  0
  5 24  1  0  0  0  0
  5 25  1  0  0  0  0
  5 26  1  0  0  0  0
  6  7  1  0  0  0  0
  6 18  1  0  0  0  0
  7  8  1  0  0  0  0
  7 27  1  0  0  0  0
  7 28  1  0  0  0  0
  8  9  2  0  0  0  0
  8 10  1  0  0  0  0
 10 11  1  0  0  0  0
 10 29  1  0  0  0  0
 11 12  1  0  0  0  0
 11 13  1  0  0  0  0
 11 30  1  0  0  0  0
 12 31  1  0  0  0  0
 12 32  1  0  0  0  0
 12 33  1  0  0  0  0
 13 14  1  0  0  0  0
 13 34  1  0  0  0  0
 13 35  1  0  0  0  0
 14 15  1  0  0  0  0
 14 36  1  0  0  0  0
 14 37  1  0  0  0  0
 15 16  1  0  0  0  0
 15 17  1  0  0  0  0
 15 38  1  0  0  0  0
 16 39  1  0  0  0  0
 16 40  1  0  0  0  0
 16 41  1  0  0  0  0
 17 42  1  0  0  0  0
 17 43  1  0  0  0  0
 17 44  1  0  0  0  0
 18 19  2  0  0  0  0
 18 20  1  0  0  0  0
M  CHG  1  20  -1
M  END
> <s_m_source_file>
AV-unprocessed.smi

> <i_m_source_file_index>
1308

> <i_lp_mmshare_version>
43012

> <i_f3d_flags>
0

> <s_epik_input>
W0NIM11jMW5jKFtDSDNdKWMoYyg9TylbbkhdMSlbQ0gyXUMoPU8pW05IXVtDQEhdKFtDSDNdKVtDSDJdW0NIMl1bQ0hdKFtDSDNdKVtDSDNd

> <s_epik_cmdline>
J2VwaWtfcHl0aG9uJywgJy1waCcsICc3LjAnLCAnLXRuJywgJzgnLCAnLW1hJywgJzIwMCcsICctbWV0YWxfYmluZGluZycsICctaW1hZScsICc8aW5maWxlLm1hZT4nLCAnLW9tYWUnLCAnPG91dGZpbGUubWFlPic=

> <r_lp_tautomer_probability>
0.839158

> <r_epik_Ionization_Penalty>
6.61719

> <r_epik_Ionization_Penalty_Charging>
7.20681e-08

> <r_epik_Ionization_Penalty_Neutral>
6.61719

> <r_epik_State_Penalty>
4.43758

> <r_epik_Charging_Adjusted_Penalty>
4.43758

> <i_epik_Tot_Q>
-1

> <i_epik_Tot_abs_Q>
1

> <r_epik_Metal_State_Penalty>
0.801586

> <b_epik_Metal_Only>
1

> <s_lp_Force_Field>
OPLS_2005

> <r_lp_Energy>
8.11692

> <b_lp_Chiralities_Consistent>
1

> <s_lp_Variant>
AV-unprocessed.smi:1308-6

> <Gold.Version>
5.8.1

> <Gold.Id.Protein>
6NUR|6NUR_protein|mol2

> <Gold.PLP.Fitness>
41.0154

> <Gold.PLP.PLP>
-33.2994

> <Gold.PLP.part.hbond>
-2.0000

> <Gold.PLP.part.metal>
0.0000

> <Gold.PLP.part.buried>
-5.6432

> <Gold.PLP.part.nonpolar>
-27.2284

> <Gold.PLP.part.repulsive>
0.1754

> <Gold.PLP.ligand.clash>
0.0000

> <Gold.PLP.ligand.torsion>
0.4452

> <Gold.PLP.Chemscore.Hbond>
2.8320

> <Gold.PLP.Chemscore.CHOScore>
0.0000

> <Gold.PLP.Chemscore.Metal>
0.0000

> <Gold.Chemscore.Hbonds>
donor molecule, donor type, donor heavy atom, donor atom, acceptor molecule, acceptor atom, score
      P1  H  6896  6908       L1    20  0.74
      P1  H  7989  7998       L1     9  0.88

> <Gold.PLP.Chemscore.Internal.Correction>
0.1105

> <Gold.Rescore>
     Score         DG    S(hbond)    S(metal)    S(lipo)     H(rot)  DE(clash)    DE(int)     intcor
     15.39     -15.72       1.60        0.00      83.56       1.91       0.02       0.31       ----

> <Gold.Chemscore.Fitness>
15.3856

> <Gold.Chemscore.DG>
-15.7169

> <Gold.Chemscore.ZeroCoef>
-5.4800

> <Gold.Chemscore.Hbond>
1.6033

> <Gold.Chemscore.Metal>
0.0000

> <Gold.Chemscore.Lipo>
83.5564

> <Gold.Chemscore.Internal_Hbond>
0.0000

> <Gold.Chemscore.DEClash>
0.0179

> <Gold.Chemscore.DEInternal>
0.3134

> <Gold.Chemscore.Rot>
1.9118

> <Gold.Chemscore.Internal.Correction>
   9.000000E+99

> <Gold.Chemscore.Hbonds>
donor molecule, donor type, donor heavy atom, donor atom, acceptor molecule, acceptor atom, score
      P1  H  7989  7998       L1     9  0.85

> <Gold.Chemscore.Hbond.Weighted>
-5.3552

> <Gold.Chemscore.Metal.Weighted>
-0.0000

> <Gold.Chemscore.Lipo.Weighted>
-9.7761

> <Gold.Chemscore.Internal_Hbond.Weighted>
0.0000

> <Gold.Chemscore.DEClash.Weighted>
0.0179

> <Gold.Chemscore.DEInternal.Weighted>
0.3134

> <Gold.Chemscore.Rot.Weighted>
4.8943

> <Gold.Chemscore.Internal.Correction.Weighted>
   9.000000E+99

> <Gold.Protein.RotatedTorsions>
[ 6907 6896 6895 6894 ] final -160.64 input  -60.11 | X-H torsion
[ 7974 7965 7964 7962 ] final  -93.26 input  175.53 | X-H torsion
[ 8008 7997 7996 7995 ] final   40.41 input   59.86 | X-H torsion
[ 10167 10162 10161 10158 ] final  173.73 input  -65.29 | X-H torsion
[ 10718 10713 10712 10709 ] final  169.51 input   66.30 | X-H torsion
[ 10763 10752 10751 10750 ] final  -53.82 input  -60.55 | X-H torsion
[ 11005 11000 10999 10996 ] final -134.19 input  -57.11 | X-H torsion

> <Gold.Protein.ActiveResidues>
 VAL166  LYS551  ARG553  GLY616  TRP617  ASP618  TYR619  PRO620  LYS621  CYS622 
 ASP623  PHE694  ASN695  SER759  ASP760  ASP761  ALA762  ILE779  LEU786  VAL792 
 PHE793  MET794  SER795  GLU796  ALA797  LYS798  CYS799  TRP800  GLU811  SER814 

> <Gold.Protein.RotatedAtoms>
  151.3522  133.3921  159.2681 H   0  0  0  0  0  0  0  0  0  0  0  0  # atno 6907 bound_to 6896
  150.9792  134.9151  159.7844 H   0  0  0  0  0  0  0  0  0  0  0  0  # atno 6908 bound_to 6896
  152.5211  134.3486  159.9295 H   0  0  0  0  0  0  0  0  0  0  0  0  # atno 6909 bound_to 6896
  145.3888  140.9526  143.2352 H   0  0  0  0  0  0  0  0  0  0  0  0  # atno 7974 bound_to 7965
  155.2527  140.3353  155.4280 H   0  0  0  0  0  0  0  0  0  0  0  0  # atno 8008 bound_to 7997
  156.2209  140.1808  156.7523 H   0  0  0  0  0  0  0  0  0  0  0  0  # atno 8009 bound_to 7997
  154.5823  140.0651  156.9107 H   0  0  0  0  0  0  0  0  0  0  0  0  # atno 8010 bound_to 7997
  139.5118  144.3227  152.0187 H   0  0  0  0  0  0  0  0  0  0  0  0  # atno 10167 bound_to 10162
  157.0216  131.0233  151.2772 H   0  0  0  0  0  0  0  0  0  0  0  0  # atno 10718 bound_to 10713
  154.1649  135.6468  153.4995 H   0  0  0  0  0  0  0  0  0  0  0  0  # atno 10763 bound_to 10752
  153.0100  135.5369  154.6672 H   0  0  0  0  0  0  0  0  0  0  0  0  # atno 10764 bound_to 10752
  154.5996  135.2942  155.0521 H   0  0  0  0  0  0  0  0  0  0  0  0  # atno 10765 bound_to 10752
  140.9012  134.1688  157.4459 H   0  0  0  0  0  0  0  0  0  0  0  0  # atno 11005 bound_to 11000
  144.8455  139.5404  143.6881 LP  0  0  0  0  0  0  0  0  0  0  0  0  # atno 17320 bound_to 7965
  146.2807  139.6870  142.9231 LP  0  0  0  0  0  0  0  0  0  0  0  0  # atno 17321 bound_to 7965
  140.2668  144.4007  150.6165 LP  0  0  0  0  0  0  0  0  0  0  0  0  # atno 17342 bound_to 10162
  140.6117  143.2170  151.6873 LP  0  0  0  0  0  0  0  0  0  0  0  0  # atno 17343 bound_to 10162
  157.5245  130.8019  149.7846 LP  0  0  0  0  0  0  0  0  0  0  0  0  # atno 17370 bound_to 10713
  156.0100  130.3837  150.2297 LP  0  0  0  0  0  0  0  0  0  0  0  0  # atno 17371 bound_to 10713
  139.8742  134.9899  156.5477 LP  0  0  0  0  0  0  0  0  0  0  0  0  # atno 17394 bound_to 11000
  140.8227  133.8341  155.8911 LP  0  0  0  0  0  0  0  0  0  0  0  0  # atno 17395 bound_to 11000

$$$$
