AV-unprocessed.smi:2760|AV-procd|sdf|10630|dock3
  -GOLD-   2272015 83D 1   1.00000     0.00000
 Structure written by MMmdl.
 31 32  0  0  0  0  0  0  0  0  2 V2000
  151.8130  139.3643  155.1666 O   0  0  0  0  0  0  0  0  0  0  0  0
  151.9293  140.0313  156.1927 C   0  0  0  0  0  0  0  0  0  0  0  0
  151.4831  141.4241  156.2017 C   0  0  0  0  0  0  0  0  0  0  0  0
  151.6181  142.1534  157.3378 C   0  0  0  0  0  0  0  0  0  0  0  0
  151.1759  143.5771  157.4073 C   0  0  0  0  0  0  0  0  0  0  0  0
  152.1793  144.7046  157.5015 C   0  0  0  0  0  0  0  0  0  0  0  0
  151.2773  144.4030  158.6731 C   0  0  0  0  0  0  0  0  0  0  0  0
  152.1749  141.5706  158.4924 N   0  0  0  0  0  0  0  0  0  0  0  0
  152.5566  140.3493  158.4631 C   0  0  0  0  0  0  0  0  0  0  0  0
  153.2534  139.6685  159.9805 S   0  0  0  0  0  0  0  0  0  0  0  0
  154.1549  141.0582  160.7275 C   0  0  0  0  0  0  0  0  0  0  0  0
  154.5470  140.7504  162.1752 C   0  0  0  0  0  0  0  0  0  0  0  0
  154.9275  141.9542  162.8200 O   0  0  0  0  0  0  0  0  0  0  0  0
  155.0978  141.7948  164.2196 C   0  0  0  0  0  0  0  0  0  0  0  0
  155.3169  143.1650  164.8722 C   0  0  0  0  0  0  0  0  0  0  0  0
  156.6175  143.4541  164.8588 F   0  0  0  0  0  0  0  0  0  0  0  0
  154.6629  144.1094  164.1964 F   0  0  0  0  0  0  0  0  0  0  0  0
  154.8965  143.1464  166.1367 F   0  0  0  0  0  0  0  0  0  0  0  0
  152.4615  139.5405  157.3488 N   0  5  0  0  0  0  0  0  0  0  0  0
  151.0538  141.8597  155.3114 H   0  0  0  0  0  0  0  0  0  0  0  0
  150.2992  143.7666  156.7902 H   0  0  0  0  0  0  0  0  0  0  0  0
  153.2315  144.4437  157.5984 H   0  0  0  0  0  0  0  0  0  0  0  0
  151.9746  145.6056  156.9275 H   0  0  0  0  0  0  0  0  0  0  0  0
  150.4715  145.1045  158.8777 H   0  0  0  0  0  0  0  0  0  0  0  0
  151.7333  143.9538  159.5531 H   0  0  0  0  0  0  0  0  0  0  0  0
  153.5283  141.9502  160.6913 H   0  0  0  0  0  0  0  0  0  0  0  0
  155.0497  141.2629  160.1388 H   0  0  0  0  0  0  0  0  0  0  0  0
  153.7073  140.2947  162.7022 H   0  0  0  0  0  0  0  0  0  0  0  0
  155.3740  140.0387  162.1925 H   0  0  0  0  0  0  0  0  0  0  0  0
  154.2178  141.3152  164.6512 H   0  0  0  0  0  0  0  0  0  0  0  0
  155.9533  141.1478  164.4187 H   0  0  0  0  0  0  0  0  0  0  0  0
  1  2  2  0  0  0  0
  2 19  1  0  0  0  0
  2  3  1  0  0  0  0
  3 20  1  0  0  0  0
  3  4  2  0  0  0  0
  4  5  1  0  0  0  0
  4  8  1  0  0  0  0
  5  7  1  0  0  0  0
  5  6  1  0  0  0  0
  5 21  1  0  0  0  0
  6  7  1  0  0  0  0
  6 22  1  0  0  0  0
  6 23  1  0  0  0  0
  7 24  1  0  0  0  0
  7 25  1  0  0  0  0
  8  9  2  0  0  0  0
  9 10  1  0  0  0  0
  9 19  1  0  0  0  0
 10 11  1  0  0  0  0
 11 12  1  0  0  0  0
 11 26  1  0  0  0  0
 11 27  1  0  0  0  0
 12 13  1  0  0  0  0
 12 28  1  0  0  0  0
 12 29  1  0  0  0  0
 13 14  1  0  0  0  0
 14 15  1  0  0  0  0
 14 30  1  0  0  0  0
 14 31  1  0  0  0  0
 15 16  1  0  0  0  0
 15 17  1  0  0  0  0
 15 18  1  0  0  0  0
M  CHG  1  19  -1
M  END
> <s_m_source_file>
AV-unprocessed.smi

> <i_m_source_file_index>
2760

> <i_lp_mmshare_version>
43012

> <i_f3d_flags>
0

> <s_epik_input>
W09IXWMxW2NIXWMoW0NIXTJbQ0gyXVtDSDJdMiluYyhuMSlTW0NIMl1bQ0gyXU9bQ0gyXUMoRikoRilG

> <s_epik_cmdline>
J2VwaWtfcHl0aG9uJywgJy1waCcsICc3LjAnLCAnLXRuJywgJzgnLCAnLW1hJywgJzIwMCcsICctbWV0YWxfYmluZGluZycsICctaW1hZScsICc8aW5maWxlLm1hZT4nLCAnLW9tYWUnLCAnPG91dGZpbGUubWFlPic=

> <r_lp_tautomer_probability>
1

> <r_epik_Ionization_Penalty>
4.02042

> <r_epik_Ionization_Penalty_Charging>
0.00362968

> <r_epik_Ionization_Penalty_Neutral>
4.01679

> <r_epik_State_Penalty>
2.30798

> <r_epik_Charging_Adjusted_Penalty>
2.31161

> <i_epik_Tot_Q>
-1

> <i_epik_Tot_abs_Q>
1

> <r_epik_Metal_State_Penalty>
0.234281

> <b_epik_Metal_Only>
0

> <s_lp_Force_Field>
OPLS_2005

> <r_lp_Energy>
16.4735

> <b_lp_Chiralities_Consistent>
1

> <s_lp_Variant>
AV-unprocessed.smi:2760-3

> <Gold.Version>
5.8.1

> <Gold.Id.Protein>
6NUR|6NUR_protein|mol2

> <Gold.PLP.Fitness>
46.6080

> <Gold.PLP.PLP>
-39.7496

> <Gold.PLP.part.hbond>
-2.6364

> <Gold.PLP.part.metal>
0.0000

> <Gold.PLP.part.buried>
-3.6474

> <Gold.PLP.part.nonpolar>
-31.9752

> <Gold.PLP.part.repulsive>
0.0161

> <Gold.PLP.ligand.clash>
0.0000

> <Gold.PLP.ligand.torsion>
1.0940

> <Gold.PLP.Chemscore.Hbond>
2.9440

> <Gold.PLP.Chemscore.CHOScore>
0.0000

> <Gold.PLP.Chemscore.Metal>
0.0000

> <Gold.Chemscore.Hbonds>
donor molecule, donor type, donor heavy atom, donor atom, acceptor molecule, acceptor atom, score
      P1  H  7989  7998       L1     1  0.47
      P1  H  7997  8009       L1    19  0.53

> <Gold.PLP.Chemscore.Internal.Correction>
0.2144

> <Gold.Rescore>
     Score         DG    S(hbond)    S(metal)    S(lipo)     H(rot)  DE(clash)    DE(int)     intcor
     10.55     -12.39       0.83        0.00      89.57       2.48       1.11       0.73       ----

> <Gold.Chemscore.Fitness>
10.5461

> <Gold.Chemscore.DG>
-12.3893

> <Gold.Chemscore.ZeroCoef>
-5.4800

> <Gold.Chemscore.Hbond>
0.8343

> <Gold.Chemscore.Metal>
0.0000

> <Gold.Chemscore.Lipo>
89.5716

> <Gold.Chemscore.Internal_Hbond>
0.0000

> <Gold.Chemscore.DEClash>
1.1090

> <Gold.Chemscore.DEInternal>
0.7342

> <Gold.Chemscore.Rot>
2.4833

> <Gold.Chemscore.Internal.Correction>
   9.000000E+99

> <Gold.Chemscore.Hbonds>
donor molecule, donor type, donor heavy atom, donor atom, acceptor molecule, acceptor atom, score
      P1  H  7989  7998       L1     1  0.23

> <Gold.Chemscore.Hbond.Weighted>
-2.7866

> <Gold.Chemscore.Metal.Weighted>
-0.0000

> <Gold.Chemscore.Lipo.Weighted>
-10.4799

> <Gold.Chemscore.Internal_Hbond.Weighted>
0.0000

> <Gold.Chemscore.DEClash.Weighted>
1.1090

> <Gold.Chemscore.DEInternal.Weighted>
0.7342

> <Gold.Chemscore.Rot.Weighted>
6.3572

> <Gold.Chemscore.Internal.Correction.Weighted>
   9.000000E+99

> <Gold.Protein.RotatedTorsions>
[ 6907 6896 6895 6894 ] final  -37.83 input  -60.11 | X-H torsion
[ 7974 7965 7964 7962 ] final   66.39 input  175.53 | X-H torsion
[ 8008 7997 7996 7995 ] final  172.08 input   59.86 | X-H torsion
[ 10167 10162 10161 10158 ] final   33.79 input  -65.29 | X-H torsion
[ 10718 10713 10712 10709 ] final  -90.10 input   66.30 | X-H torsion
[ 10763 10752 10751 10750 ] final -149.97 input  -60.55 | X-H torsion
[ 11005 11000 10999 10996 ] final  126.48 input  -57.11 | X-H torsion

> <Gold.Protein.ActiveResidues>
 VAL166  LYS551  ARG553  GLY616  TRP617  ASP618  TYR619  PRO620  LYS621  CYS622 
 ASP623  PHE694  ASN695  SER759  ASP760  ASP761  ALA762  ILE779  LEU786  VAL792 
 PHE793  MET794  SER795  GLU796  ALA797  LYS798  CYS799  TRP800  GLU811  SER814 

> <Gold.Protein.RotatedAtoms>
  151.0099  134.9389  159.8001 H   0  0  0  0  0  0  0  0  0  0  0  0  # atno 6907 bound_to 6896
  152.5300  134.3042  159.9099 H   0  0  0  0  0  0  0  0  0  0  0  0  # atno 6908 bound_to 6896
  151.3048  133.4065  159.2676 H   0  0  0  0  0  0  0  0  0  0  0  0  # atno 6909 bound_to 6896
  145.8271  139.3118  143.1009 H   0  0  0  0  0  0  0  0  0  0  0  0  # atno 7974 bound_to 7965
  156.1210  140.1495  156.9205 H   0  0  0  0  0  0  0  0  0  0  0  0  # atno 8008 bound_to 7997
  154.4835  140.0872  156.7475 H   0  0  0  0  0  0  0  0  0  0  0  0  # atno 8009 bound_to 7997
  155.4429  140.3431  155.4294 H   0  0  0  0  0  0  0  0  0  0  0  0  # atno 8010 bound_to 7997
  140.4375  144.1236  150.6168 H   0  0  0  0  0  0  0  0  0  0  0  0  # atno 10167 bound_to 10162
  155.9986  130.4897  150.5272 H   0  0  0  0  0  0  0  0  0  0  0  0  # atno 10718 bound_to 10713
  154.8146  135.3296  154.7211 H   0  0  0  0  0  0  0  0  0  0  0  0  # atno 10763 bound_to 10752
  153.7854  135.6915  153.4885 H   0  0  0  0  0  0  0  0  0  0  0  0  # atno 10764 bound_to 10752
  153.1952  135.4536  155.0146 H   0  0  0  0  0  0  0  0  0  0  0  0  # atno 10765 bound_to 10752
  139.9458  134.9630  156.8713 H   0  0  0  0  0  0  0  0  0  0  0  0  # atno 11005 bound_to 11000
  145.9611  140.8835  143.0210 LP  0  0  0  0  0  0  0  0  0  0  0  0  # atno 17320 bound_to 7965
  144.6742  140.1814  143.7405 LP  0  0  0  0  0  0  0  0  0  0  0  0  # atno 17321 bound_to 7965
  140.4357  143.2548  151.9539 LP  0  0  0  0  0  0  0  0  0  0  0  0  # atno 17342 bound_to 10162
  139.4788  144.5702  151.8100 LP  0  0  0  0  0  0  0  0  0  0  0  0  # atno 17343 bound_to 10162
  157.3226  131.0684  151.1921 LP  0  0  0  0  0  0  0  0  0  0  0  0  # atno 17370 bound_to 10713
  157.2829  130.6759  149.6075 LP  0  0  0  0  0  0  0  0  0  0  0  0  # atno 17371 bound_to 10713
  140.5838  134.0327  155.7474 LP  0  0  0  0  0  0  0  0  0  0  0  0  # atno 17394 bound_to 11000
  141.1108  133.9620  157.2914 LP  0  0  0  0  0  0  0  0  0  0  0  0  # atno 17395 bound_to 11000

$$$$
