#       Name:                AV-unprocessed.smi:457
#       Creating user name   scv26
#       Creation time:       Thu Mar 26 23:02:04 2020


#       File generated by GOLD software.
#

@<TRIPOS>MOLECULE
AV-unprocessed.smi:457
    47    47     1
SMALL
NO_CHARGES


@<TRIPOS>ATOM
      1 ****        -4.3794  -2.8412   0.5957 C.3            1 S1                 0.0000
      2 ****        -3.4442  -1.6360   0.7328 C.3            1 S1                 0.0000
      3 ****        -3.1300  -0.9825  -0.6236 C.3            1 S1                 0.0000
      4 ****        -2.2277   0.1456  -0.5051 N.am           1 S1                 0.0000
      5 ****        -0.8370   0.0407  -0.6001 C.2            1 S1                 0.0000
      6 ****        -0.2859  -1.2163  -0.7962 N.pl3          1 S1                 0.0000
      7 ****        -0.0211   1.1280  -0.4773 C.2            1 S1                 0.0000
      8 ****         1.3666   1.0567  -0.5712 N.pl3          1 S1                 0.0000
      9 ****         2.0421  -0.2166  -0.8121 C.3            1 S1                 0.0000
     10 ****         2.5603  -0.3381  -2.2513 C.3            1 S1                 0.0000
     11 ****         2.2011   2.2431  -0.3877 C.3            1 S1                 0.0000
     12 ****         2.8273   2.3095   1.0126 C.3            1 S1                 0.0000
     13 ****         3.5887   3.5004   1.1164 O.3            1 S1                 0.0000
     14 ****         4.1932   3.6488   2.3892 C.3            1 S1                 0.0000
     15 ****        -0.5897   2.4600  -0.2386 C.2            1 S1                 0.0000
     16 ****         0.0504   3.5058  -0.1331 O.2            1 S1                 0.0000
     17 ****        -1.9775   2.4955  -0.1276 N.am           1 S1                 0.0000
     18 ****        -2.8262   1.3999  -0.2376 C.2            1 S1                 0.0000
     19 ****        -4.0397   1.5592  -0.0998 O.2            1 S1                 0.0000
     20 ****        -2.4032   3.3933   0.0517 H              1 S1                 0.0000
     21 ****        -4.5874  -3.2844   1.5698 H              1 S1                 0.0000
     22 ****        -3.9364  -3.6131  -0.0340 H              1 S1                 0.0000
     23 ****        -5.3321  -2.5511   0.1518 H              1 S1                 0.0000
     24 ****        -3.9011  -0.9048   1.4005 H              1 S1                 0.0000
     25 ****        -2.5169  -1.9526   1.2113 H              1 S1                 0.0000
     26 ****        -2.6676  -1.6906  -1.3105 H              1 S1                 0.0000
     27 ****        -4.0323  -0.6419  -1.1349 H              1 S1                 0.0000
     28 ****        -0.8645  -2.0406  -0.8698 H              1 S1                 0.0000
     29 ****         0.7047  -1.3477  -0.9411 H              1 S1                 0.0000
     30 ****         2.8669  -0.3422  -0.1113 H              1 S1                 0.0000
     31 ****         1.3522  -1.0378  -0.6133 H              1 S1                 0.0000
     32 ****         3.0158  -1.3146  -2.4157 H              1 S1                 0.0000
     33 ****         3.3142   0.4160  -2.4763 H              1 S1                 0.0000
     34 ****         1.7488  -0.2257  -2.9709 H              1 S1                 0.0000
     35 ****         2.9857   2.2648  -1.1438 H              1 S1                 0.0000
     36 ****         1.6025   3.1399  -0.5535 H              1 S1                 0.0000
     37 ****         2.0439   2.3026   1.7721 H              1 S1                 0.0000
     38 ****         3.4696   1.4467   1.1919 H              1 S1                 0.0000
     39 ****         4.7682   4.5744   2.4156 H              1 S1                 0.0000
     40 ****         4.8744   2.8234   2.6017 H              1 S1                 0.0000
     41 ****         3.4423   3.6957   3.1791 H              1 S1                 0.0000
     42 ****         2.9858   4.2816   0.9546 LP             1 S1                 0.0000
     43 ****         4.3066   3.4837   0.4204 LP             1 S1                 0.0000
     44 ****         1.0473   3.4918  -0.2103 LP             1 S1                 0.0000
     45 ****        -0.4264   4.3696   0.0299 LP             1 S1                 0.0000
     46 ****        -4.6584   0.7773  -0.1760 LP             1 S1                 0.0000
     47 ****        -4.4062   2.4704   0.0883 LP             1 S1                 0.0000
@<TRIPOS>BOND
    1    1    2 1     
    2    1   21 1     
    3    1   22 1     
    4    1   23 1     
    5    2    3 1     
    6    2   24 1     
    7    2   25 1     
    8    3    4 1     
    9    3   26 1     
   10    3   27 1     
   11    4   18 1     
   12    4    5 1     
   13    5    6 1     
   14    5    7 2     
   15    6   28 1     
   16    6   29 1     
   17    7    8 1     
   18    7   15 1     
   19    8    9 1     
   20    8   11 1     
   21    9   10 1     
   22    9   30 1     
   23    9   31 1     
   24   10   32 1     
   25   10   33 1     
   26   10   34 1     
   27   11   12 1     
   28   11   35 1     
   29   11   36 1     
   30   12   13 1     
   31   12   37 1     
   32   12   38 1     
   33   13   14 1     
   34   14   39 1     
   35   14   40 1     
   36   14   41 1     
   37   15   16 2     
   38   15   17 1     
   39   17   20 1     
   40   17   18 1     
   41   18   19 2     
   42   13   42 1     
   43   13   43 1     
   44   16   44 1     
   45   16   45 1     
   46   19   46 1     
   47   19   47 1     
@<TRIPOS>SUBSTRUCTURE
      1 S1             1
@<TRIPOS>SET
LONE_PAIRS      STATIC     ATOMS    <user>   **** ""
6 42 43 44 45 46 47
DONOR_HYDROGENS      STATIC     ATOMS    <user>   **** ""
3 28 29 20
ATOM$BLUE        STATIC     ATOMS    COLORGROUP SYSTEM
6 42 43 44 45 46 47
ATOM$RED        STATIC     ATOMS    COLORGROUP SYSTEM
3 28 29 20
