AV-unprocessed.smi:253|AV-procd|sdf|1944|dock3
  -GOLD-   2262021 73D 1   1.00000     0.00000
 Structure written by MMmdl.
 52 54  0  0  0  0  0  0  0  0  1 V2000
  150.9487  141.1430  156.7811 C   0  0  0  0  0  0  0  0  0  0  0  0
  151.0163  139.7560  156.1297 C   0  0  0  0  0  0  0  0  0  0  0  0
  149.7433  139.3891  155.5222 N   0  0  0  0  0  0  0  0  0  0  0  0
  149.1076  140.0877  154.5661 C   0  0  0  0  0  0  0  0  0  0  0  0
  149.5524  141.1359  154.0997 O   0  0  0  0  0  0  0  0  0  0  0  0
  147.7669  139.5493  154.0434 C   0  0  0  0  0  0  0  0  0  0  0  0
  146.7298  139.4162  155.0769 N   0  0  0  0  0  0  0  0  0  0  0  0
  146.4616  140.5670  155.9404 C   0  0  0  0  0  0  0  0  0  0  0  0
  146.4715  141.9100  155.1913 C   0  0  0  0  0  0  0  0  0  0  0  0
  145.7292  138.5508  154.7733 C   0  0  0  0  0  0  0  0  0  0  0  0
  144.7557  138.3809  155.7044 N   0  0  0  0  0  0  0  0  0  0  0  0
  143.7395  137.5453  155.4739 C   0  0  0  0  0  0  0  0  0  0  0  0
  143.5105  136.7876  154.4003 N   0  0  0  0  0  0  0  0  0  0  0  0
  144.4937  136.9402  153.4678 C   0  0  0  0  0  0  0  0  0  0  0  0
  145.6308  137.7920  153.5704 C   0  0  0  0  0  0  0  0  0  0  0  0
  146.4136  137.6653  152.4280 N   0  0  0  0  0  0  0  0  0  0  0  0
  145.7727  136.7998  151.6915 C   0  0  0  0  0  0  0  0  0  0  0  0
  144.6118  136.3080  152.2424 N   0  0  0  0  0  0  0  0  0  0  0  0
  143.7097  135.3332  151.6479 C   0  0  0  0  0  0  0  0  0  0  0  0
  144.2462  133.8806  151.6796 C   0  0  0  0  0  0  0  0  0  0  0  0
  144.1963  133.4343  153.0241 O   0  0  0  0  0  0  0  0  0  0  0  0
  143.4068  132.9154  150.8138 C   0  0  0  0  0  0  0  0  0  0  0  0
  144.0638  131.5293  150.6884 C   0  0  0  0  0  0  0  0  0  0  0  0
  145.3893  131.6588  150.1888 O   0  0  0  0  0  0  0  0  0  0  0  0
  146.2356  132.3983  151.0603 C   0  0  0  0  0  0  0  0  0  0  0  0
  145.7127  133.8385  151.2055 C   0  0  0  0  0  0  0  0  0  0  0  0
  151.8940  141.3900  157.2643 H   0  0  0  0  0  0  0  0  0  0  0  0
  150.1667  141.1842  157.5398 H   0  0  0  0  0  0  0  0  0  0  0  0
  150.7417  141.9182  156.0430 H   0  0  0  0  0  0  0  0  0  0  0  0
  151.8152  139.7223  155.3875 H   0  0  0  0  0  0  0  0  0  0  0  0
  151.2609  139.0069  156.8827 H   0  0  0  0  0  0  0  0  0  0  0  0
  149.3113  138.5354  155.8463 H   0  0  0  0  0  0  0  0  0  0  0  0
  147.4134  140.2206  153.2595 H   0  0  0  0  0  0  0  0  0  0  0  0
  147.9498  138.5928  153.5496 H   0  0  0  0  0  0  0  0  0  0  0  0
  145.4750  140.4355  156.3866 H   0  0  0  0  0  0  0  0  0  0  0  0
  147.1637  140.5843  156.7735 H   0  0  0  0  0  0  0  0  0  0  0  0
  146.1949  142.7240  155.8615 H   0  0  0  0  0  0  0  0  0  0  0  0
  145.7568  141.9028  154.3680 H   0  0  0  0  0  0  0  0  0  0  0  0
  147.4525  142.1477  154.7808 H   0  0  0  0  0  0  0  0  0  0  0  0
  143.0052  137.4733  156.2626 H   0  0  0  0  0  0  0  0  0  0  0  0
  146.1351  136.4876  150.7228 H   0  0  0  0  0  0  0  0  0  0  0  0
  142.7561  135.3908  152.1745 H   0  0  0  0  0  0  0  0  0  0  0  0
  143.5054  135.6397  150.6210 H   0  0  0  0  0  0  0  0  0  0  0  0
  143.3712  132.9954  153.1640 H   0  0  0  0  0  0  0  0  0  0  0  0
  142.3985  132.8067  151.2155 H   0  0  0  0  0  0  0  0  0  0  0  0
  143.2941  133.3362  149.8139 H   0  0  0  0  0  0  0  0  0  0  0  0
  144.0738  131.0102  151.6478 H   0  0  0  0  0  0  0  0  0  0  0  0
  143.4898  130.9075  150.0012 H   0  0  0  0  0  0  0  0  0  0  0  0
  146.3013  131.9029  152.0300 H   0  0  0  0  0  0  0  0  0  0  0  0
  147.2430  132.4090  150.6438 H   0  0  0  0  0  0  0  0  0  0  0  0
  145.7915  134.3313  150.2355 H   0  0  0  0  0  0  0  0  0  0  0  0
  146.3523  134.4021  151.8861 H   0  0  0  0  0  0  0  0  0  0  0  0
  1  2  1  0  0  0  0
  1 27  1  0  0  0  0
  1 28  1  0  0  0  0
  1 29  1  0  0  0  0
  2  3  1  0  0  0  0
  2 30  1  0  0  0  0
  2 31  1  0  0  0  0
  3  4  1  0  0  0  0
  3 32  1  0  0  0  0
  4  5  2  0  0  0  0
  4  6  1  0  0  0  0
  6  7  1  0  0  0  0
  6 33  1  0  0  0  0
  6 34  1  0  0  0  0
  7  8  1  0  0  0  0
  7 10  1  0  0  0  0
  8  9  1  0  0  0  0
  8 35  1  0  0  0  0
  8 36  1  0  0  0  0
  9 37  1  0  0  0  0
  9 38  1  0  0  0  0
  9 39  1  0  0  0  0
 10 15  1  0  0  0  0
 10 11  2  0  0  0  0
 11 12  1  0  0  0  0
 12 13  2  0  0  0  0
 12 40  1  0  0  0  0
 13 14  1  0  0  0  0
 14 18  1  0  0  0  0
 14 15  2  0  0  0  0
 15 16  1  0  0  0  0
 16 17  2  0  0  0  0
 17 18  1  0  0  0  0
 17 41  1  0  0  0  0
 18 19  1  0  0  0  0
 19 20  1  0  0  0  0
 19 42  1  0  0  0  0
 19 43  1  0  0  0  0
 20 26  1  0  0  0  0
 20 21  1  0  0  0  0
 20 22  1  0  0  0  0
 21 44  1  0  0  0  0
 22 23  1  0  0  0  0
 22 45  1  0  0  0  0
 22 46  1  0  0  0  0
 23 24  1  0  0  0  0
 23 47  1  0  0  0  0
 23 48  1  0  0  0  0
 24 25  1  0  0  0  0
 25 26  1  0  0  0  0
 25 49  1  0  0  0  0
 25 50  1  0  0  0  0
 26 51  1  0  0  0  0
 26 52  1  0  0  0  0
M  END
> <s_m_source_file>
AV-unprocessed.smi

> <i_m_source_file_index>
253

> <i_lp_mmshare_version>
43012

> <i_f3d_flags>
0

> <s_epik_input>
W0NIM11bQ0gyXVtOSF1DKD1PKVtDSDJdTihbQ0gyXVtDSDNdKWMobltjSF1uMSljKGMxMiluW2NIXW4yW0NIMl1DMyhbT0hdKVtDSDJdW0NIMl1PW0NIMl1bQ0gyXTM=

> <s_epik_cmdline>
J2VwaWtfcHl0aG9uJywgJy1waCcsICc3LjAnLCAnLXRuJywgJzgnLCAnLW1hJywgJzIwMCcsICctbWV0YWxfYmluZGluZycsICctaW1hZScsICc8aW5maWxlLm1hZT4nLCAnLW9tYWUnLCAnPG91dGZpbGUubWFlPic=

> <r_lp_tautomer_probability>
1

> <r_epik_Ionization_Penalty>
0.000710585

> <r_epik_Ionization_Penalty_Charging>
0

> <r_epik_Ionization_Penalty_Neutral>
0.000710585

> <r_epik_State_Penalty>
0.000343566

> <r_epik_Charging_Adjusted_Penalty>
0.000343566

> <i_epik_Tot_Q>
0

> <i_epik_Tot_abs_Q>
0

> <r_epik_Metal_State_Penalty>
-0

> <b_epik_Metal_Only>
0

> <s_lp_Force_Field>
OPLS_2005

> <r_lp_Energy>
18.5015

> <b_lp_Chiralities_Consistent>
1

> <s_lp_Variant>
AV-unprocessed.smi:253-1

> <Gold.Version>
5.8.1

> <Gold.Id.Protein>
6NUR|6NUR_protein|mol2

> <Gold.PLP.Fitness>
39.4527

> <Gold.PLP.PLP>
-35.0954

> <Gold.PLP.part.hbond>
-3.0000

> <Gold.PLP.part.metal>
0.0000

> <Gold.PLP.part.buried>
-5.2009

> <Gold.PLP.part.nonpolar>
-28.9384

> <Gold.PLP.part.repulsive>
1.2588

> <Gold.PLP.ligand.clash>
0.0000

> <Gold.PLP.ligand.torsion>
0.8623

> <Gold.PLP.Chemscore.Hbond>
1.6947

> <Gold.PLP.Chemscore.CHOScore>
0.0084

> <Gold.PLP.Chemscore.Metal>
0.0000

> <Gold.Chemscore.Hbonds>
donor molecule, donor type, donor heavy atom, donor atom, acceptor molecule, acceptor atom, score
      L1  H    21    44       P1 10957  0.46
      P1  H  7989  7998       L1     5  0.28
      P1  H  8011  8017       L1     5  0.48

> <Gold.PLP.Chemscore.Internal.Correction>
0.9724

> <Gold.Rescore>
     Score         DG    S(hbond)    S(metal)    S(lipo)     H(rot)  DE(clash)    DE(int)     intcor
      9.14     -11.98       1.97        0.00      65.24       3.01       0.47       2.38       ----

> <Gold.Chemscore.Fitness>
9.1362

> <Gold.Chemscore.DG>
-11.9841

> <Gold.Chemscore.ZeroCoef>
-5.4800

> <Gold.Chemscore.Hbond>
1.9710

> <Gold.Chemscore.Metal>
0.0000

> <Gold.Chemscore.Lipo>
65.2387

> <Gold.Chemscore.Internal_Hbond>
0.0000

> <Gold.Chemscore.DEClash>
0.4703

> <Gold.Chemscore.DEInternal>
2.3776

> <Gold.Chemscore.Rot>
3.0125

> <Gold.Chemscore.Internal.Correction>
   9.000000E+99

> <Gold.Chemscore.Hbonds>
donor molecule, donor type, donor heavy atom, donor atom, acceptor molecule, acceptor atom, score
      L1  H    21    44       P1 10957  0.30
      P1  H  7989  7998       L1     5  0.22
      P1  H  8011  8017       L1     5  0.48

> <Gold.Chemscore.Hbond.Weighted>
-6.5832

> <Gold.Chemscore.Metal.Weighted>
-0.0000

> <Gold.Chemscore.Lipo.Weighted>
-7.6329

> <Gold.Chemscore.Internal_Hbond.Weighted>
0.0000

> <Gold.Chemscore.DEClash.Weighted>
0.4703

> <Gold.Chemscore.DEInternal.Weighted>
2.3776

> <Gold.Chemscore.Rot.Weighted>
7.7120

> <Gold.Chemscore.Internal.Correction.Weighted>
   9.000000E+99

> <Gold.Protein.RotatedTorsions>
[ 6907 6896 6895 6894 ] final   61.92 input  -60.11 | X-H torsion
[ 7974 7965 7964 7962 ] final  156.52 input  175.53 | X-H torsion
[ 8008 7997 7996 7995 ] final   39.69 input   59.86 | X-H torsion
[ 10167 10162 10161 10158 ] final   64.67 input  -65.29 | X-H torsion
[ 10718 10713 10712 10709 ] final  164.67 input   66.30 | X-H torsion
[ 10763 10752 10751 10750 ] final  -57.41 input  -60.55 | X-H torsion
[ 11005 11000 10999 10996 ] final   32.83 input  -57.11 | X-H torsion

> <Gold.Protein.ActiveResidues>
 VAL166  LYS551  ARG553  GLY616  TRP617  ASP618  TYR619  PRO620  LYS621  CYS622 
 ASP623  PHE694  ASN695  SER759  ASP760  ASP761  ALA762  ILE779  LEU786  VAL792 
 PHE793  MET794  SER795  GLU796  ALA797  LYS798  CYS799  TRP800  GLU811  SER814 

> <Gold.Protein.RotatedAtoms>
  152.4129  134.6092  160.0020 H   0  0  0  0  0  0  0  0  0  0  0  0  # atno 6907 bound_to 6896
  151.6264  133.3329  159.3107 H   0  0  0  0  0  0  0  0  0  0  0  0  # atno 6908 bound_to 6896
  150.8019  134.7159  159.6675 H   0  0  0  0  0  0  0  0  0  0  0  0  # atno 6909 bound_to 6896
  144.7958  139.7215  143.6202 H   0  0  0  0  0  0  0  0  0  0  0  0  # atno 7974 bound_to 7965
  155.2407  140.3345  155.4292 H   0  0  0  0  0  0  0  0  0  0  0  0  # atno 8008 bound_to 7997
  156.2257  140.1828  156.7414 H   0  0  0  0  0  0  0  0  0  0  0  0  # atno 8009 bound_to 7997
  154.5895  140.0640  156.9203 H   0  0  0  0  0  0  0  0  0  0  0  0  # atno 8010 bound_to 7997
  140.1196  144.4743  150.6928 H   0  0  0  0  0  0  0  0  0  0  0  0  # atno 10167 bound_to 10162
  157.0911  131.0418  151.2537 H   0  0  0  0  0  0  0  0  0  0  0  0  # atno 10718 bound_to 10713
  154.2219  135.6376  153.5147 H   0  0  0  0  0  0  0  0  0  0  0  0  # atno 10763 bound_to 10752
  152.9967  135.5499  154.6105 H   0  0  0  0  0  0  0  0  0  0  0  0  # atno 10764 bound_to 10752
  154.5567  135.2906  155.0932 H   0  0  0  0  0  0  0  0  0  0  0  0  # atno 10765 bound_to 10752
  140.2694  134.3100  155.7832 H   0  0  0  0  0  0  0  0  0  0  0  0  # atno 11005 bound_to 11000
  146.2225  139.5662  142.9609 LP  0  0  0  0  0  0  0  0  0  0  0  0  # atno 17320 bound_to 7965
  145.5677  141.0397  143.2191 LP  0  0  0  0  0  0  0  0  0  0  0  0  # atno 17321 bound_to 7965
  140.6879  143.2360  151.5210 LP  0  0  0  0  0  0  0  0  0  0  0  0  # atno 17342 bound_to 10162
  139.5575  144.2238  152.1637 LP  0  0  0  0  0  0  0  0  0  0  0  0  # atno 17343 bound_to 10162
  157.4720  130.7714  149.7333 LP  0  0  0  0  0  0  0  0  0  0  0  0  # atno 17370 bound_to 10713
  155.9898  130.3949  150.3057 LP  0  0  0  0  0  0  0  0  0  0  0  0  # atno 17371 bound_to 10713
  141.2179  133.7457  156.9310 LP  0  0  0  0  0  0  0  0  0  0  0  0  # atno 17394 bound_to 11000
  140.1388  134.9307  157.2438 LP  0  0  0  0  0  0  0  0  0  0  0  0  # atno 17395 bound_to 11000

$$$$
