AV-unprocessed.smi:3239|AV-procd|sdf|12380|dock3
  -GOLD-   2272018243D 1   1.00000     0.00000
 Structure written by MMmdl.
 35 35  0  0  0  0  0  0  0  0  1 V2000
  151.7476  145.4551  160.0780 C   0  0  0  0  0  0  0  0  0  0  0  0
  152.0910  144.3056  159.8507 C   0  0  0  0  0  0  0  0  0  0  0  0
  152.4989  142.9210  159.5589 C   0  0  0  0  0  0  0  0  0  0  0  0
  151.7965  142.3592  158.4108 N   0  0  0  0  0  0  0  0  0  0  0  0
  152.1123  141.2074  157.7943 C   0  0  0  0  0  0  0  0  0  0  0  0
  153.0385  140.4777  158.1491 O   0  0  0  0  0  0  0  0  0  0  0  0
  151.2099  140.8081  156.6626 C   0  0  0  0  0  0  0  0  0  0  0  0
  149.9234  141.3703  156.5018 C   0  0  0  0  0  0  0  0  0  0  0  0
  149.1334  140.9709  155.4064 C   0  0  0  0  0  0  0  0  0  0  0  0
  149.6547  140.0265  154.4982 C   0  0  0  0  0  0  0  0  0  0  0  0
  148.8617  139.6388  153.4076 N   0  0  0  0  0  0  0  0  0  0  0  0
  147.4107  139.5157  153.5076 C   0  0  1  0  0  0  0  0  0  0  0  0
  146.8171  138.9511  152.2047 C   0  0  0  0  0  0  0  0  0  0  0  0
  147.0416  138.6440  154.7183 C   0  0  0  0  0  0  0  0  0  0  0  0
  145.6303  138.5789  154.8411 O   0  0  0  0  0  0  0  0  0  0  0  0
  145.0780  137.4548  154.1790 C   0  0  0  0  0  0  0  0  0  0  0  0
  150.8911  139.4939  154.6394 N   0  0  0  0  0  0  0  0  0  0  0  0
  151.6444  139.8798  155.6913 C   0  0  0  0  0  0  0  0  0  0  0  0
  151.4448  146.4592  160.2740 H   0  0  0  0  0  0  0  0  0  0  0  0
  153.5690  142.9230  159.3515 H   0  0  0  0  0  0  0  0  0  0  0  0
  152.3468  142.3148  160.4532 H   0  0  0  0  0  0  0  0  0  0  0  0
  151.0025  142.8786  158.0662 H   0  0  0  0  0  0  0  0  0  0  0  0
  149.5384  142.0999  157.1994 H   0  0  0  0  0  0  0  0  0  0  0  0
  148.1462  141.3872  155.2678 H   0  0  0  0  0  0  0  0  0  0  0  0
  149.2868  139.5515  152.4960 H   0  0  0  0  0  0  0  0  0  0  0  0
  146.9913  140.5068  153.6845 H   0  0  0  0  0  0  0  0  0  0  0  0
  145.7308  138.8814  152.2656 H   0  0  0  0  0  0  0  0  0  0  0  0
  147.2018  137.9530  151.9934 H   0  0  0  0  0  0  0  0  0  0  0  0
  147.0524  139.5848  151.3494 H   0  0  0  0  0  0  0  0  0  0  0  0
  147.4618  137.6422  154.6115 H   0  0  0  0  0  0  0  0  0  0  0  0
  147.4587  139.0780  155.6289 H   0  0  0  0  0  0  0  0  0  0  0  0
  143.9954  137.4505  154.3058 H   0  0  0  0  0  0  0  0  0  0  0  0
  145.4686  136.5232  154.5903 H   0  0  0  0  0  0  0  0  0  0  0  0
  145.2915  137.4830  153.1097 H   0  0  0  0  0  0  0  0  0  0  0  0
  152.6225  139.4255  155.7559 H   0  0  0  0  0  0  0  0  0  0  0  0
  1  2  3  0  0  0  0
  1 19  1  0  0  0  0
  2  3  1  0  0  0  0
  3  4  1  0  0  0  0
  3 20  1  0  0  0  0
  3 21  1  0  0  0  0
  4  5  1  0  0  0  0
  4 22  1  0  0  0  0
  5  6  2  0  0  0  0
  5  7  1  0  0  0  0
  7 18  1  0  0  0  0
  7  8  2  0  0  0  0
  8  9  1  0  0  0  0
  8 23  1  0  0  0  0
  9 10  2  0  0  0  0
  9 24  1  0  0  0  0
 10 11  1  0  0  0  0
 10 17  1  0  0  0  0
 11 12  1  0  0  0  0
 11 25  1  0  0  0  0
 12 13  1  0  0  0  0
 12 14  1  0  0  0  0
 12 26  1  0  0  0  0
 13 27  1  0  0  0  0
 13 28  1  0  0  0  0
 13 29  1  0  0  0  0
 14 15  1  0  0  0  0
 14 30  1  0  0  0  0
 14 31  1  0  0  0  0
 15 16  1  0  0  0  0
 16 32  1  0  0  0  0
 16 33  1  0  0  0  0
 16 34  1  0  0  0  0
 17 18  2  0  0  0  0
 18 35  1  0  0  0  0
M  END
> <s_m_source_file>
AV-unprocessed.smi

> <i_m_source_file_index>
3239

> <i_lp_mmshare_version>
43012

> <i_f3d_flags>
0

> <s_epik_input>
W0NIXSNDW0NIMl1bTkhdQyg9TyljMVtjSF1bY0hdYyhuW2NIXTEpW05IXVtDQEhdKFtDSDNdKVtDSDJdT1tDSDNd

> <s_epik_cmdline>
J2VwaWtfcHl0aG9uJywgJy1waCcsICc3LjAnLCAnLXRuJywgJzgnLCAnLW1hJywgJzIwMCcsICctbWV0YWxfYmluZGluZycsICctaW1hZScsICc8aW5maWxlLm1hZT4nLCAnLW9tYWUnLCAnPG91dGZpbGUubWFlPic=

> <r_lp_tautomer_probability>
1

> <r_epik_Ionization_Penalty>
0.00321854

> <r_epik_Ionization_Penalty_Charging>
0

> <r_epik_Ionization_Penalty_Neutral>
0.00321854

> <r_epik_State_Penalty>
0.00226446

> <r_epik_Charging_Adjusted_Penalty>
0.00226446

> <i_epik_Tot_Q>
0

> <i_epik_Tot_abs_Q>
0

> <r_epik_Metal_State_Penalty>
-0

> <b_epik_Metal_Only>
0

> <s_lp_Force_Field>
OPLS_2005

> <r_lp_Energy>
6.06936

> <b_lp_Chiralities_Consistent>
1

> <s_lp_Variant>
AV-unprocessed.smi:3239-2

> <Gold.Version>
5.8.1

> <Gold.Id.Protein>
6NUR|6NUR_protein|mol2

> <Gold.PLP.Fitness>
40.0503

> <Gold.PLP.PLP>
-35.2458

> <Gold.PLP.part.hbond>
-2.6522

> <Gold.PLP.part.metal>
0.0000

> <Gold.PLP.part.buried>
-3.5204

> <Gold.PLP.part.nonpolar>
-29.0929

> <Gold.PLP.part.repulsive>
0.3621

> <Gold.PLP.ligand.clash>
0.0000

> <Gold.PLP.ligand.torsion>
0.7498

> <Gold.PLP.Chemscore.Hbond>
2.0668

> <Gold.PLP.Chemscore.CHOScore>
0.0000

> <Gold.PLP.Chemscore.Metal>
0.0000

> <Gold.Chemscore.Hbonds>
donor molecule, donor type, donor heavy atom, donor atom, acceptor molecule, acceptor atom, score
      L1  H    11    25       P1  7957  0.81
      P1  H  7989  7998       L1    17  0.36
      P1  H  7997  8010       L1     6  0.82

> <Gold.PLP.Chemscore.Internal.Correction>
0.1039

> <Gold.Rescore>
     Score         DG    S(hbond)    S(metal)    S(lipo)     H(rot)  DE(clash)    DE(int)     intcor
     15.78     -16.68       1.71        0.00      82.43       1.62       0.11       0.79       ----

> <Gold.Chemscore.Fitness>
15.7790

> <Gold.Chemscore.DG>
-16.6794

> <Gold.Chemscore.ZeroCoef>
-5.4800

> <Gold.Chemscore.Hbond>
1.7066

> <Gold.Chemscore.Metal>
0.0000

> <Gold.Chemscore.Lipo>
82.4273

> <Gold.Chemscore.Internal_Hbond>
0.0000

> <Gold.Chemscore.DEClash>
0.1078

> <Gold.Chemscore.DEInternal>
0.7926

> <Gold.Chemscore.Rot>
1.6190

> <Gold.Chemscore.Internal.Correction>
   9.000000E+99

> <Gold.Chemscore.Hbonds>
donor molecule, donor type, donor heavy atom, donor atom, acceptor molecule, acceptor atom, score
      L1  H    11    25       P1  7957  0.78
      P1  H  7997  8010       L1     6  0.79

> <Gold.Chemscore.Hbond.Weighted>
-5.7001

> <Gold.Chemscore.Metal.Weighted>
-0.0000

> <Gold.Chemscore.Lipo.Weighted>
-9.6440

> <Gold.Chemscore.Internal_Hbond.Weighted>
0.0000

> <Gold.Chemscore.DEClash.Weighted>
0.1078

> <Gold.Chemscore.DEInternal.Weighted>
0.7926

> <Gold.Chemscore.Rot.Weighted>
4.1447

> <Gold.Chemscore.Internal.Correction.Weighted>
   9.000000E+99

> <Gold.Protein.RotatedTorsions>
[ 6907 6896 6895 6894 ] final -170.18 input  -60.11 | X-H torsion
[ 7974 7965 7964 7962 ] final   29.01 input  175.53 | X-H torsion
[ 8008 7997 7996 7995 ] final   40.24 input   59.86 | X-H torsion
[ 10167 10162 10161 10158 ] final   18.13 input  -65.29 | X-H torsion
[ 10718 10713 10712 10709 ] final -117.51 input   66.30 | X-H torsion
[ 10763 10752 10751 10750 ] final -136.97 input  -60.55 | X-H torsion
[ 11005 11000 10999 10996 ] final   59.69 input  -57.11 | X-H torsion

> <Gold.Protein.ActiveResidues>
 VAL166  LYS551  ARG553  GLY616  TRP617  ASP618  TYR619  PRO620  LYS621  CYS622 
 ASP623  PHE694  ASN695  SER759  ASP760  ASP761  ALA762  ILE779  LEU786  VAL792 
 PHE793  MET794  SER795  GLU796  ALA797  LYS798  CYS799  TRP800  GLU811  SER814 

> <Gold.Protein.RotatedAtoms>
  151.5036  133.3499  159.2872 H   0  0  0  0  0  0  0  0  0  0  0  0  # atno 6907 bound_to 6896
  150.8757  134.8141  159.7199 H   0  0  0  0  0  0  0  0  0  0  0  0  # atno 6908 bound_to 6896
  152.4729  134.4927  159.9752 H   0  0  0  0  0  0  0  0  0  0  0  0  # atno 6909 bound_to 6896
  146.1696  139.6979  142.8977 H   0  0  0  0  0  0  0  0  0  0  0  0  # atno 7974 bound_to 7965
  155.2498  140.3351  155.4283 H   0  0  0  0  0  0  0  0  0  0  0  0  # atno 8008 bound_to 7997
  156.2220  140.1813  156.7497 H   0  0  0  0  0  0  0  0  0  0  0  0  # atno 8009 bound_to 7997
  154.5840  140.0649  156.9130 H   0  0  0  0  0  0  0  0  0  0  0  0  # atno 8010 bound_to 7997
  140.5676  143.9222  150.6688 H   0  0  0  0  0  0  0  0  0  0  0  0  # atno 10167 bound_to 10162
  156.1039  130.6194  150.9173 H   0  0  0  0  0  0  0  0  0  0  0  0  # atno 10718 bound_to 10713
  154.8672  135.3656  154.5147 H   0  0  0  0  0  0  0  0  0  0  0  0  # atno 10763 bound_to 10752
  153.5780  135.7019  153.5480 H   0  0  0  0  0  0  0  0  0  0  0  0  # atno 10764 bound_to 10752
  153.3482  135.4079  155.1588 H   0  0  0  0  0  0  0  0  0  0  0  0  # atno 10765 bound_to 10752
  140.0285  134.6046  155.9539 H   0  0  0  0  0  0  0  0  0  0  0  0  # atno 11005 bound_to 11000
  145.4375  141.0420  143.2876 LP  0  0  0  0  0  0  0  0  0  0  0  0  # atno 17320 bound_to 7965
  144.8143  139.5904  143.7015 LP  0  0  0  0  0  0  0  0  0  0  0  0  # atno 17321 bound_to 7965
  140.2689  143.3470  152.1256 LP  0  0  0  0  0  0  0  0  0  0  0  0  # atno 17342 bound_to 10162
  139.5101  144.6878  151.5841 LP  0  0  0  0  0  0  0  0  0  0  0  0  # atno 17343 bound_to 10162
  157.6213  131.0929  150.8617 LP  0  0  0  0  0  0  0  0  0  0  0  0  # atno 17370 bound_to 10713
  156.8739  130.5156  149.5295 LP  0  0  0  0  0  0  0  0  0  0  0  0  # atno 17371 bound_to 10713
  141.1817  133.6548  156.5048 LP  0  0  0  0  0  0  0  0  0  0  0  0  # atno 17394 bound_to 11000
  140.4265  134.7140  157.4918 LP  0  0  0  0  0  0  0  0  0  0  0  0  # atno 17395 bound_to 11000

$$$$
