AV-unprocessed.smi:1442|AV-procd|sdf|5876|dock8
  -GOLD-   22720 5553D 1   1.00000     0.00000
 Structure written by MMmdl.
 44 45  0  0  0  0  0  0  0  0  1 V2000
  150.9477  143.1618  158.4310 C   0  0  0  0  0  0  0  0  0  0  0  0
  150.4514  142.7058  157.1415 N   0  0  0  0  0  0  0  0  0  0  0  0
  150.4179  141.4221  156.7560 C   0  0  0  0  0  0  0  0  0  0  0  0
  150.8078  140.4956  157.4676 O   0  0  0  0  0  0  0  0  0  0  0  0
  149.8582  141.1412  155.3550 C   0  0  0  0  0  0  0  0  0  0  0  0
  148.4048  141.6555  155.2223 C   0  0  0  0  0  0  0  0  0  0  0  0
  147.7972  141.2533  153.8664 C   0  0  0  0  0  0  0  0  0  0  0  0
  147.8647  139.7876  153.7367 N   0  0  0  0  0  0  0  0  0  0  0  0
  146.8300  138.9207  153.8796 C   0  0  0  0  0  0  0  0  0  0  0  0
  145.7945  139.1998  154.4857 O   0  0  0  0  0  0  0  0  0  0  0  0
  147.0255  137.7144  153.3204 N   0  0  0  0  0  0  0  0  0  0  0  0
  146.0611  136.6213  153.3150 C   0  0  0  0  0  0  0  0  0  0  0  0
  145.3614  136.4944  151.9519 C   0  0  0  0  0  0  0  0  0  0  0  0
  145.3363  135.0697  151.4747 C   0  0  0  0  0  0  0  0  0  0  0  0
  146.4209  134.1484  151.4171 C   0  0  0  0  0  0  0  0  0  0  0  0
  146.0669  132.9655  150.9416 N   0  0  0  0  0  0  0  0  0  0  0  0
  144.7486  133.0883  150.6840 N   0  0  0  0  0  0  0  0  0  0  0  0
  144.0193  131.9617  150.1422 C   0  0  0  0  0  0  0  0  0  0  0  0
  144.2805  134.3468  150.9954 C   0  0  0  0  0  0  0  0  0  0  0  0
  149.2574  139.3284  153.6702 C   0  0  0  0  0  0  0  0  0  0  0  0
  149.9440  139.6343  155.0141 C   0  0  0  0  0  0  0  0  0  0  0  0
  150.8932  144.2491  158.4869 H   0  0  0  0  0  0  0  0  0  0  0  0
  151.9872  142.8647  158.5752 H   0  0  0  0  0  0  0  0  0  0  0  0
  150.3505  142.7483  159.2448 H   0  0  0  0  0  0  0  0  0  0  0  0
  150.1131  143.4093  156.5008 H   0  0  0  0  0  0  0  0  0  0  0  0
  150.4665  141.6795  154.6257 H   0  0  0  0  0  0  0  0  0  0  0  0
  147.7825  141.2542  156.0240 H   0  0  0  0  0  0  0  0  0  0  0  0
  148.3816  142.7410  155.3273 H   0  0  0  0  0  0  0  0  0  0  0  0
  146.7903  141.6607  153.7763 H   0  0  0  0  0  0  0  0  0  0  0  0
  148.3647  141.7114  153.0549 H   0  0  0  0  0  0  0  0  0  0  0  0
  147.9033  137.5496  152.8498 H   0  0  0  0  0  0  0  0  0  0  0  0
  146.5964  135.6995  153.5449 H   0  0  0  0  0  0  0  0  0  0  0  0
  145.3297  136.7637  154.1127 H   0  0  0  0  0  0  0  0  0  0  0  0
  144.3452  136.8832  152.0249 H   0  0  0  0  0  0  0  0  0  0  0  0
  145.8698  137.1315  151.2269 H   0  0  0  0  0  0  0  0  0  0  0  0
  147.4506  134.3061  151.7030 H   0  0  0  0  0  0  0  0  0  0  0  0
  142.9491  132.1698  150.1522 H   0  0  0  0  0  0  0  0  0  0  0  0
  144.2119  131.0712  150.7415 H   0  0  0  0  0  0  0  0  0  0  0  0
  144.3363  131.7784  149.1152 H   0  0  0  0  0  0  0  0  0  0  0  0
  143.2459  134.6220  150.8517 H   0  0  0  0  0  0  0  0  0  0  0  0
  149.3399  138.2647  153.4426 H   0  0  0  0  0  0  0  0  0  0  0  0
  149.7724  139.8436  152.8581 H   0  0  0  0  0  0  0  0  0  0  0  0
  150.9873  139.3188  154.9729 H   0  0  0  0  0  0  0  0  0  0  0  0
  149.4728  139.0392  155.7985 H   0  0  0  0  0  0  0  0  0  0  0  0
  1  2  1  0  0  0  0
  1 22  1  0  0  0  0
  1 23  1  0  0  0  0
  1 24  1  0  0  0  0
  2  3  1  0  0  0  0
  2 25  1  0  0  0  0
  3  4  2  0  0  0  0
  3  5  1  0  0  0  0
  5 21  1  0  0  0  0
  5  6  1  0  0  0  0
  5 26  1  0  0  0  0
  6  7  1  0  0  0  0
  6 27  1  0  0  0  0
  6 28  1  0  0  0  0
  7  8  1  0  0  0  0
  7 29  1  0  0  0  0
  7 30  1  0  0  0  0
  8  9  1  0  0  0  0
  8 20  1  0  0  0  0
  9 10  2  0  0  0  0
  9 11  1  0  0  0  0
 11 12  1  0  0  0  0
 11 31  1  0  0  0  0
 12 13  1  0  0  0  0
 12 32  1  0  0  0  0
 12 33  1  0  0  0  0
 13 14  1  0  0  0  0
 13 34  1  0  0  0  0
 13 35  1  0  0  0  0
 14 19  2  0  0  0  0
 14 15  1  0  0  0  0
 15 16  2  0  0  0  0
 15 36  1  0  0  0  0
 16 17  1  0  0  0  0
 17 18  1  0  0  0  0
 17 19  1  0  0  0  0
 18 37  1  0  0  0  0
 18 38  1  0  0  0  0
 18 39  1  0  0  0  0
 19 40  1  0  0  0  0
 20 21  1  0  0  0  0
 20 41  1  0  0  0  0
 20 42  1  0  0  0  0
 21 43  1  0  0  0  0
 21 44  1  0  0  0  0
M  END
> <s_m_source_file>
AV-unprocessed.smi

> <i_m_source_file_index>
1442

> <i_lp_mmshare_version>
43012

> <i_f3d_flags>
0

> <s_epik_input>
W0NIM11bTkhdQyg9TylbQ0hdMVtDSDJdW0NIMl1OKFtDSDJdW0NIMl0xKUMoPU8pW05IXVtDSDJdW0NIMl1jMltjSF1ubihbQ0gzXSlbY0hdMg==

> <s_epik_cmdline>
J2VwaWtfcHl0aG9uJywgJy1waCcsICc3LjAnLCAnLXRuJywgJzgnLCAnLW1hJywgJzIwMCcsICctbWV0YWxfYmluZGluZycsICctaW1hZScsICc8aW5maWxlLm1hZT4nLCAnLW9tYWUnLCAnPG91dGZpbGUubWFlPic=

> <r_lp_tautomer_probability>
1

> <r_epik_Ionization_Penalty>
0.000562975

> <r_epik_Ionization_Penalty_Charging>
0

> <r_epik_Ionization_Penalty_Neutral>
0.000562975

> <r_epik_State_Penalty>
-0

> <r_epik_Charging_Adjusted_Penalty>
0

> <i_epik_Tot_Q>
0

> <i_epik_Tot_abs_Q>
0

> <r_epik_Metal_State_Penalty>
-0

> <b_epik_Metal_Only>
0

> <s_lp_Force_Field>
OPLS_2005

> <r_lp_Energy>
25.7174

> <b_lp_Chiralities_Consistent>
1

> <s_lp_Variant>
AV-unprocessed.smi:1442-1

> <Gold.Version>
5.8.1

> <Gold.Id.Protein>
6NUR|6NUR_protein|mol2

> <Gold.PLP.Fitness>
43.8752

> <Gold.PLP.PLP>
-33.8311

> <Gold.PLP.part.hbond>
-2.0000

> <Gold.PLP.part.metal>
0.0000

> <Gold.PLP.part.buried>
0.9903

> <Gold.PLP.part.nonpolar>
-33.8777

> <Gold.PLP.part.repulsive>
0.3151

> <Gold.PLP.ligand.clash>
0.0000

> <Gold.PLP.ligand.torsion>
0.8729

> <Gold.PLP.Chemscore.Hbond>
1.9120

> <Gold.PLP.Chemscore.CHOScore>
1.9941

> <Gold.PLP.Chemscore.Metal>
0.0000

> <Gold.Chemscore.Hbonds>
donor molecule, donor type, donor heavy atom, donor atom, acceptor molecule, acceptor atom, score
      L1  H     2    25       P1  8028  1.00
      L1  H    11    31       P1  7948  0.90
      L1  C    15    36       P1  7948  1.00
      L1  C    19    40       P1 10186  0.86

> <Gold.PLP.Chemscore.Internal.Correction>
0.0718

> <Gold.Rescore>
     Score         DG    S(hbond)    S(metal)    S(lipo)     H(rot)  DE(clash)    DE(int)     intcor
     14.05     -16.27       1.88        0.00      77.26       1.77       1.41       0.81       ----

> <Gold.Chemscore.Fitness>
14.0515

> <Gold.Chemscore.DG>
-16.2721

> <Gold.Chemscore.ZeroCoef>
-5.4800

> <Gold.Chemscore.Hbond>
1.8785

> <Gold.Chemscore.Metal>
0.0000

> <Gold.Chemscore.Lipo>
77.2580

> <Gold.Chemscore.Internal_Hbond>
0.0000

> <Gold.Chemscore.DEClash>
1.4057

> <Gold.Chemscore.DEInternal>
0.8149

> <Gold.Chemscore.Rot>
1.7661

> <Gold.Chemscore.Internal.Correction>
   9.000000E+99

> <Gold.Chemscore.Hbonds>
donor molecule, donor type, donor heavy atom, donor atom, acceptor molecule, acceptor atom, score
      L1  H     2    25       P1  8028  0.97
      L1  H    11    31       P1  7948  0.87

> <Gold.Chemscore.Hbond.Weighted>
-6.2740

> <Gold.Chemscore.Metal.Weighted>
-0.0000

> <Gold.Chemscore.Lipo.Weighted>
-9.0392

> <Gold.Chemscore.Internal_Hbond.Weighted>
0.0000

> <Gold.Chemscore.DEClash.Weighted>
1.4057

> <Gold.Chemscore.DEInternal.Weighted>
0.8149

> <Gold.Chemscore.Rot.Weighted>
4.5211

> <Gold.Chemscore.Internal.Correction.Weighted>
   9.000000E+99

> <Gold.Protein.RotatedTorsions>
[ 6907 6896 6895 6894 ] final   40.96 input  -60.11 | X-H torsion
[ 7974 7965 7964 7962 ] final -127.51 input  175.53 | X-H torsion
[ 8008 7997 7996 7995 ] final  170.90 input   59.86 | X-H torsion
[ 10167 10162 10161 10158 ] final   -0.33 input  -65.29 | X-H torsion
[ 10718 10713 10712 10709 ] final  114.17 input   66.30 | X-H torsion
[ 10763 10752 10751 10750 ] final   33.55 input  -60.55 | X-H torsion
[ 11005 11000 10999 10996 ] final  131.44 input  -57.11 | X-H torsion

> <Gold.Protein.ActiveResidues>
 VAL166  LYS551  ARG553  GLY616  TRP617  ASP618  TYR619  PRO620  LYS621  CYS622 
 ASP623  PHE694  ASN695  SER759  ASP760  ASP761  ALA762  ILE779  LEU786  VAL792 
 PHE793  MET794  SER795  GLU796  ALA797  LYS798  CYS799  TRP800  GLU811  SER814 

> <Gold.Protein.RotatedAtoms>
  152.1892  134.8687  160.0518 H   0  0  0  0  0  0  0  0  0  0  0  0  # atno 6907 bound_to 6896
  151.9582  133.3682  159.4033 H   0  0  0  0  0  0  0  0  0  0  0  0  # atno 6908 bound_to 6896
  150.6932  134.4192  159.5241 H   0  0  0  0  0  0  0  0  0  0  0  0  # atno 6909 bound_to 6896
  144.9764  140.7597  143.4639 H   0  0  0  0  0  0  0  0  0  0  0  0  # atno 7974 bound_to 7965
  156.1322  140.1526  156.9048 H   0  0  0  0  0  0  0  0  0  0  0  0  # atno 8008 bound_to 7997
  154.4918  140.0849  156.7651 H   0  0  0  0  0  0  0  0  0  0  0  0  # atno 8009 bound_to 7997
  155.4235  140.3424  155.4275 H   0  0  0  0  0  0  0  0  0  0  0  0  # atno 8010 bound_to 7997
  140.6762  143.6908  150.8029 H   0  0  0  0  0  0  0  0  0  0  0  0  # atno 10167 bound_to 10162
  157.6297  131.0994  150.7147 H   0  0  0  0  0  0  0  0  0  0  0  0  # atno 10718 bound_to 10713
  153.0206  135.6384  154.1529 H   0  0  0  0  0  0  0  0  0  0  0  0  # atno 10763 bound_to 10752
  154.1263  135.2843  155.3198 H   0  0  0  0  0  0  0  0  0  0  0  0  # atno 10764 bound_to 10752
  154.6227  135.5519  153.7654 H   0  0  0  0  0  0  0  0  0  0  0  0  # atno 10765 bound_to 10752
  139.9730  134.9572  156.9438 H   0  0  0  0  0  0  0  0  0  0  0  0  # atno 11005 bound_to 11000
  145.2484  139.2042  143.4955 LP  0  0  0  0  0  0  0  0  0  0  0  0  # atno 17320 bound_to 7965
  146.3396  140.2393  142.8595 LP  0  0  0  0  0  0  0  0  0  0  0  0  # atno 17321 bound_to 7965
  140.0601  143.5163  152.2632 LP  0  0  0  0  0  0  0  0  0  0  0  0  # atno 17342 bound_to 10162
  139.6057  144.7595  151.3068 LP  0  0  0  0  0  0  0  0  0  0  0  0  # atno 17343 bound_to 10162
  156.7488  130.4762  149.5461 LP  0  0  0  0  0  0  0  0  0  0  0  0  # atno 17370 bound_to 10713
  156.1491  130.6298  151.0572 LP  0  0  0  0  0  0  0  0  0  0  0  0  # atno 17371 bound_to 10713
  140.5253  134.0867  155.7302 LP  0  0  0  0  0  0  0  0  0  0  0  0  # atno 17394 bound_to 11000
  141.1409  133.9140  157.2328 LP  0  0  0  0  0  0  0  0  0  0  0  0  # atno 17395 bound_to 11000

$$$$
