AV-unprocessed.smi:872|AV-procd|sdf|4013|dock1
  -GOLD-   22720 1503D 1   1.00000     0.00000
 Structure written by MMmdl.
 27 28  0  0  0  0  0  0  0  0  3 V2000
  151.1208  139.2997  154.8719 O   0  0  0  0  0  0  0  0  0  0  0  0
  151.8821  139.6632  155.7955 C   0  0  0  0  0  0  0  0  0  0  0  0
  152.9283  139.0442  156.0899 O   0  5  0  0  0  0  0  0  0  0  0  0
  151.5238  140.8919  156.5809 C   0  0  0  0  0  0  0  0  0  0  0  0
  150.5385  141.7878  156.1068 C   0  0  0  0  0  0  0  0  0  0  0  0
  150.2232  142.8900  156.8203 N   0  3  0  0  0  0  0  0  0  0  0  0
  150.8126  143.1949  157.9957 C   0  0  0  0  0  0  0  0  0  0  0  0
  151.8070  142.3433  158.5297 C   0  0  0  0  0  0  0  0  0  0  0  0
  152.4456  142.6231  159.7454 N   0  0  0  0  0  0  0  0  0  0  0  0
  151.7046  143.5546  160.5867 C   0  0  0  0  0  0  0  0  0  0  0  0
  152.5267  143.8999  161.8406 C   0  0  0  0  0  0  0  0  0  0  0  0
  152.8722  142.7009  162.5291 O   0  0  0  0  0  0  0  0  0  0  0  0
  153.6644  141.8322  161.7239 C   0  0  0  0  0  0  0  0  0  0  0  0
  152.8722  141.4309  160.4675 C   0  0  0  0  0  0  0  0  0  0  0  0
  152.1621  141.1815  157.8100 C   0  0  0  0  0  0  0  0  0  0  0  0
  149.9936  141.6591  155.1824 H   0  0  0  0  0  0  0  0  0  0  0  0
  150.4727  144.1050  158.4682 H   0  0  0  0  0  0  0  0  0  0  0  0
  151.4797  144.4625  160.0253 H   0  0  0  0  0  0  0  0  0  0  0  0
  150.7520  143.1120  160.8813 H   0  0  0  0  0  0  0  0  0  0  0  0
  153.4294  144.4525  161.5749 H   0  0  0  0  0  0  0  0  0  0  0  0
  151.9463  144.5386  162.5067 H   0  0  0  0  0  0  0  0  0  0  0  0
  154.6013  142.3225  161.4539 H   0  0  0  0  0  0  0  0  0  0  0  0
  153.9237  140.9465  162.3042 H   0  0  0  0  0  0  0  0  0  0  0  0
  152.0024  140.8384  160.7548 H   0  0  0  0  0  0  0  0  0  0  0  0
  153.4892  140.8067  159.8197 H   0  0  0  0  0  0  0  0  0  0  0  0
  152.9209  140.5210  158.2054 H   0  0  0  0  0  0  0  0  0  0  0  0
  149.5086  143.5191  156.4540 H   0  0  0  0  0  0  0  0  0  0  0  0
  1  2  2  0  0  0  0
  2  3  1  0  0  0  0
  2  4  1  0  0  0  0
  4 15  1  0  0  0  0
  4  5  2  0  0  0  0
  5  6  1  0  0  0  0
  5 16  1  0  0  0  0
  6  7  2  0  0  0  0
  6 27  1  0  0  0  0
  7  8  1  0  0  0  0
  7 17  1  0  0  0  0
  8  9  1  0  0  0  0
  8 15  2  0  0  0  0
  9 14  1  0  0  0  0
  9 10  1  0  0  0  0
 10 11  1  0  0  0  0
 10 18  1  0  0  0  0
 10 19  1  0  0  0  0
 11 12  1  0  0  0  0
 11 20  1  0  0  0  0
 11 21  1  0  0  0  0
 12 13  1  0  0  0  0
 13 14  1  0  0  0  0
 13 22  1  0  0  0  0
 13 23  1  0  0  0  0
 14 24  1  0  0  0  0
 14 25  1  0  0  0  0
 15 26  1  0  0  0  0
M  CHG  1   3  -1
M  CHG  1   6   1
M  END
> <s_m_source_file>
AV-unprocessed.smi

> <i_m_source_file_index>
872

> <i_lp_mmshare_version>
43012

> <i_f3d_flags>
0

> <s_epik_input>
Tz1DKFtPSF0pYzFbY0hdbltjSF1jKFtjSF0xKU4yW0NIMl1bQ0gyXU9bQ0gyXVtDSDJdMg==

> <s_epik_cmdline>
J2VwaWtfcHl0aG9uJywgJy1waCcsICc3LjAnLCAnLXRuJywgJzgnLCAnLW1hJywgJzIwMCcsICctbWV0YWxfYmluZGluZycsICctaW1hZScsICc8aW5maWxlLm1hZT4nLCAnLW9tYWUnLCAnPG91dGZpbGUubWFlPic=

> <r_epik_Ionization_Penalty>
1.67211

> <r_epik_Ionization_Penalty_Charging>
1.67211

> <r_epik_Ionization_Penalty_Neutral>
1.01163e-11

> <r_epik_State_Penalty>
1.7758

> <r_epik_Charging_Adjusted_Penalty>
3.44791

> <i_epik_Tot_Q>
0

> <i_epik_Tot_abs_Q>
2

> <r_epik_Metal_State_Penalty>
5.83824

> <b_epik_Metal_Only>
0

> <s_lp_Force_Field>
OPLS_2005

> <r_lp_Energy>
21.0429

> <b_lp_Chiralities_Consistent>
1

> <s_lp_Variant>
AV-unprocessed.smi:872-2

> <Gold.Version>
5.8.1

> <Gold.Id.Protein>
6NUR|6NUR_protein|mol2

> <Gold.PLP.Fitness>
45.2934

> <Gold.PLP.PLP>
-31.9737

> <Gold.PLP.part.hbond>
-3.0000

> <Gold.PLP.part.metal>
0.0000

> <Gold.PLP.part.buried>
-7.1513

> <Gold.PLP.part.nonpolar>
-21.3853

> <Gold.PLP.part.repulsive>
0.2106

> <Gold.PLP.ligand.clash>
0.0000

> <Gold.PLP.ligand.torsion>
0.7437

> <Gold.PLP.Chemscore.Hbond>
4.9000

> <Gold.PLP.Chemscore.CHOScore>
0.0000

> <Gold.PLP.Chemscore.Metal>
0.0000

> <Gold.Chemscore.Hbonds>
donor molecule, donor type, donor heavy atom, donor atom, acceptor molecule, acceptor atom, score
      L1  H     6    27       P1  8028  2.00
      P1  H  7989  7998       L1     1  0.61
      P1  H  7997  8008       L1     3  2.00

> <Gold.PLP.Chemscore.Internal.Correction>
0.1072

> <Gold.Rescore>
     Score         DG    S(hbond)    S(metal)    S(lipo)     H(rot)  DE(clash)    DE(int)     intcor
     18.51     -19.36       2.06        0.00      81.65       1.00       0.08       0.77       ----

> <Gold.Chemscore.Fitness>
18.5129

> <Gold.Chemscore.DG>
-19.3624

> <Gold.Chemscore.ZeroCoef>
-5.4800

> <Gold.Chemscore.Hbond>
2.0628

> <Gold.Chemscore.Metal>
0.0000

> <Gold.Chemscore.Lipo>
81.6469

> <Gold.Chemscore.Internal_Hbond>
0.0000

> <Gold.Chemscore.DEClash>
0.0808

> <Gold.Chemscore.DEInternal>
0.7687

> <Gold.Chemscore.Rot>
1.0000

> <Gold.Chemscore.Internal.Correction>
   9.000000E+99

> <Gold.Chemscore.Hbonds>
donor molecule, donor type, donor heavy atom, donor atom, acceptor molecule, acceptor atom, score
      L1  H     6    27       P1  8028  0.96
      P1  H  7989  7998       L1     1  0.10
      P1  H  7997  8008       L1     3  0.74

> <Gold.Chemscore.Hbond.Weighted>
-6.8897

> <Gold.Chemscore.Metal.Weighted>
-0.0000

> <Gold.Chemscore.Lipo.Weighted>
-9.5527

> <Gold.Chemscore.Internal_Hbond.Weighted>
0.0000

> <Gold.Chemscore.DEClash.Weighted>
0.0808

> <Gold.Chemscore.DEInternal.Weighted>
0.7687

> <Gold.Chemscore.Rot.Weighted>
2.5600

> <Gold.Chemscore.Internal.Correction.Weighted>
   9.000000E+99

> <Gold.Protein.RotatedTorsions>
[ 6907 6896 6895 6894 ] final  -72.01 input  -60.11 | X-H torsion
[ 7974 7965 7964 7962 ] final   20.59 input  175.53 | X-H torsion
[ 8008 7997 7996 7995 ] final  -22.90 input   59.86 | X-H torsion
[ 10167 10162 10161 10158 ] final  111.76 input  -65.29 | X-H torsion
[ 10718 10713 10712 10709 ] final -111.19 input   66.30 | X-H torsion
[ 10763 10752 10751 10750 ] final    9.51 input  -60.55 | X-H torsion
[ 11005 11000 10999 10996 ] final -119.27 input  -57.11 | X-H torsion

> <Gold.Protein.ActiveResidues>
 VAL166  LYS551  ARG553  GLY616  TRP617  ASP618  TYR619  PRO620  LYS621  CYS622 
 ASP623  PHE694  ASN695  SER759  ASP760  ASP761  ALA762  ILE779  LEU786  VAL792 
 PHE793  MET794  SER795  GLU796  ALA797  LYS798  CYS799  TRP800  GLU811  SER814 

> <Gold.Protein.RotatedAtoms>
  150.7188  134.5225  159.5660 H   0  0  0  0  0  0  0  0  0  0  0  0  # atno 6907 bound_to 6896
  152.2777  134.7860  160.0411 H   0  0  0  0  0  0  0  0  0  0  0  0  # atno 6908 bound_to 6896
  151.8518  133.3406  159.3712 H   0  0  0  0  0  0  0  0  0  0  0  0  # atno 6909 bound_to 6896
  146.2105  139.8148  142.8692 H   0  0  0  0  0  0  0  0  0  0  0  0  # atno 7974 bound_to 7965
  154.4616  140.1995  156.0229 H   0  0  0  0  0  0  0  0  0  0  0  0  # atno 8008 bound_to 7997
  156.0851  140.3266  155.7715 H   0  0  0  0  0  0  0  0  0  0  0  0  # atno 8009 bound_to 7997
  155.5048  140.0557  157.2924 H   0  0  0  0  0  0  0  0  0  0  0  0  # atno 8010 bound_to 7997
  139.6587  144.7129  151.1907 H   0  0  0  0  0  0  0  0  0  0  0  0  # atno 10167 bound_to 10162
  156.0633  130.5855  150.8340 H   0  0  0  0  0  0  0  0  0  0  0  0  # atno 10718 bound_to 10713
  153.2132  135.6871  153.8088 H   0  0  0  0  0  0  0  0  0  0  0  0  # atno 10763 bound_to 10752
  153.7313  135.3252  155.3287 H   0  0  0  0  0  0  0  0  0  0  0  0  # atno 10764 bound_to 10752
  154.8233  135.4636  154.0949 H   0  0  0  0  0  0  0  0  0  0  0  0  # atno 10765 bound_to 10752
  141.0227  134.0100  157.3259 H   0  0  0  0  0  0  0  0  0  0  0  0  # atno 11005 bound_to 11000
  145.3158  141.0231  143.3528 LP  0  0  0  0  0  0  0  0  0  0  0  0  # atno 17320 bound_to 7965
  144.8902  139.4784  143.6681 LP  0  0  0  0  0  0  0  0  0  0  0  0  # atno 17321 bound_to 7965
  140.7570  143.6030  150.8681 LP  0  0  0  0  0  0  0  0  0  0  0  0  # atno 17342 bound_to 10162
  139.9685  143.6083  152.2981 LP  0  0  0  0  0  0  0  0  0  0  0  0  # atno 17343 bound_to 10162
  157.5657  131.0946  150.9492 LP  0  0  0  0  0  0  0  0  0  0  0  0  # atno 17370 bound_to 10713
  156.9720  130.5494  149.5291 LP  0  0  0  0  0  0  0  0  0  0  0  0  # atno 17371 bound_to 10713
  139.9156  135.0196  156.7868 LP  0  0  0  0  0  0  0  0  0  0  0  0  # atno 17394 bound_to 11000
  140.6545  133.9701  155.7772 LP  0  0  0  0  0  0  0  0  0  0  0  0  # atno 17395 bound_to 11000

$$$$
