AV-unprocessed.smi:3173|AV-procd|sdf|12117|dock2
  -GOLD-   2272017553D 1   1.00000     0.00000
 Structure written by MMmdl.
 35 36  0  0  0  0  0  0  0  0  1 V2000
  151.3440  140.9288  156.8653 O   0  0  0  0  0  0  0  0  0  0  0  0
  150.7792  142.0097  156.6967 C   0  0  0  0  0  0  0  0  0  0  0  0
  151.3594  143.2905  157.3064 C   0  0  0  0  0  0  0  0  0  0  0  0
  151.0455  143.4445  158.8094 C   0  0  2  0  0  0  0  0  0  0  0  0
  151.1268  144.8775  159.2687 C   0  0  0  0  0  0  0  0  0  0  0  0
  151.8853  145.0286  160.3524 C   0  0  0  0  0  0  0  0  0  0  0  0
  152.4653  143.7279  160.8342 C   0  0  0  0  0  0  0  0  0  0  0  0
  152.0376  142.7118  159.7525 C   0  0  0  0  0  0  0  0  0  0  0  0
  149.6507  142.1464  155.9839 N   0  0  0  0  0  0  0  0  0  0  0  0
  148.9640  141.0636  155.2893 C   0  0  0  0  0  0  0  0  0  0  0  0
  148.1364  141.5929  154.1061 C   0  0  0  0  0  0  0  0  0  0  0  0
  146.9213  142.3799  154.5590 C   0  0  0  0  0  0  0  0  0  0  0  0
  146.1183  143.0657  153.6228 C   0  0  0  0  0  0  0  0  0  0  0  0
  144.9997  143.7797  154.0939 C   0  0  0  0  0  0  0  0  0  0  0  0
  144.7276  143.7796  155.4755 C   0  0  0  0  0  0  0  0  0  0  0  0
  145.5893  143.0606  156.3279 C   0  0  0  0  0  0  0  0  0  0  0  0
  146.6643  142.3722  155.8867 N   0  0  0  0  0  0  0  0  0  0  0  0
  152.4396  143.3144  157.1520 H   0  0  0  0  0  0  0  0  0  0  0  0
  150.9511  144.1387  156.7558 H   0  0  0  0  0  0  0  0  0  0  0  0
  150.0280  143.1069  159.0120 H   0  0  0  0  0  0  0  0  0  0  0  0
  150.6003  145.6743  158.7643 H   0  0  0  0  0  0  0  0  0  0  0  0
  152.0678  145.9645  160.8596 H   0  0  0  0  0  0  0  0  0  0  0  0
  153.5500  143.7953  160.9234 H   0  0  0  0  0  0  0  0  0  0  0  0
  152.0483  143.4777  161.8101 H   0  0  0  0  0  0  0  0  0  0  0  0
  151.5876  141.8210  160.1919 H   0  0  0  0  0  0  0  0  0  0  0  0
  152.9210  142.3838  159.2029 H   0  0  0  0  0  0  0  0  0  0  0  0
  149.2504  143.0695  155.8990 H   0  0  0  0  0  0  0  0  0  0  0  0
  149.6846  140.3183  154.9485 H   0  0  0  0  0  0  0  0  0  0  0  0
  148.3132  140.5616  156.0055 H   0  0  0  0  0  0  0  0  0  0  0  0
  148.7552  142.2310  153.4734 H   0  0  0  0  0  0  0  0  0  0  0  0
  147.8074  140.7658  153.4756 H   0  0  0  0  0  0  0  0  0  0  0  0
  146.3522  143.0453  152.5685 H   0  0  0  0  0  0  0  0  0  0  0  0
  144.3622  144.3174  153.4076 H   0  0  0  0  0  0  0  0  0  0  0  0
  143.8789  144.3166  155.8722 H   0  0  0  0  0  0  0  0  0  0  0  0
  145.4102  143.0378  157.3927 H   0  0  0  0  0  0  0  0  0  0  0  0
  1  2  2  0  0  0  0
  2  3  1  0  0  0  0
  2  9  1  0  0  0  0
  3  4  1  0  0  0  0
  3 18  1  0  0  0  0
  3 19  1  0  0  0  0
  4  8  1  0  0  0  0
  4  5  1  0  0  0  0
  4 20  1  0  0  0  0
  5  6  2  0  0  0  0
  5 21  1  0  0  0  0
  6  7  1  0  0  0  0
  6 22  1  0  0  0  0
  7  8  1  0  0  0  0
  7 23  1  0  0  0  0
  7 24  1  0  0  0  0
  8 25  1  0  0  0  0
  8 26  1  0  0  0  0
  9 10  1  0  0  0  0
  9 27  1  0  0  0  0
 10 11  1  0  0  0  0
 10 28  1  0  0  0  0
 10 29  1  0  0  0  0
 11 12  1  0  0  0  0
 11 30  1  0  0  0  0
 11 31  1  0  0  0  0
 12 17  1  0  0  0  0
 12 13  2  0  0  0  0
 13 14  1  0  0  0  0
 13 32  1  0  0  0  0
 14 15  2  0  0  0  0
 14 33  1  0  0  0  0
 15 16  1  0  0  0  0
 15 34  1  0  0  0  0
 16 17  2  0  0  0  0
 16 35  1  0  0  0  0
M  END
> <s_m_source_file>
AV-unprocessed.smi

> <i_m_source_file_index>
3173

> <i_lp_mmshare_version>
43012

> <i_f3d_flags>
0

> <s_epik_input>
W0NIMl0xW0NIMl1bQ0hdPVtDSF1bQ0BIXTFbQ0gyXUMoPU8pW05IXVtDSDJdW0NIMl1jMltjSF1bY0hdW2NIXVtjSF1uMg==

> <s_epik_cmdline>
J2VwaWtfcHl0aG9uJywgJy1waCcsICc3LjAnLCAnLXRuJywgJzgnLCAnLW1hJywgJzIwMCcsICctbWV0YWxfYmluZGluZycsICctaW1hZScsICc8aW5maWxlLm1hZT4nLCAnLW9tYWUnLCAnPG91dGZpbGUubWFlPic=

> <r_epik_Ionization_Penalty>
0.0258754

> <r_epik_Ionization_Penalty_Charging>
0

> <r_epik_Ionization_Penalty_Neutral>
0.0258754

> <r_epik_State_Penalty>
0.0210899

> <r_epik_Charging_Adjusted_Penalty>
0.0210899

> <i_epik_Tot_Q>
0

> <i_epik_Tot_abs_Q>
0

> <r_epik_Metal_State_Penalty>
0.0202045

> <b_epik_Metal_Only>
0

> <s_lp_Force_Field>
OPLS_2005

> <r_lp_Energy>
13.7226

> <b_lp_Chiralities_Consistent>
1

> <s_lp_Variant>
AV-unprocessed.smi:3173-1

> <Gold.Version>
5.8.1

> <Gold.Id.Protein>
6NUR|6NUR_protein|mol2

> <Gold.PLP.Fitness>
42.8736

> <Gold.PLP.PLP>
-41.3260

> <Gold.PLP.part.hbond>
-1.0000

> <Gold.PLP.part.metal>
0.0000

> <Gold.PLP.part.buried>
-6.2031

> <Gold.PLP.part.nonpolar>
-35.1547

> <Gold.PLP.part.repulsive>
0.2795

> <Gold.PLP.ligand.clash>
0.0000

> <Gold.PLP.ligand.torsion>
0.7671

> <Gold.PLP.Chemscore.Hbond>
1.0000

> <Gold.PLP.Chemscore.CHOScore>
0.0000

> <Gold.PLP.Chemscore.Metal>
0.0000

> <Gold.Chemscore.Hbonds>
donor molecule, donor type, donor heavy atom, donor atom, acceptor molecule, acceptor atom, score
      L1  H     9    27       P1  8028  1.00

> <Gold.PLP.Chemscore.Internal.Correction>
0.0819

> <Gold.Rescore>
     Score         DG    S(hbond)    S(metal)    S(lipo)     H(rot)  DE(clash)    DE(int)     intcor
     16.44     -17.30       1.00        0.00     105.36       1.50       0.05       0.80       ----

> <Gold.Chemscore.Fitness>
16.4431

> <Gold.Chemscore.DG>
-17.2982

> <Gold.Chemscore.ZeroCoef>
-5.4800

> <Gold.Chemscore.Hbond>
1.0000

> <Gold.Chemscore.Metal>
0.0000

> <Gold.Chemscore.Lipo>
105.3641

> <Gold.Chemscore.Internal_Hbond>
0.0000

> <Gold.Chemscore.DEClash>
0.0547

> <Gold.Chemscore.DEInternal>
0.8004

> <Gold.Chemscore.Rot>
1.5037

> <Gold.Chemscore.Internal.Correction>
   9.000000E+99

> <Gold.Chemscore.Hbonds>
donor molecule, donor type, donor heavy atom, donor atom, acceptor molecule, acceptor atom, score
      L1  H     9    27       P1  8028  1.00

> <Gold.Chemscore.Hbond.Weighted>
-3.3399

> <Gold.Chemscore.Metal.Weighted>
-0.0000

> <Gold.Chemscore.Lipo.Weighted>
-12.3276

> <Gold.Chemscore.Internal_Hbond.Weighted>
0.0000

> <Gold.Chemscore.DEClash.Weighted>
0.0547

> <Gold.Chemscore.DEInternal.Weighted>
0.8004

> <Gold.Chemscore.Rot.Weighted>
3.8494

> <Gold.Chemscore.Internal.Correction.Weighted>
   9.000000E+99

> <Gold.Protein.RotatedTorsions>
[ 6907 6896 6895 6894 ] final -129.11 input  -60.11 | X-H torsion
[ 7974 7965 7964 7962 ] final -124.78 input  175.53 | X-H torsion
[ 8008 7997 7996 7995 ] final  116.66 input   59.86 | X-H torsion
[ 10167 10162 10161 10158 ] final  148.48 input  -65.29 | X-H torsion
[ 10718 10713 10712 10709 ] final -134.64 input   66.30 | X-H torsion
[ 10763 10752 10751 10750 ] final  -79.50 input  -60.55 | X-H torsion
[ 11005 11000 10999 10996 ] final   16.79 input  -57.11 | X-H torsion

> <Gold.Protein.ActiveResidues>
 VAL166  LYS551  ARG553  GLY616  TRP617  ASP618  TYR619  PRO620  LYS621  CYS622 
 ASP623  PHE694  ASN695  SER759  ASP760  ASP761  ALA762  ILE779  LEU786  VAL792 
 PHE793  MET794  SER795  GLU796  ALA797  LYS798  CYS799  TRP800  GLU811  SER814 

> <Gold.Protein.RotatedAtoms>
  150.9252  133.6833  159.2822 H   0  0  0  0  0  0  0  0  0  0  0  0  # atno 6907 bound_to 6896
  151.4274  135.1004  159.9641 H   0  0  0  0  0  0  0  0  0  0  0  0  # atno 6908 bound_to 6896
  152.4999  133.8689  159.7343 H   0  0  0  0  0  0  0  0  0  0  0  0  # atno 6909 bound_to 6896
  145.0044  140.7850  143.4476 H   0  0  0  0  0  0  0  0  0  0  0  0  # atno 7974 bound_to 7965
  156.2452  140.2913  156.0558 H   0  0  0  0  0  0  0  0  0  0  0  0  # atno 8008 bound_to 7997
  155.1830  140.0405  157.2903 H   0  0  0  0  0  0  0  0  0  0  0  0  # atno 8009 bound_to 7997
  154.6246  140.2484  155.7514 H   0  0  0  0  0  0  0  0  0  0  0  0  # atno 8010 bound_to 7997
  139.4874  144.5676  151.7116 H   0  0  0  0  0  0  0  0  0  0  0  0  # atno 10167 bound_to 10162
  156.2576  130.7190  151.1113 H   0  0  0  0  0  0  0  0  0  0  0  0  # atno 10718 bound_to 10713
  154.5394  135.5693  153.6826 H   0  0  0  0  0  0  0  0  0  0  0  0  # atno 10763 bound_to 10752
  152.9959  135.6224  154.2522 H   0  0  0  0  0  0  0  0  0  0  0  0  # atno 10764 bound_to 10752
  154.2453  135.2861  155.2818 H   0  0  0  0  0  0  0  0  0  0  0  0  # atno 10765 bound_to 10752
  140.4432  134.1300  155.7693 H   0  0  0  0  0  0  0  0  0  0  0  0  # atno 11005 bound_to 11000
  145.2108  139.2205  143.5144 LP  0  0  0  0  0  0  0  0  0  0  0  0  # atno 17320 bound_to 7965
  146.3458  140.1946  142.8589 LP  0  0  0  0  0  0  0  0  0  0  0  0  # atno 17321 bound_to 7965
  140.5257  144.0809  150.6037 LP  0  0  0  0  0  0  0  0  0  0  0  0  # atno 17342 bound_to 10162
  140.3782  143.2817  152.0200 LP  0  0  0  0  0  0  0  0  0  0  0  0  # atno 17343 bound_to 10162
  157.7238  131.0664  150.6020 LP  0  0  0  0  0  0  0  0  0  0  0  0  # atno 17370 bound_to 10713
  156.6105  130.4379  149.5861 LP  0  0  0  0  0  0  0  0  0  0  0  0  # atno 17371 bound_to 10713
  141.1696  133.8634  157.1610 LP  0  0  0  0  0  0  0  0  0  0  0  0  # atno 17394 bound_to 11000
  140.0056  135.0010  157.0285 LP  0  0  0  0  0  0  0  0  0  0  0  0  # atno 17395 bound_to 11000

$$$$
