AV-unprocessed.smi:3274|AV-procd|sdf|12527|dock10
  -GOLD-   2272018443D 1   1.00000     0.00000
 Structure written by MMmdl.
 43 44  0  0  0  0  0  0  0  0  2 V2000
  150.7802  139.7294  158.3077 C   0  0  0  0  0  0  0  0  0  0  0  0
  151.7636  140.7953  158.7618 C   0  0  0  0  0  0  0  0  0  0  0  0
  152.9514  140.4327  159.2830 C   0  0  0  0  0  0  0  0  0  0  0  0
  153.9739  141.4026  159.8295 C   0  0  0  0  0  0  0  0  0  0  0  0
  153.3266  142.7442  160.1816 C   0  0  0  0  0  0  0  0  0  0  0  0
  152.4635  143.2723  159.0241 C   0  0  2  0  0  0  0  0  0  0  0  0
  151.9109  144.6644  159.3894 C   0  0  0  0  0  0  0  0  0  0  0  0
  151.3377  142.2706  158.6198 C   0  0  1  0  0  0  0  0  0  0  0  0
  150.8108  142.6072  157.2005 C   0  0  0  0  0  0  0  0  0  0  0  0
  149.3479  142.4220  157.0720 N   0  3  0  0  0  0  0  0  0  0  0  0
  148.9175  141.2181  156.3231 C   0  0  1  0  0  0  0  0  0  0  0  0
  147.3853  141.2061  156.2375 C   0  0  0  0  0  0  0  0  0  0  0  0
  149.5356  141.1728  154.9071 C   0  0  0  0  0  0  0  0  0  0  0  0
  150.3596  140.0018  154.6691 N   0  0  0  0  0  0  0  0  0  0  0  0
  150.0190  138.7279  154.4658 C   0  0  0  0  0  0  0  0  0  0  0  0
  151.0538  137.9210  154.2802 N   0  0  0  0  0  0  0  0  0  0  0  0
  152.0730  138.8220  154.4075 C   0  0  0  0  0  0  0  0  0  0  0  0
  151.7108  140.0827  154.6453 N   0  0  0  0  0  0  0  0  0  0  0  0
  149.7991  139.9011  158.7509 H   0  0  0  0  0  0  0  0  0  0  0  0
  151.1082  138.7334  158.6078 H   0  0  0  0  0  0  0  0  0  0  0  0
  150.6843  139.7254  157.2221 H   0  0  0  0  0  0  0  0  0  0  0  0
  153.2182  139.3873  159.3421 H   0  0  0  0  0  0  0  0  0  0  0  0
  154.4368  140.9723  160.7180 H   0  0  0  0  0  0  0  0  0  0  0  0
  154.7626  141.5343  159.0883 H   0  0  0  0  0  0  0  0  0  0  0  0
  152.7090  142.6272  161.0736 H   0  0  0  0  0  0  0  0  0  0  0  0
  154.1051  143.4639  160.4380 H   0  0  0  0  0  0  0  0  0  0  0  0
  153.1288  143.3958  158.1678 H   0  0  0  0  0  0  0  0  0  0  0  0
  151.2178  144.6067  160.2294 H   0  0  0  0  0  0  0  0  0  0  0  0
  151.3863  145.1372  158.5606 H   0  0  0  0  0  0  0  0  0  0  0  0
  152.7172  145.3398  159.6771 H   0  0  0  0  0  0  0  0  0  0  0  0
  150.5193  142.4052  159.3288 H   0  0  0  0  0  0  0  0  0  0  0  0
  151.0413  143.6367  156.9433 H   0  0  0  0  0  0  0  0  0  0  0  0
  151.3250  141.9904  156.4623 H   0  0  0  0  0  0  0  0  0  0  0  0
  148.9846  142.3383  158.0108 H   0  0  0  0  0  0  0  0  0  0  0  0
  149.2114  140.3264  156.8793 H   0  0  0  0  0  0  0  0  0  0  0  0
  147.0269  140.3122  155.7260 H   0  0  0  0  0  0  0  0  0  0  0  0
  147.0096  142.0734  155.6930 H   0  0  0  0  0  0  0  0  0  0  0  0
  146.9358  141.2158  157.2310 H   0  0  0  0  0  0  0  0  0  0  0  0
  148.7452  141.1748  154.1552 H   0  0  0  0  0  0  0  0  0  0  0  0
  150.1366  142.0649  154.7250 H   0  0  0  0  0  0  0  0  0  0  0  0
  148.9951  138.3845  154.4441 H   0  0  0  0  0  0  0  0  0  0  0  0
  153.1122  138.5406  154.3211 H   0  0  0  0  0  0  0  0  0  0  0  0
  148.9380  143.2408  156.6458 H   0  0  0  0  0  0  0  0  0  0  0  0
  1  2  1  0  0  0  0
  1 19  1  0  0  0  0
  1 20  1  0  0  0  0
  1 21  1  0  0  0  0
  2  8  1  0  0  0  0
  2  3  2  0  0  0  0
  3  4  1  0  0  0  0
  3 22  1  0  0  0  0
  4  5  1  0  0  0  0
  4 23  1  0  0  0  0
  4 24  1  0  0  0  0
  5  6  1  0  0  0  0
  5 25  1  0  0  0  0
  5 26  1  0  0  0  0
  6  7  1  0  0  0  0
  6  8  1  0  0  0  0
  6 27  1  0  0  0  0
  7 28  1  0  0  0  0
  7 29  1  0  0  0  0
  7 30  1  0  0  0  0
  8  9  1  0  0  0  0
  8 31  1  0  0  0  0
  9 10  1  0  0  0  0
  9 32  1  0  0  0  0
  9 33  1  0  0  0  0
 10 11  1  0  0  0  0
 10 34  1  0  0  0  0
 10 43  1  0  0  0  0
 11 12  1  0  0  0  0
 11 13  1  0  0  0  0
 11 35  1  0  0  0  0
 12 36  1  0  0  0  0
 12 37  1  0  0  0  0
 12 38  1  0  0  0  0
 13 14  1  0  0  0  0
 13 39  1  0  0  0  0
 13 40  1  0  0  0  0
 14 18  1  0  0  0  0
 14 15  1  0  0  0  0
 15 16  2  0  0  0  0
 15 41  1  0  0  0  0
 16 17  1  0  0  0  0
 17 18  2  0  0  0  0
 17 42  1  0  0  0  0
M  CHG  1  10   1
M  END
> <s_m_source_file>
AV-unprocessed.smi

> <i_m_source_file_index>
3274

> <i_lp_mmshare_version>
43012

> <i_f3d_flags>
0

> <s_epik_input>
W0NIM11DMT1bQ0hdW0NIMl1bQ0gyXVtDQEBIXShbQ0gzXSlbQ0BIXTFbQ0gyXVtOSF1bQ0BIXShbQ0gzXSlbQ0gyXW4yW2NIXW5bY0hdbjI=

> <s_epik_cmdline>
J2VwaWtfcHl0aG9uJywgJy1waCcsICc3LjAnLCAnLXRuJywgJzgnLCAnLW1hJywgJzIwMCcsICctbWV0YWxfYmluZGluZycsICctaW1hZScsICc8aW5maWxlLm1hZT4nLCAnLW9tYWUnLCAnPG91dGZpbGUubWFlPic=

> <r_lp_tautomer_probability>
1

> <r_epik_Ionization_Penalty>
0.0017527

> <r_epik_Ionization_Penalty_Charging>
0.00175191

> <r_epik_Ionization_Penalty_Neutral>
7.94565e-07

> <r_epik_State_Penalty>
0.00118605

> <r_epik_Charging_Adjusted_Penalty>
0.00293796

> <i_epik_Tot_Q>
1

> <i_epik_Tot_abs_Q>
1

> <r_epik_Metal_State_Penalty>
-0

> <b_epik_Metal_Only>
0

> <s_lp_Force_Field>
OPLS_2005

> <r_lp_Energy>
18.4066

> <b_lp_Chiralities_Consistent>
1

> <s_lp_Variant>
AV-unprocessed.smi:3274-6

> <Gold.Version>
5.8.1

> <Gold.Id.Protein>
6NUR|6NUR_protein|mol2

> <Gold.PLP.Fitness>
46.2560

> <Gold.PLP.PLP>
-40.6168

> <Gold.PLP.part.hbond>
-2.0000

> <Gold.PLP.part.metal>
0.0000

> <Gold.PLP.part.buried>
-5.3917

> <Gold.PLP.part.nonpolar>
-33.9067

> <Gold.PLP.part.repulsive>
0.2961

> <Gold.PLP.ligand.clash>
0.0000

> <Gold.PLP.ligand.torsion>
1.7079

> <Gold.PLP.Chemscore.Hbond>
3.0000

> <Gold.PLP.Chemscore.CHOScore>
0.0000

> <Gold.PLP.Chemscore.Metal>
0.0000

> <Gold.Chemscore.Hbonds>
donor molecule, donor type, donor heavy atom, donor atom, acceptor molecule, acceptor atom, score
      L1  H    10    43       P1  8028  2.00
      P1  H  7989  7998       L1    18  0.35

> <Gold.PLP.Chemscore.Internal.Correction>
0.0550

> <Gold.Rescore>
     Score         DG    S(hbond)    S(metal)    S(lipo)     H(rot)  DE(clash)    DE(int)     intcor
     14.86     -16.69       1.74        0.00      97.78       2.36       0.07       1.75       ----

> <Gold.Chemscore.Fitness>
14.8630

> <Gold.Chemscore.DG>
-16.6879

> <Gold.Chemscore.ZeroCoef>
-5.4800

> <Gold.Chemscore.Hbond>
1.7406

> <Gold.Chemscore.Metal>
0.0000

> <Gold.Chemscore.Lipo>
97.7755

> <Gold.Chemscore.Internal_Hbond>
0.0000

> <Gold.Chemscore.DEClash>
0.0726

> <Gold.Chemscore.DEInternal>
1.7522

> <Gold.Chemscore.Rot>
2.3615

> <Gold.Chemscore.Internal.Correction>
   9.000000E+99

> <Gold.Chemscore.Hbonds>
donor molecule, donor type, donor heavy atom, donor atom, acceptor molecule, acceptor atom, score
      L1  H    10    43       P1  8028  0.92
      P1  H  7989  7998       L1    18  0.02

> <Gold.Chemscore.Hbond.Weighted>
-5.8135

> <Gold.Chemscore.Metal.Weighted>
-0.0000

> <Gold.Chemscore.Lipo.Weighted>
-11.4397

> <Gold.Chemscore.Internal_Hbond.Weighted>
0.0000

> <Gold.Chemscore.DEClash.Weighted>
0.0726

> <Gold.Chemscore.DEInternal.Weighted>
1.7522

> <Gold.Chemscore.Rot.Weighted>
6.0454

> <Gold.Chemscore.Internal.Correction.Weighted>
   9.000000E+99

> <Gold.Protein.RotatedTorsions>
[ 6907 6896 6895 6894 ] final  147.93 input  -60.11 | X-H torsion
[ 7974 7965 7964 7962 ] final  -59.79 input  175.53 | X-H torsion
[ 8008 7997 7996 7995 ] final  -22.47 input   59.86 | X-H torsion
[ 10167 10162 10161 10158 ] final  -89.36 input  -65.29 | X-H torsion
[ 10718 10713 10712 10709 ] final -106.96 input   66.30 | X-H torsion
[ 10763 10752 10751 10750 ] final  -88.08 input  -60.55 | X-H torsion
[ 11005 11000 10999 10996 ] final  -92.13 input  -57.11 | X-H torsion

> <Gold.Protein.ActiveResidues>
 VAL166  LYS551  ARG553  GLY616  TRP617  ASP618  TYR619  PRO620  LYS621  CYS622 
 ASP623  PHE694  ASN695  SER759  ASP760  ASP761  ALA762  ILE779  LEU786  VAL792 
 PHE793  MET794  SER795  GLU796  ALA797  LYS798  CYS799  TRP800  GLU811  SER814 

> <Gold.Protein.RotatedAtoms>
  152.1483  133.4506  159.4800 H   0  0  0  0  0  0  0  0  0  0  0  0  # atno 6907 bound_to 6896
  150.6893  134.2221  159.4410 H   0  0  0  0  0  0  0  0  0  0  0  0  # atno 6908 bound_to 6896
  152.0116  134.9873  160.0619 H   0  0  0  0  0  0  0  0  0  0  0  0  # atno 6909 bound_to 6896
  145.8232  140.8527  143.0122 H   0  0  0  0  0  0  0  0  0  0  0  0  # atno 7974 bound_to 7965
  154.4642  140.2007  156.0163 H   0  0  0  0  0  0  0  0  0  0  0  0  # atno 8008 bound_to 7997
  156.0896  140.3260  155.7770 H   0  0  0  0  0  0  0  0  0  0  0  0  # atno 8009 bound_to 7997
  155.4978  140.0551  157.2934 H   0  0  0  0  0  0  0  0  0  0  0  0  # atno 8010 bound_to 7997
  140.3656  143.2820  151.9563 H   0  0  0  0  0  0  0  0  0  0  0  0  # atno 10167 bound_to 10162
  156.0414  130.5639  150.7754 H   0  0  0  0  0  0  0  0  0  0  0  0  # atno 10718 bound_to 10713
  154.6406  135.5390  153.7785 H   0  0  0  0  0  0  0  0  0  0  0  0  # atno 10763 bound_to 10752
  153.0332  135.6458  154.1165 H   0  0  0  0  0  0  0  0  0  0  0  0  # atno 10764 bound_to 10752
  154.1090  135.2928  155.3215 H   0  0  0  0  0  0  0  0  0  0  0  0  # atno 10765 bound_to 10752
  141.1529  133.7800  156.9976 H   0  0  0  0  0  0  0  0  0  0  0  0  # atno 11005 bound_to 11000
  144.6746  140.0564  143.7477 LP  0  0  0  0  0  0  0  0  0  0  0  0  # atno 17320 bound_to 7965
  145.9652  139.2829  143.1132 LP  0  0  0  0  0  0  0  0  0  0  0  0  # atno 17321 bound_to 7965
  139.4809  144.5954  151.7700 LP  0  0  0  0  0  0  0  0  0  0  0  0  # atno 17342 bound_to 10162
  140.5084  144.1062  150.5989 LP  0  0  0  0  0  0  0  0  0  0  0  0  # atno 17343 bound_to 10162
  157.5237  131.0933  151.0046 LP  0  0  0  0  0  0  0  0  0  0  0  0  # atno 17370 bound_to 10713
  157.0370  130.5734  149.5351 LP  0  0  0  0  0  0  0  0  0  0  0  0  # atno 17371 bound_to 10713
  140.0961  134.9563  157.1851 LP  0  0  0  0  0  0  0  0  0  0  0  0  # atno 17394 bound_to 11000
  140.3380  134.2735  155.7216 LP  0  0  0  0  0  0  0  0  0  0  0  0  # atno 17395 bound_to 11000

$$$$
