AV-unprocessed.smi:2274|AV-procd|sdf|9169|dock8
  -GOLD-   2272012383D 1   1.00000     0.00000
 Structure written by MMmdl.
 47 48  0  0  0  0  0  0  0  0  1 V2000
  150.9606  142.1636  157.7832 C   0  0  0  0  0  0  0  0  0  0  0  0
  150.6149  142.3381  156.2953 C   0  0  0  0  0  0  0  0  0  0  0  0
  150.3672  141.0799  155.6011 N   0  0  0  0  0  0  0  0  0  0  0  0
  151.3533  140.1493  155.5408 N   0  0  0  0  0  0  0  0  0  0  0  0
  150.8628  139.1560  154.8195 C   0  0  0  0  0  0  0  0  0  0  0  0
  151.7036  137.9404  154.5553 C   0  0  0  0  0  0  0  0  0  0  0  0
  149.5340  139.4408  154.4097 C   0  0  0  0  0  0  0  0  0  0  0  0
  148.7472  138.5887  153.5950 N   0  0  0  0  0  0  0  0  0  0  0  0
  147.4074  138.5241  153.5588 C   0  0  0  0  0  0  0  0  0  0  0  0
  146.6512  139.1912  154.2651 O   0  0  0  0  0  0  0  0  0  0  0  0
  146.9857  137.6226  152.6614 N   0  0  0  0  0  0  0  0  0  0  0  0
  145.5893  137.3194  152.3704 C   0  0  0  0  0  0  0  0  0  0  0  0
  145.4520  136.4200  151.1296 C   0  0  0  0  0  0  0  0  0  0  0  0
  145.2345  134.9404  151.4830 C   0  0  1  0  0  0  0  0  0  0  0  0
  144.4597  134.1936  150.3793 C   0  0  0  0  0  0  0  0  0  0  0  0
  144.3320  132.7050  150.7223 C   0  0  0  0  0  0  0  0  0  0  0  0
  145.7184  132.1237  151.0173 C   0  0  0  0  0  0  0  0  0  0  0  0
  146.4337  132.9685  152.0831 C   0  0  0  0  0  0  0  0  0  0  0  0
  146.5101  134.3250  151.6552 O   0  0  0  0  0  0  0  0  0  0  0  0
  149.2493  140.6992  154.8717 C   0  0  0  0  0  0  0  0  0  0  0  0
  148.0624  141.5946  154.6906 C   0  0  0  0  0  0  0  0  0  0  0  0
  151.0709  143.1335  158.2681 H   0  0  0  0  0  0  0  0  0  0  0  0
  151.8979  141.6234  157.9190 H   0  0  0  0  0  0  0  0  0  0  0  0
  150.1762  141.6175  158.3081 H   0  0  0  0  0  0  0  0  0  0  0  0
  149.7271  142.9650  156.2151 H   0  0  0  0  0  0  0  0  0  0  0  0
  151.4213  142.8599  155.7791 H   0  0  0  0  0  0  0  0  0  0  0  0
  151.2952  137.3434  153.7398 H   0  0  0  0  0  0  0  0  0  0  0  0
  151.7549  137.3038  155.4386 H   0  0  0  0  0  0  0  0  0  0  0  0
  152.7227  138.2160  154.2829 H   0  0  0  0  0  0  0  0  0  0  0  0
  149.2515  137.8972  153.0598 H   0  0  0  0  0  0  0  0  0  0  0  0
  147.6804  137.1164  152.1319 H   0  0  0  0  0  0  0  0  0  0  0  0
  145.1680  136.8206  153.2434 H   0  0  0  0  0  0  0  0  0  0  0  0
  145.0247  138.2438  152.2387 H   0  0  0  0  0  0  0  0  0  0  0  0
  144.6108  136.7677  150.5284 H   0  0  0  0  0  0  0  0  0  0  0  0
  146.3381  136.5186  150.5011 H   0  0  0  0  0  0  0  0  0  0  0  0
  144.6764  134.8800  152.4193 H   0  0  0  0  0  0  0  0  0  0  0  0
  143.4694  134.6311  150.2489 H   0  0  0  0  0  0  0  0  0  0  0  0
  144.9782  134.3038  149.4260 H   0  0  0  0  0  0  0  0  0  0  0  0
  143.6886  132.5819  151.5945 H   0  0  0  0  0  0  0  0  0  0  0  0
  143.8580  132.1638  149.9030 H   0  0  0  0  0  0  0  0  0  0  0  0
  145.6320  131.0885  151.3484 H   0  0  0  0  0  0  0  0  0  0  0  0
  146.3133  132.1124  150.1034 H   0  0  0  0  0  0  0  0  0  0  0  0
  145.9162  132.9073  153.0418 H   0  0  0  0  0  0  0  0  0  0  0  0
  147.4443  132.5924  152.2433 H   0  0  0  0  0  0  0  0  0  0  0  0
  147.5060  141.3333  153.7910 H   0  0  0  0  0  0  0  0  0  0  0  0
  148.3637  142.6366  154.5850 H   0  0  0  0  0  0  0  0  0  0  0  0
  147.3867  141.5188  155.5427 H   0  0  0  0  0  0  0  0  0  0  0  0
  1  2  1  0  0  0  0
  1 22  1  0  0  0  0
  1 23  1  0  0  0  0
  1 24  1  0  0  0  0
  2  3  1  0  0  0  0
  2 25  1  0  0  0  0
  2 26  1  0  0  0  0
  3 20  1  0  0  0  0
  3  4  1  0  0  0  0
  4  5  2  0  0  0  0
  5  6  1  0  0  0  0
  5  7  1  0  0  0  0
  6 27  1  0  0  0  0
  6 28  1  0  0  0  0
  6 29  1  0  0  0  0
  7  8  1  0  0  0  0
  7 20  2  0  0  0  0
  8  9  1  0  0  0  0
  8 30  1  0  0  0  0
  9 10  2  0  0  0  0
  9 11  1  0  0  0  0
 11 12  1  0  0  0  0
 11 31  1  0  0  0  0
 12 13  1  0  0  0  0
 12 32  1  0  0  0  0
 12 33  1  0  0  0  0
 13 14  1  0  0  0  0
 13 34  1  0  0  0  0
 13 35  1  0  0  0  0
 14 19  1  0  0  0  0
 14 15  1  0  0  0  0
 14 36  1  0  0  0  0
 15 16  1  0  0  0  0
 15 37  1  0  0  0  0
 15 38  1  0  0  0  0
 16 17  1  0  0  0  0
 16 39  1  0  0  0  0
 16 40  1  0  0  0  0
 17 18  1  0  0  0  0
 17 41  1  0  0  0  0
 17 42  1  0  0  0  0
 18 19  1  0  0  0  0
 18 43  1  0  0  0  0
 18 44  1  0  0  0  0
 20 21  1  0  0  0  0
 21 45  1  0  0  0  0
 21 46  1  0  0  0  0
 21 47  1  0  0  0  0
M  END
> <s_m_source_file>
AV-unprocessed.smi

> <i_m_source_file_index>
2274

> <i_lp_mmshare_version>
43012

> <i_f3d_flags>
0

> <s_epik_input>
W0NIM11bQ0gyXW4xbmMoW0NIM10pYyhjMVtDSDNdKVtOSF1DKD1PKVtOSF1bQ0gyXVtDSDJdW0NAQEhdMltDSDJdW0NIMl1bQ0gyXVtDSDJdTzI=

> <s_epik_cmdline>
J2VwaWtfcHl0aG9uJywgJy1waCcsICc3LjAnLCAnLXRuJywgJzgnLCAnLW1hJywgJzIwMCcsICctbWV0YWxfYmluZGluZycsICctaW1hZScsICc8aW5maWxlLm1hZT4nLCAnLW9tYWUnLCAnPG91dGZpbGUubWFlPic=

> <r_lp_tautomer_probability>
1

> <r_epik_Ionization_Penalty>
0.00368263

> <r_epik_Ionization_Penalty_Charging>
0

> <r_epik_Ionization_Penalty_Neutral>
0.00368263

> <r_epik_State_Penalty>
0.00259417

> <r_epik_Charging_Adjusted_Penalty>
0.00259417

> <i_epik_Tot_Q>
0

> <i_epik_Tot_abs_Q>
0

> <r_epik_Metal_State_Penalty>
-0

> <b_epik_Metal_Only>
0

> <s_lp_Force_Field>
OPLS_2005

> <r_lp_Energy>
13.1283

> <b_lp_Chiralities_Consistent>
1

> <s_lp_Variant>
AV-unprocessed.smi:2274-2

> <Gold.Version>
5.8.1

> <Gold.Id.Protein>
6NUR|6NUR_protein|mol2

> <Gold.PLP.Fitness>
46.2742

> <Gold.PLP.PLP>
-42.0757

> <Gold.PLP.part.hbond>
-3.7600

> <Gold.PLP.part.metal>
0.0000

> <Gold.PLP.part.buried>
-1.9287

> <Gold.PLP.part.nonpolar>
-38.0702

> <Gold.PLP.part.repulsive>
1.0238

> <Gold.PLP.ligand.clash>
0.0000

> <Gold.PLP.ligand.torsion>
0.8255

> <Gold.PLP.Chemscore.Hbond>
1.8480

> <Gold.PLP.Chemscore.CHOScore>
0.0000

> <Gold.PLP.Chemscore.Metal>
0.0000

> <Gold.Chemscore.Hbonds>
donor molecule, donor type, donor heavy atom, donor atom, acceptor molecule, acceptor atom, score
      L1  H     8    30       P1  7948  0.84
      L1  H    11    31       P1  7948  1.00

> <Gold.PLP.Chemscore.Internal.Correction>
0.3055

> <Gold.Rescore>
     Score         DG    S(hbond)    S(metal)    S(lipo)     H(rot)  DE(clash)    DE(int)     intcor
     16.97     -18.77       1.74        0.00      95.81       1.46       0.79       1.01       ----

> <Gold.Chemscore.Fitness>
16.9706

> <Gold.Chemscore.DG>
-18.7729

> <Gold.Chemscore.ZeroCoef>
-5.4800

> <Gold.Chemscore.Hbond>
1.7431

> <Gold.Chemscore.Metal>
0.0000

> <Gold.Chemscore.Lipo>
95.8129

> <Gold.Chemscore.Internal_Hbond>
0.0000

> <Gold.Chemscore.DEClash>
0.7922

> <Gold.Chemscore.DEInternal>
1.0101

> <Gold.Chemscore.Rot>
1.4606

> <Gold.Chemscore.Internal.Correction>
   9.000000E+99

> <Gold.Chemscore.Hbonds>
donor molecule, donor type, donor heavy atom, donor atom, acceptor molecule, acceptor atom, score
      L1  H     8    30       P1  7948  0.76
      L1  H    11    31       P1  7948  0.96

> <Gold.Chemscore.Hbond.Weighted>
-5.8221

> <Gold.Chemscore.Metal.Weighted>
-0.0000

> <Gold.Chemscore.Lipo.Weighted>
-11.2101

> <Gold.Chemscore.Internal_Hbond.Weighted>
0.0000

> <Gold.Chemscore.DEClash.Weighted>
0.7922

> <Gold.Chemscore.DEInternal.Weighted>
1.0101

> <Gold.Chemscore.Rot.Weighted>
3.7393

> <Gold.Chemscore.Internal.Correction.Weighted>
   9.000000E+99

> <Gold.Protein.RotatedTorsions>
[ 6907 6896 6895 6894 ] final  178.64 input  -60.11 | X-H torsion
[ 7974 7965 7964 7962 ] final -165.91 input  175.53 | X-H torsion
[ 8008 7997 7996 7995 ] final   28.43 input   59.86 | X-H torsion
[ 10167 10162 10161 10158 ] final  -59.07 input  -65.29 | X-H torsion
[ 10718 10713 10712 10709 ] final  -50.87 input   66.30 | X-H torsion
[ 10763 10752 10751 10750 ] final  122.43 input  -60.55 | X-H torsion
[ 11005 11000 10999 10996 ] final  -85.59 input  -57.11 | X-H torsion

> <Gold.Protein.ActiveResidues>
 VAL166  LYS551  ARG553  GLY616  TRP617  ASP618  TYR619  PRO620  LYS621  CYS622 
 ASP623  PHE694  ASN695  SER759  ASP760  ASP761  ALA762  ILE779  LEU786  VAL792 
 PHE793  MET794  SER795  GLU796  ALA797  LYS798  CYS799  TRP800  GLU811  SER814 

> <Gold.Protein.RotatedAtoms>
  151.6845  133.3311  159.3227 H   0  0  0  0  0  0  0  0  0  0  0  0  # atno 6907 bound_to 6896
  150.7807  134.6752  159.6423 H   0  0  0  0  0  0  0  0  0  0  0  0  # atno 6908 bound_to 6896
  152.3864  134.6514  160.0176 H   0  0  0  0  0  0  0  0  0  0  0  0  # atno 6909 bound_to 6896
  144.7258  140.2745  143.6245 H   0  0  0  0  0  0  0  0  0  0  0  0  # atno 7974 bound_to 7965
  155.0585  140.3187  155.4668 H   0  0  0  0  0  0  0  0  0  0  0  0  # atno 8008 bound_to 7997
  156.2818  140.2133  156.5656 H   0  0  0  0  0  0  0  0  0  0  0  0  # atno 8009 bound_to 7997
  154.7152  140.0494  157.0575 H   0  0  0  0  0  0  0  0  0  0  0  0  # atno 8010 bound_to 7997
  140.6158  143.2402  151.5601 H   0  0  0  0  0  0  0  0  0  0  0  0  # atno 10167 bound_to 10162
  156.1761  130.4150  149.9575 H   0  0  0  0  0  0  0  0  0  0  0  0  # atno 10718 bound_to 10713
  153.6297  135.3398  155.3038 H   0  0  0  0  0  0  0  0  0  0  0  0  # atno 10763 bound_to 10752
  154.8583  135.4292  154.2119 H   0  0  0  0  0  0  0  0  0  0  0  0  # atno 10764 bound_to 10752
  153.3011  135.7024  153.7275 H   0  0  0  0  0  0  0  0  0  0  0  0  # atno 10765 bound_to 10752
  141.1639  133.7408  156.9038 H   0  0  0  0  0  0  0  0  0  0  0  0  # atno 11005 bound_to 11000
  145.8010  139.1964  143.2048 LP  0  0  0  0  0  0  0  0  0  0  0  0  # atno 17320 bound_to 7965
  146.0676  140.7904  142.9704 LP  0  0  0  0  0  0  0  0  0  0  0  0  # atno 17321 bound_to 7965
  139.5397  144.2681  152.1326 LP  0  0  0  0  0  0  0  0  0  0  0  0  # atno 17342 bound_to 10162
  140.1890  144.4770  150.6488 LP  0  0  0  0  0  0  0  0  0  0  0  0  # atno 17343 bound_to 10162
  156.7360  130.9061  151.3629 LP  0  0  0  0  0  0  0  0  0  0  0  0  # atno 17370 bound_to 10713
  157.6836  130.9164  150.0330 LP  0  0  0  0  0  0  0  0  0  0  0  0  # atno 17371 bound_to 10713
  140.1564  134.9195  157.2659 LP  0  0  0  0  0  0  0  0  0  0  0  0  # atno 17394 bound_to 11000
  140.2662  134.3513  155.7389 LP  0  0  0  0  0  0  0  0  0  0  0  0  # atno 17395 bound_to 11000

$$$$
