AV-unprocessed.smi:36|AV-procd|sdf|302|dock7
  -GOLD-   2262016113D 1   1.00000     0.00000
 Structure written by MMmdl.
 63 66  0  0  0  0  0  0  0  0  2 V2000
  143.0216  145.5189  154.8060 C   0  0  0  0  0  0  0  0  0  0  0  0
  142.7780  145.2228  156.2949 C   0  0  0  0  0  0  0  0  0  0  0  0
  143.7902  145.9966  157.1561 C   0  0  0  0  0  0  0  0  0  0  0  0
  141.3479  145.6344  156.6814 C   0  0  0  0  0  0  0  0  0  0  0  0
  142.9953  143.3519  156.6139 Si  0  0  0  0  0  0  0  0  0  0  0  0
  142.8732  142.9509  158.4670 C   0  0  0  0  0  0  0  0  0  0  0  0
  141.7079  142.3403  155.6494 C   0  0  0  0  0  0  0  0  0  0  0  0
  144.5368  142.9097  156.0759 O   0  0  0  0  0  0  0  0  0  0  0  0
  144.9578  141.5703  155.9265 C   0  0  0  0  0  0  0  0  0  0  0  0
  146.3832  141.5482  155.3607 C   0  0  1  0  0  0  0  0  0  0  0  0
  146.7821  140.2063  155.1001 O   0  0  0  0  0  0  0  0  0  0  0  0
  147.7155  140.1777  154.0595 C   0  0  2  0  0  0  0  0  0  0  0  0
  149.0295  139.7374  154.6182 N   0  0  0  0  0  0  0  0  0  0  0  0
  149.7251  138.6132  154.3494 C   0  0  0  0  0  0  0  0  0  0  0  0
  150.8838  138.4432  154.9826 N   0  0  0  0  0  0  0  0  0  0  0  0
  150.9513  139.5921  155.7569 C   0  0  0  0  0  0  0  0  0  0  0  0
  151.9190  140.0670  156.6841 C   0  0  0  0  0  0  0  0  0  0  0  0
  153.0437  139.3912  156.9648 N   0  5  0  0  0  0  0  0  0  0  0  0
  153.1032  138.6058  158.0699 C   0  0  0  0  0  0  0  0  0  0  0  0
  152.7686  137.4240  158.1772 O   0  0  0  0  0  0  0  0  0  0  0  0
  153.5892  139.3355  159.2934 C   0  0  0  0  0  0  0  0  0  0  0  0
  154.2375  138.6190  160.3251 C   0  0  0  0  0  0  0  0  0  0  0  0
  154.7271  139.2883  161.4636 C   0  0  0  0  0  0  0  0  0  0  0  0
  154.5818  140.6834  161.5788 C   0  0  0  0  0  0  0  0  0  0  0  0
  153.9494  141.4094  160.5523 C   0  0  0  0  0  0  0  0  0  0  0  0
  153.4596  140.7410  159.4133 C   0  0  0  0  0  0  0  0  0  0  0  0
  151.6701  141.2649  157.2726 N   0  0  0  0  0  0  0  0  0  0  0  0
  150.5497  141.9394  156.9871 C   0  0  0  0  0  0  0  0  0  0  0  0
  149.5598  141.6104  156.1505 N   0  0  0  0  0  0  0  0  0  0  0  0
  149.8054  140.4124  155.5443 C   0  0  0  0  0  0  0  0  0  0  0  0
  147.8275  141.6014  153.5020 C   0  0  0  0  0  0  0  0  0  0  0  0
  146.5439  142.2328  154.0027 C   0  0  2  0  0  0  0  0  0  0  0  0
  146.6755  143.6356  154.1127 O   0  0  0  0  0  0  0  0  0  0  0  0
  142.9046  146.5814  154.5900 H   0  0  0  0  0  0  0  0  0  0  0  0
  142.3189  144.9762  154.1732 H   0  0  0  0  0  0  0  0  0  0  0  0
  144.0284  145.2311  154.5022 H   0  0  0  0  0  0  0  0  0  0  0  0
  144.8161  145.7349  156.8963 H   0  0  0  0  0  0  0  0  0  0  0  0
  143.6547  145.7798  158.2163 H   0  0  0  0  0  0  0  0  0  0  0  0
  143.6829  147.0736  157.0234 H   0  0  0  0  0  0  0  0  0  0  0  0
  141.1884  146.7029  156.5307 H   0  0  0  0  0  0  0  0  0  0  0  0
  141.1422  145.4148  157.7295 H   0  0  0  0  0  0  0  0  0  0  0  0
  140.6063  145.1053  156.0824 H   0  0  0  0  0  0  0  0  0  0  0  0
  141.9100  143.2494  158.8800 H   0  0  0  0  0  0  0  0  0  0  0  0
  143.6463  143.4629  159.0395 H   0  0  0  0  0  0  0  0  0  0  0  0
  142.9882  141.8831  158.6519 H   0  0  0  0  0  0  0  0  0  0  0  0
  140.6914  142.6120  155.9322 H   0  0  0  0  0  0  0  0  0  0  0  0
  141.8193  141.2721  155.8325 H   0  0  0  0  0  0  0  0  0  0  0  0
  141.7994  142.4958  154.5748 H   0  0  0  0  0  0  0  0  0  0  0  0
  144.9382  141.0917  156.9059 H   0  0  0  0  0  0  0  0  0  0  0  0
  144.2717  141.0201  155.2819 H   0  0  0  0  0  0  0  0  0  0  0  0
  147.0834  141.9688  156.0848 H   0  0  0  0  0  0  0  0  0  0  0  0
  147.4385  139.4279  153.3178 H   0  0  0  0  0  0  0  0  0  0  0  0
  149.3617  137.8756  153.6495 H   0  0  0  0  0  0  0  0  0  0  0  0
  154.3598  137.5480  160.2507 H   0  0  0  0  0  0  0  0  0  0  0  0
  155.2168  138.7300  162.2476 H   0  0  0  0  0  0  0  0  0  0  0  0
  154.9589  141.1967  162.4506 H   0  0  0  0  0  0  0  0  0  0  0  0
  153.8429  142.4809  160.6356 H   0  0  0  0  0  0  0  0  0  0  0  0
  152.9883  141.3186  158.6312 H   0  0  0  0  0  0  0  0  0  0  0  0
  150.4297  142.8802  157.5031 H   0  0  0  0  0  0  0  0  0  0  0  0
  148.7003  142.1006  153.9277 H   0  0  0  0  0  0  0  0  0  0  0  0
  147.9191  141.5938  152.4154 H   0  0  0  0  0  0  0  0  0  0  0  0
  145.7154  141.9812  153.3392 H   0  0  0  0  0  0  0  0  0  0  0  0
  147.5101  143.8281  154.5121 H   0  0  0  0  0  0  0  0  0  0  0  0
  1  2  1  0  0  0  0
  1 34  1  0  0  0  0
  1 35  1  0  0  0  0
  1 36  1  0  0  0  0
  2  3  1  0  0  0  0
  2  4  1  0  0  0  0
  2  5  1  0  0  0  0
  3 37  1  0  0  0  0
  3 38  1  0  0  0  0
  3 39  1  0  0  0  0
  4 40  1  0  0  0  0
  4 41  1  0  0  0  0
  4 42  1  0  0  0  0
  5  6  1  0  0  0  0
  5  7  1  0  0  0  0
  5  8  1  0  0  0  0
  6 43  1  0  0  0  0
  6 44  1  0  0  0  0
  6 45  1  0  0  0  0
  7 46  1  0  0  0  0
  7 47  1  0  0  0  0
  7 48  1  0  0  0  0
  8  9  1  0  0  0  0
  9 10  1  0  0  0  0
  9 49  1  0  0  0  0
  9 50  1  0  0  0  0
 10 32  1  0  0  0  0
 10 11  1  0  0  0  0
 10 51  1  0  0  0  0
 11 12  1  0  0  0  0
 12 13  1  0  0  0  0
 12 31  1  0  0  0  0
 12 52  1  0  0  0  0
 13 30  1  0  0  0  0
 13 14  1  0  0  0  0
 14 15  2  0  0  0  0
 14 53  1  0  0  0  0
 15 16  1  0  0  0  0
 16 30  2  0  0  0  0
 16 17  1  0  0  0  0
 17 18  1  0  0  0  0
 17 27  2  0  0  0  0
 18 19  1  0  0  0  0
 19 20  2  0  0  0  0
 19 21  1  0  0  0  0
 21 26  1  0  0  0  0
 21 22  2  0  0  0  0
 22 23  1  0  0  0  0
 22 54  1  0  0  0  0
 23 24  2  0  0  0  0
 23 55  1  0  0  0  0
 24 25  1  0  0  0  0
 24 56  1  0  0  0  0
 25 26  2  0  0  0  0
 25 57  1  0  0  0  0
 26 58  1  0  0  0  0
 27 28  1  0  0  0  0
 28 29  2  0  0  0  0
 28 59  1  0  0  0  0
 29 30  1  0  0  0  0
 31 32  1  0  0  0  0
 31 60  1  0  0  0  0
 31 61  1  0  0  0  0
 32 33  1  0  0  0  0
 32 62  1  0  0  0  0
 33 63  1  0  0  0  0
M  CHG  1  18  -1
M  END
> <s_m_source_file>
AV-unprocessed.smi

> <i_m_source_file_index>
36

> <i_lp_mmshare_version>
43012

> <i_f3d_flags>
0

> <s_epik_input>
W0NIM11DKFtDSDNdKShbQ0gzXSlbU2ldKFtDSDNdKShbQ0gzXSlPW0NIMl1bQ0BASF0xT1tDQEhdKFtDSDJdW0NASF0xW09IXSluKFtjSF1uMiljKGMyMyluW2NIXW5jM1tOSF1DKD1PKWM0W2NIXVtjSF1bY0hdW2NIXVtjSF00

> <s_epik_cmdline>
J2VwaWtfcHl0aG9uJywgJy1waCcsICc3LjAnLCAnLXRuJywgJzgnLCAnLW1hJywgJzIwMCcsICctbWV0YWxfYmluZGluZycsICctaW1hZScsICc8aW5maWxlLm1hZT4nLCAnLW9tYWUnLCAnPG91dGZpbGUubWFlPic=

> <r_lp_tautomer_probability>
1

> <r_epik_Ionization_Penalty>
4.75685

> <r_epik_Ionization_Penalty_Charging>
3.55822

> <r_epik_Ionization_Penalty_Neutral>
1.19863

> <r_epik_State_Penalty>
3.564

> <r_epik_Charging_Adjusted_Penalty>
7.12222

> <i_epik_Tot_Q>
-1

> <i_epik_Tot_abs_Q>
1

> <r_epik_Metal_State_Penalty>
0.523258

> <b_epik_Metal_Only>
1

> <s_epik_Chemistry_Notes>
This compound contains an acetal/aminal-like group ( X-CH(R)-Y where X, Y are N, S, or O) that may be acid/base labile, releasing an aldehyde.

> <s_lp_Force_Field>
OPLS_2005

> <r_lp_Energy>
39.042

> <b_lp_Chiralities_Consistent>
1

> <s_lp_Variant>
AV-unprocessed.smi:36-24

> <Gold.Version>
5.8.1

> <Gold.Id.Protein>
6NUR|6NUR_protein|mol2

> <Gold.PLP.Fitness>
52.2520

> <Gold.PLP.PLP>
-44.3787

> <Gold.PLP.part.hbond>
-3.0000

> <Gold.PLP.part.metal>
0.0000

> <Gold.PLP.part.buried>
-2.4260

> <Gold.PLP.part.nonpolar>
-38.9123

> <Gold.PLP.part.repulsive>
0.5978

> <Gold.PLP.ligand.clash>
0.0000

> <Gold.PLP.ligand.torsion>
2.0294

> <Gold.PLP.Chemscore.Hbond>
2.6110

> <Gold.PLP.Chemscore.CHOScore>
1.2505

> <Gold.PLP.Chemscore.Metal>
0.0000

> <Gold.Chemscore.Hbonds>
donor molecule, donor type, donor heavy atom, donor atom, acceptor molecule, acceptor atom, score
      L1  H    33    63       P1  8028  0.70
      P1  H  7997  8010       L1    18  2.00
      L1  C    14    53       P1  7948  1.00

> <Gold.PLP.Chemscore.Internal.Correction>
0.3476

> <Gold.Rescore>
     Score         DG    S(hbond)    S(metal)    S(lipo)     H(rot)  DE(clash)    DE(int)     intcor
      9.59     -12.16       0.97        0.00      87.72       2.67       0.84       1.72       ----

> <Gold.Chemscore.Fitness>
9.5931

> <Gold.Chemscore.DG>
-12.1581

> <Gold.Chemscore.ZeroCoef>
-5.4800

> <Gold.Chemscore.Hbond>
0.9732

> <Gold.Chemscore.Metal>
0.0000

> <Gold.Chemscore.Lipo>
87.7216

> <Gold.Chemscore.Internal_Hbond>
0.0000

> <Gold.Chemscore.DEClash>
0.8432

> <Gold.Chemscore.DEInternal>
1.7218

> <Gold.Chemscore.Rot>
2.6702

> <Gold.Chemscore.Internal.Correction>
   9.000000E+99

> <Gold.Chemscore.Hbonds>
donor molecule, donor type, donor heavy atom, donor atom, acceptor molecule, acceptor atom, score
      L1  H    33    63       P1  8028  0.07
      P1  H  7997  8010       L1    18  0.80

> <Gold.Chemscore.Hbond.Weighted>
-3.2504

> <Gold.Chemscore.Metal.Weighted>
-0.0000

> <Gold.Chemscore.Lipo.Weighted>
-10.2634

> <Gold.Chemscore.Internal_Hbond.Weighted>
0.0000

> <Gold.Chemscore.DEClash.Weighted>
0.8432

> <Gold.Chemscore.DEInternal.Weighted>
1.7218

> <Gold.Chemscore.Rot.Weighted>
6.8358

> <Gold.Chemscore.Internal.Correction.Weighted>
   9.000000E+99

> <Gold.Protein.RotatedTorsions>
[ 6907 6896 6895 6894 ] final  114.87 input  -60.11 | X-H torsion
[ 7974 7965 7964 7962 ] final -138.24 input  175.53 | X-H torsion
[ 8008 7997 7996 7995 ] final   69.24 input   59.86 | X-H torsion
[ 10167 10162 10161 10158 ] final -178.71 input  -65.29 | X-H torsion
[ 10718 10713 10712 10709 ] final  -89.32 input   66.30 | X-H torsion
[ 10763 10752 10751 10750 ] final  -22.19 input  -60.55 | X-H torsion
[ 11005 11000 10999 10996 ] final   64.39 input  -57.11 | X-H torsion

> <Gold.Protein.ActiveResidues>
 VAL166  LYS551  ARG553  GLY616  TRP617  ASP618  TYR619  PRO620  LYS621  CYS622 
 ASP623  PHE694  ASN695  SER759  ASP760  ASP761  ALA762  ILE779  LEU786  VAL792 
 PHE793  MET794  SER795  GLU796  ALA797  LYS798  CYS799  TRP800  GLU811  SER814 

> <Gold.Protein.RotatedAtoms>
  152.4776  133.8176  159.7036 H   0  0  0  0  0  0  0  0  0  0  0  0  # atno 6907 bound_to 6896
  150.8803  133.7371  159.2940 H   0  0  0  0  0  0  0  0  0  0  0  0  # atno 6908 bound_to 6896
  151.4877  135.1059  159.9847 H   0  0  0  0  0  0  0  0  0  0  0  0  # atno 6909 bound_to 6896
  144.8775  140.6459  143.5227 H   0  0  0  0  0  0  0  0  0  0  0  0  # atno 7974 bound_to 7965
  155.7206  140.3493  155.5014 H   0  0  0  0  0  0  0  0  0  0  0  0  # atno 8008 bound_to 7997
  155.9273  140.1078  157.1182 H   0  0  0  0  0  0  0  0  0  0  0  0  # atno 8009 bound_to 7997
  154.4079  140.1238  156.4743 H   0  0  0  0  0  0  0  0  0  0  0  0  # atno 8010 bound_to 7997
  139.5419  144.2339  152.0913 H   0  0  0  0  0  0  0  0  0  0  0  0  # atno 10167 bound_to 10162
  155.9984  130.4868  150.5153 H   0  0  0  0  0  0  0  0  0  0  0  0  # atno 10718 bound_to 10713
  153.6480  135.6982  153.5218 H   0  0  0  0  0  0  0  0  0  0  0  0  # atno 10763 bound_to 10752
  153.2729  135.4209  155.1004 H   0  0  0  0  0  0  0  0  0  0  0  0  # atno 10764 bound_to 10752
  154.8483  135.3583  154.6024 H   0  0  0  0  0  0  0  0  0  0  0  0  # atno 10765 bound_to 10752
  139.9962  134.6514  156.0007 H   0  0  0  0  0  0  0  0  0  0  0  0  # atno 11005 bound_to 11000
  145.4015  139.1597  143.4175 LP  0  0  0  0  0  0  0  0  0  0  0  0  # atno 17320 bound_to 7965
  146.2972  140.4112  142.8717 LP  0  0  0  0  0  0  0  0  0  0  0  0  # atno 17321 bound_to 7965
  140.1819  144.4836  150.6524 LP  0  0  0  0  0  0  0  0  0  0  0  0  # atno 17342 bound_to 10162
  140.6653  143.2266  151.5758 LP  0  0  0  0  0  0  0  0  0  0  0  0  # atno 17343 bound_to 10162
  157.3121  131.0666  151.1993 LP  0  0  0  0  0  0  0  0  0  0  0  0  # atno 17370 bound_to 10713
  157.2936  130.6808  149.6127 LP  0  0  0  0  0  0  0  0  0  0  0  0  # atno 17371 bound_to 10713
  141.1606  133.6539  156.4306 LP  0  0  0  0  0  0  0  0  0  0  0  0  # atno 17394 bound_to 11000
  140.4814  134.6661  157.5172 LP  0  0  0  0  0  0  0  0  0  0  0  0  # atno 17395 bound_to 11000

$$$$
