#       Name:                AV-unprocessed.smi:1128
#       Creating user name   scv26
#       Creation time:       Fri Mar 27 03:40:58 2020


#       File generated by GOLD software.
#

@<TRIPOS>MOLECULE
AV-unprocessed.smi:1128
    42    43     1
SMALL
NO_CHARGES


@<TRIPOS>ATOM
      1 ****         0.3579   1.2318  -0.7385 O.2            1 S1                 0.0000
      2 ****        -0.1657   0.1494  -0.9993 C.2            1 S1                 0.0000
      3 ****         0.5321  -0.9826  -1.1719 N.am           1 S1                 0.0000
      4 ****         1.9845  -1.1101  -1.0887 C.3            1 S1                 0.0000
      5 ****         2.4389  -1.7517   0.2381 C.3            1 S1                 0.0000
      6 ****         2.0502  -0.9066   1.4749 C.3            1 S1                 0.0000
      7 ****         2.7327  -1.3786   2.7464 C.2            1 S1                 0.0000
      8 ****         3.7836  -2.2153   2.7560 C.2            1 S1                 0.0000
      9 ****         4.4129  -2.7765   1.4948 C.3            1 S1                 0.0000
     10 ****         3.9553  -2.0250   0.2308 C.3            1 S1                 0.0000
     11 ****        -1.4833  -0.0762  -1.1577 N.am           1 S1                 0.0000
     12 ****        -2.5693   0.8133  -1.0755 C.2            1 S1                 0.0000
     13 ****        -2.4947   2.1116  -0.6795 C.2            1 S1                 0.0000
     14 ****        -3.6661   2.9704  -0.6252 C.2            1 S1                 0.0000
     15 ****        -3.5767   4.4049  -0.1277 C.3            1 S1                 0.0000
     16 ****        -4.7348   4.8115   0.3941 F              1 S1                 0.0000
     17 ****        -2.6316   4.5279   0.8044 F              1 S1                 0.0000
     18 ****        -3.2690   5.2160  -1.1386 F              1 S1                 0.0000
     19 ****        -4.8405   2.4071  -0.9628 C.2            1 S1                 0.0000
     20 ****        -4.9261   1.0756  -1.3743 N.am           1 S1                 0.0000
     21 ****        -3.8701   0.2357  -1.4547 C.2            1 S1                 0.0000
     22 ****        -4.0302  -0.9269  -1.8249 O.2            1 S1                 0.0000
     23 ****        -5.8419   0.7297  -1.6220 H              1 S1                 0.0000
     24 ****         0.0181  -1.8250  -1.3847 H              1 S1                 0.0000
     25 ****         2.3011  -1.7348  -1.9243 H              1 S1                 0.0000
     26 ****         2.4754  -0.1459  -1.2323 H              1 S1                 0.0000
     27 ****         1.9393  -2.7183   0.3250 H              1 S1                 0.0000
     28 ****         2.3155   0.1400   1.3214 H              1 S1                 0.0000
     29 ****         0.9713  -0.9406   1.6286 H              1 S1                 0.0000
     30 ****         2.3395  -1.0006   3.6787 H              1 S1                 0.0000
     31 ****         4.2141  -2.5271   3.6963 H              1 S1                 0.0000
     32 ****         5.4987  -2.7290   1.5815 H              1 S1                 0.0000
     33 ****         4.1455  -3.8312   1.4244 H              1 S1                 0.0000
     34 ****         4.2358  -2.5999  -0.6524 H              1 S1                 0.0000
     35 ****         4.4892  -1.0763   0.1602 H              1 S1                 0.0000
     36 ****        -1.7436  -1.0234  -1.3913 H              1 S1                 0.0000
     37 ****        -1.5585   2.5563  -0.3880 H              1 S1                 0.0000
     38 ****        -5.7906   2.9205  -0.9426 H              1 S1                 0.0000
     39 ****         1.3514   1.2971  -0.6454 LP             1 S1                 0.0000
     40 ****        -0.2100   2.0462  -0.6196 LP             1 S1                 0.0000
     41 ****        -3.2466  -1.5455  -1.8829 LP             1 S1                 0.0000
     42 ****        -4.9438  -1.2530  -2.0676 LP             1 S1                 0.0000
@<TRIPOS>BOND
    1    1    2 2     
    2    2    3 am    
    3    2   11 am    
    4    3    4 1     
    5    3   24 1     
    6    4    5 1     
    7    4   25 1     
    8    4   26 1     
    9    5   10 1     
   10    5    6 1     
   11    5   27 1     
   12    6    7 1     
   13    6   28 1     
   14    6   29 1     
   15    7    8 2     
   16    7   30 1     
   17    8    9 1     
   18    8   31 1     
   19    9   10 1     
   20    9   32 1     
   21    9   33 1     
   22   10   34 1     
   23   10   35 1     
   24   11   12 1     
   25   11   36 1     
   26   12   21 1     
   27   12   13 2     
   28   13   14 1     
   29   13   37 1     
   30   14   15 1     
   31   14   19 2     
   32   15   16 1     
   33   15   17 1     
   34   15   18 1     
   35   19   20 1     
   36   19   38 1     
   37   20   23 1     
   38   20   21 am    
   39   21   22 2     
   40    1   39 1     
   41    1   40 1     
   42   22   41 1     
   43   22   42 1     
@<TRIPOS>SUBSTRUCTURE
      1 S1             1
@<TRIPOS>SET
LONE_PAIRS      STATIC     ATOMS    <user>   **** ""
4 39 40 41 42
DONOR_HYDROGENS      STATIC     ATOMS    <user>   **** ""
3 24 36 23
ATOM$BLUE        STATIC     ATOMS    COLORGROUP SYSTEM
4 39 40 41 42
ATOM$RED        STATIC     ATOMS    COLORGROUP SYSTEM
3 24 36 23
