AV-unprocessed.smi:2136|AV-procd|sdf|8702|dock9
  -GOLD-   2272011463D 1   1.00000     0.00000
 Structure written by MMmdl.
 42 43  0  0  0  0  0  0  0  0  1 V2000
  149.3275  135.5033  156.6924 C   0  0  0  0  0  0  0  0  0  0  0  0
  150.7621  136.5331  157.2130 S   0  0  0  0  0  0  0  0  0  0  0  0
  150.6851  136.7726  158.6622 O   0  0  0  0  0  0  0  0  0  0  0  0
  151.9658  135.9018  156.6503 O   0  0  0  0  0  0  0  0  0  0  0  0
  150.5020  138.0492  156.3756 N   0  0  0  0  0  0  0  0  0  0  0  0
  149.5642  138.0067  155.2276 C   0  0  0  0  0  0  0  0  0  0  0  0
  149.0698  139.3930  154.7946 C   0  0  0  0  0  0  0  0  0  0  0  0
  150.2399  140.3346  154.5351 C   0  0  0  0  0  0  0  0  0  0  0  0
  151.0536  140.4445  155.8214 C   0  0  0  0  0  0  0  0  0  0  0  0
  151.5927  139.0724  156.2940 C   0  0  1  0  0  0  0  0  0  0  0  0
  152.4085  139.2919  157.5804 C   0  0  0  0  0  0  0  0  0  0  0  0
  153.5174  138.7721  157.7109 O   0  0  0  0  0  0  0  0  0  0  0  0
  151.8489  140.0681  158.5216 N   0  0  0  0  0  0  0  0  0  0  0  0
  152.4712  140.4360  159.7868 C   0  0  0  0  0  0  0  0  0  0  0  0
  153.4606  141.5988  159.6081 C   0  0  0  0  0  0  0  0  0  0  0  0
  152.7714  142.9477  159.6627 C   0  0  0  0  0  0  0  0  0  0  0  0
  152.1985  143.4236  160.8601 C   0  0  0  0  0  0  0  0  0  0  0  0
  151.5755  144.6866  160.8582 C   0  0  0  0  0  0  0  0  0  0  0  0
  151.5515  145.4212  159.6556 C   0  0  0  0  0  0  0  0  0  0  0  0
  152.0956  144.9743  158.5030 N   0  0  0  0  0  0  0  0  0  0  0  0
  152.6913  143.7624  158.5134 C   0  0  0  0  0  0  0  0  0  0  0  0
  149.4663  134.4859  157.0567 H   0  0  0  0  0  0  0  0  0  0  0  0
  149.2650  135.4902  155.6047 H   0  0  0  0  0  0  0  0  0  0  0  0
  148.4027  135.8990  157.1044 H   0  0  0  0  0  0  0  0  0  0  0  0
  150.0592  137.5075  154.3936 H   0  0  0  0  0  0  0  0  0  0  0  0
  148.6928  137.4052  155.4848 H   0  0  0  0  0  0  0  0  0  0  0  0
  148.4588  139.3019  153.8961 H   0  0  0  0  0  0  0  0  0  0  0  0
  148.4222  139.8110  155.5666 H   0  0  0  0  0  0  0  0  0  0  0  0
  150.8612  139.9583  153.7215 H   0  0  0  0  0  0  0  0  0  0  0  0
  149.8755  141.3165  154.2320 H   0  0  0  0  0  0  0  0  0  0  0  0
  151.8818  141.1365  155.6616 H   0  0  0  0  0  0  0  0  0  0  0  0
  150.4273  140.8932  156.5948 H   0  0  0  0  0  0  0  0  0  0  0  0
  152.2859  138.7193  155.5283 H   0  0  0  0  0  0  0  0  0  0  0  0
  150.9369  140.4583  158.3320 H   0  0  0  0  0  0  0  0  0  0  0  0
  151.6806  140.7252  160.4797 H   0  0  0  0  0  0  0  0  0  0  0  0
  152.9689  139.5699  160.2263 H   0  0  0  0  0  0  0  0  0  0  0  0
  154.2239  141.5695  160.3862 H   0  0  0  0  0  0  0  0  0  0  0  0
  153.9872  141.5013  158.6575 H   0  0  0  0  0  0  0  0  0  0  0  0
  152.2356  142.8341  161.7646 H   0  0  0  0  0  0  0  0  0  0  0  0
  151.1269  145.0842  161.7565 H   0  0  0  0  0  0  0  0  0  0  0  0
  151.0822  146.3931  159.6184 H   0  0  0  0  0  0  0  0  0  0  0  0
  153.1196  143.4344  157.5777 H   0  0  0  0  0  0  0  0  0  0  0  0
  1  2  1  0  0  0  0
  1 22  1  0  0  0  0
  1 23  1  0  0  0  0
  1 24  1  0  0  0  0
  2  3  2  0  0  0  0
  2  4  2  0  0  0  0
  2  5  1  0  0  0  0
  5 10  1  0  0  0  0
  5  6  1  0  0  0  0
  6  7  1  0  0  0  0
  6 25  1  0  0  0  0
  6 26  1  0  0  0  0
  7  8  1  0  0  0  0
  7 27  1  0  0  0  0
  7 28  1  0  0  0  0
  8  9  1  0  0  0  0
  8 29  1  0  0  0  0
  8 30  1  0  0  0  0
  9 10  1  0  0  0  0
  9 31  1  0  0  0  0
  9 32  1  0  0  0  0
 10 11  1  0  0  0  0
 10 33  1  0  0  0  0
 11 12  2  0  0  0  0
 11 13  1  0  0  0  0
 13 14  1  0  0  0  0
 13 34  1  0  0  0  0
 14 15  1  0  0  0  0
 14 35  1  0  0  0  0
 14 36  1  0  0  0  0
 15 16  1  0  0  0  0
 15 37  1  0  0  0  0
 15 38  1  0  0  0  0
 16 21  1  0  0  0  0
 16 17  2  0  0  0  0
 17 18  1  0  0  0  0
 17 39  1  0  0  0  0
 18 19  2  0  0  0  0
 18 40  1  0  0  0  0
 19 20  1  0  0  0  0
 19 41  1  0  0  0  0
 20 21  2  0  0  0  0
 21 42  1  0  0  0  0
M  END
> <s_m_source_file>
AV-unprocessed.smi

> <i_m_source_file_index>
2136

> <i_lp_mmshare_version>
43012

> <i_f3d_flags>
0

> <s_epik_input>
W0NIM11TKD1PKSg9TylOMVtDSDJdW0NIMl1bQ0gyXVtDSDJdW0NASF0xQyg9TylbTkhdW0NIMl1bQ0gyXWMyW2NIXVtjSF1bY0hdbltjSF0y

> <s_epik_cmdline>
J2VwaWtfcHl0aG9uJywgJy1waCcsICc3LjAnLCAnLXRuJywgJzgnLCAnLW1hJywgJzIwMCcsICctbWV0YWxfYmluZGluZycsICctaW1hZScsICc8aW5maWxlLm1hZT4nLCAnLW9tYWUnLCAnPG91dGZpbGUubWFlPic=

> <r_epik_Ionization_Penalty>
0.0126915

> <r_epik_Ionization_Penalty_Charging>
0

> <r_epik_Ionization_Penalty_Neutral>
0.0126915

> <r_epik_State_Penalty>
0.0098379

> <r_epik_Charging_Adjusted_Penalty>
0.0098379

> <i_epik_Tot_Q>
0

> <i_epik_Tot_abs_Q>
0

> <r_epik_Metal_State_Penalty>
0.00962913

> <b_epik_Metal_Only>
0

> <s_lp_Force_Field>
OPLS_2005

> <r_lp_Energy>
4.41633

> <b_lp_Chiralities_Consistent>
1

> <s_lp_Variant>
AV-unprocessed.smi:2136-1

> <Gold.Version>
5.8.1

> <Gold.Id.Protein>
6NUR|6NUR_protein|mol2

> <Gold.PLP.Fitness>
45.5117

> <Gold.PLP.PLP>
-38.5662

> <Gold.PLP.part.hbond>
-3.0000

> <Gold.PLP.part.metal>
0.0000

> <Gold.PLP.part.buried>
-0.9655

> <Gold.PLP.part.nonpolar>
-34.8439

> <Gold.PLP.part.repulsive>
0.1569

> <Gold.PLP.ligand.clash>
0.0000

> <Gold.PLP.ligand.torsion>
1.9919

> <Gold.PLP.Chemscore.Hbond>
2.9440

> <Gold.PLP.Chemscore.CHOScore>
0.0000

> <Gold.PLP.Chemscore.Metal>
0.0000

> <Gold.Chemscore.Hbonds>
donor molecule, donor type, donor heavy atom, donor atom, acceptor molecule, acceptor atom, score
      P1  H  6896  6909       L1     3  0.76
      P1  H  7997  8010       L1    12  0.88
      P1  H 10752 10763       L1     4  1.00

> <Gold.PLP.Chemscore.Internal.Correction>
2.0972

> <Gold.Rescore>
     Score         DG    S(hbond)    S(metal)    S(lipo)     H(rot)  DE(clash)    DE(int)     intcor
     18.86     -22.68       2.41        0.00     112.45       1.56       1.87       1.94       ----

> <Gold.Chemscore.Fitness>
18.8636

> <Gold.Chemscore.DG>
-22.6761

> <Gold.Chemscore.ZeroCoef>
-5.4800

> <Gold.Chemscore.Hbond>
2.4085

> <Gold.Chemscore.Metal>
0.0000

> <Gold.Chemscore.Lipo>
112.4459

> <Gold.Chemscore.Internal_Hbond>
0.0000

> <Gold.Chemscore.DEClash>
1.8709

> <Gold.Chemscore.DEInternal>
1.9416

> <Gold.Chemscore.Rot>
1.5643

> <Gold.Chemscore.Internal.Correction>
   9.000000E+99

> <Gold.Chemscore.Hbonds>
donor molecule, donor type, donor heavy atom, donor atom, acceptor molecule, acceptor atom, score
      P1  H  6896  6909       L1     3  0.65
      P1  H  7997  8010       L1    12  0.64
      P1  H 10752 10763       L1     4  0.94

> <Gold.Chemscore.Hbond.Weighted>
-8.0445

> <Gold.Chemscore.Metal.Weighted>
-0.0000

> <Gold.Chemscore.Lipo.Weighted>
-13.1562

> <Gold.Chemscore.Internal_Hbond.Weighted>
0.0000

> <Gold.Chemscore.DEClash.Weighted>
1.8709

> <Gold.Chemscore.DEInternal.Weighted>
1.9416

> <Gold.Chemscore.Rot.Weighted>
4.0046

> <Gold.Chemscore.Internal.Correction.Weighted>
   9.000000E+99

> <Gold.Protein.RotatedTorsions>
[ 6907 6896 6895 6894 ] final   98.76 input  -60.11 | X-H torsion
[ 7974 7965 7964 7962 ] final   17.53 input  175.53 | X-H torsion
[ 8008 7997 7996 7995 ] final   13.19 input   59.86 | X-H torsion
[ 10167 10162 10161 10158 ] final -157.57 input  -65.29 | X-H torsion
[ 10718 10713 10712 10709 ] final   45.49 input   66.30 | X-H torsion
[ 10763 10752 10751 10750 ] final   93.78 input  -60.55 | X-H torsion
[ 11005 11000 10999 10996 ] final  131.21 input  -57.11 | X-H torsion

> <Gold.Protein.ActiveResidues>
 VAL166  LYS551  ARG553  GLY616  TRP617  ASP618  TYR619  PRO620  LYS621  CYS622 
 ASP623  PHE694  ASN695  SER759  ASP760  ASP761  ALA762  ILE779  LEU786  VAL792 
 PHE793  MET794  SER795  GLU796  ALA797  LYS798  CYS799  TRP800  GLU811  SER814 

> <Gold.Protein.RotatedAtoms>
  152.5404  134.0531  159.8118 H   0  0  0  0  0  0  0  0  0  0  0  0  # atno 6907 bound_to 6896
  151.0670  133.5490  159.2637 H   0  0  0  0  0  0  0  0  0  0  0  0  # atno 6908 bound_to 6896
  151.2367  135.0582  159.9063 H   0  0  0  0  0  0  0  0  0  0  0  0  # atno 6909 bound_to 6896
  146.2215  139.8589  142.8608 H   0  0  0  0  0  0  0  0  0  0  0  0  # atno 7974 bound_to 7965
  154.8310  140.2899  155.5722 H   0  0  0  0  0  0  0  0  0  0  0  0  # atno 8008 bound_to 7997
  156.3005  140.2532  156.3166 H   0  0  0  0  0  0  0  0  0  0  0  0  # atno 8009 bound_to 7997
  154.9231  140.0385  157.1998 H   0  0  0  0  0  0  0  0  0  0  0  0  # atno 8010 bound_to 7997
  139.6760  143.9662  152.2311 H   0  0  0  0  0  0  0  0  0  0  0  0  # atno 10167 bound_to 10162
  157.4381  130.8064  149.7667 H   0  0  0  0  0  0  0  0  0  0  0  0  # atno 10718 bound_to 10713
  153.2341  135.4313  155.0627 H   0  0  0  0  0  0  0  0  0  0  0  0  # atno 10763 bound_to 10752
  154.8311  135.3387  154.6744 H   0  0  0  0  0  0  0  0  0  0  0  0  # atno 10764 bound_to 10752
  153.7170  135.7019  153.5079 H   0  0  0  0  0  0  0  0  0  0  0  0  # atno 10765 bound_to 10752
  139.9717  134.9575  156.9405 H   0  0  0  0  0  0  0  0  0  0  0  0  # atno 11005 bound_to 11000
  145.2724  141.0113  143.3764 LP  0  0  0  0  0  0  0  0  0  0  0  0  # atno 17320 bound_to 7965
  144.9213  139.4408  143.6540 LP  0  0  0  0  0  0  0  0  0  0  0  0  # atno 17321 bound_to 7965
  139.9440  144.6663  150.8238 LP  0  0  0  0  0  0  0  0  0  0  0  0  # atno 17342 bound_to 10162
  140.7635  143.3226  151.2588 LP  0  0  0  0  0  0  0  0  0  0  0  0  # atno 17343 bound_to 10162
  155.9938  130.3922  150.2885 LP  0  0  0  0  0  0  0  0  0  0  0  0  # atno 17370 bound_to 10713
  157.1047  131.0205  151.3071 LP  0  0  0  0  0  0  0  0  0  0  0  0  # atno 17371 bound_to 10713
  140.5280  134.0842  155.7308 LP  0  0  0  0  0  0  0  0  0  0  0  0  # atno 17394 bound_to 11000
  141.1396  133.9161  157.2356 LP  0  0  0  0  0  0  0  0  0  0  0  0  # atno 17395 bound_to 11000

$$$$
