AV-unprocessed.smi:3330|AV-procd|sdf|12815|dock8
  -GOLD-   2272019183D 1   1.00000     0.00000
 Structure written by MMmdl.
 37 38  0  0  0  0  0  0  0  0  2 V2000
  150.0425  138.4138  154.1682 C   0  0  0  0  0  0  0  0  0  0  0  0
  150.6001  139.6807  154.8425 C   0  0  2  0  0  0  0  0  0  0  0  0
  151.6560  139.2461  155.7505 N   0  0  0  0  0  0  0  0  0  0  0  0
  152.7322  138.5802  155.0339 C   0  0  0  0  0  0  0  0  0  0  0  0
  153.6710  137.8920  156.0350 C   0  0  0  0  0  0  0  0  0  0  0  0
  152.9881  137.6510  157.3089 N   0  0  0  0  0  0  0  0  0  0  0  0
  153.0346  138.4823  158.3543 C   0  0  0  0  0  0  0  0  0  0  0  0
  153.6185  139.5634  158.4363 O   0  0  0  0  0  0  0  0  0  0  0  0
  152.2355  137.8533  159.4718 C   0  0  0  0  0  0  0  0  0  0  0  0
  151.7937  136.6131  158.8750 N   0  5  0  0  0  0  0  0  0  0  0  0
  152.2711  136.5514  157.6098 C   0  0  0  0  0  0  0  0  0  0  0  0
  152.1065  135.6344  156.8057 O   0  0  0  0  0  0  0  0  0  0  0  0
  149.5301  140.4843  155.6303 C   0  0  1  0  0  0  0  0  0  0  0  0
  150.0961  141.7462  156.3070 C   0  0  0  0  0  0  0  0  0  0  0  0
  148.4039  140.8519  154.7814 N   0  0  0  0  0  0  0  0  0  0  0  0
  147.9912  142.1114  154.3936 C   0  0  0  0  0  0  0  0  0  0  0  0
  146.8899  141.9553  153.6020 C   0  0  0  0  0  0  0  0  0  0  0  0
  146.6994  140.5461  153.5636 C   0  0  0  0  0  0  0  0  0  0  0  0
  147.6043  139.8893  154.2707 N   0  0  0  0  0  0  0  0  0  0  0  0
  149.3030  138.6544  153.4046 H   0  0  0  0  0  0  0  0  0  0  0  0
  149.5671  137.7535  154.8944 H   0  0  0  0  0  0  0  0  0  0  0  0
  150.8359  137.8501  153.6757 H   0  0  0  0  0  0  0  0  0  0  0  0
  151.0147  140.3129  154.0553 H   0  0  0  0  0  0  0  0  0  0  0  0
  152.0200  140.0427  156.2537 H   0  0  0  0  0  0  0  0  0  0  0  0
  152.3123  137.8483  154.3427 H   0  0  0  0  0  0  0  0  0  0  0  0
  153.2903  139.3058  154.4415 H   0  0  0  0  0  0  0  0  0  0  0  0
  154.0297  136.9466  155.6237 H   0  0  0  0  0  0  0  0  0  0  0  0
  154.5622  138.5013  156.1965 H   0  0  0  0  0  0  0  0  0  0  0  0
  152.8713  137.7086  160.3457 H   0  0  0  0  0  0  0  0  0  0  0  0
  151.4142  138.5111  159.7573 H   0  0  0  0  0  0  0  0  0  0  0  0
  149.1408  139.8388  156.4207 H   0  0  0  0  0  0  0  0  0  0  0  0
  150.8454  141.4952  157.0577 H   0  0  0  0  0  0  0  0  0  0  0  0
  149.3086  142.3035  156.8151 H   0  0  0  0  0  0  0  0  0  0  0  0
  150.5620  142.4141  155.5819 H   0  0  0  0  0  0  0  0  0  0  0  0
  148.5121  143.0035  154.7092 H   0  0  0  0  0  0  0  0  0  0  0  0
  146.3083  142.7290  153.1234 H   0  0  0  0  0  0  0  0  0  0  0  0
  145.9353  139.9843  153.0470 H   0  0  0  0  0  0  0  0  0  0  0  0
  1  2  1  0  0  0  0
  1 20  1  0  0  0  0
  1 21  1  0  0  0  0
  1 22  1  0  0  0  0
  2  3  1  0  0  0  0
  2 13  1  0  0  0  0
  2 23  1  0  0  0  0
  3  4  1  0  0  0  0
  3 24  1  0  0  0  0
  4  5  1  0  0  0  0
  4 25  1  0  0  0  0
  4 26  1  0  0  0  0
  5  6  1  0  0  0  0
  5 27  1  0  0  0  0
  5 28  1  0  0  0  0
  6 11  1  0  0  0  0
  6  7  1  0  0  0  0
  7  8  2  0  0  0  0
  7  9  1  0  0  0  0
  9 10  1  0  0  0  0
  9 29  1  0  0  0  0
  9 30  1  0  0  0  0
 10 11  1  0  0  0  0
 11 12  2  0  0  0  0
 13 14  1  0  0  0  0
 13 15  1  0  0  0  0
 13 31  1  0  0  0  0
 14 32  1  0  0  0  0
 14 33  1  0  0  0  0
 14 34  1  0  0  0  0
 15 19  1  0  0  0  0
 15 16  1  0  0  0  0
 16 17  2  0  0  0  0
 16 35  1  0  0  0  0
 17 18  1  0  0  0  0
 17 36  1  0  0  0  0
 18 19  2  0  0  0  0
 18 37  1  0  0  0  0
M  CHG  1  10  -1
M  END
> <s_m_source_file>
AV-unprocessed.smi

> <i_m_source_file_index>
3330

> <i_lp_mmshare_version>
43012

> <i_f3d_flags>
0

> <s_epik_input>
bjFbY0hdW2NIXVtjSF1uMVtDQEBIXShbQ0gzXSlbQ0BIXShbQ0gzXSlbTkhdW0NIMl1bQ0gyXU4yQyg9TylbQ0gyXVtOSF1DMj1P

> <s_epik_cmdline>
J2VwaWtfcHl0aG9uJywgJy1waCcsICc3LjAnLCAnLXRuJywgJzgnLCAnLW1hJywgJzIwMCcsICctbWV0YWxfYmluZGluZycsICctaW1hZScsICc8aW5maWxlLm1hZT4nLCAnLW9tYWUnLCAnPG91dGZpbGUubWFlPic=

> <r_lp_tautomer_probability>
1

> <r_epik_Ionization_Penalty>
8.77477

> <r_epik_Ionization_Penalty_Charging>
6.28461

> <r_epik_Ionization_Penalty_Neutral>
2.49016

> <r_epik_State_Penalty>
8.73376

> <r_epik_Charging_Adjusted_Penalty>
15.0184

> <i_epik_Tot_Q>
-1

> <i_epik_Tot_abs_Q>
1

> <r_epik_Metal_State_Penalty>
4.73175

> <b_epik_Metal_Only>
1

> <s_lp_Force_Field>
OPLS_2005

> <r_lp_Energy>
21.2445

> <b_lp_Chiralities_Consistent>
1

> <s_lp_Variant>
AV-unprocessed.smi:3330-15

> <Gold.Version>
5.8.1

> <Gold.Id.Protein>
6NUR|6NUR_protein|mol2

> <Gold.PLP.Fitness>
42.7653

> <Gold.PLP.PLP>
-27.1695

> <Gold.PLP.part.hbond>
-3.0000

> <Gold.PLP.part.metal>
0.0000

> <Gold.PLP.part.buried>
0.9394

> <Gold.PLP.part.nonpolar>
-25.8256

> <Gold.PLP.part.repulsive>
0.1247

> <Gold.PLP.ligand.clash>
0.0000

> <Gold.PLP.ligand.torsion>
0.8213

> <Gold.PLP.Chemscore.Hbond>
3.7600

> <Gold.PLP.Chemscore.CHOScore>
1.9372

> <Gold.PLP.Chemscore.Metal>
0.0000

> <Gold.Chemscore.Hbonds>
donor molecule, donor type, donor heavy atom, donor atom, acceptor molecule, acceptor atom, score
      P1  H  6896  6907       L1    10  1.63
      P1  H  7997  8008       L1     8  1.00
      P1  H 10752 10765       L1    12  1.00
      L1  C    16    35       P1  8028  0.85
      L1  C    18    37       P1 10175  1.00

> <Gold.PLP.Chemscore.Internal.Correction>
0.1468

> <Gold.Rescore>
     Score         DG    S(hbond)    S(metal)    S(lipo)     H(rot)  DE(clash)    DE(int)     intcor
     12.80     -16.13       2.75        0.00      67.62       2.52       1.22       2.10       ----

> <Gold.Chemscore.Fitness>
12.8038

> <Gold.Chemscore.DG>
-16.1288

> <Gold.Chemscore.ZeroCoef>
-5.4800

> <Gold.Chemscore.Hbond>
2.7480

> <Gold.Chemscore.Metal>
0.0000

> <Gold.Chemscore.Lipo>
67.6192

> <Gold.Chemscore.Internal_Hbond>
0.0000

> <Gold.Chemscore.DEClash>
1.2225

> <Gold.Chemscore.DEInternal>
2.1025

> <Gold.Chemscore.Rot>
2.5160

> <Gold.Chemscore.Internal.Correction>
   9.000000E+99

> <Gold.Chemscore.Hbonds>
donor molecule, donor type, donor heavy atom, donor atom, acceptor molecule, acceptor atom, score
      P1  H  6896  6907       L1    10  0.78
      P1  H  7997  8008       L1     8  0.98
      P1  H 10752 10765       L1    12  0.94

> <Gold.Chemscore.Hbond.Weighted>
-9.1784

> <Gold.Chemscore.Metal.Weighted>
-0.0000

> <Gold.Chemscore.Lipo.Weighted>
-7.9114

> <Gold.Chemscore.Internal_Hbond.Weighted>
0.0000

> <Gold.Chemscore.DEClash.Weighted>
1.2225

> <Gold.Chemscore.DEInternal.Weighted>
2.1025

> <Gold.Chemscore.Rot.Weighted>
6.4410

> <Gold.Chemscore.Internal.Correction.Weighted>
   9.000000E+99

> <Gold.Protein.RotatedTorsions>
[ 6907 6896 6895 6894 ] final    2.85 input  -60.11 | X-H torsion
[ 7974 7965 7964 7962 ] final -100.13 input  175.53 | X-H torsion
[ 8008 7997 7996 7995 ] final -101.35 input   59.86 | X-H torsion
[ 10167 10162 10161 10158 ] final -157.59 input  -65.29 | X-H torsion
[ 10718 10713 10712 10709 ] final -125.59 input   66.30 | X-H torsion
[ 10763 10752 10751 10750 ] final -134.71 input  -60.55 | X-H torsion
[ 11005 11000 10999 10996 ] final -151.08 input  -57.11 | X-H torsion

> <Gold.Protein.ActiveResidues>
 VAL166  LYS551  ARG553  GLY616  TRP617  ASP618  TYR619  PRO620  LYS621  CYS622 
 ASP623  PHE694  ASN695  SER759  ASP760  ASP761  ALA762  ILE779  LEU786  VAL792 
 PHE793  MET794  SER795  GLU796  ALA797  LYS798  CYS799  TRP800  GLU811  SER814 

> <Gold.Protein.RotatedAtoms>
  151.6156  135.1036  160.0090 H   0  0  0  0  0  0  0  0  0  0  0  0  # atno 6907 bound_to 6896
  152.4185  133.7073  159.6469 H   0  0  0  0  0  0  0  0  0  0  0  0  # atno 6908 bound_to 6896
  150.8073  133.8413  159.3221 H   0  0  0  0  0  0  0  0  0  0  0  0  # atno 6909 bound_to 6896
  145.2986  140.9371  143.2836 H   0  0  0  0  0  0  0  0  0  0  0  0  # atno 7974 bound_to 7965
  154.8414  140.0435  157.1544 H   0  0  0  0  0  0  0  0  0  0  0  0  # atno 8008 bound_to 7997
  154.9043  140.3004  155.5280 H   0  0  0  0  0  0  0  0  0  0  0  0  # atno 8009 bound_to 7997
  156.2992  140.2370  156.4074 H   0  0  0  0  0  0  0  0  0  0  0  0  # atno 8010 bound_to 7997
  139.6759  143.9665  152.2310 H   0  0  0  0  0  0  0  0  0  0  0  0  # atno 10167 bound_to 10162
  156.1689  130.6653  151.0152 H   0  0  0  0  0  0  0  0  0  0  0  0  # atno 10718 bound_to 10713
  154.8715  135.3726  154.4780 H   0  0  0  0  0  0  0  0  0  0  0  0  # atno 10763 bound_to 10752
  153.5435  135.7026  153.5630 H   0  0  0  0  0  0  0  0  0  0  0  0  # atno 10764 bound_to 10752
  153.3781  135.4004  155.1801 H   0  0  0  0  0  0  0  0  0  0  0  0  # atno 10765 bound_to 10752
  140.7334  134.3595  157.5162 H   0  0  0  0  0  0  0  0  0  0  0  0  # atno 11005 bound_to 11000
  144.9112  139.4526  143.6586 LP  0  0  0  0  0  0  0  0  0  0  0  0  # atno 17320 bound_to 7965
  146.3160  139.7922  142.8983 LP  0  0  0  0  0  0  0  0  0  0  0  0  # atno 17321 bound_to 7965
  139.9442  144.6662  150.8236 LP  0  0  0  0  0  0  0  0  0  0  0  0  # atno 17342 bound_to 10162
  140.7635  143.3224  151.2591 LP  0  0  0  0  0  0  0  0  0  0  0  0  # atno 17343 bound_to 10162
  157.6788  131.0843  150.7425 LP  0  0  0  0  0  0  0  0  0  0  0  0  # atno 17370 bound_to 10713
  156.7484  130.4761  149.5462 LP  0  0  0  0  0  0  0  0  0  0  0  0  # atno 17371 bound_to 10713
  139.8821  134.9033  156.2853 LP  0  0  0  0  0  0  0  0  0  0  0  0  # atno 17394 bound_to 11000
  140.9901  133.7214  156.0800 LP  0  0  0  0  0  0  0  0  0  0  0  0  # atno 17395 bound_to 11000

$$$$
