AV-unprocessed.smi:1051|AV-procd|sdf|4614|dock6
  -GOLD-   22720 3113D 1   1.00000     0.00000
 Structure written by MMmdl.
 45 47  0  0  0  0  0  0  0  0  1 V2000
  147.4593  134.3445  161.1469 C   0  0  0  0  0  0  0  0  0  0  0  0
  147.9383  135.7089  160.6532 C   0  0  0  0  0  0  0  0  0  0  0  0
  147.8679  136.6708  161.4173 O   0  0  0  0  0  0  0  0  0  0  0  0
  148.4689  135.7987  159.2627 C   0  0  0  0  0  0  0  0  0  0  0  0
  148.5028  134.6742  158.4059 C   0  0  0  0  0  0  0  0  0  0  0  0
  149.0096  134.7928  157.0989 C   0  0  0  0  0  0  0  0  0  0  0  0
  149.4880  136.0306  156.6316 C   0  0  0  0  0  0  0  0  0  0  0  0
  149.4636  137.1691  157.4737 C   0  0  0  0  0  0  0  0  0  0  0  0
  149.9123  138.4181  157.1011 O   0  0  0  0  0  0  0  0  0  0  0  0
  149.4742  139.5449  157.8520 C   0  0  0  0  0  0  0  0  0  0  0  0
  149.7151  140.8389  157.0557 C   0  0  2  0  0  0  0  0  0  0  0  0
  149.0446  140.7166  155.8175 O   0  0  0  0  0  0  0  0  0  0  0  0
  151.2099  141.1435  156.8296 C   0  0  0  0  0  0  0  0  0  0  0  0
  151.9178  141.3317  158.0942 N   0  0  0  0  0  0  0  0  0  0  0  0
  152.8593  140.5129  158.6200 C   0  0  0  0  0  0  0  0  0  0  0  0
  153.2742  139.4709  158.1132 O   0  0  0  0  0  0  0  0  0  0  0  0
  153.2753  141.0502  159.7907 N   0  0  0  0  0  0  0  0  0  0  0  0
  154.2838  140.5109  160.6947 C   0  0  0  0  0  0  0  0  0  0  0  0
  152.5990  142.2572  160.0085 C   0  0  0  0  0  0  0  0  0  0  0  0
  152.6882  143.1884  161.0572 C   0  0  0  0  0  0  0  0  0  0  0  0
  151.8604  144.3329  160.9762 C   0  0  0  0  0  0  0  0  0  0  0  0
  150.9839  144.5199  159.8756 C   0  0  0  0  0  0  0  0  0  0  0  0
  150.9149  143.5659  158.8332 C   0  0  0  0  0  0  0  0  0  0  0  0
  151.7456  142.4367  158.9404 C   0  0  0  0  0  0  0  0  0  0  0  0
  148.9518  137.0376  158.7811 C   0  0  0  0  0  0  0  0  0  0  0  0
  146.6393  133.9805  160.5280 H   0  0  0  0  0  0  0  0  0  0  0  0
  147.1045  134.4141  162.1756 H   0  0  0  0  0  0  0  0  0  0  0  0
  148.2729  133.6196  161.1159 H   0  0  0  0  0  0  0  0  0  0  0  0
  148.1451  133.7083  158.7297 H   0  0  0  0  0  0  0  0  0  0  0  0
  149.0319  133.9288  156.4509 H   0  0  0  0  0  0  0  0  0  0  0  0
  149.8684  136.0794  155.6229 H   0  0  0  0  0  0  0  0  0  0  0  0
  148.4200  139.4550  158.1209 H   0  0  0  0  0  0  0  0  0  0  0  0
  150.0481  139.5952  158.7788 H   0  0  0  0  0  0  0  0  0  0  0  0
  149.2457  141.6582  157.6023 H   0  0  0  0  0  0  0  0  0  0  0  0
  149.2569  141.4674  155.2839 H   0  0  0  0  0  0  0  0  0  0  0  0
  151.6810  140.3093  156.3085 H   0  0  0  0  0  0  0  0  0  0  0  0
  151.3407  142.0076  156.1756 H   0  0  0  0  0  0  0  0  0  0  0  0
  153.9005  140.4814  161.7150 H   0  0  0  0  0  0  0  0  0  0  0  0
  155.1751  141.1392  160.6813 H   0  0  0  0  0  0  0  0  0  0  0  0
  154.5789  139.4972  160.4203 H   0  0  0  0  0  0  0  0  0  0  0  0
  153.3603  143.0404  161.8894 H   0  0  0  0  0  0  0  0  0  0  0  0
  151.8973  145.0740  161.7610 H   0  0  0  0  0  0  0  0  0  0  0  0
  150.3623  145.4023  159.8329 H   0  0  0  0  0  0  0  0  0  0  0  0
  150.2523  143.7048  157.9918 H   0  0  0  0  0  0  0  0  0  0  0  0
  148.9365  137.9110  159.4174 H   0  0  0  0  0  0  0  0  0  0  0  0
  1  2  1  0  0  0  0
  1 26  1  0  0  0  0
  1 27  1  0  0  0  0
  1 28  1  0  0  0  0
  2  3  2  0  0  0  0
  2  4  1  0  0  0  0
  4 25  1  0  0  0  0
  4  5  2  0  0  0  0
  5  6  1  0  0  0  0
  5 29  1  0  0  0  0
  6  7  2  0  0  0  0
  6 30  1  0  0  0  0
  7  8  1  0  0  0  0
  7 31  1  0  0  0  0
  8  9  1  0  0  0  0
  8 25  2  0  0  0  0
  9 10  1  0  0  0  0
 10 11  1  0  0  0  0
 10 32  1  0  0  0  0
 10 33  1  0  0  0  0
 11 12  1  0  0  0  0
 11 13  1  0  0  0  0
 11 34  1  0  0  0  0
 12 35  1  0  0  0  0
 13 14  1  0  0  0  0
 13 36  1  0  0  0  0
 13 37  1  0  0  0  0
 14 24  1  0  0  0  0
 14 15  1  0  0  0  0
 15 16  2  0  0  0  0
 15 17  1  0  0  0  0
 17 18  1  0  0  0  0
 17 19  1  0  0  0  0
 18 38  1  0  0  0  0
 18 39  1  0  0  0  0
 18 40  1  0  0  0  0
 19 24  2  0  0  0  0
 19 20  1  0  0  0  0
 20 21  2  0  0  0  0
 20 41  1  0  0  0  0
 21 22  1  0  0  0  0
 21 42  1  0  0  0  0
 22 23  2  0  0  0  0
 22 43  1  0  0  0  0
 23 24  1  0  0  0  0
 23 44  1  0  0  0  0
 25 45  1  0  0  0  0
M  END
> <s_m_source_file>
AV-unprocessed.smi

> <i_m_source_file_index>
1051

> <i_lp_mmshare_version>
43012

> <i_f3d_flags>
0

> <s_epik_input>
W0NIM11DKD1PKWMxW2NIXVtjSF1bY0hdYyhbY0hdMSlPW0NIMl1bQ0BIXShbT0hdKVtDSDJdbihjKD1PKW4yW0NIM10pYyhjMjMpW2NIXVtjSF1bY0hdW2NIXTM=

> <s_epik_cmdline>
J2VwaWtfcHl0aG9uJywgJy1waCcsICc3LjAnLCAnLXRuJywgJzgnLCAnLW1hJywgJzIwMCcsICctbWV0YWxfYmluZGluZycsICctaW1hZScsICc8aW5maWxlLm1hZT4nLCAnLW9tYWUnLCAnPG91dGZpbGUubWFlPic=

> <r_lp_tautomer_probability>
1

> <r_epik_Ionization_Penalty>
2.40143e-06

> <r_epik_Ionization_Penalty_Charging>
2.1343e-09

> <r_epik_Ionization_Penalty_Neutral>
2.3993e-06

> <r_epik_State_Penalty>
-0

> <r_epik_Charging_Adjusted_Penalty>
2.1343e-09

> <i_epik_Tot_Q>
0

> <i_epik_Tot_abs_Q>
0

> <r_epik_Metal_State_Penalty>
-0

> <b_epik_Metal_Only>
0

> <s_lp_Force_Field>
OPLS_2005

> <r_lp_Energy>
56.3875

> <b_lp_Chiralities_Consistent>
1

> <s_lp_Variant>
AV-unprocessed.smi:1051-1

> <Gold.Version>
5.8.1

> <Gold.Id.Protein>
6NUR|6NUR_protein|mol2

> <Gold.PLP.Fitness>
54.5861

> <Gold.PLP.PLP>
-48.3096

> <Gold.PLP.part.hbond>
-3.0000

> <Gold.PLP.part.metal>
0.0000

> <Gold.PLP.part.buried>
-6.5610

> <Gold.PLP.part.nonpolar>
-38.3117

> <Gold.PLP.part.repulsive>
0.0000

> <Gold.PLP.ligand.clash>
0.9218

> <Gold.PLP.ligand.torsion>
0.4285

> <Gold.PLP.Chemscore.Hbond>
2.6740

> <Gold.PLP.Chemscore.CHOScore>
0.0000

> <Gold.PLP.Chemscore.Metal>
0.0000

> <Gold.Chemscore.Hbonds>
donor molecule, donor type, donor heavy atom, donor atom, acceptor molecule, acceptor atom, score
      P1  H  6931  6943       L1     3  1.00
      P1  H  7997  8010       L1    16  1.00

> <Gold.PLP.Chemscore.Internal.Correction>
0.0333

> <Gold.Rescore>
     Score         DG    S(hbond)    S(metal)    S(lipo)     H(rot)  DE(clash)    DE(int)     intcor
     21.10     -21.44       2.68        0.00     110.25       2.30       0.03       0.32       ----

> <Gold.Chemscore.Fitness>
21.0979

> <Gold.Chemscore.DG>
-21.4422

> <Gold.Chemscore.ZeroCoef>
-5.4800

> <Gold.Chemscore.Hbond>
2.6788

> <Gold.Chemscore.Metal>
0.0000

> <Gold.Chemscore.Lipo>
110.2477

> <Gold.Chemscore.Internal_Hbond>
0.0000

> <Gold.Chemscore.DEClash>
0.0258

> <Gold.Chemscore.DEInternal>
0.3186

> <Gold.Chemscore.Rot>
2.2984

> <Gold.Chemscore.Internal.Correction>
   9.000000E+99

> <Gold.Chemscore.Hbonds>
donor molecule, donor type, donor heavy atom, donor atom, acceptor molecule, acceptor atom, score
      P1  H  6931  6943       L1     3  0.94
      P1  H  6934  6947       L1     3  0.01
      P1  H  7997  8010       L1    16  0.39

> <Gold.Chemscore.Hbond.Weighted>
-8.9472

> <Gold.Chemscore.Metal.Weighted>
-0.0000

> <Gold.Chemscore.Lipo.Weighted>
-12.8990

> <Gold.Chemscore.Internal_Hbond.Weighted>
0.0000

> <Gold.Chemscore.DEClash.Weighted>
0.0258

> <Gold.Chemscore.DEInternal.Weighted>
0.3186

> <Gold.Chemscore.Rot.Weighted>
5.8839

> <Gold.Chemscore.Internal.Correction.Weighted>
   9.000000E+99

> <Gold.Protein.RotatedTorsions>
[ 6907 6896 6895 6894 ] final   88.74 input  -60.11 | X-H torsion
[ 7974 7965 7964 7962 ] final   39.37 input  175.53 | X-H torsion
[ 8008 7997 7996 7995 ] final   49.77 input   59.86 | X-H torsion
[ 10167 10162 10161 10158 ] final -127.96 input  -65.29 | X-H torsion
[ 10718 10713 10712 10709 ] final   11.09 input   66.30 | X-H torsion
[ 10763 10752 10751 10750 ] final   23.59 input  -60.55 | X-H torsion
[ 11005 11000 10999 10996 ] final    7.95 input  -57.11 | X-H torsion

> <Gold.Protein.ActiveResidues>
 VAL166  LYS551  ARG553  GLY616  TRP617  ASP618  TYR619  PRO620  LYS621  CYS622 
 ASP623  PHE694  ASN695  SER759  ASP760  ASP761  ALA762  ILE779  LEU786  VAL792 
 PHE793  MET794  SER795  GLU796  ALA797  LYS798  CYS799  TRP800  GLU811  SER814 

> <Gold.Protein.RotatedAtoms>
  152.5428  134.2074  159.8736 H   0  0  0  0  0  0  0  0  0  0  0  0  # atno 6907 bound_to 6896
  151.2059  133.4577  159.2604 H   0  0  0  0  0  0  0  0  0  0  0  0  # atno 6908 bound_to 6896
  151.0944  134.9948  159.8474 H   0  0  0  0  0  0  0  0  0  0  0  0  # atno 6909 bound_to 6896
  146.0989  139.5659  142.9427 H   0  0  0  0  0  0  0  0  0  0  0  0  # atno 7974 bound_to 7965
  155.4077  140.3441  155.4261 H   0  0  0  0  0  0  0  0  0  0  0  0  # atno 8008 bound_to 7997
  156.1467  140.1558  156.8868 H   0  0  0  0  0  0  0  0  0  0  0  0  # atno 8009 bound_to 7997
  154.5016  140.0813  156.7791 H   0  0  0  0  0  0  0  0  0  0  0  0  # atno 8010 bound_to 7997
  139.9553  143.6010  152.2462 H   0  0  0  0  0  0  0  0  0  0  0  0  # atno 10167 bound_to 10162
  156.9906  130.6041  149.5685 H   0  0  0  0  0  0  0  0  0  0  0  0  # atno 10718 bound_to 10713
  153.0827  135.6624  154.0012 H   0  0  0  0  0  0  0  0  0  0  0  0  # atno 10763 bound_to 10752
  153.9630  135.2972  155.3434 H   0  0  0  0  0  0  0  0  0  0  0  0  # atno 10764 bound_to 10752
  154.7229  135.5156  153.8913 H   0  0  0  0  0  0  0  0  0  0  0  0  # atno 10765 bound_to 10752
  140.5425  134.0361  155.7909 H   0  0  0  0  0  0  0  0  0  0  0  0  # atno 11005 bound_to 11000
  145.5893  141.0372  143.2079 LP  0  0  0  0  0  0  0  0  0  0  0  0  # atno 17320 bound_to 7965
  144.7417  139.7431  143.7308 LP  0  0  0  0  0  0  0  0  0  0  0  0  # atno 17321 bound_to 7965
  139.6596  144.7662  151.1988 LP  0  0  0  0  0  0  0  0  0  0  0  0  # atno 17342 bound_to 10162
  140.7570  143.6031  150.8680 LP  0  0  0  0  0  0  0  0  0  0  0  0  # atno 17343 bound_to 10162
  156.0209  130.5303  150.8271 LP  0  0  0  0  0  0  0  0  0  0  0  0  # atno 17370 bound_to 10713
  157.5462  131.0942  150.9760 LP  0  0  0  0  0  0  0  0  0  0  0  0  # atno 17371 bound_to 10713
  141.1219  133.9447  157.2713 LP  0  0  0  0  0  0  0  0  0  0  0  0  # atno 17394 bound_to 11000
  139.9496  135.0178  156.8956 LP  0  0  0  0  0  0  0  0  0  0  0  0  # atno 17395 bound_to 11000

$$$$
