AV-unprocessed.smi:1842|AV-procd|sdf|7498|dock10
  -GOLD-   22720 9203D 1   1.00000     0.00000
 Structure written by MMmdl.
 39 40  0  0  0  0  0  0  0  0  2 V2000
  152.8644  139.0704  156.5602 O   0  0  0  0  0  0  0  0  0  0  0  0
  151.9021  139.8102  156.7631 C   0  0  0  0  0  0  0  0  0  0  0  0
  151.7486  140.5256  158.1087 C   0  0  0  0  0  0  0  0  0  0  0  0
  151.5931  142.0551  157.9808 C   0  0  0  0  0  0  0  0  0  0  0  0
  151.4364  142.8032  159.3214 C   0  0  0  0  0  0  0  0  0  0  0  0
  151.5700  144.3229  159.1907 C   0  0  0  0  0  0  0  0  0  0  0  0
  151.9059  144.8244  160.6009 C   0  0  0  0  0  0  0  0  0  0  0  0
  152.4406  143.6104  161.3760 C   0  0  0  0  0  0  0  0  0  0  0  0
  152.4926  142.4540  160.3733 C   0  0  0  0  0  0  0  0  0  0  0  0
  150.9408  140.0352  155.8545 N   0  0  0  0  0  0  0  0  0  0  0  0
  150.9022  139.4669  154.5102 C   0  0  0  0  0  0  0  0  0  0  0  0
  149.6479  138.6069  154.2616 C   0  0  0  0  0  0  0  0  0  0  0  0
  148.4829  139.4078  153.8743 N   0  0  0  0  0  0  0  0  0  0  0  0
  148.2873  140.7481  154.0877 C   0  0  0  0  0  0  0  0  0  0  0  0
  147.0602  141.0527  153.5568 C   0  0  0  0  0  0  0  0  0  0  0  0
  146.5598  139.8868  153.0417 N   0  3  0  0  0  0  0  0  0  0  0  0
  147.4274  138.8879  153.2339 C   0  0  0  0  0  0  0  0  0  0  0  0
  150.9022  140.1111  158.6582 H   0  0  0  0  0  0  0  0  0  0  0  0
  152.6334  140.3034  158.7056 H   0  0  0  0  0  0  0  0  0  0  0  0
  152.4601  142.4477  157.4485 H   0  0  0  0  0  0  0  0  0  0  0  0
  150.7351  142.2789  157.3454 H   0  0  0  0  0  0  0  0  0  0  0  0
  150.4517  142.5951  159.7429 H   0  0  0  0  0  0  0  0  0  0  0  0
  152.3926  144.5677  158.5172 H   0  0  0  0  0  0  0  0  0  0  0  0
  150.6687  144.7867  158.7886 H   0  0  0  0  0  0  0  0  0  0  0  0
  152.6357  145.6341  160.5652 H   0  0  0  0  0  0  0  0  0  0  0  0
  151.0119  145.2131  161.0905 H   0  0  0  0  0  0  0  0  0  0  0  0
  153.4177  143.8029  161.8203 H   0  0  0  0  0  0  0  0  0  0  0  0
  151.7553  143.3655  162.1886 H   0  0  0  0  0  0  0  0  0  0  0  0
  152.3103  141.4891  160.8475 H   0  0  0  0  0  0  0  0  0  0  0  0
  153.4801  142.4158  159.9112 H   0  0  0  0  0  0  0  0  0  0  0  0
  150.1915  140.6639  156.1058 H   0  0  0  0  0  0  0  0  0  0  0  0
  150.9408  140.2861  153.7916 H   0  0  0  0  0  0  0  0  0  0  0  0
  151.8008  138.8711  154.3429 H   0  0  0  0  0  0  0  0  0  0  0  0
  149.8377  137.8967  153.4561 H   0  0  0  0  0  0  0  0  0  0  0  0
  149.3894  138.0175  155.1424 H   0  0  0  0  0  0  0  0  0  0  0  0
  149.0163  141.3686  154.5886 H   0  0  0  0  0  0  0  0  0  0  0  0
  146.5200  141.9872  153.5081 H   0  0  0  0  0  0  0  0  0  0  0  0
  147.2990  137.8627  152.9345 H   0  0  0  0  0  0  0  0  0  0  0  0
  145.6637  139.7916  152.5802 H   0  0  0  0  0  0  0  0  0  0  0  0
  1  2  2  0  0  0  0
  2  3  1  0  0  0  0
  2 10  1  0  0  0  0
  3  4  1  0  0  0  0
  3 18  1  0  0  0  0
  3 19  1  0  0  0  0
  4  5  1  0  0  0  0
  4 20  1  0  0  0  0
  4 21  1  0  0  0  0
  5  9  1  0  0  0  0
  5  6  1  0  0  0  0
  5 22  1  0  0  0  0
  6  7  1  0  0  0  0
  6 23  1  0  0  0  0
  6 24  1  0  0  0  0
  7  8  1  0  0  0  0
  7 25  1  0  0  0  0
  7 26  1  0  0  0  0
  8  9  1  0  0  0  0
  8 27  1  0  0  0  0
  8 28  1  0  0  0  0
  9 29  1  0  0  0  0
  9 30  1  0  0  0  0
 10 11  1  0  0  0  0
 10 31  1  0  0  0  0
 11 12  1  0  0  0  0
 11 32  1  0  0  0  0
 11 33  1  0  0  0  0
 12 13  1  0  0  0  0
 12 34  1  0  0  0  0
 12 35  1  0  0  0  0
 13 17  1  0  0  0  0
 13 14  1  0  0  0  0
 14 15  2  0  0  0  0
 14 36  1  0  0  0  0
 15 16  1  0  0  0  0
 15 37  1  0  0  0  0
 16 17  2  0  0  0  0
 16 39  1  0  0  0  0
 17 38  1  0  0  0  0
M  CHG  1  16   1
M  END
> <s_m_source_file>
AV-unprocessed.smi

> <i_m_source_file_index>
1842

> <i_lp_mmshare_version>
43012

> <i_f3d_flags>
0

> <s_epik_input>
W0NIMl0xW0NIMl1bQ0gyXVtDSDJdW0NIXTFbQ0gyXVtDSDJdQyg9TylbTkhdW0NIMl1bQ0gyXW4yW2NIXVtjSF1uW2NIXTI=

> <s_epik_cmdline>
J2VwaWtfcHl0aG9uJywgJy1waCcsICc3LjAnLCAnLXRuJywgJzgnLCAnLW1hJywgJzIwMCcsICctbWV0YWxfYmluZGluZycsICctaW1hZScsICc8aW5maWxlLm1hZT4nLCAnLW9tYWUnLCAnPG91dGZpbGUubWFlPic=

> <r_lp_tautomer_probability>
1

> <r_epik_Ionization_Penalty>
0.269886

> <r_epik_Ionization_Penalty_Charging>
0

> <r_epik_Ionization_Penalty_Neutral>
0.269886

> <r_epik_State_Penalty>
0.261983

> <r_epik_Charging_Adjusted_Penalty>
0.261983

> <i_epik_Tot_Q>
1

> <i_epik_Tot_abs_Q>
1

> <r_epik_Metal_State_Penalty>
0.546964

> <b_epik_Metal_Only>
0

> <s_lp_Force_Field>
OPLS_2005

> <r_lp_Energy>
23.3455

> <b_lp_Chiralities_Consistent>
1

> <s_lp_Variant>
AV-unprocessed.smi:1842-1

> <Gold.Version>
5.8.1

> <Gold.Id.Protein>
6NUR|6NUR_protein|mol2

> <Gold.PLP.Fitness>
49.0954

> <Gold.PLP.PLP>
-38.7712

> <Gold.PLP.part.hbond>
-2.0000

> <Gold.PLP.part.metal>
0.0000

> <Gold.PLP.part.buried>
-0.8183

> <Gold.PLP.part.nonpolar>
-35.7837

> <Gold.PLP.part.repulsive>
0.1119

> <Gold.PLP.ligand.clash>
0.0000

> <Gold.PLP.ligand.torsion>
0.5000

> <Gold.PLP.Chemscore.Hbond>
2.9840

> <Gold.PLP.Chemscore.CHOScore>
0.7765

> <Gold.PLP.Chemscore.Metal>
0.0000

> <Gold.Chemscore.Hbonds>
donor molecule, donor type, donor heavy atom, donor atom, acceptor molecule, acceptor atom, score
      L1  H    16    39       P1 10175  1.57
      P1  H  7997  8009       L1     1  1.00
      L1  C    17    38       P1  7948  0.95

> <Gold.PLP.Chemscore.Internal.Correction>
0.0426

> <Gold.Rescore>
     Score         DG    S(hbond)    S(metal)    S(lipo)     H(rot)  DE(clash)    DE(int)     intcor
     17.04     -17.63       1.92        0.00      98.15       2.25       0.18       0.40       ----

> <Gold.Chemscore.Fitness>
17.0447

> <Gold.Chemscore.DG>
-17.6260

> <Gold.Chemscore.ZeroCoef>
-5.4800

> <Gold.Chemscore.Hbond>
1.9217

> <Gold.Chemscore.Metal>
0.0000

> <Gold.Chemscore.Lipo>
98.1530

> <Gold.Chemscore.Internal_Hbond>
0.0000

> <Gold.Chemscore.DEClash>
0.1828

> <Gold.Chemscore.DEInternal>
0.3984

> <Gold.Chemscore.Rot>
2.2485

> <Gold.Chemscore.Internal.Correction>
   9.000000E+99

> <Gold.Chemscore.Hbonds>
donor molecule, donor type, donor heavy atom, donor atom, acceptor molecule, acceptor atom, score
      L1  H    16    39       P1 10175  0.72
      P1  H  7997  8009       L1     1  0.65

> <Gold.Chemscore.Hbond.Weighted>
-6.4183

> <Gold.Chemscore.Metal.Weighted>
-0.0000

> <Gold.Chemscore.Lipo.Weighted>
-11.4839

> <Gold.Chemscore.Internal_Hbond.Weighted>
0.0000

> <Gold.Chemscore.DEClash.Weighted>
0.1828

> <Gold.Chemscore.DEInternal.Weighted>
0.3984

> <Gold.Chemscore.Rot.Weighted>
5.7562

> <Gold.Chemscore.Internal.Correction.Weighted>
   9.000000E+99

> <Gold.Protein.RotatedTorsions>
[ 6907 6896 6895 6894 ] final -143.12 input  -60.11 | X-H torsion
[ 7974 7965 7964 7962 ] final   93.02 input  175.53 | X-H torsion
[ 8008 7997 7996 7995 ] final -172.38 input   59.86 | X-H torsion
[ 10167 10162 10161 10158 ] final  143.98 input  -65.29 | X-H torsion
[ 10718 10713 10712 10709 ] final   64.40 input   66.30 | X-H torsion
[ 10763 10752 10751 10750 ] final -160.56 input  -60.55 | X-H torsion
[ 11005 11000 10999 10996 ] final -167.82 input  -57.11 | X-H torsion

> <Gold.Protein.ActiveResidues>
 VAL166  LYS551  ARG553  GLY616  TRP617  ASP618  TYR619  PRO620  LYS621  CYS622 
 ASP623  PHE694  ASN695  SER759  ASP760  ASP761  ALA762  ILE779  LEU786  VAL792 
 PHE793  MET794  SER795  GLU796  ALA797  LYS798  CYS799  TRP800  GLU811  SER814 

> <Gold.Protein.RotatedAtoms>
  151.0961  133.5278  159.2612 H   0  0  0  0  0  0  0  0  0  0  0  0  # atno 6907 bound_to 6896
  151.2127  135.0487  159.8927 H   0  0  0  0  0  0  0  0  0  0  0  0  # atno 6908 bound_to 6896
  152.5439  134.0775  159.8274 H   0  0  0  0  0  0  0  0  0  0  0  0  # atno 6909 bound_to 6896
  145.4845  139.2277  143.2864 H   0  0  0  0  0  0  0  0  0  0  0  0  # atno 7974 bound_to 7965
  155.9439  140.1113  157.1033 H   0  0  0  0  0  0  0  0  0  0  0  0  # atno 8008 bound_to 7997
  154.4095  140.1214  156.5029 H   0  0  0  0  0  0  0  0  0  0  0  0  # atno 8009 bound_to 7997
  155.6928  140.3472  155.4902 H   0  0  0  0  0  0  0  0  0  0  0  0  # atno 8010 bound_to 7997
  139.4957  144.6004  151.6494 H   0  0  0  0  0  0  0  0  0  0  0  0  # atno 10167 bound_to 10162
  157.6037  130.9158  149.9840 H   0  0  0  0  0  0  0  0  0  0  0  0  # atno 10718 bound_to 10713
  154.7379  135.3062  154.8779 H   0  0  0  0  0  0  0  0  0  0  0  0  # atno 10763 bound_to 10752
  153.9602  135.6754  153.4749 H   0  0  0  0  0  0  0  0  0  0  0  0  # atno 10764 bound_to 10752
  153.0981  135.4926  154.8739 H   0  0  0  0  0  0  0  0  0  0  0  0  # atno 10765 bound_to 10752
  140.5489  134.5448  157.5118 H   0  0  0  0  0  0  0  0  0  0  0  0  # atno 11005 bound_to 11000
  146.2321  140.5634  142.8970 LP  0  0  0  0  0  0  0  0  0  0  0  0  # atno 17320 bound_to 7965
  144.7870  140.5955  143.6567 LP  0  0  0  0  0  0  0  0  0  0  0  0  # atno 17321 bound_to 7965
  140.5652  144.0202  150.6189 LP  0  0  0  0  0  0  0  0  0  0  0  0  # atno 17342 bound_to 10162
  140.3301  143.3083  152.0696 LP  0  0  0  0  0  0  0  0  0  0  0  0  # atno 17343 bound_to 10162
  156.1117  130.3649  150.0038 LP  0  0  0  0  0  0  0  0  0  0  0  0  # atno 17370 bound_to 10713
  156.8135  130.9333  151.3643 LP  0  0  0  0  0  0  0  0  0  0  0  0  # atno 17371 bound_to 10713
  139.9465  134.7692  156.0549 LP  0  0  0  0  0  0  0  0  0  0  0  0  # atno 17394 bound_to 11000
  141.1183  133.6620  156.3150 LP  0  0  0  0  0  0  0  0  0  0  0  0  # atno 17395 bound_to 11000

$$$$
