AV-unprocessed.smi:276|AV-procd|sdf|2078|dock1
  -GOLD-   2262021343D 1   1.00000     0.00000
 Structure written by MMmdl.
 57 61  0  0  0  0  0  0  0  0  1 V2000
  148.7046  132.6291  153.3686 C   0  0  0  0  0  0  0  0  0  0  0  0
  147.4353  132.5132  152.7487 O   0  0  0  0  0  0  0  0  0  0  0  0
  146.8176  133.7712  152.5262 C   0  0  2  0  0  0  0  0  0  0  0  0
  146.4031  134.4834  153.8238 C   0  0  0  0  0  0  0  0  0  0  0  0
  144.9561  134.5572  153.3146 C   0  0  1  0  0  0  0  0  0  0  0  0
  144.5143  135.9186  152.9688 N   0  0  0  0  0  0  0  0  0  0  0  0
  143.3737  136.1681  152.0872 C   0  0  0  0  0  0  0  0  0  0  0  0
  144.8805  136.9420  153.7899 C   0  0  0  0  0  0  0  0  0  0  0  0
  144.4260  136.9604  155.0725 N   0  0  0  0  0  0  0  0  0  0  0  0
  144.7538  137.9562  155.8995 C   0  0  0  0  0  0  0  0  0  0  0  0
  145.5196  139.0208  155.6592 N   0  0  0  0  0  0  0  0  0  0  0  0
  145.9920  139.0082  154.3804 C   0  0  0  0  0  0  0  0  0  0  0  0
  145.7261  138.0198  153.3890 C   0  0  0  0  0  0  0  0  0  0  0  0
  146.3956  138.3480  152.2138 N   0  0  0  0  0  0  0  0  0  0  0  0
  147.0129  139.4633  152.4926 C   0  0  0  0  0  0  0  0  0  0  0  0
  146.8253  139.9299  153.7724 N   0  0  0  0  0  0  0  0  0  0  0  0
  147.3952  141.1351  154.3491 C   0  0  0  0  0  0  0  0  0  0  0  0
  148.9291  141.0578  154.4852 C   0  0  2  0  0  0  0  0  0  0  0  0
  149.5144  141.0205  153.1973 O   0  0  0  0  0  0  0  0  0  0  0  0
  149.3804  139.8147  155.2744 C   0  0  1  0  0  0  0  0  0  0  0  0
  150.8900  139.7234  155.5040 C   0  0  0  0  0  0  0  0  0  0  0  0
  150.9604  138.8303  156.7209 C   0  0  0  0  0  0  0  0  0  0  0  0
  149.7626  139.3142  157.5326 C   0  0  0  0  0  0  0  0  0  0  0  0
  148.8270  139.8304  156.5887 O   0  0  0  0  0  0  0  0  0  0  0  0
  145.3333  133.6627  152.1166 C   0  0  0  0  0  0  0  0  0  0  0  0
  144.6596  132.2879  151.9535 C   0  0  0  0  0  0  0  0  0  0  0  0
  144.8056  132.4474  150.4389 C   0  0  0  0  0  0  0  0  0  0  0  0
  144.8978  133.9575  150.6686 C   0  0  0  0  0  0  0  0  0  0  0  0
  149.1305  131.6370  153.5183 H   0  0  0  0  0  0  0  0  0  0  0  0
  148.6298  133.1131  154.3431 H   0  0  0  0  0  0  0  0  0  0  0  0
  149.3944  133.2008  152.7466 H   0  0  0  0  0  0  0  0  0  0  0  0
  147.3824  134.4128  151.8481 H   0  0  0  0  0  0  0  0  0  0  0  0
  146.4953  133.8471  154.7050 H   0  0  0  0  0  0  0  0  0  0  0  0
  146.8969  135.4423  153.9838 H   0  0  0  0  0  0  0  0  0  0  0  0
  144.2923  134.0463  154.0137 H   0  0  0  0  0  0  0  0  0  0  0  0
  142.6782  136.8819  152.5308 H   0  0  0  0  0  0  0  0  0  0  0  0
  142.8084  135.2618  151.8802 H   0  0  0  0  0  0  0  0  0  0  0  0
  143.7179  136.5687  151.1337 H   0  0  0  0  0  0  0  0  0  0  0  0
  144.3432  137.8905  156.8961 H   0  0  0  0  0  0  0  0  0  0  0  0
  147.6285  139.9777  151.7689 H   0  0  0  0  0  0  0  0  0  0  0  0
  147.1138  141.9778  153.7165 H   0  0  0  0  0  0  0  0  0  0  0  0
  146.9330  141.3106  155.3213 H   0  0  0  0  0  0  0  0  0  0  0  0
  149.2902  141.9548  154.9902 H   0  0  0  0  0  0  0  0  0  0  0  0
  149.1305  140.3051  152.7136 H   0  0  0  0  0  0  0  0  0  0  0  0
  149.0373  138.9045  154.7791 H   0  0  0  0  0  0  0  0  0  0  0  0
  151.4279  139.3176  154.6467 H   0  0  0  0  0  0  0  0  0  0  0  0
  151.3059  140.7049  155.7363 H   0  0  0  0  0  0  0  0  0  0  0  0
  150.8206  137.7889  156.4279 H   0  0  0  0  0  0  0  0  0  0  0  0
  151.9040  138.9109  157.2611 H   0  0  0  0  0  0  0  0  0  0  0  0
  149.3230  138.5179  158.1336 H   0  0  0  0  0  0  0  0  0  0  0  0
  150.0568  140.1220  158.2036 H   0  0  0  0  0  0  0  0  0  0  0  0
  145.1957  131.4390  152.3778 H   0  0  0  0  0  0  0  0  0  0  0  0
  143.6156  132.2942  152.2717 H   0  0  0  0  0  0  0  0  0  0  0  0
  145.7344  132.0203  150.0570 H   0  0  0  0  0  0  0  0  0  0  0  0
  143.9403  132.1243  149.8597 H   0  0  0  0  0  0  0  0  0  0  0  0
  143.9245  134.4449  150.5993 H   0  0  0  0  0  0  0  0  0  0  0  0
  145.6438  134.4647  150.0563 H   0  0  0  0  0  0  0  0  0  0  0  0
  1  2  1  0  0  0  0
  1 29  1  0  0  0  0
  1 30  1  0  0  0  0
  1 31  1  0  0  0  0
  2  3  1  0  0  0  0
  3 25  1  0  0  0  0
  3  4  1  0  0  0  0
  3 32  1  0  0  0  0
  4  5  1  0  0  0  0
  4 33  1  0  0  0  0
  4 34  1  0  0  0  0
  5  6  1  0  0  0  0
  5 25  1  0  0  0  0
  5 35  1  0  0  0  0
  6  7  1  0  0  0  0
  6  8  1  0  0  0  0
  7 36  1  0  0  0  0
  7 37  1  0  0  0  0
  7 38  1  0  0  0  0
  8 13  1  0  0  0  0
  8  9  2  0  0  0  0
  9 10  1  0  0  0  0
 10 11  2  0  0  0  0
 10 39  1  0  0  0  0
 11 12  1  0  0  0  0
 12 16  1  0  0  0  0
 12 13  2  0  0  0  0
 13 14  1  0  0  0  0
 14 15  2  0  0  0  0
 15 16  1  0  0  0  0
 15 40  1  0  0  0  0
 16 17  1  0  0  0  0
 17 18  1  0  0  0  0
 17 41  1  0  0  0  0
 17 42  1  0  0  0  0
 18 19  1  0  0  0  0
 18 20  1  0  0  0  0
 18 43  1  0  0  0  0
 19 44  1  0  0  0  0
 20 24  1  0  0  0  0
 20 21  1  0  0  0  0
 20 45  1  0  0  0  0
 21 22  1  0  0  0  0
 21 46  1  0  0  0  0
 21 47  1  0  0  0  0
 22 23  1  0  0  0  0
 22 48  1  0  0  0  0
 22 49  1  0  0  0  0
 23 24  1  0  0  0  0
 23 50  1  0  0  0  0
 23 51  1  0  0  0  0
 25 28  1  0  0  0  0
 25 26  1  0  0  0  0
 26 27  1  0  0  0  0
 26 52  1  0  0  0  0
 26 53  1  0  0  0  0
 27 28  1  0  0  0  0
 27 54  1  0  0  0  0
 27 55  1  0  0  0  0
 28 56  1  0  0  0  0
 28 57  1  0  0  0  0
M  END
> <s_m_source_file>
AV-unprocessed.smi

> <i_m_source_file_index>
276

> <i_lp_mmshare_version>
43012

> <i_f3d_flags>
0

> <s_epik_input>
W0NIMl0xW0NIMl1bQ0gyXUMxMltDQEhdKE9bQ0gzXSlbQ0gyXVtDQEhdMk4oW0NIM10pYyhuW2NIXW4zKWMoYzM0KW5bY0hdbjRbQ0gyXVtDQEhdKFtPSF0pW0NAQEhdNVtDSDJdW0NIMl1bQ0gyXU81

> <s_epik_cmdline>
J2VwaWtfcHl0aG9uJywgJy1waCcsICc3LjAnLCAnLXRuJywgJzgnLCAnLW1hJywgJzIwMCcsICctbWV0YWxfYmluZGluZycsICctaW1hZScsICc8aW5maWxlLm1hZT4nLCAnLW9tYWUnLCAnPG91dGZpbGUubWFlPic=

> <r_lp_tautomer_probability>
1

> <r_epik_Ionization_Penalty>
0.00204117

> <r_epik_Ionization_Penalty_Charging>
0

> <r_epik_Ionization_Penalty_Neutral>
0.00204117

> <r_epik_State_Penalty>
0.00127401

> <r_epik_Charging_Adjusted_Penalty>
0.00127401

> <i_epik_Tot_Q>
0

> <i_epik_Tot_abs_Q>
0

> <r_epik_Metal_State_Penalty>
-0

> <b_epik_Metal_Only>
0

> <s_lp_Force_Field>
OPLS_2005

> <r_lp_Energy>
56.66

> <b_lp_Chiralities_Consistent>
1

> <s_lp_Variant>
AV-unprocessed.smi:276-9

> <Gold.Version>
5.8.1

> <Gold.Id.Protein>
6NUR|6NUR_protein|mol2

> <Gold.PLP.Fitness>
40.4308

> <Gold.PLP.PLP>
-35.4577

> <Gold.PLP.part.hbond>
-2.1270

> <Gold.PLP.part.metal>
0.0000

> <Gold.PLP.part.buried>
-4.7581

> <Gold.PLP.part.nonpolar>
-29.2892

> <Gold.PLP.part.repulsive>
0.5467

> <Gold.PLP.ligand.clash>
0.0000

> <Gold.PLP.ligand.torsion>
1.8920

> <Gold.PLP.Chemscore.Hbond>
1.5175

> <Gold.PLP.Chemscore.CHOScore>
1.0000

> <Gold.PLP.Chemscore.Metal>
0.0000

> <Gold.Chemscore.Hbonds>
donor molecule, donor type, donor heavy atom, donor atom, acceptor molecule, acceptor atom, score
      L1  H    19    44       P1  7957  0.38
      P1  H  7989  7998       L1    19  0.12
      P1  H  8011  8017       L1    19  1.00
      L1  C    15    40       P1  7957  1.00

> <Gold.PLP.Chemscore.Internal.Correction>
1.2046

> <Gold.Rescore>
     Score         DG    S(hbond)    S(metal)    S(lipo)     H(rot)  DE(clash)    DE(int)     intcor
      9.96     -13.00       1.34        0.00      79.81       2.46       0.04       3.00       ----

> <Gold.Chemscore.Fitness>
9.9554

> <Gold.Chemscore.DG>
-12.9968

> <Gold.Chemscore.ZeroCoef>
-5.4800

> <Gold.Chemscore.Hbond>
1.3388

> <Gold.Chemscore.Metal>
0.0000

> <Gold.Chemscore.Lipo>
79.8098

> <Gold.Chemscore.Internal_Hbond>
0.0000

> <Gold.Chemscore.DEClash>
0.0372

> <Gold.Chemscore.DEInternal>
3.0041

> <Gold.Chemscore.Rot>
2.4581

> <Gold.Chemscore.Internal.Correction>
   9.000000E+99

> <Gold.Chemscore.Hbonds>
donor molecule, donor type, donor heavy atom, donor atom, acceptor molecule, acceptor atom, score
      L1  H    19    44       P1  7957  0.38
      P1  H  7989  7998       L1    19  0.07
      P1  H  8011  8017       L1    19  0.91

> <Gold.Chemscore.Hbond.Weighted>
-4.4717

> <Gold.Chemscore.Metal.Weighted>
-0.0000

> <Gold.Chemscore.Lipo.Weighted>
-9.3377

> <Gold.Chemscore.Internal_Hbond.Weighted>
0.0000

> <Gold.Chemscore.DEClash.Weighted>
0.0372

> <Gold.Chemscore.DEInternal.Weighted>
3.0041

> <Gold.Chemscore.Rot.Weighted>
6.2927

> <Gold.Chemscore.Internal.Correction.Weighted>
   9.000000E+99

> <Gold.Protein.RotatedTorsions>
[ 6907 6896 6895 6894 ] final   -9.82 input  -60.11 | X-H torsion
[ 7974 7965 7964 7962 ] final  -83.10 input  175.53 | X-H torsion
[ 8008 7997 7996 7995 ] final    5.77 input   59.86 | X-H torsion
[ 10167 10162 10161 10158 ] final  -26.54 input  -65.29 | X-H torsion
[ 10718 10713 10712 10709 ] final  -48.11 input   66.30 | X-H torsion
[ 10763 10752 10751 10750 ] final -169.81 input  -60.55 | X-H torsion
[ 11005 11000 10999 10996 ] final -156.34 input  -57.11 | X-H torsion

> <Gold.Protein.ActiveResidues>
 VAL166  LYS551  ARG553  GLY616  TRP617  ASP618  TYR619  PRO620  LYS621  CYS622 
 ASP623  PHE694  ASN695  SER759  ASP760  ASP761  ALA762  ILE779  LEU786  VAL792 
 PHE793  MET794  SER795  GLU796  ALA797  LYS798  CYS799  TRP800  GLU811  SER814 

> <Gold.Protein.RotatedAtoms>
  151.4117  135.0986  159.9586 H   0  0  0  0  0  0  0  0  0  0  0  0  # atno 6907 bound_to 6896
  152.5018  133.8791  159.7348 H   0  0  0  0  0  0  0  0  0  0  0  0  # atno 6908 bound_to 6896
  150.9287  133.6735  159.2843 H   0  0  0  0  0  0  0  0  0  0  0  0  # atno 6909 bound_to 6896
  145.5245  140.9528  143.1637 H   0  0  0  0  0  0  0  0  0  0  0  0  # atno 7974 bound_to 7965
  154.7326  140.2733  155.6443 H   0  0  0  0  0  0  0  0  0  0  0  0  # atno 8008 bound_to 7997
  156.2853  140.2713  156.1956 H   0  0  0  0  0  0  0  0  0  0  0  0  # atno 8009 bound_to 7997
  155.0362  140.0371  157.2482 H   0  0  0  0  0  0  0  0  0  0  0  0  # atno 8010 bound_to 7997
  140.7282  143.4169  151.1013 H   0  0  0  0  0  0  0  0  0  0  0  0  # atno 10167 bound_to 10162
  156.2019  130.4156  149.9230 H   0  0  0  0  0  0  0  0  0  0  0  0  # atno 10718 bound_to 10713
  154.6483  135.2908  155.0019 H   0  0  0  0  0  0  0  0  0  0  0  0  # atno 10763 bound_to 10752
  154.1121  135.6561  153.4891 H   0  0  0  0  0  0  0  0  0  0  0  0  # atno 10764 bound_to 10752
  153.0362  135.5267  154.7379 H   0  0  0  0  0  0  0  0  0  0  0  0  # atno 10765 bound_to 10752
  140.6766  134.4190  157.5229 H   0  0  0  0  0  0  0  0  0  0  0  0  # atno 11005 bound_to 11000
  144.7658  139.6848  143.7215 LP  0  0  0  0  0  0  0  0  0  0  0  0  # atno 17320 bound_to 7965
  146.2084  139.5424  142.9697 LP  0  0  0  0  0  0  0  0  0  0  0  0  # atno 17321 bound_to 7965
  139.7810  143.8355  152.3137 LP  0  0  0  0  0  0  0  0  0  0  0  0  # atno 17342 bound_to 10162
  139.8306  144.7255  150.9455 LP  0  0  0  0  0  0  0  0  0  0  0  0  # atno 17343 bound_to 10162
  156.6936  130.8905  151.3591 LP  0  0  0  0  0  0  0  0  0  0  0  0  # atno 17370 bound_to 10713
  157.6990  130.9313  150.0730 LP  0  0  0  0  0  0  0  0  0  0  0  0  # atno 17371 bound_to 10713
  139.8965  134.8659  156.2086 LP  0  0  0  0  0  0  0  0  0  0  0  0  # atno 17394 bound_to 11000
  141.0350  133.6968  156.1497 LP  0  0  0  0  0  0  0  0  0  0  0  0  # atno 17395 bound_to 11000

$$$$
