#       Name:                AV-unprocessed.smi:2691
#       Creating user name   scv26
#       Creation time:       Fri Mar 27 14:42:55 2020


#       File generated by GOLD software.
#

@<TRIPOS>MOLECULE
AV-unprocessed.smi:2691
    55    57     1
SMALL
NO_CHARGES


@<TRIPOS>ATOM
      1 ****        -5.2755  -4.2110  -1.8984 C.3            1 S1                 0.0000
      2 ****        -4.3005  -3.1178  -1.4947 C.ar           1 S1                 0.0000
      3 ****        -4.8184  -1.8576  -1.1187 C.ar           1 S1                 0.0000
      4 ****        -3.9018  -0.8773  -0.7576 C.ar           1 S1                 0.0000
      5 ****        -4.0884   0.4449  -0.3473 N.pl3          1 S1                 1.0000
      6 ****        -2.8781   1.0206  -0.1053 C.2            1 S1                 0.0000
      7 ****        -1.9226   0.0842  -0.3528 N.pl3          1 S1                 0.0000
      8 ****        -0.4607   0.1827  -0.2623 C.3            1 S1                 0.0000
      9 ****         0.2009   0.4501  -1.6325 C.3            1 S1                 0.0000
     10 ****        -0.3248   1.6258  -2.2165 O.3            1 S1                 0.0000
     11 ****         1.7505   0.5057  -1.6423 C.3            1 S1                 0.0000
     12 ****         2.3517   1.0761  -0.4221 N.am           1 S1                 0.0000
     13 ****         2.8131   0.1656   0.5501 C.2            1 S1                 0.0000
     14 ****         3.3635   0.5643   1.6522 N.2            1 S1                 0.0000
     15 ****         3.5202   1.9330   1.8962 C.2            1 S1                 0.0000
     16 ****         4.1757   2.3319   3.2118 C.3            1 S1                 0.0000
     17 ****         3.2469   3.2066   4.0693 C.3            1 S1                 0.0000
     18 ****         5.5357   3.0082   2.9783 C.3            1 S1                 0.0000
     19 ****         3.0962   2.8471   0.9903 C.2            1 S1                 0.0000
     20 ****         2.4702   2.4266  -0.2630 C.2            1 S1                 0.0000
     21 ****         2.0817   3.2303  -1.1104 O.2            1 S1                 0.0000
     22 ****        -2.5138  -1.1155  -0.7610 C.ar           1 S1                 0.0000
     23 ****        -1.9862  -2.3513  -1.1266 C.ar           1 S1                 0.0000
     24 ****        -2.9023  -3.3619  -1.4968 C.ar           1 S1                 0.0000
     25 ****        -2.3569  -4.7213  -1.9004 C.3            1 S1                 0.0000
     26 ****        -6.3052  -3.8523  -1.8845 H              1 S1                 0.0000
     27 ****        -5.2074  -5.0562  -1.2132 H              1 S1                 0.0000
     28 ****        -5.0613  -4.5643  -2.9073 H              1 S1                 0.0000
     29 ****        -5.8813  -1.6647  -1.1142 H              1 S1                 0.0000
     30 ****        -2.7057   2.0377   0.2167 H              1 S1                 0.0000
     31 ****        -0.2386   0.9892   0.4376 H              1 S1                 0.0000
     32 ****        -0.0796  -0.7355   0.1861 H              1 S1                 0.0000
     33 ****        -0.0891  -0.3532  -2.3106 H              1 S1                 0.0000
     34 ****         0.0740   1.7459  -3.0650 H              1 S1                 0.0000
     35 ****         2.1201  -0.5112  -1.7876 H              1 S1                 0.0000
     36 ****         2.1077   1.0366  -2.5269 H              1 S1                 0.0000
     37 ****         2.6690  -0.8896   0.3127 H              1 S1                 0.0000
     38 ****         4.3634   1.4167   3.7757 H              1 S1                 0.0000
     39 ****         2.2917   2.7105   4.2433 H              1 S1                 0.0000
     40 ****         3.0425   4.1663   3.5936 H              1 S1                 0.0000
     41 ****         3.6925   3.4110   5.0432 H              1 S1                 0.0000
     42 ****         6.1987   2.3644   2.3994 H              1 S1                 0.0000
     43 ****         6.0326   3.2250   3.9243 H              1 S1                 0.0000
     44 ****         5.4296   3.9491   2.4375 H              1 S1                 0.0000
     45 ****         3.2214   3.9020   1.1855 H              1 S1                 0.0000
     46 ****        -0.9220  -2.5346  -1.1307 H              1 S1                 0.0000
     47 ****        -1.2713  -4.7602  -1.8047 H              1 S1                 0.0000
     48 ****        -2.6087  -4.9415  -2.9381 H              1 S1                 0.0000
     49 ****        -2.7736  -5.5058  -1.2683 H              1 S1                 0.0000
     50 ****        -4.9741   0.9231  -0.2431 H              1 S1                 0.0000
     51 ****        -0.1197   2.4121  -1.6337 LP             1 S1                 0.0000
     52 ****        -1.3155   1.5367  -2.3196 LP             1 S1                 0.0000
     53 ****         3.6757  -0.1042   2.3271 LP             1 S1                 0.0000
     54 ****         1.6600   2.9013  -1.9554 LP             1 S1                 0.0000
     55 ****         2.1877   4.2123  -0.9539 LP             1 S1                 0.0000
@<TRIPOS>BOND
    1    1    2 1     
    2    1   26 1     
    3    1   27 1     
    4    1   28 1     
    5    2   24 ar    
    6    2    3 ar    
    7    3    4 ar    
    8    3   29 1     
    9    4   22 ar    
   10    4    5 1     
   11    5    6 2     
   12    5   50 1     
   13    6    7 1     
   14    6   30 1     
   15    7    8 1     
   16    7   22 1     
   17    8    9 1     
   18    8   31 1     
   19    8   32 1     
   20    9   10 1     
   21    9   11 1     
   22    9   33 1     
   23   10   34 1     
   24   11   12 1     
   25   11   35 1     
   26   11   36 1     
   27   12   20 am    
   28   12   13 1     
   29   13   14 2     
   30   13   37 1     
   31   14   15 1     
   32   15   16 1     
   33   15   19 2     
   34   16   17 1     
   35   16   18 1     
   36   16   38 1     
   37   17   39 1     
   38   17   40 1     
   39   17   41 1     
   40   18   42 1     
   41   18   43 1     
   42   18   44 1     
   43   19   20 1     
   44   19   45 1     
   45   20   21 2     
   46   22   23 ar    
   47   23   24 ar    
   48   23   46 1     
   49   24   25 1     
   50   25   47 1     
   51   25   48 1     
   52   25   49 1     
   53   10   51 1     
   54   10   52 1     
   55   14   53 1     
   56   21   54 1     
   57   21   55 1     
@<TRIPOS>SUBSTRUCTURE
      1 S1             1
@<TRIPOS>SET
LONE_PAIRS      STATIC     ATOMS    <user>   **** ""
5 51 52 53 54 55
DONOR_HYDROGENS      STATIC     ATOMS    <user>   **** ""
2 50 34
ATOM$BLUE        STATIC     ATOMS    COLORGROUP SYSTEM
5 51 52 53 54 55
ATOM$RED        STATIC     ATOMS    COLORGROUP SYSTEM
2 50 34
