AV-unprocessed.smi:224|AV-procd|sdf|1718|dock1
  -GOLD-   2262020193D 1   1.00000     0.00000
 Structure written by MMmdl.
 56 59  0  0  0  0  0  0  0  0  2 V2000
  145.5356  132.3167  149.7309 C   0  0  0  0  0  0  0  0  0  0  0  0
  144.2979  133.1851  150.0013 C   0  0  1  0  0  0  0  0  0  0  0  0
  143.4713  133.1424  148.8574 O   0  0  0  0  0  0  0  0  0  0  0  0
  143.4746  132.7015  151.2134 C   0  0  0  0  0  0  0  0  0  0  0  0
  143.9158  133.3166  152.4987 N   0  3  1  0  0  0  0  0  0  0  0  0
  145.4030  133.4001  152.5737 C   0  0  0  0  0  0  0  0  0  0  0  0
  145.8888  134.0034  153.9014 C   0  0  0  0  0  0  0  0  0  0  0  0
  145.2422  135.2836  154.1629 N   0  0  0  0  0  0  0  0  0  0  0  0
  145.8035  136.4296  153.6920 C   0  0  0  0  0  0  0  0  0  0  0  0
  145.4439  136.9063  152.4702 N   0  0  0  0  0  0  0  0  0  0  0  0
  145.9824  138.0331  151.9958 C   0  0  0  0  0  0  0  0  0  0  0  0
  146.8904  138.8264  152.5652 N   0  0  0  0  0  0  0  0  0  0  0  0
  147.2690  138.3492  153.7849 C   0  0  0  0  0  0  0  0  0  0  0  0
  146.7779  137.1725  154.4191 C   0  0  0  0  0  0  0  0  0  0  0  0
  147.4034  137.0058  155.6493 N   0  0  0  0  0  0  0  0  0  0  0  0
  148.2114  138.0268  155.7393 C   0  0  0  0  0  0  0  0  0  0  0  0
  148.2014  138.8796  154.6592 N   0  0  0  0  0  0  0  0  0  0  0  0
  149.0084  140.0787  154.4916 C   0  0  0  0  0  0  0  0  0  0  0  0
  148.1940  141.3867  154.6244 C   0  0  1  0  0  0  0  0  0  0  0  0
  149.0718  142.4901  154.4774 O   0  0  0  0  0  0  0  0  0  0  0  0
  147.0651  141.5278  153.6080 C   0  0  0  0  0  0  0  0  0  0  0  0
  146.0309  142.3486  154.3652 C   0  0  0  0  0  0  0  0  0  0  0  0
  146.1020  141.8070  155.6733 O   0  0  0  0  0  0  0  0  0  0  0  0
  147.4644  141.5212  155.9761 C   0  0  0  0  0  0  0  0  0  0  0  0
  143.7872  135.2095  154.1451 C   0  0  0  0  0  0  0  0  0  0  0  0
  143.2550  134.6250  152.8164 C   0  0  2  0  0  0  0  0  0  0  0  0
  141.7199  134.5149  152.9257 C   0  0  0  0  0  0  0  0  0  0  0  0
  146.2314  132.3481  150.5697 H   0  0  0  0  0  0  0  0  0  0  0  0
  146.0742  132.6651  148.8488 H   0  0  0  0  0  0  0  0  0  0  0  0
  145.2631  131.2739  149.5641 H   0  0  0  0  0  0  0  0  0  0  0  0
  144.6038  134.2230  150.1245 H   0  0  0  0  0  0  0  0  0  0  0  0
  142.5802  133.3214  149.1169 H   0  0  0  0  0  0  0  0  0  0  0  0
  142.4140  132.9115  151.0639 H   0  0  0  0  0  0  0  0  0  0  0  0
  143.5563  131.6180  151.2390 H   0  0  0  0  0  0  0  0  0  0  0  0
  145.8499  132.4133  152.4657 H   0  0  0  0  0  0  0  0  0  0  0  0
  145.7692  133.9977  151.7381 H   0  0  0  0  0  0  0  0  0  0  0  0
  145.6448  133.3269  154.7213 H   0  0  0  0  0  0  0  0  0  0  0  0
  146.9751  134.1046  153.9074 H   0  0  0  0  0  0  0  0  0  0  0  0
  145.6372  138.3434  151.0206 H   0  0  0  0  0  0  0  0  0  0  0  0
  148.8498  138.1820  156.5973 H   0  0  0  0  0  0  0  0  0  0  0  0
  149.8098  140.0577  155.2311 H   0  0  0  0  0  0  0  0  0  0  0  0
  149.4933  140.0329  153.5155 H   0  0  0  0  0  0  0  0  0  0  0  0
  148.7053  143.2275  154.9411 H   0  0  0  0  0  0  0  0  0  0  0  0
  147.3726  141.9810  152.6646 H   0  0  0  0  0  0  0  0  0  0  0  0
  146.6353  140.5513  153.3830 H   0  0  0  0  0  0  0  0  0  0  0  0
  146.3050  143.4044  154.3868 H   0  0  0  0  0  0  0  0  0  0  0  0
  145.0289  142.2585  153.9453 H   0  0  0  0  0  0  0  0  0  0  0  0
  147.5081  140.6031  156.5628 H   0  0  0  0  0  0  0  0  0  0  0  0
  147.8809  142.3205  156.5918 H   0  0  0  0  0  0  0  0  0  0  0  0
  143.4739  134.5792  154.9785 H   0  0  0  0  0  0  0  0  0  0  0  0
  143.3350  136.1843  154.3218 H   0  0  0  0  0  0  0  0  0  0  0  0
  143.4959  135.3262  152.0154 H   0  0  0  0  0  0  0  0  0  0  0  0
  141.2942  135.4344  153.3293 H   0  0  0  0  0  0  0  0  0  0  0  0
  141.4259  133.7010  153.5895 H   0  0  0  0  0  0  0  0  0  0  0  0
  141.2355  134.3619  151.9628 H   0  0  0  0  0  0  0  0  0  0  0  0
  143.6263  132.6840  153.2307 H   0  0  0  0  0  0  0  0  0  0  0  0
  1  2  1  0  0  0  0
  1 28  1  0  0  0  0
  1 29  1  0  0  0  0
  1 30  1  0  0  0  0
  2  3  1  0  0  0  0
  2  4  1  0  0  0  0
  2 31  1  0  0  0  0
  3 32  1  0  0  0  0
  4  5  1  0  0  0  0
  4 33  1  0  0  0  0
  4 34  1  0  0  0  0
  5 26  1  0  0  0  0
  5  6  1  0  0  0  0
  5 56  1  0  0  0  0
  6  7  1  0  0  0  0
  6 35  1  0  0  0  0
  6 36  1  0  0  0  0
  7  8  1  0  0  0  0
  7 37  1  0  0  0  0
  7 38  1  0  0  0  0
  8  9  1  0  0  0  0
  8 25  1  0  0  0  0
  9 14  1  0  0  0  0
  9 10  2  0  0  0  0
 10 11  1  0  0  0  0
 11 12  2  0  0  0  0
 11 39  1  0  0  0  0
 12 13  1  0  0  0  0
 13 17  1  0  0  0  0
 13 14  2  0  0  0  0
 14 15  1  0  0  0  0
 15 16  2  0  0  0  0
 16 17  1  0  0  0  0
 16 40  1  0  0  0  0
 17 18  1  0  0  0  0
 18 19  1  0  0  0  0
 18 41  1  0  0  0  0
 18 42  1  0  0  0  0
 19 24  1  0  0  0  0
 19 20  1  0  0  0  0
 19 21  1  0  0  0  0
 20 43  1  0  0  0  0
 21 22  1  0  0  0  0
 21 44  1  0  0  0  0
 21 45  1  0  0  0  0
 22 23  1  0  0  0  0
 22 46  1  0  0  0  0
 22 47  1  0  0  0  0
 23 24  1  0  0  0  0
 24 48  1  0  0  0  0
 24 49  1  0  0  0  0
 25 26  1  0  0  0  0
 25 50  1  0  0  0  0
 25 51  1  0  0  0  0
 26 27  1  0  0  0  0
 26 52  1  0  0  0  0
 27 53  1  0  0  0  0
 27 54  1  0  0  0  0
 27 55  1  0  0  0  0
M  CHG  1   5   1
M  END
> <s_m_source_file>
AV-unprocessed.smi

> <i_m_source_file_index>
224

> <i_lp_mmshare_version>
43012

> <i_f3d_flags>
0

> <s_epik_input>
W0NIM11bQ0BIXShbT0hdKVtDSDJdTjFbQ0gyXVtDSDJdTihbQ0gyXVtDQEhdMVtDSDNdKWMobltjSF1uMiljKGMyMyluW2NIXW4zW0NIMl1bQ0BAXTQoW09IXSlbQ0gyXVtDSDJdT1tDSDJdNA==

> <s_epik_cmdline>
J2VwaWtfcHl0aG9uJywgJy1waCcsICc3LjAnLCAnLXRuJywgJzgnLCAnLW1hJywgJzIwMCcsICctbWV0YWxfYmluZGluZycsICctaW1hZScsICc8aW5maWxlLm1hZT4nLCAnLW9tYWUnLCAnPG91dGZpbGUubWFlPic=

> <r_lp_tautomer_probability>
1

> <r_epik_Ionization_Penalty>
0.00516958

> <r_epik_Ionization_Penalty_Charging>
0.00509693

> <r_epik_Ionization_Penalty_Neutral>
7.26542e-05

> <r_epik_State_Penalty>
-0

> <r_epik_Charging_Adjusted_Penalty>
0.00509693

> <i_epik_Tot_Q>
1

> <i_epik_Tot_abs_Q>
1

> <r_epik_Metal_State_Penalty>
-0

> <b_epik_Metal_Only>
0

> <s_lp_Force_Field>
OPLS_2005

> <r_lp_Energy>
49.0033

> <b_lp_Chiralities_Consistent>
1

> <s_lp_Variant>
AV-unprocessed.smi:224-12

> <Gold.Version>
5.8.1

> <Gold.Id.Protein>
6NUR|6NUR_protein|mol2

> <Gold.PLP.Fitness>
52.3169

> <Gold.PLP.PLP>
-38.7813

> <Gold.PLP.part.hbond>
-4.0000

> <Gold.PLP.part.metal>
0.0000

> <Gold.PLP.part.buried>
-7.3268

> <Gold.PLP.part.nonpolar>
-29.1623

> <Gold.PLP.part.repulsive>
0.7184

> <Gold.PLP.ligand.clash>
0.0000

> <Gold.PLP.ligand.torsion>
1.2021

> <Gold.PLP.Chemscore.Hbond>
4.0710

> <Gold.PLP.Chemscore.CHOScore>
1.0000

> <Gold.PLP.Chemscore.Metal>
0.0000

> <Gold.Chemscore.Hbonds>
donor molecule, donor type, donor heavy atom, donor atom, acceptor molecule, acceptor atom, score
      L1  H     3    32       P1 10186  1.00
      L1  H     5    56       P1 10957  1.98
      L1  H    20    43       P1  8028  1.00
      P1  H  8011  8017       L1    20  0.06
      L1  C    11    39       P1 10171  1.00

> <Gold.PLP.Chemscore.Internal.Correction>
0.7268

> <Gold.Rescore>
     Score         DG    S(hbond)    S(metal)    S(lipo)     H(rot)  DE(clash)    DE(int)     intcor
     13.33     -15.30       2.74        0.00      79.28       3.36       0.62       1.35       ----

> <Gold.Chemscore.Fitness>
13.3306

> <Gold.Chemscore.DG>
-15.2982

> <Gold.Chemscore.ZeroCoef>
-5.4800

> <Gold.Chemscore.Hbond>
2.7386

> <Gold.Chemscore.Metal>
0.0000

> <Gold.Chemscore.Lipo>
79.2810

> <Gold.Chemscore.Internal_Hbond>
0.0000

> <Gold.Chemscore.DEClash>
0.6195

> <Gold.Chemscore.DEInternal>
1.3482

> <Gold.Chemscore.Rot>
3.3611

> <Gold.Chemscore.Internal.Correction>
   9.000000E+99

> <Gold.Chemscore.Hbonds>
donor molecule, donor type, donor heavy atom, donor atom, acceptor molecule, acceptor atom, score
      L1  H     3    32       P1 10186  0.98
      L1  H     5    56       P1 10957  0.32
      L1  H    20    43       P1  8028  0.95
      P1  H  8011  8017       L1    20  0.04

> <Gold.Chemscore.Hbond.Weighted>
-9.1468

> <Gold.Chemscore.Metal.Weighted>
-0.0000

> <Gold.Chemscore.Lipo.Weighted>
-9.2759

> <Gold.Chemscore.Internal_Hbond.Weighted>
0.0000

> <Gold.Chemscore.DEClash.Weighted>
0.6195

> <Gold.Chemscore.DEInternal.Weighted>
1.3482

> <Gold.Chemscore.Rot.Weighted>
8.6045

> <Gold.Chemscore.Internal.Correction.Weighted>
   9.000000E+99

> <Gold.Protein.RotatedTorsions>
[ 6907 6896 6895 6894 ] final  -45.05 input  -60.11 | X-H torsion
[ 7974 7965 7964 7962 ] final   -7.25 input  175.53 | X-H torsion
[ 8008 7997 7996 7995 ] final  119.13 input   59.86 | X-H torsion
[ 10167 10162 10161 10158 ] final    6.45 input  -65.29 | X-H torsion
[ 10718 10713 10712 10709 ] final  110.29 input   66.30 | X-H torsion
[ 10763 10752 10751 10750 ] final  -50.81 input  -60.55 | X-H torsion
[ 11005 11000 10999 10996 ] final -120.81 input  -57.11 | X-H torsion

> <Gold.Protein.ActiveResidues>
 VAL166  LYS551  ARG553  GLY616  TRP617  ASP618  TYR619  PRO620  LYS621  CYS622 
 ASP623  PHE694  ASN695  SER759  ASP760  ASP761  ALA762  ILE779  LEU786  VAL792 
 PHE793  MET794  SER795  GLU796  ALA797  LYS798  CYS799  TRP800  GLU811  SER814 

> <Gold.Protein.RotatedAtoms>
  150.9261  134.8678  159.7520 H   0  0  0  0  0  0  0  0  0  0  0  0  # atno 6907 bound_to 6896
  152.5016  134.4146  159.9470 H   0  0  0  0  0  0  0  0  0  0  0  0  # atno 6908 bound_to 6896
  151.4177  133.3668  159.2787 H   0  0  0  0  0  0  0  0  0  0  0  0  # atno 6909 bound_to 6896
  146.2311  140.2291  142.8339 H   0  0  0  0  0  0  0  0  0  0  0  0  # atno 7974 bound_to 7965
  156.2581  140.2859  156.0944 H   0  0  0  0  0  0  0  0  0  0  0  0  # atno 8008 bound_to 7997
  155.1428  140.0396  157.2820 H   0  0  0  0  0  0  0  0  0  0  0  0  # atno 8009 bound_to 7997
  154.6517  140.2546  155.7212 H   0  0  0  0  0  0  0  0  0  0  0  0  # atno 8010 bound_to 7997
  140.6427  143.7736  150.7452 H   0  0  0  0  0  0  0  0  0  0  0  0  # atno 10167 bound_to 10162
  157.6501  131.0930  150.6579 H   0  0  0  0  0  0  0  0  0  0  0  0  # atno 10718 bound_to 10713
  154.1163  135.6541  153.4894 H   0  0  0  0  0  0  0  0  0  0  0  0  # atno 10763 bound_to 10752
  153.0240  135.5259  154.7141 H   0  0  0  0  0  0  0  0  0  0  0  0  # atno 10764 bound_to 10752
  154.6336  135.2979  155.0157 H   0  0  0  0  0  0  0  0  0  0  0  0  # atno 10765 bound_to 10752
  141.0116  134.0256  157.3405 H   0  0  0  0  0  0  0  0  0  0  0  0  # atno 11005 bound_to 11000
  144.9571  140.8238  143.5536 LP  0  0  0  0  0  0  0  0  0  0  0  0  # atno 17320 bound_to 7965
  145.2258  139.2137  143.5069 LP  0  0  0  0  0  0  0  0  0  0  0  0  # atno 17321 bound_to 7965
  140.1371  143.4474  152.2217 LP  0  0  0  0  0  0  0  0  0  0  0  0  # atno 17342 bound_to 10162
  139.5636  144.7421  151.4085 LP  0  0  0  0  0  0  0  0  0  0  0  0  # atno 17343 bound_to 10162
  156.6892  130.4590  149.5605 LP  0  0  0  0  0  0  0  0  0  0  0  0  # atno 17370 bound_to 10713
  156.1874  130.6538  151.1022 LP  0  0  0  0  0  0  0  0  0  0  0  0  # atno 17371 bound_to 10713
  139.9093  135.0187  156.7624 LP  0  0  0  0  0  0  0  0  0  0  0  0  # atno 17394 bound_to 11000
  140.6723  133.9548  155.7863 LP  0  0  0  0  0  0  0  0  0  0  0  0  # atno 17395 bound_to 11000

$$$$
