AV-unprocessed.smi:3331|AV-procd|sdf|12823|dock8
  -GOLD-   2272019203D 1   1.00000     0.00000
 Structure written by MMmdl.
 46 47  0  0  0  0  0  0  0  0  1 V2000
  154.2902  141.4841  160.5521 C   0  0  0  0  0  0  0  0  0  0  0  0
  153.2587  142.0023  159.5404 C   0  0  2  0  0  0  0  0  0  0  0  0
  152.8454  143.4604  159.8494 C   0  0  0  0  0  0  0  0  0  0  0  0
  151.7038  143.9710  158.9403 C   0  0  1  0  0  0  0  0  0  0  0  0
  152.2058  144.3463  157.5347 C   0  0  0  0  0  0  0  0  0  0  0  0
  150.5552  142.9387  158.9124 C   0  0  0  0  0  0  0  0  0  0  0  0
  151.0761  141.6317  158.4873 N   0  0  0  0  0  0  0  0  0  0  0  0
  150.8300  141.0069  157.3073 C   0  0  0  0  0  0  0  0  0  0  0  0
  150.1331  141.5245  156.4317 O   0  0  0  0  0  0  0  0  0  0  0  0
  151.4182  139.6038  157.0252 C   0  0  2  0  0  0  0  0  0  0  0  0
  152.1708  139.6104  155.6856 C   0  0  0  0  0  0  0  0  0  0  0  0
  150.4005  138.5362  157.0144 N   0  0  0  0  0  0  0  0  0  0  0  0
  149.9132  138.1827  158.3438 C   0  0  0  0  0  0  0  0  0  0  0  0
  148.5021  137.5911  158.2300 C   0  0  0  0  0  0  0  0  0  0  0  0
  148.2108  136.6997  159.3357 N   0  0  0  0  0  0  0  0  0  0  0  0
  148.0729  135.3281  159.3159 C   0  0  0  0  0  0  0  0  0  0  0  0
  147.7922  134.9298  160.5915 C   0  0  0  0  0  0  0  0  0  0  0  0
  147.7773  136.1466  161.3295 C   0  0  0  0  0  0  0  0  0  0  0  0
  148.0272  137.2046  160.5747 N   0  0  0  0  0  0  0  0  0  0  0  0
  152.0133  141.0921  159.4821 C   0  0  0  0  0  0  0  0  0  0  0  0
  153.8800  141.4629  161.5623 H   0  0  0  0  0  0  0  0  0  0  0  0
  155.1779  142.1171  160.5661 H   0  0  0  0  0  0  0  0  0  0  0  0
  154.6114  140.4725  160.3025 H   0  0  0  0  0  0  0  0  0  0  0  0
  153.7325  141.9842  158.5578 H   0  0  0  0  0  0  0  0  0  0  0  0
  152.5098  143.5153  160.8860 H   0  0  0  0  0  0  0  0  0  0  0  0
  153.7091  144.1229  159.7800 H   0  0  0  0  0  0  0  0  0  0  0  0
  151.3134  144.8867  159.3861 H   0  0  0  0  0  0  0  0  0  0  0  0
  152.6343  143.4912  157.0125 H   0  0  0  0  0  0  0  0  0  0  0  0
  152.9746  145.1171  157.5874 H   0  0  0  0  0  0  0  0  0  0  0  0
  151.3942  144.7369  156.9206 H   0  0  0  0  0  0  0  0  0  0  0  0
  150.1433  142.8341  159.9172 H   0  0  0  0  0  0  0  0  0  0  0  0
  149.7183  143.3008  158.3190 H   0  0  0  0  0  0  0  0  0  0  0  0
  152.1243  139.3310  157.8065 H   0  0  0  0  0  0  0  0  0  0  0  0
  152.9650  140.3579  155.6775 H   0  0  0  0  0  0  0  0  0  0  0  0
  151.5018  139.8275  154.8517 H   0  0  0  0  0  0  0  0  0  0  0  0
  152.6348  138.6424  155.4937 H   0  0  0  0  0  0  0  0  0  0  0  0
  149.6241  138.7716  156.4125 H   0  0  0  0  0  0  0  0  0  0  0  0
  150.5869  137.4557  158.7998 H   0  0  0  0  0  0  0  0  0  0  0  0
  149.8872  139.0564  158.9956 H   0  0  0  0  0  0  0  0  0  0  0  0
  147.7544  138.3857  158.2233 H   0  0  0  0  0  0  0  0  0  0  0  0
  148.3883  137.0399  157.2951 H   0  0  0  0  0  0  0  0  0  0  0  0
  148.1829  134.7568  158.4059 H   0  0  0  0  0  0  0  0  0  0  0  0
  147.6221  133.9234  160.9434 H   0  0  0  0  0  0  0  0  0  0  0  0
  147.5930  136.2914  162.3837 H   0  0  0  0  0  0  0  0  0  0  0  0
  152.3149  140.0662  159.2663 H   0  0  0  0  0  0  0  0  0  0  0  0
  151.5257  141.0537  160.4573 H   0  0  0  0  0  0  0  0  0  0  0  0
  1  2  1  0  0  0  0
  1 21  1  0  0  0  0
  1 22  1  0  0  0  0
  1 23  1  0  0  0  0
  2 20  1  0  0  0  0
  2  3  1  0  0  0  0
  2 24  1  0  0  0  0
  3  4  1  0  0  0  0
  3 25  1  0  0  0  0
  3 26  1  0  0  0  0
  4  5  1  0  0  0  0
  4  6  1  0  0  0  0
  4 27  1  0  0  0  0
  5 28  1  0  0  0  0
  5 29  1  0  0  0  0
  5 30  1  0  0  0  0
  6  7  1  0  0  0  0
  6 31  1  0  0  0  0
  6 32  1  0  0  0  0
  7  8  1  0  0  0  0
  7 20  1  0  0  0  0
  8  9  2  0  0  0  0
  8 10  1  0  0  0  0
 10 11  1  0  0  0  0
 10 12  1  0  0  0  0
 10 33  1  0  0  0  0
 11 34  1  0  0  0  0
 11 35  1  0  0  0  0
 11 36  1  0  0  0  0
 12 13  1  0  0  0  0
 12 37  1  0  0  0  0
 13 14  1  0  0  0  0
 13 38  1  0  0  0  0
 13 39  1  0  0  0  0
 14 15  1  0  0  0  0
 14 40  1  0  0  0  0
 14 41  1  0  0  0  0
 15 19  1  0  0  0  0
 15 16  1  0  0  0  0
 16 17  2  0  0  0  0
 16 42  1  0  0  0  0
 17 18  1  0  0  0  0
 17 43  1  0  0  0  0
 18 19  2  0  0  0  0
 18 44  1  0  0  0  0
 20 45  1  0  0  0  0
 20 46  1  0  0  0  0
M  END
> <s_m_source_file>
AV-unprocessed.smi

> <i_m_source_file_index>
3331

> <i_lp_mmshare_version>
43012

> <i_f3d_flags>
0

> <s_epik_input>
W0NIM11bQ0BASF0xW0NIMl1bQ0BASF0oW0NIM10pW0NIMl1OKFtDSDJdMSlDKD1PKVtDQEhdKFtDSDNdKVtOSF1bQ0gyXVtDSDJdbjJbY0hdW2NIXVtjSF1uMg==

> <s_epik_cmdline>
J2VwaWtfcHl0aG9uJywgJy1waCcsICc3LjAnLCAnLXRuJywgJzgnLCAnLW1hJywgJzIwMCcsICctbWV0YWxfYmluZGluZycsICctaW1hZScsICc8aW5maWxlLm1hZT4nLCAnLW9tYWUnLCAnPG91dGZpbGUubWFlPic=

> <r_lp_tautomer_probability>
1

> <r_epik_Ionization_Penalty>
0.767994

> <r_epik_Ionization_Penalty_Charging>
0

> <r_epik_Ionization_Penalty_Neutral>
0.767994

> <r_epik_State_Penalty>
0.795453

> <r_epik_Charging_Adjusted_Penalty>
0.795453

> <i_epik_Tot_Q>
0

> <i_epik_Tot_abs_Q>
0

> <r_epik_Metal_State_Penalty>
0.794784

> <b_epik_Metal_Only>
0

> <s_lp_Force_Field>
OPLS_2005

> <r_lp_Energy>
29.1229

> <b_lp_Chiralities_Consistent>
1

> <s_lp_Variant>
AV-unprocessed.smi:3331-7

> <Gold.Version>
5.8.1

> <Gold.Id.Protein>
6NUR|6NUR_protein|mol2

> <Gold.PLP.Fitness>
44.7844

> <Gold.PLP.PLP>
-41.5923

> <Gold.PLP.part.hbond>
-2.0000

> <Gold.PLP.part.metal>
0.0000

> <Gold.PLP.part.buried>
-5.1477

> <Gold.PLP.part.nonpolar>
-34.4790

> <Gold.PLP.part.repulsive>
0.0786

> <Gold.PLP.ligand.clash>
0.0000

> <Gold.PLP.ligand.torsion>
0.6726

> <Gold.PLP.Chemscore.Hbond>
1.4968

> <Gold.PLP.Chemscore.CHOScore>
0.0000

> <Gold.PLP.Chemscore.Metal>
0.0000

> <Gold.Chemscore.Hbonds>
donor molecule, donor type, donor heavy atom, donor atom, acceptor molecule, acceptor atom, score
      P1  H  6931  6943       L1    19  0.74
      P1  H  6934  6947       L1    19  0.75

> <Gold.PLP.Chemscore.Internal.Correction>
0.0470

> <Gold.Rescore>
     Score         DG    S(hbond)    S(metal)    S(lipo)     H(rot)  DE(clash)    DE(int)     intcor
     16.91     -17.61       1.03        0.00     110.59       1.66       0.03       0.67       ----

> <Gold.Chemscore.Fitness>
16.9112

> <Gold.Chemscore.DG>
-17.6103

> <Gold.Chemscore.ZeroCoef>
-5.4800

> <Gold.Chemscore.Hbond>
1.0339

> <Gold.Chemscore.Metal>
0.0000

> <Gold.Chemscore.Lipo>
110.5906

> <Gold.Chemscore.Internal_Hbond>
0.0000

> <Gold.Chemscore.DEClash>
0.0291

> <Gold.Chemscore.DEInternal>
0.6700

> <Gold.Chemscore.Rot>
1.6649

> <Gold.Chemscore.Internal.Correction>
   9.000000E+99

> <Gold.Chemscore.Hbonds>
donor molecule, donor type, donor heavy atom, donor atom, acceptor molecule, acceptor atom, score
      P1  H  6931  6943       L1    19  0.17
      P1  H  6934  6947       L1    19  0.68

> <Gold.Chemscore.Hbond.Weighted>
-3.4533

> <Gold.Chemscore.Metal.Weighted>
-0.0000

> <Gold.Chemscore.Lipo.Weighted>
-12.9391

> <Gold.Chemscore.Internal_Hbond.Weighted>
0.0000

> <Gold.Chemscore.DEClash.Weighted>
0.0291

> <Gold.Chemscore.DEInternal.Weighted>
0.6700

> <Gold.Chemscore.Rot.Weighted>
4.2621

> <Gold.Chemscore.Internal.Correction.Weighted>
   9.000000E+99

> <Gold.Protein.RotatedTorsions>
[ 6907 6896 6895 6894 ] final  119.34 input  -60.11 | X-H torsion
[ 7974 7965 7964 7962 ] final  -45.90 input  175.53 | X-H torsion
[ 8008 7997 7996 7995 ] final  -75.03 input   59.86 | X-H torsion
[ 10167 10162 10161 10158 ] final -148.73 input  -65.29 | X-H torsion
[ 10718 10713 10712 10709 ] final  -56.38 input   66.30 | X-H torsion
[ 10763 10752 10751 10750 ] final -172.09 input  -60.55 | X-H torsion
[ 11005 11000 10999 10996 ] final  -76.28 input  -57.11 | X-H torsion

> <Gold.Protein.ActiveResidues>
 VAL166  LYS551  ARG553  GLY616  TRP617  ASP618  TYR619  PRO620  LYS621  CYS622 
 ASP623  PHE694  ASN695  SER759  ASP760  ASP761  ALA762  ILE779  LEU786  VAL792 
 PHE793  MET794  SER795  GLU796  ALA797  LYS798  CYS799  TRP800  GLU811  SER814 

> <Gold.Protein.RotatedAtoms>
  152.4479  133.7572  159.6726 H   0  0  0  0  0  0  0  0  0  0  0  0  # atno 6907 bound_to 6896
  150.8383  133.7966  159.3077 H   0  0  0  0  0  0  0  0  0  0  0  0  # atno 6908 bound_to 6896
  151.5599  135.1068  160.0022 H   0  0  0  0  0  0  0  0  0  0  0  0  # atno 6909 bound_to 6896
  145.9774  140.7320  142.9380 H   0  0  0  0  0  0  0  0  0  0  0  0  # atno 7974 bound_to 7965
  154.5381  140.0751  156.8463 H   0  0  0  0  0  0  0  0  0  0  0  0  # atno 8008 bound_to 7997
  155.3236  140.3397  155.4222 H   0  0  0  0  0  0  0  0  0  0  0  0  # atno 8009 bound_to 7997
  156.1848  140.1665  156.8192 H   0  0  0  0  0  0  0  0  0  0  0  0  # atno 8010 bound_to 7997
  139.7506  143.8525  152.2585 H   0  0  0  0  0  0  0  0  0  0  0  0  # atno 10167 bound_to 10162
  156.1293  130.4160  150.0298 H   0  0  0  0  0  0  0  0  0  0  0  0  # atno 10718 bound_to 10713
  154.6232  135.2877  155.0302 H   0  0  0  0  0  0  0  0  0  0  0  0  # atno 10763 bound_to 10752
  154.1490  135.6506  153.4963 H   0  0  0  0  0  0  0  0  0  0  0  0  # atno 10764 bound_to 10752
  153.0245  135.5351  154.7030 H   0  0  0  0  0  0  0  0  0  0  0  0  # atno 10765 bound_to 10752
  141.1652  133.6977  156.7645 H   0  0  0  0  0  0  0  0  0  0  0  0  # atno 11005 bound_to 11000
  144.6852  140.2850  143.7286 LP  0  0  0  0  0  0  0  0  0  0  0  0  # atno 17320 bound_to 7965
  145.7819  139.1894  143.2153 LP  0  0  0  0  0  0  0  0  0  0  0  0  # atno 17321 bound_to 7965
  139.8502  144.7168  150.9224 LP  0  0  0  0  0  0  0  0  0  0  0  0  # atno 17342 bound_to 10162
  140.7797  143.3906  151.1316 LP  0  0  0  0  0  0  0  0  0  0  0  0  # atno 17343 bound_to 10162
  156.8214  130.9360  151.3641 LP  0  0  0  0  0  0  0  0  0  0  0  0  # atno 17370 bound_to 10713
  157.6472  130.8854  149.9562 LP  0  0  0  0  0  0  0  0  0  0  0  0  # atno 17371 bound_to 10713
  140.2510  134.8541  157.3667 LP  0  0  0  0  0  0  0  0  0  0  0  0  # atno 17394 bound_to 11000
  140.1703  134.4617  155.7836 LP  0  0  0  0  0  0  0  0  0  0  0  0  # atno 17395 bound_to 11000

$$$$
