AV-unprocessed.smi:406|AV-procd|sdf|2499|dock8
  -GOLD-   2262022443D 1   1.00000     0.00000
 Structure written by MMmdl.
 35 36  0  0  0  0  0  0  0  0  1 V2000
  149.4067  132.5182  154.6914 C   0  0  0  0  0  0  0  0  0  0  0  0
  149.2020  133.9582  154.2094 C   0  0  0  0  0  0  0  0  0  0  0  0
  149.7802  134.9929  155.1885 C   0  0  0  0  0  0  0  0  0  0  0  0
  150.1915  136.2118  154.5021 N   0  0  0  0  0  0  0  0  0  0  0  0
  150.9488  137.1817  155.0386 C   0  0  0  0  0  0  0  0  0  0  0  0
  151.3809  137.1461  156.1907 O   0  0  0  0  0  0  0  0  0  0  0  0
  151.2716  138.3746  154.1377 C   0  0  0  0  0  0  0  0  0  0  0  0
  150.4506  139.5632  154.5443 C   0  0  0  0  0  0  0  0  0  0  0  0
  149.2123  139.9166  154.0646 C   0  0  0  0  0  0  0  0  0  0  0  0
  148.6110  141.3719  154.8135 S   0  0  0  0  0  0  0  0  0  0  0  0
  150.0977  141.4607  155.7445 C   0  0  0  0  0  0  0  0  0  0  0  0
  150.3252  142.4778  156.7088 N   0  0  0  0  0  0  0  0  0  0  0  0
  151.2248  142.5330  157.7119 C   0  0  0  0  0  0  0  0  0  0  0  0
  152.0072  141.5992  157.8836 O   0  0  0  0  0  0  0  0  0  0  0  0
  151.2430  143.7480  158.5923 C   0  0  0  0  0  0  0  0  0  0  0  0
  152.4245  144.6832  158.4463 C   0  0  0  0  0  0  0  0  0  0  0  0
  152.2941  143.8336  159.6838 C   0  0  0  0  0  0  0  0  0  0  0  0
  150.9337  140.4418  155.5189 N   0  0  0  0  0  0  0  0  0  0  0  0
  148.9903  131.8069  153.9778 H   0  0  0  0  0  0  0  0  0  0  0  0
  148.9176  132.3513  155.6515 H   0  0  0  0  0  0  0  0  0  0  0  0
  150.4662  132.2897  154.8094 H   0  0  0  0  0  0  0  0  0  0  0  0
  149.6672  134.0788  153.2305 H   0  0  0  0  0  0  0  0  0  0  0  0
  148.1354  134.1370  154.0679 H   0  0  0  0  0  0  0  0  0  0  0  0
  149.0554  135.2291  155.9695 H   0  0  0  0  0  0  0  0  0  0  0  0
  150.6542  134.5790  155.6919 H   0  0  0  0  0  0  0  0  0  0  0  0
  149.8807  136.3248  153.5481 H   0  0  0  0  0  0  0  0  0  0  0  0
  152.3366  138.6045  154.1915 H   0  0  0  0  0  0  0  0  0  0  0  0
  151.0693  138.1001  153.1015 H   0  0  0  0  0  0  0  0  0  0  0  0
  148.6182  139.4091  153.3191 H   0  0  0  0  0  0  0  0  0  0  0  0
  149.6981  143.2666  156.6494 H   0  0  0  0  0  0  0  0  0  0  0  0
  150.2803  144.1921  158.8377 H   0  0  0  0  0  0  0  0  0  0  0  0
  153.2061  144.4175  157.7365 H   0  0  0  0  0  0  0  0  0  0  0  0
  152.2200  145.7486  158.5288 H   0  0  0  0  0  0  0  0  0  0  0  0
  152.0033  144.3251  160.6099 H   0  0  0  0  0  0  0  0  0  0  0  0
  153.0036  143.0169  159.8032 H   0  0  0  0  0  0  0  0  0  0  0  0
  1  2  1  0  0  0  0
  1 19  1  0  0  0  0
  1 20  1  0  0  0  0
  1 21  1  0  0  0  0
  2  3  1  0  0  0  0
  2 22  1  0  0  0  0
  2 23  1  0  0  0  0
  3  4  1  0  0  0  0
  3 24  1  0  0  0  0
  3 25  1  0  0  0  0
  4  5  1  0  0  0  0
  4 26  1  0  0  0  0
  5  6  2  0  0  0  0
  5  7  1  0  0  0  0
  7  8  1  0  0  0  0
  7 27  1  0  0  0  0
  7 28  1  0  0  0  0
  8 18  1  0  0  0  0
  8  9  2  0  0  0  0
  9 10  1  0  0  0  0
  9 29  1  0  0  0  0
 10 11  1  0  0  0  0
 11 12  1  0  0  0  0
 11 18  2  0  0  0  0
 12 13  1  0  0  0  0
 12 30  1  0  0  0  0
 13 14  2  0  0  0  0
 13 15  1  0  0  0  0
 15 17  1  0  0  0  0
 15 16  1  0  0  0  0
 15 31  1  0  0  0  0
 16 17  1  0  0  0  0
 16 32  1  0  0  0  0
 16 33  1  0  0  0  0
 17 34  1  0  0  0  0
 17 35  1  0  0  0  0
M  END
> <s_m_source_file>
AV-unprocessed.smi

> <i_m_source_file_index>
406

> <i_lp_mmshare_version>
43012

> <i_f3d_flags>
0

> <s_epik_input>
W0NIM11bQ0gyXVtDSDJdW05IXUMoPU8pW0NIMl1jMVtjSF1zYyhuMSlbTkhdQyg9TylbQ0hdMltDSDJdW0NIMl0y

> <s_epik_cmdline>
J2VwaWtfcHl0aG9uJywgJy1waCcsICc3LjAnLCAnLXRuJywgJzgnLCAnLW1hJywgJzIwMCcsICctbWV0YWxfYmluZGluZycsICctaW1hZScsICc8aW5maWxlLm1hZT4nLCAnLW9tYWUnLCAnPG91dGZpbGUubWFlPic=

> <r_lp_tautomer_probability>
1

> <r_epik_Ionization_Penalty>
0.000156784

> <r_epik_Ionization_Penalty_Charging>
0

> <r_epik_Ionization_Penalty_Neutral>
0.000156784

> <r_epik_State_Penalty>
-0

> <r_epik_Charging_Adjusted_Penalty>
0

> <i_epik_Tot_Q>
0

> <i_epik_Tot_abs_Q>
0

> <r_epik_Metal_State_Penalty>
0.0968639

> <b_epik_Metal_Only>
0

> <s_lp_Force_Field>
OPLS_2005

> <r_lp_Energy>
11.5054

> <b_lp_Chiralities_Consistent>
1

> <s_lp_Variant>
AV-unprocessed.smi:406-1

> <Gold.Version>
5.8.1

> <Gold.Id.Protein>
6NUR|6NUR_protein|mol2

> <Gold.PLP.Fitness>
44.5279

> <Gold.PLP.PLP>
-38.8564

> <Gold.PLP.part.hbond>
-3.1371

> <Gold.PLP.part.metal>
0.0000

> <Gold.PLP.part.buried>
-1.5033

> <Gold.PLP.part.nonpolar>
-34.6171

> <Gold.PLP.part.repulsive>
0.1453

> <Gold.PLP.ligand.clash>
0.0000

> <Gold.PLP.ligand.torsion>
0.9700

> <Gold.PLP.Chemscore.Hbond>
2.0000

> <Gold.PLP.Chemscore.CHOScore>
0.5065

> <Gold.PLP.Chemscore.Metal>
0.0000

> <Gold.Chemscore.Hbonds>
donor molecule, donor type, donor heavy atom, donor atom, acceptor molecule, acceptor atom, score
      L1  H     4    26       P1  7948  0.90
      L1  H    12    30       P1  8028  1.00
      L1  C     9    29       P1  7957  0.52

> <Gold.PLP.Chemscore.Internal.Correction>
0.0919

> <Gold.Rescore>
     Score         DG    S(hbond)    S(metal)    S(lipo)     H(rot)  DE(clash)    DE(int)     intcor
     14.85     -17.33       2.31        0.00      76.95       1.91       0.26       2.22       ----

> <Gold.Chemscore.Fitness>
14.8470

> <Gold.Chemscore.DG>
-17.3253

> <Gold.Chemscore.ZeroCoef>
-5.4800

> <Gold.Chemscore.Hbond>
2.3125

> <Gold.Chemscore.Metal>
0.0000

> <Gold.Chemscore.Lipo>
76.9534

> <Gold.Chemscore.Internal_Hbond>
0.0000

> <Gold.Chemscore.DEClash>
0.2596

> <Gold.Chemscore.DEInternal>
2.2187

> <Gold.Chemscore.Rot>
1.9070

> <Gold.Chemscore.Internal.Correction>
   9.000000E+99

> <Gold.Chemscore.Hbonds>
donor molecule, donor type, donor heavy atom, donor atom, acceptor molecule, acceptor atom, score
      L1  H     4    26       P1  7948  0.18
      L1  H    12    30       P1  8028  0.96

> <Gold.Chemscore.Hbond.Weighted>
-7.7237

> <Gold.Chemscore.Metal.Weighted>
-0.0000

> <Gold.Chemscore.Lipo.Weighted>
-9.0036

> <Gold.Chemscore.Internal_Hbond.Weighted>
0.0000

> <Gold.Chemscore.DEClash.Weighted>
0.2596

> <Gold.Chemscore.DEInternal.Weighted>
2.2187

> <Gold.Chemscore.Rot.Weighted>
4.8820

> <Gold.Chemscore.Internal.Correction.Weighted>
   9.000000E+99

> <Gold.Protein.RotatedTorsions>
[ 6907 6896 6895 6894 ] final   52.20 input  -60.11 | X-H torsion
[ 7974 7965 7964 7962 ] final  -79.19 input  175.53 | X-H torsion
[ 8008 7997 7996 7995 ] final  118.44 input   59.86 | X-H torsion
[ 10167 10162 10161 10158 ] final   64.72 input  -65.29 | X-H torsion
[ 10718 10713 10712 10709 ] final  -71.77 input   66.30 | X-H torsion
[ 10763 10752 10751 10750 ] final -162.46 input  -60.55 | X-H torsion
[ 11005 11000 10999 10996 ] final -119.89 input  -57.11 | X-H torsion

> <Gold.Protein.ActiveResidues>
 VAL166  LYS551  ARG553  GLY616  TRP617  ASP618  TYR619  PRO620  LYS621  CYS622 
 ASP623  PHE694  ASN695  SER759  ASP760  ASP761  ALA762  ILE779  LEU786  VAL792 
 PHE793  MET794  SER795  GLU796  ALA797  LYS798  CYS799  TRP800  GLU811  SER814 

> <Gold.Protein.RotatedAtoms>
  152.3207  134.7383  160.0314 H   0  0  0  0  0  0  0  0  0  0  0  0  # atno 6907 bound_to 6896
  151.7832  133.3346  159.3486 H   0  0  0  0  0  0  0  0  0  0  0  0  # atno 6908 bound_to 6896
  150.7368  134.5842  159.5999 H   0  0  0  0  0  0  0  0  0  0  0  0  # atno 6909 bound_to 6896
  145.5765  140.9456  143.1367 H   0  0  0  0  0  0  0  0  0  0  0  0  # atno 7974 bound_to 7965
  156.2546  140.2874  156.0835 H   0  0  0  0  0  0  0  0  0  0  0  0  # atno 8008 bound_to 7997
  155.1540  140.0398  157.2845 H   0  0  0  0  0  0  0  0  0  0  0  0  # atno 8009 bound_to 7997
  154.6440  140.2529  155.7296 H   0  0  0  0  0  0  0  0  0  0  0  0  # atno 8010 bound_to 7997
  140.1191  144.4748  150.6931 H   0  0  0  0  0  0  0  0  0  0  0  0  # atno 10167 bound_to 10162
  156.0348  130.4358  150.2493 H   0  0  0  0  0  0  0  0  0  0  0  0  # atno 10718 bound_to 10713
  154.7212  135.3026  154.9044 H   0  0  0  0  0  0  0  0  0  0  0  0  # atno 10763 bound_to 10752
  153.9916  135.6718  153.4758 H   0  0  0  0  0  0  0  0  0  0  0  0  # atno 10764 bound_to 10752
  153.0835  135.4996  154.8468 H   0  0  0  0  0  0  0  0  0  0  0  0  # atno 10765 bound_to 10752
  141.0183  134.0162  157.3319 H   0  0  0  0  0  0  0  0  0  0  0  0  # atno 11005 bound_to 11000
  144.7414  139.7440  143.7309 LP  0  0  0  0  0  0  0  0  0  0  0  0  # atno 17320 bound_to 7965
  146.1747  139.4913  142.9905 LP  0  0  0  0  0  0  0  0  0  0  0  0  # atno 17321 bound_to 7965
  140.6882  143.2361  151.5203 LP  0  0  0  0  0  0  0  0  0  0  0  0  # atno 17342 bound_to 10162
  139.5578  144.2232  152.1641 LP  0  0  0  0  0  0  0  0  0  0  0  0  # atno 17343 bound_to 10162
  157.0593  131.0085  151.3228 LP  0  0  0  0  0  0  0  0  0  0  0  0  # atno 17370 bound_to 10713
  157.5082  130.7922  149.7677 LP  0  0  0  0  0  0  0  0  0  0  0  0  # atno 17371 bound_to 10713
  139.9130  135.0193  156.7770 LP  0  0  0  0  0  0  0  0  0  0  0  0  # atno 17394 bound_to 11000
  140.6617  133.9639  155.7808 LP  0  0  0  0  0  0  0  0  0  0  0  0  # atno 17395 bound_to 11000

$$$$
