AV-unprocessed.smi:1224|AV-procd|sdf|5129|dock7
  -GOLD-   22720 4183D 1   1.00000     0.00000
 Structure written by MMmdl.
 44 46  0  0  0  0  0  0  0  0  2 V2000
  152.6940  141.0468  158.9578 C   0  0  0  0  0  0  0  0  0  0  0  0
  151.7983  140.8943  157.7411 C   0  0  0  0  0  0  0  0  0  0  0  0
  151.8392  139.6891  157.0044 C   0  0  0  0  0  0  0  0  0  0  0  0
  151.0194  139.5060  155.8694 C   0  0  0  0  0  0  0  0  0  0  0  0
  150.8962  138.4248  155.0135 N   0  0  0  0  0  0  0  0  0  0  0  0
  149.9752  138.8619  154.1597 C   0  0  0  0  0  0  0  0  0  0  0  0
  149.4877  140.1015  154.3602 N   0  0  0  0  0  0  0  0  0  0  0  0
  148.4853  140.7918  153.5689 C   0  0  0  0  0  0  0  0  0  0  0  0
  147.1693  139.9973  153.4669 C   0  0  1  0  0  0  0  0  0  0  0  0
  146.1529  140.6829  154.1736 O   0  0  0  0  0  0  0  0  0  0  0  0
  146.7225  139.8070  152.0089 C   0  0  0  0  0  0  0  0  0  0  0  0
  145.7076  138.7375  151.8956 N   0  3  0  0  0  0  0  0  0  0  0  0
  146.0329  137.4879  152.6143 C   0  0  0  0  0  0  0  0  0  0  0  0
  145.3403  136.2952  152.0387 C   0  0  0  0  0  0  0  0  0  0  0  0
  145.8967  135.2673  151.3202 C   0  0  0  0  0  0  0  0  0  0  0  0
  144.9441  134.2879  150.9136 C   0  0  0  0  0  0  0  0  0  0  0  0
  143.6723  134.5811  151.3275 C   0  0  0  0  0  0  0  0  0  0  0  0
  143.6193  136.0722  152.2271 S   0  0  0  0  0  0  0  0  0  0  0  0
  150.1514  140.5705  155.4884 C   0  0  0  0  0  0  0  0  0  0  0  0
  150.1025  141.7748  156.2122 C   0  0  0  0  0  0  0  0  0  0  0  0
  150.9276  141.9408  157.3441 C   0  0  0  0  0  0  0  0  0  0  0  0
  150.8663  143.2441  158.1210 C   0  0  0  0  0  0  0  0  0  0  0  0
  153.3197  140.1661  159.1053 H   0  0  0  0  0  0  0  0  0  0  0  0
  152.0936  141.1856  159.8572 H   0  0  0  0  0  0  0  0  0  0  0  0
  153.3524  141.9080  158.8436 H   0  0  0  0  0  0  0  0  0  0  0  0
  152.5019  138.8917  157.3070 H   0  0  0  0  0  0  0  0  0  0  0  0
  149.6373  138.2462  153.3390 H   0  0  0  0  0  0  0  0  0  0  0  0
  148.3085  141.7758  154.0062 H   0  0  0  0  0  0  0  0  0  0  0  0
  148.9007  140.9632  152.5752 H   0  0  0  0  0  0  0  0  0  0  0  0
  147.3079  139.0194  153.9306 H   0  0  0  0  0  0  0  0  0  0  0  0
  145.3612  140.6701  153.6569 H   0  0  0  0  0  0  0  0  0  0  0  0
  146.3340  140.7439  151.6072 H   0  0  0  0  0  0  0  0  0  0  0  0
  147.5817  139.5291  151.3966 H   0  0  0  0  0  0  0  0  0  0  0  0
  144.8378  139.0938  152.2652 H   0  0  0  0  0  0  0  0  0  0  0  0
  147.1133  137.3385  152.6127 H   0  0  0  0  0  0  0  0  0  0  0  0
  145.7397  137.6096  153.6575 H   0  0  0  0  0  0  0  0  0  0  0  0
  146.9448  135.1846  151.0730 H   0  0  0  0  0  0  0  0  0  0  0  0
  145.2209  133.4152  150.3405 H   0  0  0  0  0  0  0  0  0  0  0  0
  142.7679  134.0146  151.1607 H   0  0  0  0  0  0  0  0  0  0  0  0
  149.4345  142.5635  155.8993 H   0  0  0  0  0  0  0  0  0  0  0  0
  150.1331  143.9282  157.6929 H   0  0  0  0  0  0  0  0  0  0  0  0
  151.8361  143.7419  158.1085 H   0  0  0  0  0  0  0  0  0  0  0  0
  150.5851  143.0586  159.1579 H   0  0  0  0  0  0  0  0  0  0  0  0
  145.5741  138.5236  150.9174 H   0  0  0  0  0  0  0  0  0  0  0  0
  1  2  1  0  0  0  0
  1 23  1  0  0  0  0
  1 24  1  0  0  0  0
  1 25  1  0  0  0  0
  2 21  1  0  0  0  0
  2  3  2  0  0  0  0
  3  4  1  0  0  0  0
  3 26  1  0  0  0  0
  4 19  2  0  0  0  0
  4  5  1  0  0  0  0
  5  6  2  0  0  0  0
  6  7  1  0  0  0  0
  6 27  1  0  0  0  0
  7  8  1  0  0  0  0
  7 19  1  0  0  0  0
  8  9  1  0  0  0  0
  8 28  1  0  0  0  0
  8 29  1  0  0  0  0
  9 10  1  0  0  0  0
  9 11  1  0  0  0  0
  9 30  1  0  0  0  0
 10 31  1  0  0  0  0
 11 12  1  0  0  0  0
 11 32  1  0  0  0  0
 11 33  1  0  0  0  0
 12 13  1  0  0  0  0
 12 34  1  0  0  0  0
 12 44  1  0  0  0  0
 13 14  1  0  0  0  0
 13 35  1  0  0  0  0
 13 36  1  0  0  0  0
 14 18  1  0  0  0  0
 14 15  2  0  0  0  0
 15 16  1  0  0  0  0
 15 37  1  0  0  0  0
 16 17  2  0  0  0  0
 16 38  1  0  0  0  0
 17 18  1  0  0  0  0
 17 39  1  0  0  0  0
 19 20  1  0  0  0  0
 20 21  2  0  0  0  0
 20 40  1  0  0  0  0
 21 22  1  0  0  0  0
 22 41  1  0  0  0  0
 22 42  1  0  0  0  0
 22 43  1  0  0  0  0
M  CHG  1  12   1
M  END
> <s_m_source_file>
AV-unprocessed.smi

> <i_m_source_file_index>
1224

> <i_lp_mmshare_version>
43012

> <i_f3d_flags>
0

> <s_epik_input>
W0NIM11jKFtjSF0xKWMoW0NIM10pW2NIXWMoYzEyKW4oW2NIXW4yKVtDSDJdW0NASF0oW09IXSlbQ0gyXVtOSF1bQ0gyXWMzW2NIXVtjSF1bY0hdczM=

> <s_epik_cmdline>
J2VwaWtfcHl0aG9uJywgJy1waCcsICc3LjAnLCAnLXRuJywgJzgnLCAnLW1hJywgJzIwMCcsICctbWV0YWxfYmluZGluZycsICctaW1hZScsICc8aW5maWxlLm1hZT4nLCAnLW9tYWUnLCAnPG91dGZpbGUubWFlPic=

> <r_epik_Ionization_Penalty>
0.145091

> <r_epik_Ionization_Penalty_Charging>
0.0551904

> <r_epik_Ionization_Penalty_Neutral>
0.0899003

> <r_epik_State_Penalty>
0.131364

> <r_epik_Charging_Adjusted_Penalty>
0.186554

> <i_epik_Tot_Q>
1

> <i_epik_Tot_abs_Q>
1

> <r_epik_Metal_State_Penalty>
0.0472291

> <b_epik_Metal_Only>
0

> <s_lp_Force_Field>
OPLS_2005

> <r_lp_Energy>
7.75101

> <b_lp_Chiralities_Consistent>
1

> <s_lp_Variant>
AV-unprocessed.smi:1224-2

> <Gold.Version>
5.8.1

> <Gold.Id.Protein>
6NUR|6NUR_protein|mol2

> <Gold.PLP.Fitness>
55.6031

> <Gold.PLP.PLP>
-40.4173

> <Gold.PLP.part.hbond>
-3.0000

> <Gold.PLP.part.metal>
0.0000

> <Gold.PLP.part.buried>
4.7113

> <Gold.PLP.part.nonpolar>
-42.1935

> <Gold.PLP.part.repulsive>
0.1600

> <Gold.PLP.ligand.clash>
0.0000

> <Gold.PLP.ligand.torsion>
1.1462

> <Gold.PLP.Chemscore.Hbond>
3.5600

> <Gold.PLP.Chemscore.CHOScore>
2.2399

> <Gold.PLP.Chemscore.Metal>
0.0000

> <Gold.Chemscore.Hbonds>
donor molecule, donor type, donor heavy atom, donor atom, acceptor molecule, acceptor atom, score
      L1  H    10    31       P1 10175  0.94
      L1  H    12    34       P1 10175  1.98
      L1  H    12    44       P1 10171  0.59
      L1  C     6    27       P1  7948  0.95
      L1  C     6    27       P1  7957  0.15
      L1  C    17    39       P1 10186  0.97

> <Gold.PLP.Chemscore.Internal.Correction>
0.0786

> <Gold.Rescore>
     Score         DG    S(hbond)    S(metal)    S(lipo)     H(rot)  DE(clash)    DE(int)     intcor
     17.68     -20.71       2.47        0.00     112.77       2.42       2.03       0.99       ----

> <Gold.Chemscore.Fitness>
17.6830

> <Gold.Chemscore.DG>
-20.7058

> <Gold.Chemscore.ZeroCoef>
-5.4800

> <Gold.Chemscore.Hbond>
2.4662

> <Gold.Chemscore.Metal>
0.0000

> <Gold.Chemscore.Lipo>
112.7696

> <Gold.Chemscore.Internal_Hbond>
0.0000

> <Gold.Chemscore.DEClash>
2.0292

> <Gold.Chemscore.DEInternal>
0.9937

> <Gold.Chemscore.Rot>
2.4240

> <Gold.Chemscore.Internal.Correction>
   9.000000E+99

> <Gold.Chemscore.Hbonds>
donor molecule, donor type, donor heavy atom, donor atom, acceptor molecule, acceptor atom, score
      L1  H    10    31       P1 10175  0.86
      L1  H    12    34       P1 10175  0.93
      L1  H    12    44       P1 10171  0.55

> <Gold.Chemscore.Hbond.Weighted>
-8.2373

> <Gold.Chemscore.Metal.Weighted>
-0.0000

> <Gold.Chemscore.Lipo.Weighted>
-13.1940

> <Gold.Chemscore.Internal_Hbond.Weighted>
0.0000

> <Gold.Chemscore.DEClash.Weighted>
2.0292

> <Gold.Chemscore.DEInternal.Weighted>
0.9937

> <Gold.Chemscore.Rot.Weighted>
6.2055

> <Gold.Chemscore.Internal.Correction.Weighted>
   9.000000E+99

> <Gold.Protein.RotatedTorsions>
[ 6907 6896 6895 6894 ] final -102.00 input  -60.11 | X-H torsion
[ 7974 7965 7964 7962 ] final -153.87 input  175.53 | X-H torsion
[ 8008 7997 7996 7995 ] final -114.79 input   59.86 | X-H torsion
[ 10167 10162 10161 10158 ] final   45.01 input  -65.29 | X-H torsion
[ 10718 10713 10712 10709 ] final   66.31 input   66.30 | X-H torsion
[ 10763 10752 10751 10750 ] final -117.32 input  -60.55 | X-H torsion
[ 11005 11000 10999 10996 ] final  141.31 input  -57.11 | X-H torsion

> <Gold.Protein.ActiveResidues>
 VAL166  LYS551  ARG553  GLY616  TRP617  ASP618  TYR619  PRO620  LYS621  CYS622 
 ASP623  PHE694  ASN695  SER759  ASP760  ASP761  ALA762  ILE779  LEU786  VAL792 
 PHE793  MET794  SER795  GLU796  ALA797  LYS798  CYS799  TRP800  GLU811  SER814 

> <Gold.Protein.RotatedAtoms>
  150.7178  134.0647  159.3843 H   0  0  0  0  0  0  0  0  0  0  0  0  # atno 6907 bound_to 6896
  151.8628  135.0515  160.0480 H   0  0  0  0  0  0  0  0  0  0  0  0  # atno 6908 bound_to 6896
  152.2704  133.5341  159.5472 H   0  0  0  0  0  0  0  0  0  0  0  0  # atno 6909 bound_to 6896
  144.7718  140.4466  143.5902 H   0  0  0  0  0  0  0  0  0  0  0  0  # atno 7974 bound_to 7965
  155.0418  140.0392  157.2512 H   0  0  0  0  0  0  0  0  0  0  0  0  # atno 8008 bound_to 7997
  154.7210  140.2712  155.6518 H   0  0  0  0  0  0  0  0  0  0  0  0  # atno 8009 bound_to 7997
  156.2816  140.2703  156.1881 H   0  0  0  0  0  0  0  0  0  0  0  0  # atno 8010 bound_to 7997
  140.3285  144.2618  150.6171 H   0  0  0  0  0  0  0  0  0  0  0  0  # atno 10167 bound_to 10162
  157.6161  130.9261  150.0092 H   0  0  0  0  0  0  0  0  0  0  0  0  # atno 10718 bound_to 10713
  154.8551  135.4314  154.1961 H   0  0  0  0  0  0  0  0  0  0  0  0  # atno 10763 bound_to 10752
  153.3019  135.6969  153.7201 H   0  0  0  0  0  0  0  0  0  0  0  0  # atno 10764 bound_to 10752
  153.6328  135.3482  155.3021 H   0  0  0  0  0  0  0  0  0  0  0  0  # atno 10765 bound_to 10752
  140.0392  134.9313  157.0811 H   0  0  0  0  0  0  0  0  0  0  0  0  # atno 11005 bound_to 11000
  145.6301  139.1535  143.2973 LP  0  0  0  0  0  0  0  0  0  0  0  0  # atno 17320 bound_to 7965
  146.1870  140.6406  142.9163 LP  0  0  0  0  0  0  0  0  0  0  0  0  # atno 17321 bound_to 7965
  140.5419  143.2222  151.8071 LP  0  0  0  0  0  0  0  0  0  0  0  0  # atno 17342 bound_to 10162
  139.4861  144.4589  151.9565 LP  0  0  0  0  0  0  0  0  0  0  0  0  # atno 17343 bound_to 10162
  156.1284  130.3644  149.9772 LP  0  0  0  0  0  0  0  0  0  0  0  0  # atno 17370 bound_to 10713
  156.7838  130.9231  151.3646 LP  0  0  0  0  0  0  0  0  0  0  0  0  # atno 17371 bound_to 10713
  140.4097  134.1994  155.7163 LP  0  0  0  0  0  0  0  0  0  0  0  0  # atno 17394 bound_to 11000
  141.1874  133.8282  157.1034 LP  0  0  0  0  0  0  0  0  0  0  0  0  # atno 17395 bound_to 11000

$$$$
