AV-unprocessed.smi:2812|AV-procd|sdf|10834|dock9
  -GOLD-   2272015273D 1   1.00000     0.00000
 Structure written by MMmdl.
 55 56  0  0  0  0  0  0  0  0  2 V2000
  144.6945  135.3460  150.4942 C   0  0  0  0  0  0  0  0  0  0  0  0
  144.9191  133.8806  150.8358 C   0  0  0  0  0  0  0  0  0  0  0  0
  144.0660  132.8844  150.2207 C   0  0  0  0  0  0  0  0  0  0  0  0
  144.2236  131.5916  150.5374 C   0  0  0  0  0  0  0  0  0  0  0  0
  145.1983  131.1710  151.4542 N   0  0  0  0  0  0  0  0  0  0  0  0
  145.2922  129.7369  151.7386 C   0  0  0  0  0  0  0  0  0  0  0  0
  146.0418  132.0464  152.0723 C   0  0  0  0  0  0  0  0  0  0  0  0
  146.8886  131.6574  152.8802 O   0  0  0  0  0  0  0  0  0  0  0  0
  145.8755  133.4684  151.7137 C   0  0  0  0  0  0  0  0  0  0  0  0
  146.7443  134.3646  152.3469 N   0  0  0  0  0  0  0  0  0  0  0  0
  146.5096  134.9398  153.5371 C   0  0  0  0  0  0  0  0  0  0  0  0
  145.5177  134.7236  154.2346 O   0  0  0  0  0  0  0  0  0  0  0  0
  147.4922  135.7827  153.8824 N   0  0  0  0  0  0  0  0  0  0  0  0
  147.5404  136.5325  155.1338 C   0  0  0  0  0  0  0  0  0  0  0  0
  148.8355  137.3847  155.2793 C   0  0  1  0  0  0  0  0  0  0  0  0
  150.0199  136.4401  155.6180 C   0  0  0  0  0  0  0  0  0  0  0  0
  151.3707  137.1561  155.6553 C   0  0  0  0  0  0  0  0  0  0  0  0
  151.5972  137.8643  154.3225 C   0  0  0  0  0  0  0  0  0  0  0  0
  150.4552  138.8508  154.0632 C   0  0  0  0  0  0  0  0  0  0  0  0
  149.1203  138.1882  154.0450 N   0  3  2  0  0  0  0  0  0  0  0  0
  148.0640  139.1789  153.6888 C   0  0  0  0  0  0  0  0  0  0  0  0
  148.0415  140.3641  154.6741 C   0  0  0  0  0  0  0  0  0  0  0  0
  146.6125  140.8986  154.8503 C   0  0  0  0  0  0  0  0  0  0  0  0
  148.9872  141.4944  154.2350 C   0  0  0  0  0  0  0  0  0  0  0  0
  143.7125  135.4948  150.0448 H   0  0  0  0  0  0  0  0  0  0  0  0
  145.4438  135.6918  149.7822 H   0  0  0  0  0  0  0  0  0  0  0  0
  144.7462  135.9714  151.3859 H   0  0  0  0  0  0  0  0  0  0  0  0
  143.3073  133.1764  149.5094 H   0  0  0  0  0  0  0  0  0  0  0  0
  143.6178  130.8064  150.1097 H   0  0  0  0  0  0  0  0  0  0  0  0
  146.2817  129.3587  151.4776 H   0  0  0  0  0  0  0  0  0  0  0  0
  144.5622  129.1482  151.1823 H   0  0  0  0  0  0  0  0  0  0  0  0
  145.1232  129.5444  152.7992 H   0  0  0  0  0  0  0  0  0  0  0  0
  147.5290  134.6909  151.8018 H   0  0  0  0  0  0  0  0  0  0  0  0
  148.2648  135.9044  153.2437 H   0  0  0  0  0  0  0  0  0  0  0  0
  146.6666  137.1841  155.1634 H   0  0  0  0  0  0  0  0  0  0  0  0
  147.4028  135.8174  155.9423 H   0  0  0  0  0  0  0  0  0  0  0  0
  148.7149  138.0931  156.1006 H   0  0  0  0  0  0  0  0  0  0  0  0
  149.8589  135.9583  156.5828 H   0  0  0  0  0  0  0  0  0  0  0  0
  150.0680  135.6366  154.8813 H   0  0  0  0  0  0  0  0  0  0  0  0
  151.3906  137.8768  156.4740 H   0  0  0  0  0  0  0  0  0  0  0  0
  152.1720  136.4409  155.8444 H   0  0  0  0  0  0  0  0  0  0  0  0
  152.5505  138.3934  154.3384 H   0  0  0  0  0  0  0  0  0  0  0  0
  151.6565  137.1359  153.5125 H   0  0  0  0  0  0  0  0  0  0  0  0
  150.4667  139.6262  154.8312 H   0  0  0  0  0  0  0  0  0  0  0  0
  150.6249  139.3508  153.1088 H   0  0  0  0  0  0  0  0  0  0  0  0
  148.1621  139.5553  152.6733 H   0  0  0  0  0  0  0  0  0  0  0  0
  147.0897  138.6871  153.6868 H   0  0  0  0  0  0  0  0  0  0  0  0
  148.3745  140.0084  155.6499 H   0  0  0  0  0  0  0  0  0  0  0  0
  146.2091  141.2710  153.9079 H   0  0  0  0  0  0  0  0  0  0  0  0
  146.5842  141.7170  155.5703 H   0  0  0  0  0  0  0  0  0  0  0  0
  145.9421  140.1196  155.2150 H   0  0  0  0  0  0  0  0  0  0  0  0
  148.7147  141.8801  153.2520 H   0  0  0  0  0  0  0  0  0  0  0  0
  150.0216  141.1541  154.1842 H   0  0  0  0  0  0  0  0  0  0  0  0
  148.9554  142.3273  154.9380 H   0  0  0  0  0  0  0  0  0  0  0  0
  149.1442  137.5185  153.2895 H   0  0  0  0  0  0  0  0  0  0  0  0
  1  2  1  0  0  0  0
  1 25  1  0  0  0  0
  1 26  1  0  0  0  0
  1 27  1  0  0  0  0
  2  9  2  0  0  0  0
  2  3  1  0  0  0  0
  3  4  2  0  0  0  0
  3 28  1  0  0  0  0
  4  5  1  0  0  0  0
  4 29  1  0  0  0  0
  5  6  1  0  0  0  0
  5  7  1  0  0  0  0
  6 30  1  0  0  0  0
  6 31  1  0  0  0  0
  6 32  1  0  0  0  0
  7  8  2  0  0  0  0
  7  9  1  0  0  0  0
  9 10  1  0  0  0  0
 10 11  1  0  0  0  0
 10 33  1  0  0  0  0
 11 12  2  0  0  0  0
 11 13  1  0  0  0  0
 13 14  1  0  0  0  0
 13 34  1  0  0  0  0
 14 15  1  0  0  0  0
 14 35  1  0  0  0  0
 14 36  1  0  0  0  0
 15 20  1  0  0  0  0
 15 16  1  0  0  0  0
 15 37  1  0  0  0  0
 16 17  1  0  0  0  0
 16 38  1  0  0  0  0
 16 39  1  0  0  0  0
 17 18  1  0  0  0  0
 17 40  1  0  0  0  0
 17 41  1  0  0  0  0
 18 19  1  0  0  0  0
 18 42  1  0  0  0  0
 18 43  1  0  0  0  0
 19 20  1  0  0  0  0
 19 44  1  0  0  0  0
 19 45  1  0  0  0  0
 20 21  1  0  0  0  0
 20 55  1  0  0  0  0
 21 22  1  0  0  0  0
 21 46  1  0  0  0  0
 21 47  1  0  0  0  0
 22 23  1  0  0  0  0
 22 24  1  0  0  0  0
 22 48  1  0  0  0  0
 23 49  1  0  0  0  0
 23 50  1  0  0  0  0
 23 51  1  0  0  0  0
 24 52  1  0  0  0  0
 24 53  1  0  0  0  0
 24 54  1  0  0  0  0
M  CHG  1  20   1
M  END
> <s_m_source_file>
AV-unprocessed.smi

> <i_m_source_file_index>
2812

> <i_lp_mmshare_version>
43012

> <i_f3d_flags>
0

> <s_epik_input>
W0NIM11jMVtjSF1bY0hdbihbQ0gzXSljKD1PKWMxW05IXUMoPU8pW05IXVtDSDJdW0NAQEhdMltDSDJdW0NIMl1bQ0gyXVtDSDJdTjJbQ0gyXVtDSF0oW0NIM10pW0NIM10=

> <s_epik_cmdline>
J2VwaWtfcHl0aG9uJywgJy1waCcsICc3LjAnLCAnLXRuJywgJzgnLCAnLW1hJywgJzIwMCcsICctbWV0YWxfYmluZGluZycsICctaW1hZScsICc8aW5maWxlLm1hZT4nLCAnLW9tYWUnLCAnPG91dGZpbGUubWFlPic=

> <r_lp_tautomer_probability>
1

> <r_epik_Ionization_Penalty>
0.0010902

> <r_epik_Ionization_Penalty_Charging>
0.00107091

> <r_epik_Ionization_Penalty_Neutral>
1.92854e-05

> <r_epik_State_Penalty>
0.000697184

> <r_epik_Charging_Adjusted_Penalty>
0.0017681

> <i_epik_Tot_Q>
1

> <i_epik_Tot_abs_Q>
1

> <r_epik_Metal_State_Penalty>
-0

> <b_epik_Metal_Only>
0

> <s_lp_Force_Field>
OPLS_2005

> <r_lp_Energy>
40.1667

> <b_lp_Chiralities_Consistent>
1

> <s_lp_Variant>
AV-unprocessed.smi:2812-2

> <Gold.Version>
5.8.1

> <Gold.Id.Protein>
6NUR|6NUR_protein|mol2

> <Gold.PLP.Fitness>
51.4594

> <Gold.PLP.PLP>
-41.0317

> <Gold.PLP.part.hbond>
-3.0000

> <Gold.PLP.part.metal>
0.0000

> <Gold.PLP.part.buried>
-5.7405

> <Gold.PLP.part.nonpolar>
-33.1308

> <Gold.PLP.part.repulsive>
0.2206

> <Gold.PLP.ligand.clash>
0.0000

> <Gold.PLP.ligand.torsion>
1.2640

> <Gold.PLP.Chemscore.Hbond>
3.8406

> <Gold.PLP.Chemscore.CHOScore>
0.1686

> <Gold.PLP.Chemscore.Metal>
0.0000

> <Gold.Chemscore.Hbonds>
donor molecule, donor type, donor heavy atom, donor atom, acceptor molecule, acceptor atom, score
      L1  H    10    33       P1  7948  0.77
      L1  H    13    34       P1  7948  1.00
      L1  H    20    55       P1  7948  2.00
      L1  C     4    29       P1 10952  0.11

> <Gold.PLP.Chemscore.Internal.Correction>
0.9280

> <Gold.Rescore>
     Score         DG    S(hbond)    S(metal)    S(lipo)     H(rot)  DE(clash)    DE(int)     intcor
     19.96     -21.35       2.49        0.00      97.65       1.52       0.05       1.34       ----

> <Gold.Chemscore.Fitness>
19.9623

> <Gold.Chemscore.DG>
-21.3534

> <Gold.Chemscore.ZeroCoef>
-5.4800

> <Gold.Chemscore.Hbond>
2.4937

> <Gold.Chemscore.Metal>
0.0000

> <Gold.Chemscore.Lipo>
97.6473

> <Gold.Chemscore.Internal_Hbond>
0.0000

> <Gold.Chemscore.DEClash>
0.0505

> <Gold.Chemscore.DEInternal>
1.3407

> <Gold.Chemscore.Rot>
1.5157

> <Gold.Chemscore.Internal.Correction>
   9.000000E+99

> <Gold.Chemscore.Hbonds>
donor molecule, donor type, donor heavy atom, donor atom, acceptor molecule, acceptor atom, score
      L1  H    10    33       P1  7948  0.40
      L1  H    13    34       P1  7948  0.96
      L1  H    20    55       P1  7948  0.99

> <Gold.Chemscore.Hbond.Weighted>
-8.3290

> <Gold.Chemscore.Metal.Weighted>
-0.0000

> <Gold.Chemscore.Lipo.Weighted>
-11.4247

> <Gold.Chemscore.Internal_Hbond.Weighted>
0.0000

> <Gold.Chemscore.DEClash.Weighted>
0.0505

> <Gold.Chemscore.DEInternal.Weighted>
1.3407

> <Gold.Chemscore.Rot.Weighted>
3.8803

> <Gold.Chemscore.Internal.Correction.Weighted>
   9.000000E+99

> <Gold.Protein.RotatedTorsions>
[ 6907 6896 6895 6894 ] final  -79.20 input  -60.11 | X-H torsion
[ 7974 7965 7964 7962 ] final  -15.52 input  175.53 | X-H torsion
[ 8008 7997 7996 7995 ] final    0.39 input   59.86 | X-H torsion
[ 10167 10162 10161 10158 ] final -114.73 input  -65.29 | X-H torsion
[ 10718 10713 10712 10709 ] final  -27.95 input   66.30 | X-H torsion
[ 10763 10752 10751 10750 ] final   97.02 input  -60.55 | X-H torsion
[ 11005 11000 10999 10996 ] final  113.62 input  -57.11 | X-H torsion

> <Gold.Protein.ActiveResidues>
 VAL166  LYS551  ARG553  GLY616  TRP617  ASP618  TYR619  PRO620  LYS621  CYS622 
 ASP623  PHE694  ASN695  SER759  ASP760  ASP761  ALA762  ILE779  LEU786  VAL792 
 PHE793  MET794  SER795  GLU796  ALA797  LYS798  CYS799  TRP800  GLU811  SER814 

> <Gold.Protein.RotatedAtoms>
  150.6955  134.4157  159.5181 H   0  0  0  0  0  0  0  0  0  0  0  0  # atno 6907 bound_to 6896
  152.1908  134.8671  160.0527 H   0  0  0  0  0  0  0  0  0  0  0  0  # atno 6908 bound_to 6896
  151.9627  133.3665  159.4078 H   0  0  0  0  0  0  0  0  0  0  0  0  # atno 6909 bound_to 6896
  146.2028  140.3504  142.8417 H   0  0  0  0  0  0  0  0  0  0  0  0  # atno 7974 bound_to 7965
  154.6675  140.2604  155.7042 H   0  0  0  0  0  0  0  0  0  0  0  0  # atno 8008 bound_to 7997
  156.2645  140.2836  156.1093 H   0  0  0  0  0  0  0  0  0  0  0  0  # atno 8009 bound_to 7997
  155.1217  140.0377  157.2742 H   0  0  0  0  0  0  0  0  0  0  0  0  # atno 8010 bound_to 7997
  140.0978  143.4641  152.1831 H   0  0  0  0  0  0  0  0  0  0  0  0  # atno 10167 bound_to 10162
  156.4315  130.4446  149.7114 H   0  0  0  0  0  0  0  0  0  0  0  0  # atno 10718 bound_to 10713
  153.2718  135.4198  155.0995 H   0  0  0  0  0  0  0  0  0  0  0  0  # atno 10763 bound_to 10752
  154.8459  135.3474  154.6233 H   0  0  0  0  0  0  0  0  0  0  0  0  # atno 10764 bound_to 10752
  153.6653  135.7046  153.5222 H   0  0  0  0  0  0  0  0  0  0  0  0  # atno 10765 bound_to 10752
  139.8958  134.9553  156.6767 H   0  0  0  0  0  0  0  0  0  0  0  0  # atno 11005 bound_to 11000
  144.8723  140.7289  143.6039 LP  0  0  0  0  0  0  0  0  0  0  0  0  # atno 17320 bound_to 7965
  145.3424  139.1728  143.4479 LP  0  0  0  0  0  0  0  0  0  0  0  0  # atno 17321 bound_to 7965
  139.5688  144.7451  151.3947 LP  0  0  0  0  0  0  0  0  0  0  0  0  # atno 17342 bound_to 10162
  140.6994  143.7669  150.7379 LP  0  0  0  0  0  0  0  0  0  0  0  0  # atno 17343 bound_to 10162
  156.4015  130.7677  151.2685 LP  0  0  0  0  0  0  0  0  0  0  0  0  # atno 17370 bound_to 10713
  157.7508  131.0238  150.3851 LP  0  0  0  0  0  0  0  0  0  0  0  0  # atno 17371 bound_to 10713
  140.7331  133.9042  155.8225 LP  0  0  0  0  0  0  0  0  0  0  0  0  # atno 17394 bound_to 11000
  141.0137  134.0985  157.4194 LP  0  0  0  0  0  0  0  0  0  0  0  0  # atno 17395 bound_to 11000

$$$$
