AV-unprocessed.smi:694|AV-procd|sdf|3381|dock2
  -GOLD-   22720 0363D 1   1.00000     0.00000
 Structure written by MMmdl.
 42 43  0  0  0  0  0  0  0  0  1 V2000
  151.3364  143.1119  157.3900 C   0  0  0  0  0  0  0  0  0  0  0  0
  151.5858  141.6785  157.2760 N   0  0  0  0  0  0  0  0  0  0  0  0
  152.5243  141.0299  158.1833 C   0  0  0  0  0  0  0  0  0  0  0  0
  150.8686  140.9126  156.3287 C   0  0  0  0  0  0  0  0  0  0  0  0
  151.4085  139.7244  155.7777 C   0  0  0  0  0  0  0  0  0  0  0  0
  150.6540  138.9983  154.8372 C   0  0  0  0  0  0  0  0  0  0  0  0
  149.3831  139.4699  154.4578 C   0  0  0  0  0  0  0  0  0  0  0  0
  148.6435  138.7026  153.5173 N   0  0  0  0  0  0  0  0  0  0  0  0
  147.3473  138.8072  153.1782 C   0  0  0  0  0  0  0  0  0  0  0  0
  146.5603  139.6452  153.6168 O   0  0  0  0  0  0  0  0  0  0  0  0
  147.0093  137.8761  152.2746 N   0  0  0  0  0  0  0  0  0  0  0  0
  145.6783  137.6954  151.7028 C   0  0  0  0  0  0  0  0  0  0  0  0
  145.1163  136.2895  152.0000 C   0  0  1  0  0  0  0  0  0  0  0  0
  143.6390  136.2378  152.4140 C   0  0  0  0  0  0  0  0  0  0  0  0
  143.1739  134.8038  152.1182 C   0  0  0  0  0  0  0  0  0  0  0  0
  144.2800  134.1498  151.2746 C   0  0  0  0  0  0  0  0  0  0  0  0
  145.2086  135.2883  150.8393 C   0  0  1  0  0  0  0  0  0  0  0  0
  144.7171  135.8446  149.6337 O   0  0  0  0  0  0  0  0  0  0  0  0
  148.9193  140.6596  155.0673 C   0  0  0  0  0  0  0  0  0  0  0  0
  149.6397  141.3577  155.9700 N   0  0  0  0  0  0  0  0  0  0  0  0
  150.3025  143.2990  157.6816 H   0  0  0  0  0  0  0  0  0  0  0  0
  151.5244  143.6112  156.4389 H   0  0  0  0  0  0  0  0  0  0  0  0
  151.9830  143.5700  158.1383 H   0  0  0  0  0  0  0  0  0  0  0  0
  153.3430  140.5738  157.6263 H   0  0  0  0  0  0  0  0  0  0  0  0
  152.0228  140.2563  158.7653 H   0  0  0  0  0  0  0  0  0  0  0  0
  152.9569  141.7434  158.8846 H   0  0  0  0  0  0  0  0  0  0  0  0
  152.3844  139.3563  156.0551 H   0  0  0  0  0  0  0  0  0  0  0  0
  151.0531  138.0893  154.4112 H   0  0  0  0  0  0  0  0  0  0  0  0
  149.1770  138.0089  153.0144 H   0  0  0  0  0  0  0  0  0  0  0  0
  147.7246  137.2336  151.9671 H   0  0  0  0  0  0  0  0  0  0  0  0
  144.9985  138.4718  152.0573 H   0  0  0  0  0  0  0  0  0  0  0  0
  145.7600  137.8327  150.6243 H   0  0  0  0  0  0  0  0  0  0  0  0
  145.6958  135.8698  152.8245 H   0  0  0  0  0  0  0  0  0  0  0  0
  143.4939  136.5110  153.4595 H   0  0  0  0  0  0  0  0  0  0  0  0
  143.0591  136.9372  151.8104 H   0  0  0  0  0  0  0  0  0  0  0  0
  143.0148  134.2423  153.0393 H   0  0  0  0  0  0  0  0  0  0  0  0
  142.2268  134.8175  151.5779 H   0  0  0  0  0  0  0  0  0  0  0  0
  144.8390  133.4543  151.9021 H   0  0  0  0  0  0  0  0  0  0  0  0
  143.8855  133.5762  150.4345 H   0  0  0  0  0  0  0  0  0  0  0  0
  146.2300  134.9423  150.6772 H   0  0  0  0  0  0  0  0  0  0  0  0
  145.2038  135.4774  148.9118 H   0  0  0  0  0  0  0  0  0  0  0  0
  147.9447  141.0720  154.8595 H   0  0  0  0  0  0  0  0  0  0  0  0
  1  2  1  0  0  0  0
  1 21  1  0  0  0  0
  1 22  1  0  0  0  0
  1 23  1  0  0  0  0
  2  3  1  0  0  0  0
  2  4  1  0  0  0  0
  3 24  1  0  0  0  0
  3 25  1  0  0  0  0
  3 26  1  0  0  0  0
  4 20  1  0  0  0  0
  4  5  2  0  0  0  0
  5  6  1  0  0  0  0
  5 27  1  0  0  0  0
  6  7  2  0  0  0  0
  6 28  1  0  0  0  0
  7  8  1  0  0  0  0
  7 19  1  0  0  0  0
  8  9  1  0  0  0  0
  8 29  1  0  0  0  0
  9 10  2  0  0  0  0
  9 11  1  0  0  0  0
 11 12  1  0  0  0  0
 11 30  1  0  0  0  0
 12 13  1  0  0  0  0
 12 31  1  0  0  0  0
 12 32  1  0  0  0  0
 13 17  1  0  0  0  0
 13 14  1  0  0  0  0
 13 33  1  0  0  0  0
 14 15  1  0  0  0  0
 14 34  1  0  0  0  0
 14 35  1  0  0  0  0
 15 16  1  0  0  0  0
 15 36  1  0  0  0  0
 15 37  1  0  0  0  0
 16 17  1  0  0  0  0
 16 38  1  0  0  0  0
 16 39  1  0  0  0  0
 17 18  1  0  0  0  0
 17 40  1  0  0  0  0
 18 41  1  0  0  0  0
 19 20  2  0  0  0  0
 19 42  1  0  0  0  0
M  END
> <s_m_source_file>
AV-unprocessed.smi

> <i_m_source_file_index>
694

> <i_lp_mmshare_version>
43012

> <i_f3d_flags>
0

> <s_epik_input>
W0NIM11OKFtDSDNdKWMxW2NIXVtjSF1jKFtjSF1uMSlbTkhdQyg9TylbTkhdW0NIMl1bQ0BASF0yW0NIMl1bQ0gyXVtDSDJdW0NASF0yW09IXQ==

> <s_epik_cmdline>
J2VwaWtfcHl0aG9uJywgJy1waCcsICc3LjAnLCAnLXRuJywgJzgnLCAnLW1hJywgJzIwMCcsICctbWV0YWxfYmluZGluZycsICctaW1hZScsICc8aW5maWxlLm1hZT4nLCAnLW9tYWUnLCAnPG91dGZpbGUubWFlPic=

> <r_lp_tautomer_probability>
1

> <r_epik_Ionization_Penalty>
0.60335

> <r_epik_Ionization_Penalty_Charging>
0

> <r_epik_Ionization_Penalty_Neutral>
0.60335

> <r_epik_State_Penalty>
0.616805

> <r_epik_Charging_Adjusted_Penalty>
0.616805

> <i_epik_Tot_Q>
0

> <i_epik_Tot_abs_Q>
0

> <r_epik_Metal_State_Penalty>
0.301709

> <b_epik_Metal_Only>
0

> <s_lp_Force_Field>
OPLS_2005

> <r_lp_Energy>
27.6446

> <b_lp_Chiralities_Consistent>
1

> <s_lp_Variant>
AV-unprocessed.smi:694-6

> <Gold.Version>
5.8.1

> <Gold.Id.Protein>
6NUR|6NUR_protein|mol2

> <Gold.PLP.Fitness>
43.7548

> <Gold.PLP.PLP>
-37.5215

> <Gold.PLP.part.hbond>
-4.9970

> <Gold.PLP.part.metal>
0.0000

> <Gold.PLP.part.buried>
-4.1309

> <Gold.PLP.part.nonpolar>
-30.1335

> <Gold.PLP.part.repulsive>
0.3998

> <Gold.PLP.ligand.clash>
0.0000

> <Gold.PLP.ligand.torsion>
0.9692

> <Gold.PLP.Chemscore.Hbond>
2.7166

> <Gold.PLP.Chemscore.CHOScore>
0.0000

> <Gold.PLP.Chemscore.Metal>
0.0000

> <Gold.Chemscore.Hbonds>
donor molecule, donor type, donor heavy atom, donor atom, acceptor molecule, acceptor atom, score
      L1  H     8    29       P1  7948  0.72
      L1  H    11    30       P1  7948  1.00
      L1  H    18    41       P1  7921  1.00

> <Gold.PLP.Chemscore.Internal.Correction>
0.0221

> <Gold.Rescore>
     Score         DG    S(hbond)    S(metal)    S(lipo)     H(rot)  DE(clash)    DE(int)     intcor
     16.39     -19.73       2.88        0.00      77.25       1.73       1.36       1.98       ----

> <Gold.Chemscore.Fitness>
16.3930

> <Gold.Chemscore.DG>
-19.7332

> <Gold.Chemscore.ZeroCoef>
-5.4800

> <Gold.Chemscore.Hbond>
2.8841

> <Gold.Chemscore.Metal>
0.0000

> <Gold.Chemscore.Lipo>
77.2527

> <Gold.Chemscore.Internal_Hbond>
0.0000

> <Gold.Chemscore.DEClash>
1.3634

> <Gold.Chemscore.DEInternal>
1.9768

> <Gold.Chemscore.Rot>
1.7259

> <Gold.Chemscore.Internal.Correction>
   9.000000E+99

> <Gold.Chemscore.Hbonds>
donor molecule, donor type, donor heavy atom, donor atom, acceptor molecule, acceptor atom, score
      L1  H     8    29       P1  7948  0.69
      L1  H    11    30       P1  7948  0.97
      L1  H    18    41       P1  7921  1.00

> <Gold.Chemscore.Hbond.Weighted>
-9.6330

> <Gold.Chemscore.Metal.Weighted>
-0.0000

> <Gold.Chemscore.Lipo.Weighted>
-9.0386

> <Gold.Chemscore.Internal_Hbond.Weighted>
0.0000

> <Gold.Chemscore.DEClash.Weighted>
1.3634

> <Gold.Chemscore.DEInternal.Weighted>
1.9768

> <Gold.Chemscore.Rot.Weighted>
4.4184

> <Gold.Chemscore.Internal.Correction.Weighted>
   9.000000E+99

> <Gold.Protein.RotatedTorsions>
[ 6907 6896 6895 6894 ] final   90.02 input  -60.11 | X-H torsion
[ 7974 7965 7964 7962 ] final  -73.06 input  175.53 | X-H torsion
[ 8008 7997 7996 7995 ] final -134.16 input   59.86 | X-H torsion
[ 10167 10162 10161 10158 ] final  -72.63 input  -65.29 | X-H torsion
[ 10718 10713 10712 10709 ] final   63.05 input   66.30 | X-H torsion
[ 10763 10752 10751 10750 ] final -128.03 input  -60.55 | X-H torsion
[ 11005 11000 10999 10996 ] final   52.30 input  -57.11 | X-H torsion

> <Gold.Protein.ActiveResidues>
 VAL166  LYS551  ARG553  GLY616  TRP617  ASP618  TYR619  PRO620  LYS621  CYS622 
 ASP623  PHE694  ASN695  SER759  ASP760  ASP761  ALA762  ILE779  LEU786  VAL792 
 PHE793  MET794  SER795  GLU796  ALA797  LYS798  CYS799  TRP800  GLU811  SER814 

> <Gold.Protein.RotatedAtoms>
  152.5441  134.1876  159.8660 H   0  0  0  0  0  0  0  0  0  0  0  0  # atno 6907 bound_to 6896
  151.1873  133.4681  159.2602 H   0  0  0  0  0  0  0  0  0  0  0  0  # atno 6908 bound_to 6896
  151.1118  135.0043  159.8553 H   0  0  0  0  0  0  0  0  0  0  0  0  # atno 6909 bound_to 6896
  145.6570  140.9265  143.0954 H   0  0  0  0  0  0  0  0  0  0  0  0  # atno 7974 bound_to 7965
  155.3574  140.0481  157.3046 H   0  0  0  0  0  0  0  0  0  0  0  0  # atno 8008 bound_to 7997
  154.5195  140.2220  155.8966 H   0  0  0  0  0  0  0  0  0  0  0  0  # atno 8009 bound_to 7997
  156.1674  140.3103  155.8919 H   0  0  0  0  0  0  0  0  0  0  0  0  # atno 8010 bound_to 7997
  140.5176  143.2336  151.7485 H   0  0  0  0  0  0  0  0  0  0  0  0  # atno 10167 bound_to 10162
  157.5944  130.9084  149.9666 H   0  0  0  0  0  0  0  0  0  0  0  0  # atno 10718 bound_to 10713
  154.8755  135.3942  154.3690 H   0  0  0  0  0  0  0  0  0  0  0  0  # atno 10763 bound_to 10752
  153.4452  135.7027  153.6149 H   0  0  0  0  0  0  0  0  0  0  0  0  # atno 10764 bound_to 10752
  153.4712  135.3790  155.2361 H   0  0  0  0  0  0  0  0  0  0  0  0  # atno 10765 bound_to 10752
  140.0861  134.5273  155.8898 H   0  0  0  0  0  0  0  0  0  0  0  0  # atno 11005 bound_to 11000
  144.7102  139.8400  143.7417 LP  0  0  0  0  0  0  0  0  0  0  0  0  # atno 17320 bound_to 7965
  146.1157  139.4167  143.0260 LP  0  0  0  0  0  0  0  0  0  0  0  0  # atno 17321 bound_to 7965
  139.4914  144.4301  151.9882 LP  0  0  0  0  0  0  0  0  0  0  0  0  # atno 17342 bound_to 10162
  140.3396  144.3219  150.5970 LP  0  0  0  0  0  0  0  0  0  0  0  0  # atno 17343 bound_to 10162
  156.1004  130.3656  150.0229 LP  0  0  0  0  0  0  0  0  0  0  0  0  # atno 17370 bound_to 10713
  156.8345  130.9404  151.3635 LP  0  0  0  0  0  0  0  0  0  0  0  0  # atno 17371 bound_to 10713
  141.2063  133.6654  156.6232 LP  0  0  0  0  0  0  0  0  0  0  0  0  # atno 17394 bound_to 11000
  140.3419  134.7842  157.4404 LP  0  0  0  0  0  0  0  0  0  0  0  0  # atno 17395 bound_to 11000

$$$$
