AV-unprocessed.smi:1152|AV-procd|sdf|4898|dock9
  -GOLD-   22720 3473D 1   1.00000     0.00000
 Structure written by MMmdl.
 31 32  0  0  0  0  0  0  0  0  2 V2000
  147.0488  138.9216  152.7862 C   0  0  0  0  0  0  0  0  0  0  0  0
  148.3725  138.7625  153.3707 N   0  0  0  0  0  0  0  0  0  0  0  0
  148.9425  139.6174  154.2306 C   0  0  0  0  0  0  0  0  0  0  0  0
  148.3256  140.6277  154.5745 O   0  0  0  0  0  0  0  0  0  0  0  0
  150.1838  139.2316  154.6232 N   0  5  0  0  0  0  0  0  0  0  0  0
  150.9074  139.8020  155.6129 C   0  0  0  0  0  0  0  0  0  0  0  0
  151.9208  139.2323  156.2910 N   0  0  0  0  0  0  0  0  0  0  0  0
  152.4791  140.0579  157.2536 N   0  0  0  0  0  0  0  0  0  0  0  0
  151.8838  141.2518  157.2992 C   0  0  0  0  0  0  0  0  0  0  0  0
  152.2909  142.3348  158.2489 C   0  0  0  0  0  0  0  0  0  0  0  0
  152.2230  141.8860  159.7217 C   0  0  0  0  0  0  0  0  0  0  0  0
  152.6868  143.0036  160.6703 C   0  0  0  0  0  0  0  0  0  0  0  0
  151.8954  144.3006  160.4359 C   0  0  0  0  0  0  0  0  0  0  0  0
  151.9933  144.7550  158.9705 C   0  0  0  0  0  0  0  0  0  0  0  0
  151.5244  143.6501  158.0096 C   0  0  0  0  0  0  0  0  0  0  0  0
  150.5756  141.4498  156.1464 S   0  0  0  0  0  0  0  0  0  0  0  0
  146.8335  138.0847  152.1221 H   0  0  0  0  0  0  0  0  0  0  0  0
  146.9896  139.8428  152.2051 H   0  0  0  0  0  0  0  0  0  0  0  0
  146.2829  138.9479  153.5622 H   0  0  0  0  0  0  0  0  0  0  0  0
  148.8993  137.9433  153.1054 H   0  0  0  0  0  0  0  0  0  0  0  0
  153.3405  142.5435  158.0358 H   0  0  0  0  0  0  0  0  0  0  0  0
  151.2012  141.5990  159.9737 H   0  0  0  0  0  0  0  0  0  0  0  0
  152.8395  140.9989  159.8710 H   0  0  0  0  0  0  0  0  0  0  0  0
  152.5748  142.6813  161.7057 H   0  0  0  0  0  0  0  0  0  0  0  0
  153.7504  143.1931  160.5193 H   0  0  0  0  0  0  0  0  0  0  0  0
  150.8491  144.1435  160.7009 H   0  0  0  0  0  0  0  0  0  0  0  0
  152.2669  145.0864  161.0940 H   0  0  0  0  0  0  0  0  0  0  0  0
  151.3971  145.6553  158.8194 H   0  0  0  0  0  0  0  0  0  0  0  0
  153.0247  145.0256  158.7407 H   0  0  0  0  0  0  0  0  0  0  0  0
  151.6593  143.9792  156.9786 H   0  0  0  0  0  0  0  0  0  0  0  0
  150.4546  143.4840  158.1442 H   0  0  0  0  0  0  0  0  0  0  0  0
  1  2  1  0  0  0  0
  1 17  1  0  0  0  0
  1 18  1  0  0  0  0
  1 19  1  0  0  0  0
  2  3  1  0  0  0  0
  2 20  1  0  0  0  0
  3  4  2  0  0  0  0
  3  5  1  0  0  0  0
  5  6  1  0  0  0  0
  6 16  1  0  0  0  0
  6  7  2  0  0  0  0
  7  8  1  0  0  0  0
  8  9  2  0  0  0  0
  9 10  1  0  0  0  0
  9 16  1  0  0  0  0
 10 15  1  0  0  0  0
 10 11  1  0  0  0  0
 10 21  1  0  0  0  0
 11 12  1  0  0  0  0
 11 22  1  0  0  0  0
 11 23  1  0  0  0  0
 12 13  1  0  0  0  0
 12 24  1  0  0  0  0
 12 25  1  0  0  0  0
 13 14  1  0  0  0  0
 13 26  1  0  0  0  0
 13 27  1  0  0  0  0
 14 15  1  0  0  0  0
 14 28  1  0  0  0  0
 14 29  1  0  0  0  0
 15 30  1  0  0  0  0
 15 31  1  0  0  0  0
M  CHG  1   5  -1
M  END
> <s_m_source_file>
AV-unprocessed.smi

> <i_m_source_file_index>
1152

> <i_lp_mmshare_version>
43012

> <i_f3d_flags>
0

> <s_epik_input>
W0NIM11bTkhdQyg9TylbTkhdYzFubmMoczEpW0NIXTJbQ0gyXVtDSDJdW0NIMl1bQ0gyXVtDSDJdMg==

> <s_epik_cmdline>
J2VwaWtfcHl0aG9uJywgJy1waCcsICc3LjAnLCAnLXRuJywgJzgnLCAnLW1hJywgJzIwMCcsICctbWV0YWxfYmluZGluZycsICctaW1hZScsICc8aW5maWxlLm1hZT4nLCAnLW9tYWUnLCAnPG91dGZpbGUubWFlPic=

> <r_lp_tautomer_probability>
1

> <r_epik_Ionization_Penalty>
4.62071

> <r_epik_Ionization_Penalty_Charging>
4.36597

> <r_epik_Ionization_Penalty_Neutral>
0.254736

> <r_epik_State_Penalty>
4.3656

> <r_epik_Charging_Adjusted_Penalty>
8.73157

> <i_epik_Tot_Q>
-1

> <i_epik_Tot_abs_Q>
1

> <r_epik_Metal_State_Penalty>
0.756176

> <b_epik_Metal_Only>
1

> <s_lp_Force_Field>
OPLS_2005

> <r_lp_Energy>
5.71757

> <b_lp_Chiralities_Consistent>
1

> <s_lp_Variant>
AV-unprocessed.smi:1152-2

> <Gold.Version>
5.8.1

> <Gold.Id.Protein>
6NUR|6NUR_protein|mol2

> <Gold.PLP.Fitness>
39.3793

> <Gold.PLP.PLP>
-34.2741

> <Gold.PLP.part.hbond>
-3.0000

> <Gold.PLP.part.metal>
0.0000

> <Gold.PLP.part.buried>
-3.7803

> <Gold.PLP.part.nonpolar>
-27.4083

> <Gold.PLP.part.repulsive>
0.3031

> <Gold.PLP.ligand.clash>
0.0000

> <Gold.PLP.ligand.torsion>
0.1545

> <Gold.PLP.Chemscore.Hbond>
1.7842

> <Gold.PLP.Chemscore.CHOScore>
0.0000

> <Gold.PLP.Chemscore.Metal>
0.0000

> <Gold.Chemscore.Hbonds>
donor molecule, donor type, donor heavy atom, donor atom, acceptor molecule, acceptor atom, score
      L1  H     2    20       P1  7948  0.78
      P1  H  7997  8009       L1     8  1.00

> <Gold.PLP.Chemscore.Internal.Correction>
0.0617

> <Gold.Rescore>
     Score         DG    S(hbond)    S(metal)    S(lipo)     H(rot)  DE(clash)    DE(int)     intcor
     16.67     -18.47       1.52        0.00      89.58       1.00       0.36       1.43       ----

> <Gold.Chemscore.Fitness>
16.6733

> <Gold.Chemscore.DG>
-18.4660

> <Gold.Chemscore.ZeroCoef>
-5.4800

> <Gold.Chemscore.Hbond>
1.5165

> <Gold.Chemscore.Metal>
0.0000

> <Gold.Chemscore.Lipo>
89.5804

> <Gold.Chemscore.Internal_Hbond>
0.0000

> <Gold.Chemscore.DEClash>
0.3606

> <Gold.Chemscore.DEInternal>
1.4321

> <Gold.Chemscore.Rot>
1.0000

> <Gold.Chemscore.Internal.Correction>
   9.000000E+99

> <Gold.Chemscore.Hbonds>
donor molecule, donor type, donor heavy atom, donor atom, acceptor molecule, acceptor atom, score
      L1  H     2    20       P1  7948  0.74
      P1  H  7997  8009       L1     8  0.30

> <Gold.Chemscore.Hbond.Weighted>
-5.0651

> <Gold.Chemscore.Metal.Weighted>
-0.0000

> <Gold.Chemscore.Lipo.Weighted>
-10.4809

> <Gold.Chemscore.Internal_Hbond.Weighted>
0.0000

> <Gold.Chemscore.DEClash.Weighted>
0.3606

> <Gold.Chemscore.DEInternal.Weighted>
1.4321

> <Gold.Chemscore.Rot.Weighted>
2.5600

> <Gold.Chemscore.Internal.Correction.Weighted>
   9.000000E+99

> <Gold.Protein.RotatedTorsions>
[ 6907 6896 6895 6894 ] final -112.26 input  -60.11 | X-H torsion
[ 7974 7965 7964 7962 ] final   84.31 input  175.53 | X-H torsion
[ 8008 7997 7996 7995 ] final  174.82 input   59.86 | X-H torsion
[ 10167 10162 10161 10158 ] final  132.34 input  -65.29 | X-H torsion
[ 10718 10713 10712 10709 ] final  -77.26 input   66.30 | X-H torsion
[ 10763 10752 10751 10750 ] final  -19.10 input  -60.55 | X-H torsion
[ 11005 11000 10999 10996 ] final -100.24 input  -57.11 | X-H torsion

> <Gold.Protein.ActiveResidues>
 VAL166  LYS551  ARG553  GLY616  TRP617  ASP618  TYR619  PRO620  LYS621  CYS622 
 ASP623  PHE694  ASN695  SER759  ASP760  ASP761  ALA762  ILE779  LEU786  VAL792 
 PHE793  MET794  SER795  GLU796  ALA797  LYS798  CYS799  TRP800  GLU811  SER814 

> <Gold.Protein.RotatedAtoms>
  150.7746  133.9115  159.3370 H   0  0  0  0  0  0  0  0  0  0  0  0  # atno 6907 bound_to 6896
  151.6993  135.0931  160.0257 H   0  0  0  0  0  0  0  0  0  0  0  0  # atno 6908 bound_to 6896
  152.3777  133.6465  159.6172 H   0  0  0  0  0  0  0  0  0  0  0  0  # atno 6909 bound_to 6896
  145.6004  139.2351  143.2249 H   0  0  0  0  0  0  0  0  0  0  0  0  # atno 7974 bound_to 7965
  156.0934  140.1424  156.9562 H   0  0  0  0  0  0  0  0  0  0  0  0  # atno 8008 bound_to 7997
  154.4656  140.0927  156.7058 H   0  0  0  0  0  0  0  0  0  0  0  0  # atno 8009 bound_to 7997
  155.4881  140.3447  155.4352 H   0  0  0  0  0  0  0  0  0  0  0  0  # atno 8010 bound_to 7997
  139.5344  144.6666  151.4838 H   0  0  0  0  0  0  0  0  0  0  0  0  # atno 10167 bound_to 10162
  156.0150  130.4486  150.3318 H   0  0  0  0  0  0  0  0  0  0  0  0  # atno 10718 bound_to 10713
  153.5995  135.7000  153.5390 H   0  0  0  0  0  0  0  0  0  0  0  0  # atno 10763 bound_to 10752
  153.3109  135.4101  155.1335 H   0  0  0  0  0  0  0  0  0  0  0  0  # atno 10764 bound_to 10752
  154.8585  135.3672  154.5530 H   0  0  0  0  0  0  0  0  0  0  0  0  # atno 10765 bound_to 10752
  141.1278  133.8384  157.1077 H   0  0  0  0  0  0  0  0  0  0  0  0  # atno 11005 bound_to 11000
  146.1580  140.6829  142.9291 LP  0  0  0  0  0  0  0  0  0  0  0  0  # atno 17320 bound_to 7965
  144.7312  140.4677  143.6936 LP  0  0  0  0  0  0  0  0  0  0  0  0  # atno 17321 bound_to 7965
  140.6541  143.8635  150.6817 LP  0  0  0  0  0  0  0  0  0  0  0  0  # atno 17342 bound_to 10162
  140.2009  143.3960  152.1792 LP  0  0  0  0  0  0  0  0  0  0  0  0  # atno 17343 bound_to 10162
  157.1415  131.0298  151.2925 LP  0  0  0  0  0  0  0  0  0  0  0  0  # atno 17370 bound_to 10713
  157.4467  130.7575  149.7116 LP  0  0  0  0  0  0  0  0  0  0  0  0  # atno 17371 bound_to 10713
  140.0294  134.9908  157.0751 LP  0  0  0  0  0  0  0  0  0  0  0  0  # atno 17394 bound_to 11000
  140.4309  134.1781  155.7168 LP  0  0  0  0  0  0  0  0  0  0  0  0  # atno 17395 bound_to 11000

$$$$
