AV-unprocessed.smi:115|AV-procd|sdf|1126|dock10
  -GOLD-   2262018253D 1   1.00000     0.00000
 Structure written by MMmdl.
 55 57  0  0  0  0  0  0  0  0  1 V2000
  151.9168  145.5098  159.2299 C   0  0  0  0  0  0  0  0  0  0  0  0
  152.5137  144.6864  158.2433 O   0  0  0  0  0  0  0  0  0  0  0  0
  152.1233  143.3271  158.3566 C   0  0  0  0  0  0  0  0  0  0  0  0
  152.9320  142.6653  159.4911 C   0  0  1  0  0  0  0  0  0  0  0  0
  152.4700  143.0681  160.9022 C   0  0  0  0  0  0  0  0  0  0  0  0
  153.0574  141.2049  159.3515 N   0  0  0  0  0  0  0  0  0  0  0  0
  151.9814  140.3542  159.1003 C   0  0  0  0  0  0  0  0  0  0  0  0
  150.5708  140.8277  158.9422 C   0  0  0  0  0  0  0  0  0  0  0  0
  152.4579  139.0798  159.0413 C   0  0  0  0  0  0  0  0  0  0  0  0
  153.8633  139.1117  159.2398 C   0  0  0  0  0  0  0  0  0  0  0  0
  154.7999  137.9596  159.2892 C   0  0  0  0  0  0  0  0  0  0  0  0
  155.9971  138.0481  159.0133 O   0  0  0  0  0  0  0  0  0  0  0  0
  154.1857  136.6175  159.7297 C   0  0  0  0  0  0  0  0  0  0  0  0
  154.6600  136.1754  161.0352 N   0  0  0  0  0  0  0  0  0  0  0  0
  154.6333  137.1065  162.1036 C   0  0  0  0  0  0  0  0  0  0  0  0
  154.2180  138.2577  161.9596 O   0  0  0  0  0  0  0  0  0  0  0  0
  155.1505  136.5929  163.3672 C   0  0  0  0  0  0  0  0  0  0  0  0
  155.1751  137.3907  164.4483 F   0  0  0  0  0  0  0  0  0  0  0  0
  155.6131  135.3283  163.4699 C   0  0  0  0  0  0  0  0  0  0  0  0
  155.6295  134.4406  162.4069 N   0  0  0  0  0  0  0  0  0  0  0  0
  156.1763  133.0381  162.5571 C   0  0  1  0  0  0  0  0  0  0  0  0
  156.8191  132.8655  163.9379 C   0  0  0  0  0  0  0  0  0  0  0  0
  155.6686  132.3091  164.7475 C   0  0  0  0  0  0  0  0  0  0  0  0
  154.9548  131.4461  163.7131 C   0  0  0  0  0  0  0  0  0  0  0  0
  155.1226  132.1222  162.4690 O   0  0  0  0  0  0  0  0  0  0  0  0
  155.1574  134.8543  161.1426 C   0  0  0  0  0  0  0  0  0  0  0  0
  155.1967  134.0929  160.1731 O   0  0  0  0  0  0  0  0  0  0  0  0
  154.2279  140.4307  159.3965 C   0  0  0  0  0  0  0  0  0  0  0  0
  155.5919  141.0340  159.5920 C   0  0  0  0  0  0  0  0  0  0  0  0
  152.2470  146.5397  159.0952 H   0  0  0  0  0  0  0  0  0  0  0  0
  152.2030  145.1935  160.2337 H   0  0  0  0  0  0  0  0  0  0  0  0
  150.8290  145.4925  159.1533 H   0  0  0  0  0  0  0  0  0  0  0  0
  151.0510  143.2782  158.5388 H   0  0  0  0  0  0  0  0  0  0  0  0
  152.3232  142.8187  157.4119 H   0  0  0  0  0  0  0  0  0  0  0  0
  153.9311  143.0819  159.3793 H   0  0  0  0  0  0  0  0  0  0  0  0
  152.4877  144.1516  161.0212 H   0  0  0  0  0  0  0  0  0  0  0  0
  153.1311  142.6472  161.6603 H   0  0  0  0  0  0  0  0  0  0  0  0
  151.4596  142.7333  161.1277 H   0  0  0  0  0  0  0  0  0  0  0  0
  149.9161  140.0047  158.6550 H   0  0  0  0  0  0  0  0  0  0  0  0
  150.4971  141.5922  158.1684 H   0  0  0  0  0  0  0  0  0  0  0  0
  150.1908  141.2420  159.8762 H   0  0  0  0  0  0  0  0  0  0  0  0
  151.8466  138.2047  158.8761 H   0  0  0  0  0  0  0  0  0  0  0  0
  153.0972  136.6806  159.7650 H   0  0  0  0  0  0  0  0  0  0  0  0
  154.4065  135.8284  159.0091 H   0  0  0  0  0  0  0  0  0  0  0  0
  155.9910  135.0119  164.4304 H   0  0  0  0  0  0  0  0  0  0  0  0
  156.8648  132.8899  161.7235 H   0  0  0  0  0  0  0  0  0  0  0  0
  157.6213  132.1310  163.8586 H   0  0  0  0  0  0  0  0  0  0  0  0
  157.2295  133.7975  164.3282 H   0  0  0  0  0  0  0  0  0  0  0  0
  155.9929  131.7461  165.6229 H   0  0  0  0  0  0  0  0  0  0  0  0
  155.0172  133.1168  165.0831 H   0  0  0  0  0  0  0  0  0  0  0  0
  155.4307  130.4673  163.6440 H   0  0  0  0  0  0  0  0  0  0  0  0
  153.9008  131.2959  163.9473 H   0  0  0  0  0  0  0  0  0  0  0  0
  156.3647  140.4452  159.1013 H   0  0  0  0  0  0  0  0  0  0  0  0
  155.8393  141.0967  160.6516 H   0  0  0  0  0  0  0  0  0  0  0  0
  155.6758  142.0269  159.1608 H   0  0  0  0  0  0  0  0  0  0  0  0
  1  2  1  0  0  0  0
  1 30  1  0  0  0  0
  1 31  1  0  0  0  0
  1 32  1  0  0  0  0
  2  3  1  0  0  0  0
  3  4  1  0  0  0  0
  3 33  1  0  0  0  0
  3 34  1  0  0  0  0
  4  5  1  0  0  0  0
  4  6  1  0  0  0  0
  4 35  1  0  0  0  0
  5 36  1  0  0  0  0
  5 37  1  0  0  0  0
  5 38  1  0  0  0  0
  6 28  1  0  0  0  0
  6  7  1  0  0  0  0
  7  8  1  0  0  0  0
  7  9  2  0  0  0  0
  8 39  1  0  0  0  0
  8 40  1  0  0  0  0
  8 41  1  0  0  0  0
  9 10  1  0  0  0  0
  9 42  1  0  0  0  0
 10 11  1  0  0  0  0
 10 28  2  0  0  0  0
 11 12  2  0  0  0  0
 11 13  1  0  0  0  0
 13 14  1  0  0  0  0
 13 43  1  0  0  0  0
 13 44  1  0  0  0  0
 14 26  1  0  0  0  0
 14 15  1  0  0  0  0
 15 16  2  0  0  0  0
 15 17  1  0  0  0  0
 17 18  1  0  0  0  0
 17 19  2  0  0  0  0
 19 20  1  0  0  0  0
 19 45  1  0  0  0  0
 20 21  1  0  0  0  0
 20 26  1  0  0  0  0
 21 25  1  0  0  0  0
 21 22  1  0  0  0  0
 21 46  1  0  0  0  0
 22 23  1  0  0  0  0
 22 47  1  0  0  0  0
 22 48  1  0  0  0  0
 23 24  1  0  0  0  0
 23 49  1  0  0  0  0
 23 50  1  0  0  0  0
 24 25  1  0  0  0  0
 24 51  1  0  0  0  0
 24 52  1  0  0  0  0
 26 27  2  0  0  0  0
 28 29  1  0  0  0  0
 29 53  1  0  0  0  0
 29 54  1  0  0  0  0
 29 55  1  0  0  0  0
M  END
> <s_m_source_file>
AV-unprocessed.smi

> <i_m_source_file_index>
115

> <i_lp_mmshare_version>
43012

> <i_f3d_flags>
0

> <s_epik_input>
W0NIM11PW0NIMl1bQ0BIXShbQ0gzXSluMWMoW0NIM10pW2NIXWMoYzFbQ0gzXSlDKD1PKVtDSDJdbjJjKD1PKWMoRilbY0hdbihjMj1PKVtDQEBIXTNbQ0gyXVtDSDJdW0NIMl1PMw==

> <s_epik_cmdline>
J2VwaWtfcHl0aG9uJywgJy1waCcsICc3LjAnLCAnLXRuJywgJzgnLCAnLW1hJywgJzIwMCcsICctbWV0YWxfYmluZGluZycsICctaW1hZScsICc8aW5maWxlLm1hZT4nLCAnLW9tYWUnLCAnPG91dGZpbGUubWFlPic=

> <r_lp_tautomer_probability>
1

> <r_epik_Ionization_Penalty>
5.02611e-09

> <r_epik_Ionization_Penalty_Charging>
5.01743e-09

> <r_epik_Ionization_Penalty_Neutral>
8.68114e-12

> <r_epik_State_Penalty>
-0

> <r_epik_Charging_Adjusted_Penalty>
5.01743e-09

> <i_epik_Tot_Q>
0

> <i_epik_Tot_abs_Q>
0

> <r_epik_Metal_State_Penalty>
-0

> <b_epik_Metal_Only>
0

> <s_epik_Chemistry_Notes>
This compound contains an acetal/aminal-like group ( X-CH(R)-Y where X, Y are N, S, or O) that may be acid/base labile, releasing an aldehyde.

> <s_lp_Force_Field>
OPLS_2005

> <r_lp_Energy>
46.6669

> <b_lp_Chiralities_Consistent>
1

> <s_lp_Variant>
AV-unprocessed.smi:115-4

> <Gold.Version>
5.8.1

> <Gold.Id.Protein>
6NUR|6NUR_protein|mol2

> <Gold.PLP.Fitness>
46.2326

> <Gold.PLP.PLP>
-48.4981

> <Gold.PLP.part.hbond>
0.0000

> <Gold.PLP.part.metal>
0.0000

> <Gold.PLP.part.buried>
-3.9135

> <Gold.PLP.part.nonpolar>
-44.2998

> <Gold.PLP.part.repulsive>
0.0303

> <Gold.PLP.ligand.clash>
0.0296

> <Gold.PLP.ligand.torsion>
1.2537

> <Gold.PLP.Chemscore.Hbond>
0.0000

> <Gold.PLP.Chemscore.CHOScore>
0.0000

> <Gold.PLP.Chemscore.Metal>
0.0000

> <Gold.PLP.Chemscore.Internal.Correction>
0.2716

> <Gold.Rescore>
     Score         DG    S(hbond)    S(metal)    S(lipo)     H(rot)  DE(clash)    DE(int)     intcor
      9.16     -14.19       0.53        0.00     107.27       2.19       0.45       4.57       ----

> <Gold.Chemscore.Fitness>
9.1635

> <Gold.Chemscore.DG>
-14.1851

> <Gold.Chemscore.ZeroCoef>
-5.4800

> <Gold.Chemscore.Hbond>
0.5302

> <Gold.Chemscore.Metal>
0.0000

> <Gold.Chemscore.Lipo>
107.2665

> <Gold.Chemscore.Internal_Hbond>
0.0000

> <Gold.Chemscore.DEClash>
0.4542

> <Gold.Chemscore.DEInternal>
4.5674

> <Gold.Chemscore.Rot>
2.1938

> <Gold.Chemscore.Internal.Correction>
   9.000000E+99

> <Gold.Chemscore.Hbond.Weighted>
-1.7709

> <Gold.Chemscore.Metal.Weighted>
-0.0000

> <Gold.Chemscore.Lipo.Weighted>
-12.5502

> <Gold.Chemscore.Internal_Hbond.Weighted>
0.0000

> <Gold.Chemscore.DEClash.Weighted>
0.4542

> <Gold.Chemscore.DEInternal.Weighted>
4.5674

> <Gold.Chemscore.Rot.Weighted>
5.6160

> <Gold.Chemscore.Internal.Correction.Weighted>
   9.000000E+99

> <Gold.Protein.RotatedTorsions>
[ 6907 6896 6895 6894 ] final  165.64 input  -60.11 | X-H torsion
[ 7974 7965 7964 7962 ] final  -94.82 input  175.53 | X-H torsion
[ 8008 7997 7996 7995 ] final -154.48 input   59.86 | X-H torsion
[ 10167 10162 10161 10158 ] final -163.30 input  -65.29 | X-H torsion
[ 10718 10713 10712 10709 ] final   80.79 input   66.30 | X-H torsion
[ 10763 10752 10751 10750 ] final  145.45 input  -60.55 | X-H torsion
[ 11005 11000 10999 10996 ] final  159.78 input  -57.11 | X-H torsion

> <Gold.Protein.ActiveResidues>
 VAL166  LYS551  ARG553  GLY616  TRP617  ASP618  TYR619  PRO620  LYS621  CYS622 
 ASP623  PHE694  ASN695  SER759  ASP760  ASP761  ALA762  ILE779  LEU786  VAL792 
 PHE793  MET794  SER795  GLU796  ALA797  LYS798  CYS799  TRP800  GLU811  SER814 

> <Gold.Protein.RotatedAtoms>
  151.8913  133.3517  159.3798 H   0  0  0  0  0  0  0  0  0  0  0  0  # atno 6907 bound_to 6896
  150.7102  134.4921  159.5530 H   0  0  0  0  0  0  0  0  0  0  0  0  # atno 6908 bound_to 6896
  152.2492  134.8151  160.0499 H   0  0  0  0  0  0  0  0  0  0  0  0  # atno 6909 bound_to 6896
  145.3682  140.9501  143.2462 H   0  0  0  0  0  0  0  0  0  0  0  0  # atno 7974 bound_to 7965
  155.6871  140.0751  157.2462 H   0  0  0  0  0  0  0  0  0  0  0  0  # atno 8008 bound_to 7997
  154.4095  140.1671  156.2098 H   0  0  0  0  0  0  0  0  0  0  0  0  # atno 8009 bound_to 7997
  155.9484  140.3379  155.6390 H   0  0  0  0  0  0  0  0  0  0  0  0  # atno 8010 bound_to 7997
  139.6330  144.0403  152.2031 H   0  0  0  0  0  0  0  0  0  0  0  0  # atno 10167 bound_to 10162
  157.6815  130.9975  150.2130 H   0  0  0  0  0  0  0  0  0  0  0  0  # atno 10718 bound_to 10713
  154.0055  135.2919  155.3398 H   0  0  0  0  0  0  0  0  0  0  0  0  # atno 10763 bound_to 10752
  154.7134  135.5140  153.8704 H   0  0  0  0  0  0  0  0  0  0  0  0  # atno 10764 bound_to 10752
  153.0746  135.6659  154.0292 H   0  0  0  0  0  0  0  0  0  0  0  0  # atno 10765 bound_to 10752
  140.1995  134.8348  157.3002 H   0  0  0  0  0  0  0  0  0  0  0  0  # atno 11005 bound_to 11000
  144.8596  139.5197  143.6818 LP  0  0  0  0  0  0  0  0  0  0  0  0  # atno 17320 bound_to 7965
  146.2897  139.7105  142.9170 LP  0  0  0  0  0  0  0  0  0  0  0  0  # atno 17321 bound_to 7965
  140.0073  144.6249  150.7677 LP  0  0  0  0  0  0  0  0  0  0  0  0  # atno 17342 bound_to 10162
  140.7450  143.2869  151.3440 LP  0  0  0  0  0  0  0  0  0  0  0  0  # atno 17343 bound_to 10162
  156.2797  130.3732  149.7947 LP  0  0  0  0  0  0  0  0  0  0  0  0  # atno 17370 bound_to 10713
  156.5639  130.8395  151.3337 LP  0  0  0  0  0  0  0  0  0  0  0  0  # atno 17371 bound_to 10713
  140.2070  134.4185  155.7632 LP  0  0  0  0  0  0  0  0  0  0  0  0  # atno 17394 bound_to 11000
  141.2227  133.7099  156.8276 LP  0  0  0  0  0  0  0  0  0  0  0  0  # atno 17395 bound_to 11000

$$$$
