#       Name:                AV-unprocessed.smi:110
#       Creating user name   scv26
#       Creation time:       Thu Mar 26 18:14:58 2020


#       File generated by GOLD software.
#

@<TRIPOS>MOLECULE
AV-unprocessed.smi:110
    57    61     1
SMALL
NO_CHARGES


@<TRIPOS>ATOM
      1 ****        -4.9583  -0.6241   2.9683 O.3            1 S1                 0.0000
      2 ****        -4.8288  -1.8846   2.3458 C.3            1 S1                 0.0000
      3 ****        -3.3823  -2.0911   1.8632 C.3            1 S1                 0.0000
      4 ****        -3.1616  -1.4527   0.6061 O.3            1 S1                 0.0000
      5 ****        -2.1836  -2.1306  -0.1258 C.3            1 S1                 0.0000
      6 ****        -1.0254  -1.2153  -0.3912 N.pl3          1 S1                 0.0000
      7 ****        -0.2753  -1.1462  -1.5430 C.2            1 S1                 0.0000
      8 ****         0.6850  -0.2633  -1.5341 N.2            1 S1                 0.0000
      9 ****         0.5872   0.3373  -0.2848 C.ar           1 S1                 0.0000
     10 ****         1.3089   1.3654   0.3870 C.ar           1 S1                 0.0000
     11 ****         2.3522   2.0449  -0.1436 N.pl3          1 S1                 0.0000
     12 ****         3.6037   2.1580   0.6192 C.3            1 S1                 0.0000
     13 ****         4.7171   2.5510  -0.3706 C.3            1 S1                 0.0000
     14 ****         3.9283   2.7437  -1.6257 C.ar           1 S1                 0.0000
     15 ****         4.4049   3.1844  -2.8725 C.ar           1 S1                 0.0000
     16 ****         3.4779   3.3213  -3.9280 C.ar           1 S1                 0.0000
     17 ****         2.1095   3.0304  -3.7202 C.ar           1 S1                 0.0000
     18 ****         1.6531   2.5908  -2.4581 C.ar           1 S1                 0.0000
     19 ****         2.5884   2.4341  -1.4142 C.ar           1 S1                 0.0000
     20 ****         0.9556   1.6496   1.6660 N.ar           1 S1                 0.0000
     21 ****        -0.0647   1.0056   2.2385 C.ar           1 S1                 0.0000
     22 ****        -0.8407   0.0508   1.7241 N.ar           1 S1                 0.0000
     23 ****        -0.4748  -0.2655   0.4487 C.ar           1 S1                 0.0000
     24 ****        -1.7969  -3.4019   0.6567 C.3            1 S1                 0.0000
     25 ****        -0.5781  -3.2914   1.3706 O.3            1 S1                 0.0000
     26 ****        -2.9684  -3.5483   1.6151 C.3            1 S1                 0.0000
     27 ****        -4.0172  -4.2836   1.0098 O.3            1 S1                 0.0000
     28 ****        -2.6894  -1.6747   2.5952 H              1 S1                 0.0000
     29 ****        -2.5855  -2.3548  -1.1147 H              1 S1                 0.0000
     30 ****        -1.7096  -4.2444  -0.0307 H              1 S1                 0.0000
     31 ****        -2.6917  -4.0566   2.5400 H              1 S1                 0.0000
     32 ****        -5.8488  -0.5270   3.2690 H              1 S1                 0.0000
     33 ****        -5.0883  -2.6412   3.0871 H              1 S1                 0.0000
     34 ****        -5.5403  -1.9749   1.5244 H              1 S1                 0.0000
     35 ****        -0.4624  -1.7795  -2.3979 H              1 S1                 0.0000
     36 ****         3.4872   2.9251   1.3857 H              1 S1                 0.0000
     37 ****         3.8397   1.2183   1.1205 H              1 S1                 0.0000
     38 ****         5.2278   3.4686  -0.0774 H              1 S1                 0.0000
     39 ****         5.4487   1.7529  -0.5002 H              1 S1                 0.0000
     40 ****         5.4497   3.4161  -3.0178 H              1 S1                 0.0000
     41 ****         3.8140   3.6584  -4.8973 H              1 S1                 0.0000
     42 ****         1.4064   3.1496  -4.5314 H              1 S1                 0.0000
     43 ****         0.6042   2.3857  -2.3026 H              1 S1                 0.0000
     44 ****        -0.2925   1.2967   3.2533 H              1 S1                 0.0000
     45 ****         0.1058  -3.0580   0.7615 H              1 S1                 0.0000
     46 ****        -4.2908  -3.8283   0.2282 H              1 S1                 0.0000
     47 ****        -4.7433   0.0994   2.3123 LP             1 S1                 0.0000
     48 ****        -4.3319  -0.5662   3.7456 LP             1 S1                 0.0000
     49 ****        -2.8609  -0.5121   0.7636 LP             1 S1                 0.0000
     50 ****        -4.0158  -1.4469   0.0862 LP             1 S1                 0.0000
     51 ****         1.3421  -0.0640  -2.2611 LP             1 S1                 0.0000
     52 ****         1.4602   2.3426   2.1808 LP             1 S1                 0.0000
     53 ****        -1.5984  -0.3807   2.2136 LP             1 S1                 0.0000
     54 ****        -0.3602  -4.1661   1.8035 LP             1 S1                 0.0000
     55 ****        -0.6610  -2.5837   2.0722 LP             1 S1                 0.0000
     56 ****        -4.7869  -4.3575   1.6439 LP             1 S1                 0.0000
     57 ****        -3.6931  -5.1990   0.7708 LP             1 S1                 0.0000
@<TRIPOS>BOND
    1    1    2 1     
    2    1   32 1     
    3    2    3 1     
    4    2   33 1     
    5    2   34 1     
    6    3   28 1     
    7    3   26 1     
    8    3    4 1     
    9    4    5 1     
   10    5   29 1     
   11    5    6 1     
   12    5   24 1     
   13    6   23 1     
   14    6    7 1     
   15    7    8 2     
   16    7   35 1     
   17    8    9 1     
   18    9   23 ar    
   19    9   10 ar    
   20   10   11 1     
   21   10   20 ar    
   22   11   19 1     
   23   11   12 1     
   24   12   13 1     
   25   12   36 1     
   26   12   37 1     
   27   13   14 1     
   28   13   38 1     
   29   13   39 1     
   30   14   19 ar    
   31   14   15 ar    
   32   15   16 ar    
   33   15   40 1     
   34   16   17 ar    
   35   16   41 1     
   36   17   18 ar    
   37   17   42 1     
   38   18   19 ar    
   39   18   43 1     
   40   20   21 ar    
   41   21   22 ar    
   42   21   44 1     
   43   22   23 ar    
   44   24   30 1     
   45   24   25 1     
   46   24   26 1     
   47   25   45 1     
   48   26   31 1     
   49   26   27 1     
   50   27   46 1     
   51    1   47 1     
   52    1   48 1     
   53    4   49 1     
   54    4   50 1     
   55    8   51 1     
   56   20   52 1     
   57   22   53 1     
   58   25   54 1     
   59   25   55 1     
   60   27   56 1     
   61   27   57 1     
@<TRIPOS>SUBSTRUCTURE
      1 S1             1
@<TRIPOS>SET
LONE_PAIRS      STATIC     ATOMS    <user>   **** ""
11 47 48 49 50 51 52 53 54 55 56 57
DONOR_HYDROGENS      STATIC     ATOMS    <user>   **** ""
3 32 45 46
ATOM$BLUE        STATIC     ATOMS    COLORGROUP SYSTEM
11 47 48 49 50 51 52 53 54 55 56 57
ATOM$RED        STATIC     ATOMS    COLORGROUP SYSTEM
3 32 45 46
