AV-unprocessed.smi:2300|AV-procd|sdf|9232|dock2
  -GOLD-   2272012453D 1   1.00000     0.00000
 Structure written by MMmdl.
 51 52  0  0  0  0  0  0  0  0  1 V2000
  146.3175  138.7024  152.2364 C   0  0  0  0  0  0  0  0  0  0  0  0
  146.8544  139.4122  153.4747 C   0  0  0  0  0  0  0  0  0  0  0  0
  146.3493  139.1988  154.5764 O   0  0  0  0  0  0  0  0  0  0  0  0
  147.8788  140.2557  153.2794 N   0  0  0  0  0  0  0  0  0  0  0  0
  148.5426  141.0244  154.3269 C   0  0  0  0  0  0  0  0  0  0  0  0
  149.5649  140.1727  155.0981 C   0  0  2  0  0  0  0  0  0  0  0  0
  150.3096  141.0012  156.1620 C   0  0  0  0  0  0  0  0  0  0  0  0
  151.3440  140.1962  156.8088 N   0  0  0  0  0  0  0  0  0  0  0  0
  151.9428  140.7107  157.9790 C   0  0  0  0  0  0  0  0  0  0  0  0
  152.8949  139.9543  158.7028 C   0  0  0  0  0  0  0  0  0  0  0  0
  153.4402  140.5486  159.8605 C   0  0  0  0  0  0  0  0  0  0  0  0
  154.4681  139.8194  160.7140 C   0  0  0  0  0  0  0  0  0  0  0  0
  154.0354  138.3769  161.0197 C   0  0  0  0  0  0  0  0  0  0  0  0
  154.8146  140.6077  161.9868 C   0  0  0  0  0  0  0  0  0  0  0  0
  153.0710  141.7848  160.2618 N   0  0  0  0  0  0  0  0  0  0  0  0
  152.1616  142.4181  159.5160 C   0  0  0  0  0  0  0  0  0  0  0  0
  151.7419  143.8100  159.9697 C   0  0  0  0  0  0  0  0  0  0  0  0
  152.1109  144.8870  158.9378 C   0  0  0  0  0  0  0  0  0  0  0  0
  152.2504  144.1315  161.3836 C   0  0  0  0  0  0  0  0  0  0  0  0
  151.5842  141.9464  158.4071 N   0  0  0  0  0  0  0  0  0  0  0  0
  152.2486  139.5451  155.8647 C   0  0  0  0  0  0  0  0  0  0  0  0
  151.4494  138.7797  154.7967 C   0  0  0  0  0  0  0  0  0  0  0  0
  150.5179  139.6560  154.1720 O   0  0  0  0  0  0  0  0  0  0  0  0
  147.1356  138.3223  151.6235 H   0  0  0  0  0  0  0  0  0  0  0  0
  145.7244  139.3906  151.6338 H   0  0  0  0  0  0  0  0  0  0  0  0
  145.6843  137.8601  152.5174 H   0  0  0  0  0  0  0  0  0  0  0  0
  148.2330  140.3645  152.3404 H   0  0  0  0  0  0  0  0  0  0  0  0
  149.0390  141.8787  153.8661 H   0  0  0  0  0  0  0  0  0  0  0  0
  147.7968  141.4328  155.0110 H   0  0  0  0  0  0  0  0  0  0  0  0
  149.0475  139.3445  155.5865 H   0  0  0  0  0  0  0  0  0  0  0  0
  150.7700  141.8780  155.7043 H   0  0  0  0  0  0  0  0  0  0  0  0
  149.5940  141.3577  156.9040 H   0  0  0  0  0  0  0  0  0  0  0  0
  153.1864  138.9592  158.4025 H   0  0  0  0  0  0  0  0  0  0  0  0
  155.3849  139.7540  160.1264 H   0  0  0  0  0  0  0  0  0  0  0  0
  153.8571  137.8188  160.1000 H   0  0  0  0  0  0  0  0  0  0  0  0
  153.1177  138.3512  161.6083 H   0  0  0  0  0  0  0  0  0  0  0  0
  154.8045  137.8477  161.5829 H   0  0  0  0  0  0  0  0  0  0  0  0
  155.1785  141.6058  161.7415 H   0  0  0  0  0  0  0  0  0  0  0  0
  155.5937  140.1042  162.5598 H   0  0  0  0  0  0  0  0  0  0  0  0
  153.9462  140.7200  162.6368 H   0  0  0  0  0  0  0  0  0  0  0  0
  150.6521  143.8122  160.0325 H   0  0  0  0  0  0  0  0  0  0  0  0
  151.6654  144.6670  157.9672 H   0  0  0  0  0  0  0  0  0  0  0  0
  153.1906  144.9557  158.8017 H   0  0  0  0  0  0  0  0  0  0  0  0
  151.7539  145.8684  159.2507 H   0  0  0  0  0  0  0  0  0  0  0  0
  151.9053  143.3872  162.1016 H   0  0  0  0  0  0  0  0  0  0  0  0
  151.8902  145.1047  161.7180 H   0  0  0  0  0  0  0  0  0  0  0  0
  153.3401  144.1510  161.4208 H   0  0  0  0  0  0  0  0  0  0  0  0
  152.8690  140.3067  155.3909 H   0  0  0  0  0  0  0  0  0  0  0  0
  152.9237  138.8513  156.3633 H   0  0  0  0  0  0  0  0  0  0  0  0
  152.1237  138.3806  154.0391 H   0  0  0  0  0  0  0  0  0  0  0  0
  150.9266  137.9289  155.2366 H   0  0  0  0  0  0  0  0  0  0  0  0
  1  2  1  0  0  0  0
  1 24  1  0  0  0  0
  1 25  1  0  0  0  0
  1 26  1  0  0  0  0
  2  3  2  0  0  0  0
  2  4  1  0  0  0  0
  4  5  1  0  0  0  0
  4 27  1  0  0  0  0
  5  6  1  0  0  0  0
  5 28  1  0  0  0  0
  5 29  1  0  0  0  0
  6 23  1  0  0  0  0
  6  7  1  0  0  0  0
  6 30  1  0  0  0  0
  7  8  1  0  0  0  0
  7 31  1  0  0  0  0
  7 32  1  0  0  0  0
  8  9  1  0  0  0  0
  8 21  1  0  0  0  0
  9 20  1  0  0  0  0
  9 10  2  0  0  0  0
 10 11  1  0  0  0  0
 10 33  1  0  0  0  0
 11 12  1  0  0  0  0
 11 15  2  0  0  0  0
 12 13  1  0  0  0  0
 12 14  1  0  0  0  0
 12 34  1  0  0  0  0
 13 35  1  0  0  0  0
 13 36  1  0  0  0  0
 13 37  1  0  0  0  0
 14 38  1  0  0  0  0
 14 39  1  0  0  0  0
 14 40  1  0  0  0  0
 15 16  1  0  0  0  0
 16 17  1  0  0  0  0
 16 20  2  0  0  0  0
 17 18  1  0  0  0  0
 17 19  1  0  0  0  0
 17 41  1  0  0  0  0
 18 42  1  0  0  0  0
 18 43  1  0  0  0  0
 18 44  1  0  0  0  0
 19 45  1  0  0  0  0
 19 46  1  0  0  0  0
 19 47  1  0  0  0  0
 21 22  1  0  0  0  0
 21 48  1  0  0  0  0
 21 49  1  0  0  0  0
 22 23  1  0  0  0  0
 22 50  1  0  0  0  0
 22 51  1  0  0  0  0
M  END
> <s_m_source_file>
AV-unprocessed.smi

> <i_m_source_file_index>
2300

> <i_lp_mmshare_version>
43012

> <i_f3d_flags>
0

> <s_epik_input>
W0NIM11DKD1PKVtOSF1bQ0gyXVtDQEBIXTFbQ0gyXU4oW0NIMl1bQ0gyXU8xKWMyW2NIXWMoW0NIXShbQ0gzXSlbQ0gzXSluYyhuMilbQ0hdKFtDSDNdKVtDSDNd

> <s_epik_cmdline>
J2VwaWtfcHl0aG9uJywgJy1waCcsICc3LjAnLCAnLXRuJywgJzgnLCAnLW1hJywgJzIwMCcsICctbWV0YWxfYmluZGluZycsICctaW1hZScsICc8aW5maWxlLm1hZT4nLCAnLW9tYWUnLCAnPG91dGZpbGUubWFlPic=

> <r_lp_tautomer_probability>
1

> <r_epik_Ionization_Penalty>
0.0035465

> <r_epik_Ionization_Penalty_Charging>
0

> <r_epik_Ionization_Penalty_Neutral>
0.0035465

> <r_epik_State_Penalty>
0.00247846

> <r_epik_Charging_Adjusted_Penalty>
0.00247846

> <i_epik_Tot_Q>
0

> <i_epik_Tot_abs_Q>
0

> <r_epik_Metal_State_Penalty>
-0

> <b_epik_Metal_Only>
0

> <s_lp_Force_Field>
OPLS_2005

> <r_lp_Energy>
0.953056

> <b_lp_Chiralities_Consistent>
1

> <s_lp_Variant>
AV-unprocessed.smi:2300-1

> <Gold.Version>
5.8.1

> <Gold.Id.Protein>
6NUR|6NUR_protein|mol2

> <Gold.PLP.Fitness>
55.6064

> <Gold.PLP.PLP>
-50.4159

> <Gold.PLP.part.hbond>
-1.7921

> <Gold.PLP.part.metal>
0.0000

> <Gold.PLP.part.buried>
-5.4970

> <Gold.PLP.part.nonpolar>
-44.7912

> <Gold.PLP.part.repulsive>
0.4257

> <Gold.PLP.ligand.clash>
0.0000

> <Gold.PLP.ligand.torsion>
0.6424

> <Gold.PLP.Chemscore.Hbond>
1.9920

> <Gold.PLP.Chemscore.CHOScore>
0.0000

> <Gold.PLP.Chemscore.Metal>
0.0000

> <Gold.Chemscore.Hbonds>
donor molecule, donor type, donor heavy atom, donor atom, acceptor molecule, acceptor atom, score
      L1  H     4    27       P1  7957  0.96
      P1  H  7989  7998       L1    23  1.00

> <Gold.PLP.Chemscore.Internal.Correction>
0.4993

> <Gold.Rescore>
     Score         DG    S(hbond)    S(metal)    S(lipo)     H(rot)  DE(clash)    DE(int)     intcor
     19.28     -20.03       1.58        0.00     119.08       1.82       0.30       0.45       ----

> <Gold.Chemscore.Fitness>
19.2822

> <Gold.Chemscore.DG>
-20.0311

> <Gold.Chemscore.ZeroCoef>
-5.4800

> <Gold.Chemscore.Hbond>
1.5768

> <Gold.Chemscore.Metal>
0.0000

> <Gold.Chemscore.Lipo>
119.0839

> <Gold.Chemscore.Internal_Hbond>
0.0000

> <Gold.Chemscore.DEClash>
0.3039

> <Gold.Chemscore.DEInternal>
0.4450

> <Gold.Chemscore.Rot>
1.8156

> <Gold.Chemscore.Internal.Correction>
   9.000000E+99

> <Gold.Chemscore.Hbonds>
donor molecule, donor type, donor heavy atom, donor atom, acceptor molecule, acceptor atom, score
      L1  H     4    27       P1  7957  0.92
      P1  H  7989  7998       L1    23  0.27

> <Gold.Chemscore.Hbond.Weighted>
-5.2664

> <Gold.Chemscore.Metal.Weighted>
-0.0000

> <Gold.Chemscore.Lipo.Weighted>
-13.9328

> <Gold.Chemscore.Internal_Hbond.Weighted>
0.0000

> <Gold.Chemscore.DEClash.Weighted>
0.3039

> <Gold.Chemscore.DEInternal.Weighted>
0.4450

> <Gold.Chemscore.Rot.Weighted>
4.6481

> <Gold.Chemscore.Internal.Correction.Weighted>
   9.000000E+99

> <Gold.Protein.RotatedTorsions>
[ 6907 6896 6895 6894 ] final  105.12 input  -60.11 | X-H torsion
[ 7974 7965 7964 7962 ] final   -0.68 input  175.53 | X-H torsion
[ 8008 7997 7996 7995 ] final   80.81 input   59.86 | X-H torsion
[ 10167 10162 10161 10158 ] final  121.15 input  -65.29 | X-H torsion
[ 10718 10713 10712 10709 ] final  129.33 input   66.30 | X-H torsion
[ 10763 10752 10751 10750 ] final  -40.84 input  -60.55 | X-H torsion
[ 11005 11000 10999 10996 ] final   24.91 input  -57.11 | X-H torsion

> <Gold.Protein.ActiveResidues>
 VAL166  LYS551  ARG553  GLY616  TRP617  ASP618  TYR619  PRO620  LYS621  CYS622 
 ASP623  PHE694  ASN695  SER759  ASP760  ASP761  ALA762  ILE779  LEU786  VAL792 
 PHE793  MET794  SER795  GLU796  ALA797  LYS798  CYS799  TRP800  GLU811  SER814 

> <Gold.Protein.RotatedAtoms>
  152.5241  133.9575  159.7700 H   0  0  0  0  0  0  0  0  0  0  0  0  # atno 6907 bound_to 6896
  150.9872  133.6177  159.2720 H   0  0  0  0  0  0  0  0  0  0  0  0  # atno 6908 bound_to 6896
  151.3334  135.0853  159.9399 H   0  0  0  0  0  0  0  0  0  0  0  0  # atno 6909 bound_to 6896
  146.2425  140.1306  142.8338 H   0  0  0  0  0  0  0  0  0  0  0  0  # atno 7974 bound_to 7965
  155.8886  140.3440  155.5939 H   0  0  0  0  0  0  0  0  0  0  0  0  # atno 8008 bound_to 7997
  155.7637  140.0836  157.2161 H   0  0  0  0  0  0  0  0  0  0  0  0  # atno 8009 bound_to 7997
  154.4031  140.1531  156.2849 H   0  0  0  0  0  0  0  0  0  0  0  0  # atno 8010 bound_to 7997
  139.5937  144.7034  151.3227 H   0  0  0  0  0  0  0  0  0  0  0  0  # atno 10167 bound_to 10162
  157.5164  131.1097  150.9218 H   0  0  0  0  0  0  0  0  0  0  0  0  # atno 10718 bound_to 10713
  153.9526  135.6749  153.4744 H   0  0  0  0  0  0  0  0  0  0  0  0  # atno 10763 bound_to 10752
  153.0877  135.4890  154.8625 H   0  0  0  0  0  0  0  0  0  0  0  0  # atno 10764 bound_to 10752
  154.7317  135.3139  154.8840 H   0  0  0  0  0  0  0  0  0  0  0  0  # atno 10765 bound_to 10752
  140.3536  134.2202  155.7678 H   0  0  0  0  0  0  0  0  0  0  0  0  # atno 11005 bound_to 11000
  145.0329  140.8885  143.5098 LP  0  0  0  0  0  0  0  0  0  0  0  0  # atno 17320 bound_to 7965
  145.1373  139.2594  143.5508 LP  0  0  0  0  0  0  0  0  0  0  0  0  # atno 17321 bound_to 7965
  140.7195  143.7176  150.7721 LP  0  0  0  0  0  0  0  0  0  0  0  0  # atno 17342 bound_to 10162
  140.0737  143.5036  152.2566 LP  0  0  0  0  0  0  0  0  0  0  0  0  # atno 17343 bound_to 10162
  156.9843  130.5539  149.5298 LP  0  0  0  0  0  0  0  0  0  0  0  0  # atno 17370 bound_to 10713
  156.0323  130.5413  150.8566 LP  0  0  0  0  0  0  0  0  0  0  0  0  # atno 17371 bound_to 10713
  141.2005  133.7986  157.0487 LP  0  0  0  0  0  0  0  0  0  0  0  0  # atno 17394 bound_to 11000
  140.0683  134.9716  157.1424 LP  0  0  0  0  0  0  0  0  0  0  0  0  # atno 17395 bound_to 11000

$$$$
