AV-unprocessed.smi:2636|AV-procd|sdf|10258|dock1
  -GOLD-   2272014263D 1   1.00000     0.00000
 Structure written by MMmdl.
 36 37  0  0  0  0  0  0  0  0  1 V2000
  152.9232  138.5029  159.3091 C   0  0  0  0  0  0  0  0  0  0  0  0
  152.2863  138.9793  158.0145 C   0  0  0  0  0  0  0  0  0  0  0  0
  151.2126  139.8097  157.9948 C   0  0  0  0  0  0  0  0  0  0  0  0
  150.6203  140.2656  156.8281 N   0  0  0  0  0  0  0  0  0  0  0  0
  149.5330  141.2360  156.8243 C   0  0  0  0  0  0  0  0  0  0  0  0
  149.9000  142.4111  157.4868 O   0  0  0  0  0  0  0  0  0  0  0  0
  151.2749  142.7634  157.3909 C   0  0  0  0  0  0  0  0  0  0  0  0
  151.5113  144.1275  158.0091 C   0  0  0  0  0  0  0  0  0  0  0  0
  152.1596  144.4083  159.1570 C   0  0  0  0  0  0  0  0  0  0  0  0
  152.7329  143.4668  160.1344 C   0  0  0  0  0  0  0  0  0  0  0  0
  152.5791  143.6379  161.5292 C   0  0  0  0  0  0  0  0  0  0  0  0
  153.1215  142.7009  162.4300 C   0  0  0  0  0  0  0  0  0  0  0  0
  153.8286  141.5853  161.9445 C   0  0  0  0  0  0  0  0  0  0  0  0
  153.9955  141.4111  160.5578 C   0  0  0  0  0  0  0  0  0  0  0  0
  153.4504  142.3485  159.6588 C   0  0  0  0  0  0  0  0  0  0  0  0
  151.1413  139.8750  155.5773 C   0  0  0  0  0  0  0  0  0  0  0  0
  150.6754  140.2587  154.5045 O   0  0  0  0  0  0  0  0  0  0  0  0
  152.2407  139.0183  155.5982 N   0  0  0  0  0  0  0  0  0  0  0  0
  152.8685  138.5278  156.7467 C   0  0  0  0  0  0  0  0  0  0  0  0
  153.8367  137.7774  156.6354 O   0  0  0  0  0  0  0  0  0  0  0  0
  152.6202  138.7333  154.7072 H   0  0  0  0  0  0  0  0  0  0  0  0
  152.4141  138.9089  160.1838 H   0  0  0  0  0  0  0  0  0  0  0  0
  153.9672  138.8148  159.3561 H   0  0  0  0  0  0  0  0  0  0  0  0
  152.8862  137.4150  159.3750 H   0  0  0  0  0  0  0  0  0  0  0  0
  150.8004  140.1428  158.9367 H   0  0  0  0  0  0  0  0  0  0  0  0
  149.2692  141.4693  155.7910 H   0  0  0  0  0  0  0  0  0  0  0  0
  148.6507  140.7999  157.2959 H   0  0  0  0  0  0  0  0  0  0  0  0
  151.8855  142.0260  157.9130 H   0  0  0  0  0  0  0  0  0  0  0  0
  151.5812  142.7685  156.3488 H   0  0  0  0  0  0  0  0  0  0  0  0
  151.1211  144.9559  157.4360 H   0  0  0  0  0  0  0  0  0  0  0  0
  152.2567  145.4510  159.4224 H   0  0  0  0  0  0  0  0  0  0  0  0
  152.0527  144.4959  161.9202 H   0  0  0  0  0  0  0  0  0  0  0  0
  152.9971  142.8401  163.4937 H   0  0  0  0  0  0  0  0  0  0  0  0
  154.2454  140.8666  162.6345 H   0  0  0  0  0  0  0  0  0  0  0  0
  154.5397  140.5568  160.1829 H   0  0  0  0  0  0  0  0  0  0  0  0
  153.5786  142.2009  158.5962 H   0  0  0  0  0  0  0  0  0  0  0  0
  1  2  1  0  0  0  0
  1 22  1  0  0  0  0
  1 23  1  0  0  0  0
  1 24  1  0  0  0  0
  2 19  1  0  0  0  0
  2  3  2  0  0  0  0
  3  4  1  0  0  0  0
  3 25  1  0  0  0  0
  4  5  1  0  0  0  0
  4 16  1  0  0  0  0
  5  6  1  0  0  0  0
  5 26  1  0  0  0  0
  5 27  1  0  0  0  0
  6  7  1  0  0  0  0
  7  8  1  0  0  0  0
  7 28  1  0  0  0  0
  7 29  1  0  0  0  0
  8  9  2  0  0  0  0
  8 30  1  0  0  0  0
  9 10  1  0  0  0  0
  9 31  1  0  0  0  0
 10 15  1  0  0  0  0
 10 11  2  0  0  0  0
 11 12  1  0  0  0  0
 11 32  1  0  0  0  0
 12 13  2  0  0  0  0
 12 33  1  0  0  0  0
 13 14  1  0  0  0  0
 13 34  1  0  0  0  0
 14 15  2  0  0  0  0
 14 35  1  0  0  0  0
 15 36  1  0  0  0  0
 16 17  2  0  0  0  0
 16 18  1  0  0  0  0
 18 21  1  0  0  0  0
 18 19  1  0  0  0  0
 19 20  2  0  0  0  0
M  END
> <s_m_source_file>
AV-unprocessed.smi

> <i_m_source_file_index>
2636

> <i_lp_mmshare_version>
43012

> <i_f3d_flags>
0

> <s_epik_input>
Tz1jMVtuSF1jKD1PKW4oW2NIXWMxW0NIM10pW0NIMl1PW0NIMl0vW0NIXT1bQ0hdL2MyW2NIXVtjSF1bY0hdW2NIXVtjSF0y

> <s_epik_cmdline>
J2VwaWtfcHl0aG9uJywgJy1waCcsICc3LjAnLCAnLXRuJywgJzgnLCAnLW1hJywgJzIwMCcsICctbWV0YWxfYmluZGluZycsICctaW1hZScsICc8aW5maWxlLm1hZT4nLCAnLW9tYWUnLCAnPG91dGZpbGUubWFlPic=

> <r_lp_tautomer_probability>
0.999537

> <r_epik_Ionization_Penalty>
0.00179702

> <r_epik_Ionization_Penalty_Charging>
0.00179702

> <r_epik_Ionization_Penalty_Neutral>
9.83266e-13

> <r_epik_State_Penalty>
0.00121868

> <r_epik_Charging_Adjusted_Penalty>
0.0030157

> <i_epik_Tot_Q>
0

> <i_epik_Tot_abs_Q>
0

> <r_epik_Metal_State_Penalty>
0.826903

> <b_epik_Metal_Only>
0

> <s_epik_Chemistry_Notes>
This compound contains an acetal/aminal-like group ( X-CH(R)-Y where X, Y are N, S, or O) that may be acid/base labile, releasing an aldehyde.

> <s_lp_Force_Field>
OPLS_2005

> <r_lp_Energy>
2.54145

> <b_lp_Chiralities_Consistent>
1

> <s_lp_Variant>
AV-unprocessed.smi:2636-2

> <Gold.Version>
5.8.1

> <Gold.Id.Protein>
6NUR|6NUR_protein|mol2

> <Gold.PLP.Fitness>
49.9903

> <Gold.PLP.PLP>
-48.0213

> <Gold.PLP.part.hbond>
-1.6787

> <Gold.PLP.part.metal>
0.0000

> <Gold.PLP.part.buried>
-5.9637

> <Gold.PLP.part.nonpolar>
-40.8686

> <Gold.PLP.part.repulsive>
1.0122

> <Gold.PLP.ligand.clash>
0.0000

> <Gold.PLP.ligand.torsion>
0.5857

> <Gold.PLP.Chemscore.Hbond>
1.0000

> <Gold.PLP.Chemscore.CHOScore>
0.0000

> <Gold.PLP.Chemscore.Metal>
0.0000

> <Gold.Chemscore.Hbonds>
donor molecule, donor type, donor heavy atom, donor atom, acceptor molecule, acceptor atom, score
      P1  H  7989  7998       L1    17  0.96

> <Gold.PLP.Chemscore.Internal.Correction>
0.1404

> <Gold.Rescore>
     Score         DG    S(hbond)    S(metal)    S(lipo)     H(rot)  DE(clash)    DE(int)     intcor
     17.35     -18.01       1.00        0.00     120.58       1.92       0.03       0.62       ----

> <Gold.Chemscore.Fitness>
17.3515

> <Gold.Chemscore.DG>
-18.0082

> <Gold.Chemscore.ZeroCoef>
-5.4800

> <Gold.Chemscore.Hbond>
0.9999

> <Gold.Chemscore.Metal>
0.0000

> <Gold.Chemscore.Lipo>
120.5808

> <Gold.Chemscore.Internal_Hbond>
0.0000

> <Gold.Chemscore.DEClash>
0.0325

> <Gold.Chemscore.DEInternal>
0.6242

> <Gold.Chemscore.Rot>
1.9216

> <Gold.Chemscore.Internal.Correction>
   9.000000E+99

> <Gold.Chemscore.Hbonds>
donor molecule, donor type, donor heavy atom, donor atom, acceptor molecule, acceptor atom, score
      P1  H  7989  7998       L1    17  0.87

> <Gold.Chemscore.Hbond.Weighted>
-3.3395

> <Gold.Chemscore.Metal.Weighted>
-0.0000

> <Gold.Chemscore.Lipo.Weighted>
-14.1080

> <Gold.Chemscore.Internal_Hbond.Weighted>
0.0000

> <Gold.Chemscore.DEClash.Weighted>
0.0325

> <Gold.Chemscore.DEInternal.Weighted>
0.6242

> <Gold.Chemscore.Rot.Weighted>
4.9193

> <Gold.Chemscore.Internal.Correction.Weighted>
   9.000000E+99

> <Gold.Protein.RotatedTorsions>
[ 6907 6896 6895 6894 ] final   81.15 input  -60.11 | X-H torsion
[ 7974 7965 7964 7962 ] final   -7.09 input  175.53 | X-H torsion
[ 8008 7997 7996 7995 ] final   31.57 input   59.86 | X-H torsion
[ 10167 10162 10161 10158 ] final   69.35 input  -65.29 | X-H torsion
[ 10718 10713 10712 10709 ] final  102.99 input   66.30 | X-H torsion
[ 10763 10752 10751 10750 ] final -107.67 input  -60.55 | X-H torsion
[ 11005 11000 10999 10996 ] final   95.72 input  -57.11 | X-H torsion

> <Gold.Protein.ActiveResidues>
 VAL166  LYS551  ARG553  GLY616  TRP617  ASP618  TYR619  PRO620  LYS621  CYS622 
 ASP623  PHE694  ASN695  SER759  ASP760  ASP761  ALA762  ILE779  LEU786  VAL792 
 PHE793  MET794  SER795  GLU796  ALA797  LYS798  CYS799  TRP800  GLU811  SER814 

> <Gold.Protein.RotatedAtoms>
  152.5259  134.3247  159.9161 H   0  0  0  0  0  0  0  0  0  0  0  0  # atno 6907 bound_to 6896
  151.3197  133.4039  159.2661 H   0  0  0  0  0  0  0  0  0  0  0  0  # atno 6908 bound_to 6896
  150.9970  134.9308  159.7989 H   0  0  0  0  0  0  0  0  0  0  0  0  # atno 6909 bound_to 6896
  146.2315  140.2268  142.8339 H   0  0  0  0  0  0  0  0  0  0  0  0  # atno 7974 bound_to 7965
  155.1085  140.3236  155.4528 H   0  0  0  0  0  0  0  0  0  0  0  0  # atno 8008 bound_to 7997
  156.2697  140.2048  156.6157 H   0  0  0  0  0  0  0  0  0  0  0  0  # atno 8009 bound_to 7997
  154.6774  140.0530  157.0217 H   0  0  0  0  0  0  0  0  0  0  0  0  # atno 8010 bound_to 7997
  140.0687  144.5171  150.7242 H   0  0  0  0  0  0  0  0  0  0  0  0  # atno 10167 bound_to 10162
  157.6786  131.0767  150.5487 H   0  0  0  0  0  0  0  0  0  0  0  0  # atno 10718 bound_to 10713
  154.8089  135.4666  154.0465 H   0  0  0  0  0  0  0  0  0  0  0  0  # atno 10763 bound_to 10752
  153.1911  135.6855  153.8358 H   0  0  0  0  0  0  0  0  0  0  0  0  # atno 10764 bound_to 10752
  153.7875  135.3248  155.3351 H   0  0  0  0  0  0  0  0  0  0  0  0  # atno 10765 bound_to 10752
  139.8787  134.8913  156.4053 H   0  0  0  0  0  0  0  0  0  0  0  0  # atno 11005 bound_to 11000
  144.9589  140.8255  143.5526 LP  0  0  0  0  0  0  0  0  0  0  0  0  # atno 17320 bound_to 7965
  145.2236  139.2147  143.5080 LP  0  0  0  0  0  0  0  0  0  0  0  0  # atno 17321 bound_to 7965
  140.7136  143.2525  151.4504 LP  0  0  0  0  0  0  0  0  0  0  0  0  # atno 17342 bound_to 10162
  139.5849  144.1627  152.2016 LP  0  0  0  0  0  0  0  0  0  0  0  0  # atno 17343 bound_to 10162
  156.5792  130.4300  149.5985 LP  0  0  0  0  0  0  0  0  0  0  0  0  # atno 17370 bound_to 10713
  156.2676  130.6998  151.1786 LP  0  0  0  0  0  0  0  0  0  0  0  0  # atno 17371 bound_to 10713
  140.9239  133.7626  155.9940 LP  0  0  0  0  0  0  0  0  0  0  0  0  # atno 17394 bound_to 11000
  140.8409  134.3068  157.5314 LP  0  0  0  0  0  0  0  0  0  0  0  0  # atno 17395 bound_to 11000

$$$$
