AV-unprocessed.smi:1641|AV-procd|sdf|6556|dock1
  -GOLD-   22720 7243D 1   1.00000     0.00000
 Structure written by MMmdl.
 41 42  0  0  0  0  0  0  0  0  1 V2000
  142.9469  144.3102  161.6384 C   0  0  0  0  0  0  0  0  0  0  0  0
  144.0796  143.7592  160.8414 C   0  0  0  0  0  0  0  0  0  0  0  0
  144.5087  142.4978  160.9696 N   0  0  0  0  0  0  0  0  0  0  0  0
  145.5720  142.2150  160.1234 N   0  0  0  0  0  0  0  0  0  0  0  0
  145.9142  143.2756  159.3793 C   0  0  0  0  0  0  0  0  0  0  0  0
  146.9697  143.2665  158.4291 N   0  0  0  0  0  0  0  0  0  0  0  0
  147.7306  142.2288  158.0389 C   0  0  0  0  0  0  0  0  0  0  0  0
  147.6362  141.0763  158.4624 O   0  0  0  0  0  0  0  0  0  0  0  0
  148.6290  142.6050  157.1174 N   0  0  0  0  0  0  0  0  0  0  0  0
  149.6112  141.7226  156.4995 C   0  0  0  0  0  0  0  0  0  0  0  0
  150.4667  141.0080  157.5624 C   0  0  0  0  0  0  0  0  0  0  0  0
  151.6173  141.7703  158.0435 N   0  0  0  0  0  0  0  0  0  0  0  0
  152.3892  141.0444  159.0494 C   0  0  0  0  0  0  0  0  0  0  0  0
  153.5835  141.8691  159.5676 C   0  0  2  0  0  0  0  0  0  0  0  0
  154.3422  141.1482  160.6866 C   0  0  0  0  0  0  0  0  0  0  0  0
  153.1091  143.1122  160.0782 O   0  0  0  0  0  0  0  0  0  0  0  0
  152.3877  143.8780  159.1172 C   0  0  2  0  0  0  0  0  0  0  0  0
  151.9406  145.1849  159.7805 C   0  0  0  0  0  0  0  0  0  0  0  0
  151.1952  143.0475  158.6069 C   0  0  0  0  0  0  0  0  0  0  0  0
  144.9517  144.7181  159.6514 S   0  0  0  0  0  0  0  0  0  0  0  0
  142.0151  144.2049  161.0826 H   0  0  0  0  0  0  0  0  0  0  0  0
  143.1134  145.3670  161.8474 H   0  0  0  0  0  0  0  0  0  0  0  0
  142.8530  143.7792  162.5864 H   0  0  0  0  0  0  0  0  0  0  0  0
  147.1715  144.1568  157.9989 H   0  0  0  0  0  0  0  0  0  0  0  0
  148.6382  143.5710  156.8243 H   0  0  0  0  0  0  0  0  0  0  0  0
  149.0985  141.0102  155.8522 H   0  0  0  0  0  0  0  0  0  0  0  0
  150.2501  142.3269  155.8549 H   0  0  0  0  0  0  0  0  0  0  0  0
  149.8173  140.7835  158.4100 H   0  0  0  0  0  0  0  0  0  0  0  0
  150.8017  140.0428  157.1793 H   0  0  0  0  0  0  0  0  0  0  0  0
  151.7425  140.7751  159.8863 H   0  0  0  0  0  0  0  0  0  0  0  0
  152.7665  140.1106  158.6339 H   0  0  0  0  0  0  0  0  0  0  0  0
  154.2747  142.0651  158.7458 H   0  0  0  0  0  0  0  0  0  0  0  0
  154.7328  140.1905  160.3420 H   0  0  0  0  0  0  0  0  0  0  0  0
  153.6944  140.9577  161.5429 H   0  0  0  0  0  0  0  0  0  0  0  0
  155.1856  141.7459  161.0334 H   0  0  0  0  0  0  0  0  0  0  0  0
  153.0506  144.1168  158.2838 H   0  0  0  0  0  0  0  0  0  0  0  0
  151.3871  145.8107  159.0802 H   0  0  0  0  0  0  0  0  0  0  0  0
  152.7996  145.7576  160.1309 H   0  0  0  0  0  0  0  0  0  0  0  0
  151.2966  144.9912  160.6387 H   0  0  0  0  0  0  0  0  0  0  0  0
  150.6543  143.6210  157.8532 H   0  0  0  0  0  0  0  0  0  0  0  0
  150.4960  142.8747  159.4269 H   0  0  0  0  0  0  0  0  0  0  0  0
  1  2  1  0  0  0  0
  1 21  1  0  0  0  0
  1 22  1  0  0  0  0
  1 23  1  0  0  0  0
  2 20  1  0  0  0  0
  2  3  2  0  0  0  0
  3  4  1  0  0  0  0
  4  5  2  0  0  0  0
  5  6  1  0  0  0  0
  5 20  1  0  0  0  0
  6  7  1  0  0  0  0
  6 24  1  0  0  0  0
  7  8  2  0  0  0  0
  7  9  1  0  0  0  0
  9 10  1  0  0  0  0
  9 25  1  0  0  0  0
 10 11  1  0  0  0  0
 10 26  1  0  0  0  0
 10 27  1  0  0  0  0
 11 12  1  0  0  0  0
 11 28  1  0  0  0  0
 11 29  1  0  0  0  0
 12 19  1  0  0  0  0
 12 13  1  0  0  0  0
 13 14  1  0  0  0  0
 13 30  1  0  0  0  0
 13 31  1  0  0  0  0
 14 15  1  0  0  0  0
 14 16  1  0  0  0  0
 14 32  1  0  0  0  0
 15 33  1  0  0  0  0
 15 34  1  0  0  0  0
 15 35  1  0  0  0  0
 16 17  1  0  0  0  0
 17 18  1  0  0  0  0
 17 19  1  0  0  0  0
 17 36  1  0  0  0  0
 18 37  1  0  0  0  0
 18 38  1  0  0  0  0
 18 39  1  0  0  0  0
 19 40  1  0  0  0  0
 19 41  1  0  0  0  0
M  END
> <s_m_source_file>
AV-unprocessed.smi

> <i_m_source_file_index>
1641

> <i_lp_mmshare_version>
43012

> <i_f3d_flags>
0

> <s_epik_input>
W0NIM11jMW5uYyhzMSlbTkhdQyg9TylbTkhdW0NIMl1bQ0gyXU4yW0NIMl1bQ0BASF0oW0NIM10pT1tDQEBIXShbQ0gzXSlbQ0gyXTI=

> <s_epik_cmdline>
J2VwaWtfcHl0aG9uJywgJy1waCcsICc3LjAnLCAnLXRuJywgJzgnLCAnLW1hJywgJzIwMCcsICctbWV0YWxfYmluZGluZycsICctaW1hZScsICc8aW5maWxlLm1hZT4nLCAnLW9tYWUnLCAnPG91dGZpbGUubWFlPic=

> <r_lp_tautomer_probability>
1

> <r_epik_Ionization_Penalty>
0.221104

> <r_epik_Ionization_Penalty_Charging>
0

> <r_epik_Ionization_Penalty_Neutral>
0.221104

> <r_epik_State_Penalty>
0.209349

> <r_epik_Charging_Adjusted_Penalty>
0.209349

> <i_epik_Tot_Q>
0

> <i_epik_Tot_abs_Q>
0

> <r_epik_Metal_State_Penalty>
0.560954

> <b_epik_Metal_Only>
0

> <s_lp_Force_Field>
OPLS_2005

> <r_lp_Energy>
18.567

> <b_lp_Chiralities_Consistent>
1

> <s_lp_Variant>
AV-unprocessed.smi:1641-1

> <Gold.Version>
5.8.1

> <Gold.Id.Protein>
6NUR|6NUR_protein|mol2

> <Gold.PLP.Fitness>
41.8289

> <Gold.PLP.PLP>
-33.1294

> <Gold.PLP.part.hbond>
-3.9776

> <Gold.PLP.part.metal>
0.0000

> <Gold.PLP.part.buried>
-4.9271

> <Gold.PLP.part.nonpolar>
-24.2916

> <Gold.PLP.part.repulsive>
0.1220

> <Gold.PLP.ligand.clash>
0.0004

> <Gold.PLP.ligand.torsion>
0.1567

> <Gold.PLP.Chemscore.Hbond>
2.9913

> <Gold.PLP.Chemscore.CHOScore>
0.0000

> <Gold.PLP.Chemscore.Metal>
0.0000

> <Gold.Chemscore.Hbonds>
donor molecule, donor type, donor heavy atom, donor atom, acceptor molecule, acceptor atom, score
      L1  H     6    24       P1  8029  0.98
      L1  H     9    25       P1  8028  1.00
      P1  H  6934  6946       L1     4  1.00

> <Gold.PLP.Chemscore.Internal.Correction>
0.0395

> <Gold.Rescore>
     Score         DG    S(hbond)    S(metal)    S(lipo)     H(rot)  DE(clash)    DE(int)     intcor
     13.99     -17.66       1.70        0.00      90.39       1.60       0.03       3.63       ----

> <Gold.Chemscore.Fitness>
13.9927

> <Gold.Chemscore.DG>
-17.6552

> <Gold.Chemscore.ZeroCoef>
-5.4800

> <Gold.Chemscore.Hbond>
1.7035

> <Gold.Chemscore.Metal>
0.0000

> <Gold.Chemscore.Lipo>
90.3868

> <Gold.Chemscore.Internal_Hbond>
0.0000

> <Gold.Chemscore.DEClash>
0.0296

> <Gold.Chemscore.DEInternal>
3.6329

> <Gold.Chemscore.Rot>
1.5975

> <Gold.Chemscore.Internal.Correction>
   9.000000E+99

> <Gold.Chemscore.Hbonds>
donor molecule, donor type, donor heavy atom, donor atom, acceptor molecule, acceptor atom, score
      L1  H     6    24       P1  8029  0.24
      L1  H     9    25       P1  8028  0.29
      P1  H  6934  6946       L1     4  0.92

> <Gold.Chemscore.Hbond.Weighted>
-5.6895

> <Gold.Chemscore.Metal.Weighted>
-0.0000

> <Gold.Chemscore.Lipo.Weighted>
-10.5753

> <Gold.Chemscore.Internal_Hbond.Weighted>
0.0000

> <Gold.Chemscore.DEClash.Weighted>
0.0296

> <Gold.Chemscore.DEInternal.Weighted>
3.6329

> <Gold.Chemscore.Rot.Weighted>
4.0896

> <Gold.Chemscore.Internal.Correction.Weighted>
   9.000000E+99

> <Gold.Protein.RotatedTorsions>
[ 6907 6896 6895 6894 ] final  -47.76 input  -60.11 | X-H torsion
[ 7974 7965 7964 7962 ] final  100.77 input  175.53 | X-H torsion
[ 8008 7997 7996 7995 ] final   81.65 input   59.86 | X-H torsion
[ 10167 10162 10161 10158 ] final    0.06 input  -65.29 | X-H torsion
[ 10718 10713 10712 10709 ] final   93.19 input   66.30 | X-H torsion
[ 10763 10752 10751 10750 ] final -118.19 input  -60.55 | X-H torsion
[ 11005 11000 10999 10996 ] final -121.43 input  -57.11 | X-H torsion

> <Gold.Protein.ActiveResidues>
 VAL166  LYS551  ARG553  GLY616  TRP617  ASP618  TYR619  PRO620  LYS621  CYS622 
 ASP623  PHE694  ASN695  SER759  ASP760  ASP761  ALA762  ILE779  LEU786  VAL792 
 PHE793  MET794  SER795  GLU796  ALA797  LYS798  CYS799  TRP800  GLU811  SER814 

> <Gold.Protein.RotatedAtoms>
  150.8975  134.8384  159.7336 H   0  0  0  0  0  0  0  0  0  0  0  0  # atno 6907 bound_to 6896
  152.4873  134.4554  159.9598 H   0  0  0  0  0  0  0  0  0  0  0  0  # atno 6908 bound_to 6896
  151.4609  133.3554  159.2844 H   0  0  0  0  0  0  0  0  0  0  0  0  # atno 6909 bound_to 6896
  145.3812  139.2379  143.3403 H   0  0  0  0  0  0  0  0  0  0  0  0  # atno 7974 bound_to 7965
  155.9000  140.3434  155.6019 H   0  0  0  0  0  0  0  0  0  0  0  0  # atno 8008 bound_to 7997
  155.7512  140.0820  157.2219 H   0  0  0  0  0  0  0  0  0  0  0  0  # atno 8009 bound_to 7997
  154.4042  140.1553  156.2713 H   0  0  0  0  0  0  0  0  0  0  0  0  # atno 8010 bound_to 7997
  140.6745  143.6954  150.7994 H   0  0  0  0  0  0  0  0  0  0  0  0  # atno 10167 bound_to 10162
  157.6955  131.0470  150.3997 H   0  0  0  0  0  0  0  0  0  0  0  0  # atno 10718 bound_to 10713
  154.8579  135.4283  154.2099 H   0  0  0  0  0  0  0  0  0  0  0  0  # atno 10763 bound_to 10752
  153.3127  135.6977  153.7107 H   0  0  0  0  0  0  0  0  0  0  0  0  # atno 10764 bound_to 10752
  153.6193  135.3505  155.2979 H   0  0  0  0  0  0  0  0  0  0  0  0  # atno 10765 bound_to 10752
  141.0071  134.0319  157.3463 H   0  0  0  0  0  0  0  0  0  0  0  0  # atno 11005 bound_to 11000
  146.2841  140.4479  142.8765 LP  0  0  0  0  0  0  0  0  0  0  0  0  # atno 17320 bound_to 7965
  144.8506  140.6996  143.6170 LP  0  0  0  0  0  0  0  0  0  0  0  0  # atno 17321 bound_to 7965
  140.0645  143.5122  152.2611 LP  0  0  0  0  0  0  0  0  0  0  0  0  # atno 17342 bound_to 10162
  139.6030  144.7588  151.3126 LP  0  0  0  0  0  0  0  0  0  0  0  0  # atno 17343 bound_to 10162
  156.4392  130.3988  149.6709 LP  0  0  0  0  0  0  0  0  0  0  0  0  # atno 17370 bound_to 10713
  156.3898  130.7621  151.2621 LP  0  0  0  0  0  0  0  0  0  0  0  0  # atno 17371 bound_to 10713
  139.9069  135.0181  156.7525 LP  0  0  0  0  0  0  0  0  0  0  0  0  # atno 17394 bound_to 11000
  140.6795  133.9487  155.7902 LP  0  0  0  0  0  0  0  0  0  0  0  0  # atno 17395 bound_to 11000

$$$$
