AV-unprocessed.smi:670|AV-procd|sdf|3265|dock3
  -GOLD-   22720 0213D 1   1.00000     0.00000
 Structure written by MMmdl.
 44 45  0  0  0  0  0  0  0  0  2 V2000
  153.0604  142.0305  161.3298 C   0  0  0  0  0  0  0  0  0  0  0  0
  152.8291  142.7559  159.9940 C   0  0  2  0  0  0  0  0  0  0  0  0
  152.2846  144.1783  160.2355 C   0  0  0  0  0  0  0  0  0  0  0  0
  152.0403  144.9268  158.9166 C   0  0  0  0  0  0  0  0  0  0  0  0
  151.0952  144.1360  158.0015 C   0  0  0  0  0  0  0  0  0  0  0  0
  151.6326  142.7204  157.7460 C   0  0  0  0  0  0  0  0  0  0  0  0
  151.8846  141.9593  159.0654 C   0  0  1  0  0  0  0  0  0  0  0  0
  152.5050  140.7123  158.7783 O   0  0  0  0  0  0  0  0  0  0  0  0
  151.6555  139.5831  158.9219 C   0  0  0  0  0  0  0  0  0  0  0  0
  151.2143  139.1156  157.5312 C   0  0  0  0  0  0  0  0  0  0  0  0
  150.1900  138.0866  157.6412 N   0  0  0  0  0  0  0  0  0  0  0  0
  149.1038  138.1728  158.4214 C   0  0  0  0  0  0  0  0  0  0  0  0
  148.8641  139.1508  159.1316 O   0  0  0  0  0  0  0  0  0  0  0  0
  148.1653  136.9558  158.3889 C   0  0  0  0  0  0  0  0  0  0  0  0
  147.9166  136.3477  159.7044 N   0  0  0  0  0  0  0  0  0  0  0  0
  147.3774  137.2788  160.6917 N   0  5  0  0  0  0  0  0  0  0  0  0
  147.1026  136.8299  161.9451 C   0  0  0  0  0  0  0  0  0  0  0  0
  146.6389  137.5521  162.8249 O   0  0  0  0  0  0  0  0  0  0  0  0
  147.3771  135.4349  162.2477 C   0  0  0  0  0  0  0  0  0  0  0  0
  147.8938  134.6025  161.3224 C   0  0  0  0  0  0  0  0  0  0  0  0
  148.2055  135.0408  159.9673 C   0  0  0  0  0  0  0  0  0  0  0  0
  148.6915  134.2897  159.1213 O   0  0  0  0  0  0  0  0  0  0  0  0
  152.1264  141.9017  161.8777 H   0  0  0  0  0  0  0  0  0  0  0  0
  153.7452  142.5911  161.9664 H   0  0  0  0  0  0  0  0  0  0  0  0
  153.4949  141.0424  161.1758 H   0  0  0  0  0  0  0  0  0  0  0  0
  153.7955  142.8481  159.4957 H   0  0  0  0  0  0  0  0  0  0  0  0
  151.3519  144.1249  160.7988 H   0  0  0  0  0  0  0  0  0  0  0  0
  152.9836  144.7459  160.8509 H   0  0  0  0  0  0  0  0  0  0  0  0
  151.6219  145.9128  159.1204 H   0  0  0  0  0  0  0  0  0  0  0  0
  152.9908  145.0925  158.4080 H   0  0  0  0  0  0  0  0  0  0  0  0
  150.1064  144.0758  158.4583 H   0  0  0  0  0  0  0  0  0  0  0  0
  150.9682  144.6622  157.0551 H   0  0  0  0  0  0  0  0  0  0  0  0
  150.9272  142.1778  157.1173 H   0  0  0  0  0  0  0  0  0  0  0  0
  152.5625  142.7841  157.1794 H   0  0  0  0  0  0  0  0  0  0  0  0
  150.9382  141.8013  159.5867 H   0  0  0  0  0  0  0  0  0  0  0  0
  152.1988  138.7811  159.4234 H   0  0  0  0  0  0  0  0  0  0  0  0
  150.7826  139.8166  159.5320 H   0  0  0  0  0  0  0  0  0  0  0  0
  150.8330  139.9582  156.9525 H   0  0  0  0  0  0  0  0  0  0  0  0
  152.0712  138.7122  156.9896 H   0  0  0  0  0  0  0  0  0  0  0  0
  150.3222  137.2463  157.0973 H   0  0  0  0  0  0  0  0  0  0  0  0
  147.2145  137.2517  157.9424 H   0  0  0  0  0  0  0  0  0  0  0  0
  148.5923  136.2206  157.7045 H   0  0  0  0  0  0  0  0  0  0  0  0
  147.1640  135.0585  163.2374 H   0  0  0  0  0  0  0  0  0  0  0  0
  148.0837  133.5742  161.5918 H   0  0  0  0  0  0  0  0  0  0  0  0
  1  2  1  0  0  0  0
  1 23  1  0  0  0  0
  1 24  1  0  0  0  0
  1 25  1  0  0  0  0
  2  7  1  0  0  0  0
  2  3  1  0  0  0  0
  2 26  1  0  0  0  0
  3  4  1  0  0  0  0
  3 27  1  0  0  0  0
  3 28  1  0  0  0  0
  4  5  1  0  0  0  0
  4 29  1  0  0  0  0
  4 30  1  0  0  0  0
  5  6  1  0  0  0  0
  5 31  1  0  0  0  0
  5 32  1  0  0  0  0
  6  7  1  0  0  0  0
  6 33  1  0  0  0  0
  6 34  1  0  0  0  0
  7  8  1  0  0  0  0
  7 35  1  0  0  0  0
  8  9  1  0  0  0  0
  9 10  1  0  0  0  0
  9 36  1  0  0  0  0
  9 37  1  0  0  0  0
 10 11  1  0  0  0  0
 10 38  1  0  0  0  0
 10 39  1  0  0  0  0
 11 12  1  0  0  0  0
 11 40  1  0  0  0  0
 12 13  2  0  0  0  0
 12 14  1  0  0  0  0
 14 41  1  0  0  0  0
 14 42  1  0  0  0  0
 14 15  1  0  0  0  0
 15 16  1  0  0  0  0
 15 21  1  0  0  0  0
 16 17  1  0  0  0  0
 17 18  2  0  0  0  0
 17 19  1  0  0  0  0
 19 43  1  0  0  0  0
 19 20  2  0  0  0  0
 20 44  1  0  0  0  0
 20 21  1  0  0  0  0
 21 22  2  0  0  0  0
M  CHG  1  16  -1
M  END
> <s_m_source_file>
AV-unprocessed.smi

> <i_m_source_file_index>
670

> <i_lp_mmshare_version>
43012

> <i_f3d_flags>
0

> <s_epik_input>
W0NIM11bQ0BASF0xW0NIMl1bQ0gyXVtDSDJdW0NIMl1bQ0BIXTFPW0NIMl1bQ0gyXVtOSF1DKD1PKVtDSDJdbjJbbkhdYyg9TylbY0hdW2NIXWMyPU8=

> <s_epik_cmdline>
J2VwaWtfcHl0aG9uJywgJy1waCcsICc3LjAnLCAnLXRuJywgJzgnLCAnLW1hJywgJzIwMCcsICctbWV0YWxfYmluZGluZycsICctaW1hZScsICc8aW5maWxlLm1hZT4nLCAnLW9tYWUnLCAnPG91dGZpbGUubWFlPic=

> <r_lp_tautomer_probability>
1

> <r_epik_Ionization_Penalty>
0.0975638

> <r_epik_Ionization_Penalty_Charging>
0.0975637

> <r_epik_Ionization_Penalty_Neutral>
2.78599e-08

> <r_epik_State_Penalty>
0.0343507

> <r_epik_Charging_Adjusted_Penalty>
0.131914

> <i_epik_Tot_Q>
-1

> <i_epik_Tot_abs_Q>
1

> <r_epik_Metal_State_Penalty>
0.0343507

> <b_epik_Metal_Only>
0

> <s_lp_Force_Field>
OPLS_2005

> <r_lp_Energy>
26.6339

> <b_lp_Chiralities_Consistent>
1

> <s_lp_Variant>
AV-unprocessed.smi:670-1

> <Gold.Version>
5.8.1

> <Gold.Id.Protein>
6NUR|6NUR_protein|mol2

> <Gold.PLP.Fitness>
47.2264

> <Gold.PLP.PLP>
-40.3173

> <Gold.PLP.part.hbond>
-6.1622

> <Gold.PLP.part.metal>
0.0000

> <Gold.PLP.part.buried>
-1.3000

> <Gold.PLP.part.nonpolar>
-33.5724

> <Gold.PLP.part.repulsive>
0.0428

> <Gold.PLP.ligand.clash>
0.0000

> <Gold.PLP.ligand.torsion>
1.0715

> <Gold.PLP.Chemscore.Hbond>
3.0000

> <Gold.PLP.Chemscore.CHOScore>
0.0000

> <Gold.PLP.Chemscore.Metal>
0.0000

> <Gold.Chemscore.Hbonds>
donor molecule, donor type, donor heavy atom, donor atom, acceptor molecule, acceptor atom, score
      P1  H  6896  6907       L1    22  1.00
      P1  H  6934  6947       L1    16  2.00

> <Gold.PLP.Chemscore.Internal.Correction>
0.0521

> <Gold.Rescore>
     Score         DG    S(hbond)    S(metal)    S(lipo)     H(rot)  DE(clash)    DE(int)     intcor
     11.64     -17.24       1.61        0.00     108.15       2.45       1.94       3.66       ----

> <Gold.Chemscore.Fitness>
11.6449

> <Gold.Chemscore.DG>
-17.2396

> <Gold.Chemscore.ZeroCoef>
-5.4800

> <Gold.Chemscore.Hbond>
1.6095

> <Gold.Chemscore.Metal>
0.0000

> <Gold.Chemscore.Lipo>
108.1484

> <Gold.Chemscore.Internal_Hbond>
0.0000

> <Gold.Chemscore.DEClash>
1.9379

> <Gold.Chemscore.DEInternal>
3.6569

> <Gold.Chemscore.Rot>
2.4490

> <Gold.Chemscore.Internal.Correction>
   9.000000E+99

> <Gold.Chemscore.Hbonds>
donor molecule, donor type, donor heavy atom, donor atom, acceptor molecule, acceptor atom, score
      P1  H  6896  6907       L1    22  0.74
      P1  H  6934  6947       L1    16  0.29

> <Gold.Chemscore.Hbond.Weighted>
-5.3757

> <Gold.Chemscore.Metal.Weighted>
-0.0000

> <Gold.Chemscore.Lipo.Weighted>
-12.6534

> <Gold.Chemscore.Internal_Hbond.Weighted>
0.0000

> <Gold.Chemscore.DEClash.Weighted>
1.9379

> <Gold.Chemscore.DEInternal.Weighted>
3.6569

> <Gold.Chemscore.Rot.Weighted>
6.2694

> <Gold.Chemscore.Internal.Correction.Weighted>
   9.000000E+99

> <Gold.Protein.RotatedTorsions>
[ 6907 6896 6895 6894 ] final -100.23 input  -60.11 | X-H torsion
[ 7974 7965 7964 7962 ] final   56.64 input  175.53 | X-H torsion
[ 8008 7997 7996 7995 ] final  -85.84 input   59.86 | X-H torsion
[ 10167 10162 10161 10158 ] final  -96.79 input  -65.29 | X-H torsion
[ 10718 10713 10712 10709 ] final  -72.19 input   66.30 | X-H torsion
[ 10763 10752 10751 10750 ] final  116.07 input  -60.55 | X-H torsion
[ 11005 11000 10999 10996 ] final -106.89 input  -57.11 | X-H torsion

> <Gold.Protein.ActiveResidues>
 VAL166  LYS551  ARG553  GLY616  TRP617  ASP618  TYR619  PRO620  LYS621  CYS622 
 ASP623  PHE694  ASN695  SER759  ASP760  ASP761  ALA762  ILE779  LEU786  VAL792 
 PHE793  MET794  SER795  GLU796  ALA797  LYS798  CYS799  TRP800  GLU811  SER814 

> <Gold.Protein.RotatedAtoms>
  150.7108  134.0919  159.3934 H   0  0  0  0  0  0  0  0  0  0  0  0  # atno 6907 bound_to 6896
  151.8904  135.0416  160.0506 H   0  0  0  0  0  0  0  0  0  0  0  0  # atno 6908 bound_to 6896
  152.2496  133.5168  159.5354 H   0  0  0  0  0  0  0  0  0  0  0  0  # atno 6909 bound_to 6896
  145.9376  139.3860  143.0383 H   0  0  0  0  0  0  0  0  0  0  0  0  # atno 7974 bound_to 7965
  154.6452  140.0586  156.9892 H   0  0  0  0  0  0  0  0  0  0  0  0  # atno 8008 bound_to 7997
  155.1455  140.3269  155.4424 H   0  0  0  0  0  0  0  0  0  0  0  0  # atno 8009 bound_to 7997
  156.2550  140.1956  156.6569 H   0  0  0  0  0  0  0  0  0  0  0  0  # atno 8010 bound_to 7997
  140.2901  143.3227  152.0354 H   0  0  0  0  0  0  0  0  0  0  0  0  # atno 10167 bound_to 10162
  156.0331  130.4367  150.2555 H   0  0  0  0  0  0  0  0  0  0  0  0  # atno 10718 bound_to 10713
  153.5317  135.3577  155.2679 H   0  0  0  0  0  0  0  0  0  0  0  0  # atno 10763 bound_to 10752
  154.8726  135.4070  154.3143 H   0  0  0  0  0  0  0  0  0  0  0  0  # atno 10764 bound_to 10752
  153.3833  135.7069  153.6616 H   0  0  0  0  0  0  0  0  0  0  0  0  # atno 10765 bound_to 10752
  141.0982  133.8933  157.1910 H   0  0  0  0  0  0  0  0  0  0  0  0  # atno 11005 bound_to 11000
  145.8343  140.9614  143.0832 LP  0  0  0  0  0  0  0  0  0  0  0  0  # atno 17320 bound_to 7965
  144.6774  140.0203  143.7484 LP  0  0  0  0  0  0  0  0  0  0  0  0  # atno 17321 bound_to 7965
  139.4940  144.6531  151.6633 LP  0  0  0  0  0  0  0  0  0  0  0  0  # atno 17342 bound_to 10162
  140.5739  144.0062  150.6231 LP  0  0  0  0  0  0  0  0  0  0  0  0  # atno 17343 bound_to 10162
  157.0657  131.0102  151.3207 LP  0  0  0  0  0  0  0  0  0  0  0  0  # atno 17370 bound_to 10713
  157.5037  130.7896  149.7632 LP  0  0  0  0  0  0  0  0  0  0  0  0  # atno 17371 bound_to 10713
  139.9824  135.0093  156.9783 LP  0  0  0  0  0  0  0  0  0  0  0  0  # atno 17394 bound_to 11000
  140.5089  134.1022  155.7266 LP  0  0  0  0  0  0  0  0  0  0  0  0  # atno 17395 bound_to 11000

$$$$
