AV-unprocessed.smi:2237|AV-procd|sdf|9048|dock1
  -GOLD-   2272012253D 1   1.00000     0.00000
 Structure written by MMmdl.
 55 57  0  0  0  0  0  0  0  0  3 V2000
  151.9337  144.6837  158.3975 C   0  0  0  0  0  0  0  0  0  0  0  0
  152.1274  143.2031  158.6488 C   0  0  0  0  0  0  0  0  0  0  0  0
  152.8066  142.7450  159.7948 C   0  0  0  0  0  0  0  0  0  0  0  0
  152.9539  141.3571  159.9674 C   0  0  0  0  0  0  0  0  0  0  0  0
  152.4189  140.4905  158.9946 C   0  0  0  0  0  0  0  0  0  0  0  0
  151.7479  141.0321  157.8750 C   0  0  0  0  0  0  0  0  0  0  0  0
  151.2460  140.0761  156.9522 N   0  0  0  0  0  0  0  0  0  0  0  0
  150.8401  138.8179  157.1989 C   0  0  0  0  0  0  0  0  0  0  0  0
  150.8627  138.2626  158.2978 O   0  0  0  0  0  0  0  0  0  0  0  0
  150.4020  138.2199  156.0811 N   0  0  0  0  0  0  0  0  0  0  0  0
  149.8875  136.8555  156.0083 C   0  0  2  0  0  0  0  0  0  0  0  0
  150.7675  135.9841  155.0996 C   0  0  0  0  0  0  0  0  0  0  0  0
  150.1777  134.5731  154.9526 C   0  0  0  0  0  0  0  0  0  0  0  0
  148.7881  134.6046  154.4093 N   0  3  1  0  0  0  0  0  0  0  0  0
  148.2685  133.2291  154.0991 C   0  0  2  0  0  0  0  0  0  0  0  0
  148.0492  133.0166  152.5813 C   0  0  0  0  0  0  0  0  0  0  0  0
  146.8405  133.8123  152.0540 C   0  0  0  0  0  0  0  0  0  0  0  0
  145.6004  133.4474  152.7823 N   0  3  2  0  0  0  0  0  0  0  0  0
  144.4049  134.1251  152.2359 C   0  0  0  0  0  0  0  0  0  0  0  0
  145.7366  133.6361  154.2474 C   0  0  0  0  0  0  0  0  0  0  0  0
  146.9393  132.8458  154.7981 C   0  0  0  0  0  0  0  0  0  0  0  0
  147.9104  135.4340  155.2871 C   0  0  0  0  0  0  0  0  0  0  0  0
  148.4564  136.8624  155.4580 C   0  0  0  0  0  0  0  0  0  0  0  0
  151.6115  142.3723  157.7174 N   0  0  0  0  0  0  0  0  0  0  0  0
  152.5466  145.2820  159.0720 H   0  0  0  0  0  0  0  0  0  0  0  0
  150.8895  144.9580  158.5491 H   0  0  0  0  0  0  0  0  0  0  0  0
  152.2108  144.9368  157.3736 H   0  0  0  0  0  0  0  0  0  0  0  0
  153.2052  143.4363  160.5227 H   0  0  0  0  0  0  0  0  0  0  0  0
  153.4688  140.9627  160.8310 H   0  0  0  0  0  0  0  0  0  0  0  0
  152.5243  139.4218  159.1120 H   0  0  0  0  0  0  0  0  0  0  0  0
  151.1830  140.3905  155.9954 H   0  0  0  0  0  0  0  0  0  0  0  0
  150.4194  138.7498  155.2219 H   0  0  0  0  0  0  0  0  0  0  0  0
  149.8681  136.4244  157.0114 H   0  0  0  0  0  0  0  0  0  0  0  0
  150.8622  136.4447  154.1150 H   0  0  0  0  0  0  0  0  0  0  0  0
  151.7772  135.9164  155.5070 H   0  0  0  0  0  0  0  0  0  0  0  0
  150.8422  134.0006  154.3092 H   0  0  0  0  0  0  0  0  0  0  0  0
  150.1775  134.0702  155.9211 H   0  0  0  0  0  0  0  0  0  0  0  0
  149.0243  132.5211  154.4436 H   0  0  0  0  0  0  0  0  0  0  0  0
  148.9341  133.2575  151.9957 H   0  0  0  0  0  0  0  0  0  0  0  0
  147.8721  131.9557  152.3973 H   0  0  0  0  0  0  0  0  0  0  0  0
  147.0216  134.8843  152.1474 H   0  0  0  0  0  0  0  0  0  0  0  0
  146.7072  133.6065  150.9909 H   0  0  0  0  0  0  0  0  0  0  0  0
  144.4775  135.2068  152.3571 H   0  0  0  0  0  0  0  0  0  0  0  0
  143.5024  133.7836  152.7440 H   0  0  0  0  0  0  0  0  0  0  0  0
  144.2897  133.9068  151.1737 H   0  0  0  0  0  0  0  0  0  0  0  0
  145.8400  134.6988  154.4702 H   0  0  0  0  0  0  0  0  0  0  0  0
  144.8243  133.2978  154.7404 H   0  0  0  0  0  0  0  0  0  0  0  0
  146.7540  131.7845  154.6242 H   0  0  0  0  0  0  0  0  0  0  0  0
  147.0030  132.9306  155.8823 H   0  0  0  0  0  0  0  0  0  0  0  0
  146.9133  135.5353  154.8634 H   0  0  0  0  0  0  0  0  0  0  0  0
  147.8015  134.9502  156.2590 H   0  0  0  0  0  0  0  0  0  0  0  0
  147.8036  137.4266  156.1255 H   0  0  0  0  0  0  0  0  0  0  0  0
  148.4312  137.3761  154.4956 H   0  0  0  0  0  0  0  0  0  0  0  0
  148.8335  135.0958  153.5281 H   0  0  0  0  0  0  0  0  0  0  0  0
  145.4588  132.4583  152.6315 H   0  0  0  0  0  0  0  0  0  0  0  0
  1  2  1  0  0  0  0
  1 25  1  0  0  0  0
  1 26  1  0  0  0  0
  1 27  1  0  0  0  0
  2 24  1  0  0  0  0
  2  3  2  0  0  0  0
  3  4  1  0  0  0  0
  3 28  1  0  0  0  0
  4  5  2  0  0  0  0
  4 29  1  0  0  0  0
  5  6  1  0  0  0  0
  5 30  1  0  0  0  0
  6  7  1  0  0  0  0
  6 24  2  0  0  0  0
  7  8  1  0  0  0  0
  7 31  1  0  0  0  0
  8  9  2  0  0  0  0
  8 10  1  0  0  0  0
 10 11  1  0  0  0  0
 10 32  1  0  0  0  0
 11 23  1  0  0  0  0
 11 12  1  0  0  0  0
 11 33  1  0  0  0  0
 12 13  1  0  0  0  0
 12 34  1  0  0  0  0
 12 35  1  0  0  0  0
 13 14  1  0  0  0  0
 13 36  1  0  0  0  0
 13 37  1  0  0  0  0
 14 15  1  0  0  0  0
 14 22  1  0  0  0  0
 14 54  1  0  0  0  0
 15 21  1  0  0  0  0
 15 16  1  0  0  0  0
 15 38  1  0  0  0  0
 16 17  1  0  0  0  0
 16 39  1  0  0  0  0
 16 40  1  0  0  0  0
 17 18  1  0  0  0  0
 17 41  1  0  0  0  0
 17 42  1  0  0  0  0
 18 19  1  0  0  0  0
 18 20  1  0  0  0  0
 18 55  1  0  0  0  0
 19 43  1  0  0  0  0
 19 44  1  0  0  0  0
 19 45  1  0  0  0  0
 20 21  1  0  0  0  0
 20 46  1  0  0  0  0
 20 47  1  0  0  0  0
 21 48  1  0  0  0  0
 21 49  1  0  0  0  0
 22 23  1  0  0  0  0
 22 50  1  0  0  0  0
 22 51  1  0  0  0  0
 23 52  1  0  0  0  0
 23 53  1  0  0  0  0
M  CHG  1  14   1
M  CHG  1  18   1
M  END
> <s_m_source_file>
AV-unprocessed.smi

> <i_m_source_file_index>
2237

> <i_lp_mmshare_version>
43012

> <i_f3d_flags>
0

> <s_epik_input>
W0NIM11jMVtjSF1bY0hdW2NIXWMobjEpW05IXUMoPU8pW05IXVtDSF0yW0NIMl1bQ0gyXU4oW0NIMl1bQ0gyXTIpW0NIXTNbQ0gyXVtDSDJdTihbQ0gzXSlbQ0gyXVtDSDJdMw==

> <s_epik_cmdline>
J2VwaWtfcHl0aG9uJywgJy1waCcsICc3LjAnLCAnLXRuJywgJzgnLCAnLW1hJywgJzIwMCcsICctbWV0YWxfYmluZGluZycsICctaW1hZScsICc8aW5maWxlLm1hZT4nLCAnLW9tYWUnLCAnPG91dGZpbGUubWFlPic=

> <r_epik_Ionization_Penalty>
0.180851

> <r_epik_Ionization_Penalty_Charging>
0.180787

> <r_epik_Ionization_Penalty_Neutral>
6.38624e-05

> <r_epik_State_Penalty>
0.153592

> <r_epik_Charging_Adjusted_Penalty>
0.334379

> <i_epik_Tot_Q>
2

> <i_epik_Tot_abs_Q>
2

> <r_epik_Metal_State_Penalty>
0.153595

> <b_epik_Metal_Only>
0

> <s_lp_Force_Field>
OPLS_2005

> <r_lp_Energy>
45.5508

> <b_lp_Chiralities_Consistent>
1

> <s_lp_Variant>
AV-unprocessed.smi:2237-3

> <Gold.Version>
5.8.1

> <Gold.Id.Protein>
6NUR|6NUR_protein|mol2

> <Gold.PLP.Fitness>
38.9711

> <Gold.PLP.PLP>
-36.2676

> <Gold.PLP.part.hbond>
-1.0000

> <Gold.PLP.part.metal>
0.0000

> <Gold.PLP.part.buried>
-4.5248

> <Gold.PLP.part.nonpolar>
-30.7880

> <Gold.PLP.part.repulsive>
0.1207

> <Gold.PLP.ligand.clash>
0.0000

> <Gold.PLP.ligand.torsion>
1.6649

> <Gold.PLP.Chemscore.Hbond>
2.0000

> <Gold.PLP.Chemscore.CHOScore>
0.0000

> <Gold.PLP.Chemscore.Metal>
0.0000

> <Gold.Chemscore.Hbonds>
donor molecule, donor type, donor heavy atom, donor atom, acceptor molecule, acceptor atom, score
      L1  H    14    54       P1  7948  2.00

> <Gold.PLP.Chemscore.Internal.Correction>
0.0333

> <Gold.Rescore>
     Score         DG    S(hbond)    S(metal)    S(lipo)     H(rot)  DE(clash)    DE(int)     intcor
     13.79     -17.04       0.97        0.00      98.15       1.23       0.36       2.89       ----

> <Gold.Chemscore.Fitness>
13.7930

> <Gold.Chemscore.DG>
-17.0435

> <Gold.Chemscore.ZeroCoef>
-5.4800

> <Gold.Chemscore.Hbond>
0.9663

> <Gold.Chemscore.Metal>
0.0000

> <Gold.Chemscore.Lipo>
98.1492

> <Gold.Chemscore.Internal_Hbond>
0.0000

> <Gold.Chemscore.DEClash>
0.3634

> <Gold.Chemscore.DEInternal>
2.8870

> <Gold.Chemscore.Rot>
1.2295

> <Gold.Chemscore.Internal.Correction>
   9.000000E+99

> <Gold.Chemscore.Hbonds>
donor molecule, donor type, donor heavy atom, donor atom, acceptor molecule, acceptor atom, score
      L1  H    14    54       P1  7948  0.58

> <Gold.Chemscore.Hbond.Weighted>
-3.2274

> <Gold.Chemscore.Metal.Weighted>
-0.0000

> <Gold.Chemscore.Lipo.Weighted>
-11.4835

> <Gold.Chemscore.Internal_Hbond.Weighted>
0.0000

> <Gold.Chemscore.DEClash.Weighted>
0.3634

> <Gold.Chemscore.DEInternal.Weighted>
2.8870

> <Gold.Chemscore.Rot.Weighted>
3.1474

> <Gold.Chemscore.Internal.Correction.Weighted>
   9.000000E+99

> <Gold.Protein.RotatedTorsions>
[ 6907 6896 6895 6894 ] final  133.56 input  -60.11 | X-H torsion
[ 7974 7965 7964 7962 ] final  -21.06 input  175.53 | X-H torsion
[ 8008 7997 7996 7995 ] final -135.63 input   59.86 | X-H torsion
[ 10167 10162 10161 10158 ] final  177.48 input  -65.29 | X-H torsion
[ 10718 10713 10712 10709 ] final -172.79 input   66.30 | X-H torsion
[ 10763 10752 10751 10750 ] final -129.86 input  -60.55 | X-H torsion
[ 11005 11000 10999 10996 ] final  130.72 input  -57.11 | X-H torsion

> <Gold.Protein.ActiveResidues>
 VAL166  LYS551  ARG553  GLY616  TRP617  ASP618  TYR619  PRO620  LYS621  CYS622 
 ASP623  PHE694  ASN695  SER759  ASP760  ASP761  ALA762  ILE779  LEU786  VAL792 
 PHE793  MET794  SER795  GLU796  ALA797  LYS798  CYS799  TRP800  GLU811  SER814 

> <Gold.Protein.RotatedAtoms>
  152.3206  133.5850  159.5741 H   0  0  0  0  0  0  0  0  0  0  0  0  # atno 6907 bound_to 6896
  150.7369  134.0017  159.3649 H   0  0  0  0  0  0  0  0  0  0  0  0  # atno 6908 bound_to 6896
  151.7901  135.0738  160.0437 H   0  0  0  0  0  0  0  0  0  0  0  0  # atno 6909 bound_to 6896
  146.1754  140.4288  142.8515 H   0  0  0  0  0  0  0  0  0  0  0  0  # atno 7974 bound_to 7965
  155.3818  140.0494  157.3043 H   0  0  0  0  0  0  0  0  0  0  0  0  # atno 8008 bound_to 7997
  154.5079  140.2181  155.9177 H   0  0  0  0  0  0  0  0  0  0  0  0  # atno 8009 bound_to 7997
  156.1547  140.3129  155.8712 H   0  0  0  0  0  0  0  0  0  0  0  0  # atno 8010 bound_to 7997
  139.5255  144.2793  152.0560 H   0  0  0  0  0  0  0  0  0  0  0  0  # atno 10167 bound_to 10162
  156.7608  130.9413  151.3118 H   0  0  0  0  0  0  0  0  0  0  0  0  # atno 10718 bound_to 10713
  154.8757  135.3881  154.3988 H   0  0  0  0  0  0  0  0  0  0  0  0  # atno 10763 bound_to 10752
  153.4715  135.7030  153.5996 H   0  0  0  0  0  0  0  0  0  0  0  0  # atno 10764 bound_to 10752
  153.4451  135.3847  155.2219 H   0  0  0  0  0  0  0  0  0  0  0  0  # atno 10765 bound_to 10752
  139.9688  134.9583  156.9335 H   0  0  0  0  0  0  0  0  0  0  0  0  # atno 11005 bound_to 11000
  144.8228  140.6578  143.6342 LP  0  0  0  0  0  0  0  0  0  0  0  0  # atno 17320 bound_to 7965
  145.4226  139.1561  143.4066 LP  0  0  0  0  0  0  0  0  0  0  0  0  # atno 17321 bound_to 7965
  140.2249  144.4428  150.6325 LP  0  0  0  0  0  0  0  0  0  0  0  0  # atno 17342 bound_to 10162
  140.6394  143.2200  151.6324 LP  0  0  0  0  0  0  0  0  0  0  0  0  # atno 17343 bound_to 10162
  157.6735  130.9073  150.0096 LP  0  0  0  0  0  0  0  0  0  0  0  0  # atno 17370 bound_to 10713
  156.1340  130.3643  149.9686 LP  0  0  0  0  0  0  0  0  0  0  0  0  # atno 17371 bound_to 10713
  140.5337  134.0788  155.7322 LP  0  0  0  0  0  0  0  0  0  0  0  0  # atno 17394 bound_to 11000
  141.1368  133.9207  157.2415 LP  0  0  0  0  0  0  0  0  0  0  0  0  # atno 17395 bound_to 11000

$$$$
