#       Name:                AV-unprocessed.smi:3195
#       Creating user name   scv26
#       Creation time:       Fri Mar 27 18:05:25 2020


#       File generated by GOLD software.
#

@<TRIPOS>MOLECULE
AV-unprocessed.smi:3195
    34    35     1
SMALL
NO_CHARGES


@<TRIPOS>ATOM
      1 ****        -2.1097  -1.8784  -1.2500 C.3            1 S1                 0.0000
      2 ****        -1.5860  -0.9978  -0.1024 C.3            1 S1                 0.0000
      3 ****        -0.0424  -0.9504  -0.1220 C.2            1 S1                 0.0000
      4 ****         0.5896  -1.9814   0.1142 O.2            1 S1                 0.0000
      5 ****         0.5257   0.2367  -0.4097 N.am           1 S1                 0.0000
      6 ****         1.9058   0.5729  -0.4838 C.ar           1 S1                 0.0000
      7 ****         2.8961  -0.3291  -0.2662 N.ar           1 S1                 0.0000
      8 ****         4.1825   0.0662  -0.3553 C.ar           1 S1                 0.0000
      9 ****         4.5647   1.3827  -0.6665 C.ar           1 S1                 0.0000
     10 ****         3.5506   2.3291  -0.8940 C.ar           1 S1                 0.0000
     11 ****         2.2035   1.9246  -0.8018 C.ar           1 S1                 0.0000
     12 ****         1.2172   2.8479  -1.0214 O.co2          1 S1                -1.0000
     13 ****        -2.1273  -1.4532   1.2739 C.3            1 S1                 0.0000
     14 ****        -3.0038  -0.3037   1.7398 C.3            1 S1                 0.0000
     15 ****        -2.4323   0.8820   0.9798 C.3            1 S1                 0.0000
     16 ****        -2.1243   0.3162  -0.2852 O.3            1 S1                 0.0000
     17 ****        -1.7763  -2.9117  -1.1473 H              1 S1                 0.0000
     18 ****        -1.7666  -1.5122  -2.2185 H              1 S1                 0.0000
     19 ****        -3.1999  -1.8845  -1.2706 H              1 S1                 0.0000
     20 ****        -0.1072   1.0026  -0.5926 H              1 S1                 0.0000
     21 ****         4.9296  -0.6917  -0.1729 H              1 S1                 0.0000
     22 ****         5.6066   1.6589  -0.7287 H              1 S1                 0.0000
     23 ****         3.8047   3.3509  -1.1356 H              1 S1                 0.0000
     24 ****        -2.6916  -2.3850   1.2198 H              1 S1                 0.0000
     25 ****        -1.3242  -1.6103   1.9962 H              1 S1                 0.0000
     26 ****        -4.0359  -0.4759   1.4319 H              1 S1                 0.0000
     27 ****        -2.9894  -0.1644   2.8210 H              1 S1                 0.0000
     28 ****        -3.1378   1.7081   0.8916 H              1 S1                 0.0000
     29 ****        -1.5224   1.2523   1.4551 H              1 S1                 0.0000
     30 ****         0.1027  -2.8316   0.3146 LP             1 S1                 0.0000
     31 ****         1.5895  -1.9681   0.1056 LP             1 S1                 0.0000
     32 ****         2.6741  -1.2780  -0.0418 LP             1 S1                 0.0000
     33 ****        -2.9562   0.2616  -0.8373 LP             1 S1                 0.0000
     34 ****        -1.4514   0.8900  -0.7520 LP             1 S1                 0.0000
@<TRIPOS>BOND
    1    1    2 1     
    2    1   17 1     
    3    1   18 1     
    4    1   19 1     
    5    2   16 1     
    6    2    3 1     
    7    2   13 1     
    8    3    4 2     
    9    3    5 am    
   10    5   20 1     
   11    5    6 1     
   12    6   11 ar    
   13    6    7 ar    
   14    7    8 ar    
   15    8   21 1     
   16    8    9 ar    
   17    9   22 1     
   18    9   10 ar    
   19   10   11 ar    
   20   10   23 1     
   21   11   12 ar    
   22   13   14 1     
   23   13   24 1     
   24   13   25 1     
   25   14   15 1     
   26   14   26 1     
   27   14   27 1     
   28   15   16 1     
   29   15   28 1     
   30   15   29 1     
   31    4   30 1     
   32    4   31 1     
   33    7   32 1     
   34   16   33 1     
   35   16   34 1     
@<TRIPOS>SUBSTRUCTURE
      1 S1             1
@<TRIPOS>SET
LONE_PAIRS      STATIC     ATOMS    <user>   **** ""
6 30 31 32 12 33 34
DONOR_HYDROGENS      STATIC     ATOMS    <user>   **** ""
1 20
ATOM$BLUE        STATIC     ATOMS    COLORGROUP SYSTEM
6 30 31 32 12 33 34
ATOM$RED        STATIC     ATOMS    COLORGROUP SYSTEM
1 20
