AV-unprocessed.smi:2106|AV-procd|sdf|8595|dock7
  -GOLD-   2272011333D 1   1.00000     0.00000
 Structure written by MMmdl.
 47 48  0  0  0  0  0  0  0  0  1 V2000
  148.0581  132.2974  153.1073 C   0  0  0  0  0  0  0  0  0  0  0  0
  146.9709  132.7446  152.1753 C   0  0  0  0  0  0  0  0  0  0  0  0
  146.1246  131.9431  151.3594 C   0  0  0  0  0  0  0  0  0  0  0  0
  145.3260  132.8443  150.7133 C   0  0  0  0  0  0  0  0  0  0  0  0
  144.2354  132.6216  149.7176 C   0  0  0  0  0  0  0  0  0  0  0  0
  145.7061  134.1019  151.1490 N   0  0  0  0  0  0  0  0  0  0  0  0
  145.1841  135.4043  150.7669 C   0  0  0  0  0  0  0  0  0  0  0  0
  145.1084  136.3418  151.9723 C   0  0  0  0  0  0  0  0  0  0  0  0
  144.0268  136.8236  152.3082 O   0  0  0  0  0  0  0  0  0  0  0  0
  146.2632  136.5894  152.6098 N   0  0  0  0  0  0  0  0  0  0  0  0
  146.4149  137.4309  153.7921 C   0  0  0  0  0  0  0  0  0  0  0  0
  147.7441  137.1521  154.5215 C   0  0  0  0  0  0  0  0  0  0  0  0
  148.5217  138.3344  154.8929 N   0  0  0  0  0  0  0  0  0  0  0  0
  149.9525  138.0718  154.8187 C   0  0  0  0  0  0  0  0  0  0  0  0
  150.7817  139.2893  155.2660 C   0  0  1  0  0  0  0  0  0  0  0  0
  152.2871  139.0513  155.1085 C   0  0  0  0  0  0  0  0  0  0  0  0
  150.4275  140.4221  154.4746 O   0  0  0  0  0  0  0  0  0  0  0  0
  149.0346  140.7393  154.4527 C   0  0  2  0  0  0  0  0  0  0  0  0
  148.5743  141.3849  155.7709 C   0  0  0  0  0  0  0  0  0  0  0  0
  148.2103  139.4963  154.0633 C   0  0  0  0  0  0  0  0  0  0  0  0
  146.7145  134.0359  152.0463 N   0  0  0  0  0  0  0  0  0  0  0  0
  148.1340  131.2100  153.1309 H   0  0  0  0  0  0  0  0  0  0  0  0
  147.8684  132.6384  154.1252 H   0  0  0  0  0  0  0  0  0  0  0  0
  149.0265  132.6907  152.7973 H   0  0  0  0  0  0  0  0  0  0  0  0
  146.1079  130.8678  151.2612 H   0  0  0  0  0  0  0  0  0  0  0  0
  144.0721  131.5567  149.5511 H   0  0  0  0  0  0  0  0  0  0  0  0
  144.4854  133.0755  148.7588 H   0  0  0  0  0  0  0  0  0  0  0  0
  143.2960  133.0525  150.0642 H   0  0  0  0  0  0  0  0  0  0  0  0
  145.8250  135.8400  150.0000 H   0  0  0  0  0  0  0  0  0  0  0  0
  144.1970  135.2806  150.3180 H   0  0  0  0  0  0  0  0  0  0  0  0
  147.1004  136.1529  152.2524 H   0  0  0  0  0  0  0  0  0  0  0  0
  146.4132  138.4660  153.4504 H   0  0  0  0  0  0  0  0  0  0  0  0
  145.5565  137.3417  154.4585 H   0  0  0  0  0  0  0  0  0  0  0  0
  147.5135  136.5798  155.4213 H   0  0  0  0  0  0  0  0  0  0  0  0
  148.3587  136.4950  153.9045 H   0  0  0  0  0  0  0  0  0  0  0  0
  150.2034  137.2179  155.4491 H   0  0  0  0  0  0  0  0  0  0  0  0
  150.2250  137.7965  153.7985 H   0  0  0  0  0  0  0  0  0  0  0  0
  150.5768  139.5030  156.3155 H   0  0  0  0  0  0  0  0  0  0  0  0
  152.6146  138.1988  155.7044 H   0  0  0  0  0  0  0  0  0  0  0  0
  152.8546  139.9229  155.4353 H   0  0  0  0  0  0  0  0  0  0  0  0
  152.5489  138.8537  154.0687 H   0  0  0  0  0  0  0  0  0  0  0  0
  148.9031  141.4865  153.6698 H   0  0  0  0  0  0  0  0  0  0  0  0
  147.5401  141.7212  155.6958 H   0  0  0  0  0  0  0  0  0  0  0  0
  149.1866  142.2532  156.0142 H   0  0  0  0  0  0  0  0  0  0  0  0
  148.6291  140.6907  156.6090 H   0  0  0  0  0  0  0  0  0  0  0  0
  148.4075  139.2565  153.0173 H   0  0  0  0  0  0  0  0  0  0  0  0
  147.1513  139.7422  154.1259 H   0  0  0  0  0  0  0  0  0  0  0  0
  1  2  1  0  0  0  0
  1 22  1  0  0  0  0
  1 23  1  0  0  0  0
  1 24  1  0  0  0  0
  2 21  2  0  0  0  0
  2  3  1  0  0  0  0
  3  4  2  0  0  0  0
  3 25  1  0  0  0  0
  4  5  1  0  0  0  0
  4  6  1  0  0  0  0
  5 26  1  0  0  0  0
  5 27  1  0  0  0  0
  5 28  1  0  0  0  0
  6  7  1  0  0  0  0
  6 21  1  0  0  0  0
  7  8  1  0  0  0  0
  7 29  1  0  0  0  0
  7 30  1  0  0  0  0
  8  9  2  0  0  0  0
  8 10  1  0  0  0  0
 10 11  1  0  0  0  0
 10 31  1  0  0  0  0
 11 12  1  0  0  0  0
 11 32  1  0  0  0  0
 11 33  1  0  0  0  0
 12 13  1  0  0  0  0
 12 34  1  0  0  0  0
 12 35  1  0  0  0  0
 13 20  1  0  0  0  0
 13 14  1  0  0  0  0
 14 15  1  0  0  0  0
 14 36  1  0  0  0  0
 14 37  1  0  0  0  0
 15 16  1  0  0  0  0
 15 17  1  0  0  0  0
 15 38  1  0  0  0  0
 16 39  1  0  0  0  0
 16 40  1  0  0  0  0
 16 41  1  0  0  0  0
 17 18  1  0  0  0  0
 18 19  1  0  0  0  0
 18 20  1  0  0  0  0
 18 42  1  0  0  0  0
 19 43  1  0  0  0  0
 19 44  1  0  0  0  0
 19 45  1  0  0  0  0
 20 46  1  0  0  0  0
 20 47  1  0  0  0  0
M  END
> <s_m_source_file>
AV-unprocessed.smi

> <i_m_source_file_index>
2106

> <i_lp_mmshare_version>
43012

> <i_f3d_flags>
0

> <s_epik_input>
W0NIM11jMVtjSF1jKFtDSDNdKW4objEpW0NIMl1DKD1PKVtOSF1bQ0gyXVtDSDJdTjJbQ0gyXVtDQEBIXShbQ0gzXSlPW0NAQEhdKFtDSDNdKVtDSDJdMg==

> <s_epik_cmdline>
J2VwaWtfcHl0aG9uJywgJy1waCcsICc3LjAnLCAnLXRuJywgJzgnLCAnLW1hJywgJzIwMCcsICctbWV0YWxfYmluZGluZycsICctaW1hZScsICc8aW5maWxlLm1hZT4nLCAnLW9tYWUnLCAnPG91dGZpbGUubWFlPic=

> <r_lp_tautomer_probability>
1

> <r_epik_Ionization_Penalty>
0.197284

> <r_epik_Ionization_Penalty_Charging>
0

> <r_epik_Ionization_Penalty_Neutral>
0.197284

> <r_epik_State_Penalty>
0.186684

> <r_epik_Charging_Adjusted_Penalty>
0.186684

> <i_epik_Tot_Q>
0

> <i_epik_Tot_abs_Q>
0

> <r_epik_Metal_State_Penalty>
0.186634

> <b_epik_Metal_Only>
0

> <s_lp_Force_Field>
OPLS_2005

> <r_lp_Energy>
25.1516

> <b_lp_Chiralities_Consistent>
1

> <s_lp_Variant>
AV-unprocessed.smi:2106-3

> <Gold.Version>
5.8.1

> <Gold.Id.Protein>
6NUR|6NUR_protein|mol2

> <Gold.PLP.Fitness>
40.6429

> <Gold.PLP.PLP>
-37.1141

> <Gold.PLP.part.hbond>
-1.8424

> <Gold.PLP.part.metal>
0.0000

> <Gold.PLP.part.buried>
-5.4549

> <Gold.PLP.part.nonpolar>
-31.4973

> <Gold.PLP.part.repulsive>
0.7216

> <Gold.PLP.ligand.clash>
0.0000

> <Gold.PLP.ligand.torsion>
1.2320

> <Gold.PLP.Chemscore.Hbond>
1.9920

> <Gold.PLP.Chemscore.CHOScore>
0.0000

> <Gold.PLP.Chemscore.Metal>
0.0000

> <Gold.Chemscore.Hbonds>
donor molecule, donor type, donor heavy atom, donor atom, acceptor molecule, acceptor atom, score
      L1  H    10    31       P1  7948  1.00
      P1  H  7989  7998       L1    17  1.00

> <Gold.PLP.Chemscore.Internal.Correction>
0.0169

> <Gold.Rescore>
     Score         DG    S(hbond)    S(metal)    S(lipo)     H(rot)  DE(clash)    DE(int)     intcor
     14.92     -17.90       1.92        0.00      87.78       1.67       0.14       2.83       ----

> <Gold.Chemscore.Fitness>
14.9230

> <Gold.Chemscore.DG>
-17.9003

> <Gold.Chemscore.ZeroCoef>
-5.4800

> <Gold.Chemscore.Hbond>
1.9202

> <Gold.Chemscore.Metal>
0.0000

> <Gold.Chemscore.Lipo>
87.7842

> <Gold.Chemscore.Internal_Hbond>
0.0000

> <Gold.Chemscore.DEClash>
0.1431

> <Gold.Chemscore.DEInternal>
2.8342

> <Gold.Chemscore.Rot>
1.6657

> <Gold.Chemscore.Internal.Correction>
   9.000000E+99

> <Gold.Chemscore.Hbonds>
donor molecule, donor type, donor heavy atom, donor atom, acceptor molecule, acceptor atom, score
      L1  H    10    31       P1  7948  0.95
      P1  H  7989  7998       L1    17  0.81

> <Gold.Chemscore.Hbond.Weighted>
-6.4136

> <Gold.Chemscore.Metal.Weighted>
-0.0000

> <Gold.Chemscore.Lipo.Weighted>
-10.2708

> <Gold.Chemscore.Internal_Hbond.Weighted>
0.0000

> <Gold.Chemscore.DEClash.Weighted>
0.1431

> <Gold.Chemscore.DEInternal.Weighted>
2.8342

> <Gold.Chemscore.Rot.Weighted>
4.2641

> <Gold.Chemscore.Internal.Correction.Weighted>
   9.000000E+99

> <Gold.Protein.RotatedTorsions>
[ 6907 6896 6895 6894 ] final  -27.07 input  -60.11 | X-H torsion
[ 7974 7965 7964 7962 ] final  -58.62 input  175.53 | X-H torsion
[ 8008 7997 7996 7995 ] final -165.73 input   59.86 | X-H torsion
[ 10167 10162 10161 10158 ] final  -60.41 input  -65.29 | X-H torsion
[ 10718 10713 10712 10709 ] final  -31.32 input   66.30 | X-H torsion
[ 10763 10752 10751 10750 ] final  148.41 input  -60.55 | X-H torsion
[ 11005 11000 10999 10996 ] final  -72.65 input  -57.11 | X-H torsion

> <Gold.Protein.ActiveResidues>
 VAL166  LYS551  ARG553  GLY616  TRP617  ASP618  TYR619  PRO620  LYS621  CYS622 
 ASP623  PHE694  ASN695  SER759  ASP760  ASP761  ALA762  ILE779  LEU786  VAL792 
 PHE793  MET794  SER795  GLU796  ALA797  LYS798  CYS799  TRP800  GLU811  SER814 

> <Gold.Protein.RotatedAtoms>
  151.1520  135.0232  159.8672 H   0  0  0  0  0  0  0  0  0  0  0  0  # atno 6907 bound_to 6896
  152.5452  134.1377  159.8476 H   0  0  0  0  0  0  0  0  0  0  0  0  # atno 6908 bound_to 6896
  151.1464  133.4891  159.2628 H   0  0  0  0  0  0  0  0  0  0  0  0  # atno 6909 bound_to 6896
  145.8372  140.8441  143.0053 H   0  0  0  0  0  0  0  0  0  0  0  0  # atno 7974 bound_to 7965
  155.8539  140.0967  157.1657 H   0  0  0  0  0  0  0  0  0  0  0  0  # atno 8008 bound_to 7997
  154.3987  140.1378  156.3939 H   0  0  0  0  0  0  0  0  0  0  0  0  # atno 8009 bound_to 7997
  155.7931  140.3455  155.5363 H   0  0  0  0  0  0  0  0  0  0  0  0  # atno 8010 bound_to 7997
  140.6073  143.2377  151.5791 H   0  0  0  0  0  0  0  0  0  0  0  0  # atno 10167 bound_to 10162
  156.3887  130.4369  149.7411 H   0  0  0  0  0  0  0  0  0  0  0  0  # atno 10718 bound_to 10713
  154.0543  135.2879  155.3335 H   0  0  0  0  0  0  0  0  0  0  0  0  # atno 10763 bound_to 10752
  154.6849  135.5249  153.8316 H   0  0  0  0  0  0  0  0  0  0  0  0  # atno 10764 bound_to 10752
  153.0548  135.6591  154.0737 H   0  0  0  0  0  0  0  0  0  0  0  0  # atno 10765 bound_to 10752
  141.1611  133.6853  156.7091 H   0  0  0  0  0  0  0  0  0  0  0  0  # atno 11005 bound_to 11000
  144.6736  140.0758  143.7471 LP  0  0  0  0  0  0  0  0  0  0  0  0  # atno 17320 bound_to 7965
  145.9506  139.2731  143.1214 LP  0  0  0  0  0  0  0  0  0  0  0  0  # atno 17321 bound_to 7965
  139.5334  144.2849  152.1199 LP  0  0  0  0  0  0  0  0  0  0  0  0  # atno 17342 bound_to 10162
  140.2041  144.4628  150.6417 LP  0  0  0  0  0  0  0  0  0  0  0  0  # atno 17343 bound_to 10162
  156.4473  130.7890  151.2911 LP  0  0  0  0  0  0  0  0  0  0  0  0  # atno 17370 bound_to 10713
  157.7497  131.0106  150.3313 LP  0  0  0  0  0  0  0  0  0  0  0  0  # atno 17371 bound_to 10713
  140.2901  134.8247  157.4009 LP  0  0  0  0  0  0  0  0  0  0  0  0  # atno 17394 bound_to 11000
  140.1355  134.5040  155.8072 LP  0  0  0  0  0  0  0  0  0  0  0  0  # atno 17395 bound_to 11000

$$$$
