AV-unprocessed.smi:3156|AV-procd|sdf|12029|dock2
  -GOLD-   2272017443D 1   1.00000     0.00000
 Structure written by MMmdl.
 41 42  0  0  0  0  0  0  0  0  2 V2000
  149.0620  140.9256  157.8217 C   0  0  0  0  0  0  0  0  0  0  0  0
  150.3608  141.5886  157.3222 C   0  0  2  0  0  0  0  0  0  0  0  0
  150.3200  143.0486  157.5780 N   0  3  0  0  0  0  0  0  0  0  0  0
  151.6125  143.7556  157.4590 C   0  0  0  0  0  0  0  0  0  0  0  0
  152.3691  143.7386  158.7941 C   0  0  2  0  0  0  0  0  0  0  0  0
  152.7690  142.3093  159.2088 C   0  0  0  0  0  0  0  0  0  0  0  0
  153.4469  142.3167  160.5836 C   0  0  0  0  0  0  0  0  0  0  0  0
  152.5508  143.0359  161.5971 C   0  0  0  0  0  0  0  0  0  0  0  0
  152.1489  144.4212  161.0665 C   0  0  0  0  0  0  0  0  0  0  0  0
  151.5168  144.2900  159.7961 O   0  0  0  0  0  0  0  0  0  0  0  0
  150.6157  141.3225  155.8120 C   0  0  2  0  0  0  0  0  0  0  0  0
  149.4194  141.7006  154.9186 C   0  0  0  0  0  0  0  0  0  0  0  0
  150.9899  139.9353  155.5544 N   0  0  0  0  0  0  0  0  0  0  0  0
  151.3677  138.9731  156.4685 C   0  0  0  0  0  0  0  0  0  0  0  0
  151.6441  137.8322  155.7716 C   0  0  0  0  0  0  0  0  0  0  0  0
  151.4186  138.2007  154.4163 C   0  0  0  0  0  0  0  0  0  0  0  0
  151.0336  139.4600  154.2887 N   0  0  0  0  0  0  0  0  0  0  0  0
  149.0915  139.8429  157.7051 H   0  0  0  0  0  0  0  0  0  0  0  0
  148.1927  141.2960  157.2776 H   0  0  0  0  0  0  0  0  0  0  0  0
  148.8936  141.1136  158.8815 H   0  0  0  0  0  0  0  0  0  0  0  0
  151.1972  141.1718  157.8856 H   0  0  0  0  0  0  0  0  0  0  0  0
  149.7011  143.4505  156.8878 H   0  0  0  0  0  0  0  0  0  0  0  0
  152.2220  143.3038  156.6765 H   0  0  0  0  0  0  0  0  0  0  0  0
  151.4224  144.7887  157.1651 H   0  0  0  0  0  0  0  0  0  0  0  0
  153.2668  144.3534  158.7015 H   0  0  0  0  0  0  0  0  0  0  0  0
  151.8826  141.6742  159.2437 H   0  0  0  0  0  0  0  0  0  0  0  0
  153.4377  141.8716  158.4670 H   0  0  0  0  0  0  0  0  0  0  0  0
  153.6526  141.2978  160.9130 H   0  0  0  0  0  0  0  0  0  0  0  0
  154.4090  142.8259  160.5165 H   0  0  0  0  0  0  0  0  0  0  0  0
  151.6544  142.4422  161.7799 H   0  0  0  0  0  0  0  0  0  0  0  0
  153.0641  143.1315  162.5543 H   0  0  0  0  0  0  0  0  0  0  0  0
  151.4552  144.9001  161.7574 H   0  0  0  0  0  0  0  0  0  0  0  0
  153.0192  145.0745  160.9862 H   0  0  0  0  0  0  0  0  0  0  0  0
  151.4636  141.9359  155.5025 H   0  0  0  0  0  0  0  0  0  0  0  0
  149.2118  142.7696  154.9476 H   0  0  0  0  0  0  0  0  0  0  0  0
  148.5134  141.1748  155.2217 H   0  0  0  0  0  0  0  0  0  0  0  0
  149.6154  141.4456  153.8766 H   0  0  0  0  0  0  0  0  0  0  0  0
  151.4069  139.1768  157.5286 H   0  0  0  0  0  0  0  0  0  0  0  0
  151.9651  136.8804  156.1688 H   0  0  0  0  0  0  0  0  0  0  0  0
  151.5244  137.5956  153.5278 H   0  0  0  0  0  0  0  0  0  0  0  0
  149.9286  143.2175  158.4936 H   0  0  0  0  0  0  0  0  0  0  0  0
  1  2  1  0  0  0  0
  1 18  1  0  0  0  0
  1 19  1  0  0  0  0
  1 20  1  0  0  0  0
  2  3  1  0  0  0  0
  2 11  1  0  0  0  0
  2 21  1  0  0  0  0
  3  4  1  0  0  0  0
  3 22  1  0  0  0  0
  3 41  1  0  0  0  0
  4  5  1  0  0  0  0
  4 23  1  0  0  0  0
  4 24  1  0  0  0  0
  5 10  1  0  0  0  0
  5  6  1  0  0  0  0
  5 25  1  0  0  0  0
  6  7  1  0  0  0  0
  6 26  1  0  0  0  0
  6 27  1  0  0  0  0
  7  8  1  0  0  0  0
  7 28  1  0  0  0  0
  7 29  1  0  0  0  0
  8  9  1  0  0  0  0
  8 30  1  0  0  0  0
  8 31  1  0  0  0  0
  9 10  1  0  0  0  0
  9 32  1  0  0  0  0
  9 33  1  0  0  0  0
 11 12  1  0  0  0  0
 11 13  1  0  0  0  0
 11 34  1  0  0  0  0
 12 35  1  0  0  0  0
 12 36  1  0  0  0  0
 12 37  1  0  0  0  0
 13 17  1  0  0  0  0
 13 14  1  0  0  0  0
 14 15  2  0  0  0  0
 14 38  1  0  0  0  0
 15 16  1  0  0  0  0
 15 39  1  0  0  0  0
 16 17  2  0  0  0  0
 16 40  1  0  0  0  0
M  CHG  1   3   1
M  END
> <s_m_source_file>
AV-unprocessed.smi

> <i_m_source_file_index>
3156

> <i_lp_mmshare_version>
43012

> <i_f3d_flags>
0

> <s_epik_input>
bjFbY0hdW2NIXVtjSF1uMVtDQEBIXShbQ0gzXSlbQ0BIXShbQ0gzXSlbTkhdW0NIMl1bQ0BASF0yW0NIMl1bQ0gyXVtDSDJdW0NIMl1PMg==

> <s_epik_cmdline>
J2VwaWtfcHl0aG9uJywgJy1waCcsICc3LjAnLCAnLXRuJywgJzgnLCAnLW1hJywgJzIwMCcsICctbWV0YWxfYmluZGluZycsICctaW1hZScsICc8aW5maWxlLm1hZT4nLCAnLW9tYWUnLCAnPG91dGZpbGUubWFlPic=

> <r_lp_tautomer_probability>
1

> <r_epik_Ionization_Penalty>
0.00658015

> <r_epik_Ionization_Penalty_Charging>
0.00656881

> <r_epik_Ionization_Penalty_Neutral>
1.13431e-05

> <r_epik_State_Penalty>
0.0048654

> <r_epik_Charging_Adjusted_Penalty>
0.0114342

> <i_epik_Tot_Q>
1

> <i_epik_Tot_abs_Q>
1

> <r_epik_Metal_State_Penalty>
-0

> <b_epik_Metal_Only>
0

> <s_lp_Force_Field>
OPLS_2005

> <r_lp_Energy>
17.2589

> <b_lp_Chiralities_Consistent>
1

> <s_lp_Variant>
AV-unprocessed.smi:3156-1

> <Gold.Version>
5.8.1

> <Gold.Id.Protein>
6NUR|6NUR_protein|mol2

> <Gold.PLP.Fitness>
51.9199

> <Gold.PLP.PLP>
-41.8681

> <Gold.PLP.part.hbond>
-2.0000

> <Gold.PLP.part.metal>
0.0000

> <Gold.PLP.part.buried>
-4.1357

> <Gold.PLP.part.nonpolar>
-35.6993

> <Gold.PLP.part.repulsive>
0.2277

> <Gold.PLP.ligand.clash>
0.0000

> <Gold.PLP.ligand.torsion>
0.7588

> <Gold.PLP.Chemscore.Hbond>
3.0000

> <Gold.PLP.Chemscore.CHOScore>
0.8146

> <Gold.PLP.Chemscore.Metal>
0.0000

> <Gold.Chemscore.Hbonds>
donor molecule, donor type, donor heavy atom, donor atom, acceptor molecule, acceptor atom, score
      L1  H     3    22       P1  8028  2.00
      P1  H  7989  7998       L1    17  1.00
      L1  C    16    40       P1  7949  0.78

> <Gold.PLP.Chemscore.Internal.Correction>
0.1256

> <Gold.Rescore>
     Score         DG    S(hbond)    S(metal)    S(lipo)     H(rot)  DE(clash)    DE(int)     intcor
     20.18     -20.99       1.81        0.00     115.88       1.59       0.30       0.50       ----

> <Gold.Chemscore.Fitness>
20.1840

> <Gold.Chemscore.DG>
-20.9933

> <Gold.Chemscore.ZeroCoef>
-5.4800

> <Gold.Chemscore.Hbond>
1.8071

> <Gold.Chemscore.Metal>
0.0000

> <Gold.Chemscore.Lipo>
115.8784

> <Gold.Chemscore.Internal_Hbond>
0.0000

> <Gold.Chemscore.DEClash>
0.3044

> <Gold.Chemscore.DEInternal>
0.5048

> <Gold.Chemscore.Rot>
1.5938

> <Gold.Chemscore.Internal.Correction>
   9.000000E+99

> <Gold.Chemscore.Hbonds>
donor molecule, donor type, donor heavy atom, donor atom, acceptor molecule, acceptor atom, score
      L1  H     3    22       P1  8028  0.98
      P1  H  7989  7998       L1    17  0.26

> <Gold.Chemscore.Hbond.Weighted>
-6.0358

> <Gold.Chemscore.Metal.Weighted>
-0.0000

> <Gold.Chemscore.Lipo.Weighted>
-13.5578

> <Gold.Chemscore.Internal_Hbond.Weighted>
0.0000

> <Gold.Chemscore.DEClash.Weighted>
0.3044

> <Gold.Chemscore.DEInternal.Weighted>
0.5048

> <Gold.Chemscore.Rot.Weighted>
4.0802

> <Gold.Chemscore.Internal.Correction.Weighted>
   9.000000E+99

> <Gold.Protein.RotatedTorsions>
[ 6907 6896 6895 6894 ] final  -53.02 input  -60.11 | X-H torsion
[ 7974 7965 7964 7962 ] final -151.58 input  175.53 | X-H torsion
[ 8008 7997 7996 7995 ] final  140.79 input   59.86 | X-H torsion
[ 10167 10162 10161 10158 ] final  -85.74 input  -65.29 | X-H torsion
[ 10718 10713 10712 10709 ] final   87.79 input   66.30 | X-H torsion
[ 10763 10752 10751 10750 ] final   93.30 input  -60.55 | X-H torsion
[ 11005 11000 10999 10996 ] final -127.23 input  -57.11 | X-H torsion

> <Gold.Protein.ActiveResidues>
 VAL166  LYS551  ARG553  GLY616  TRP617  ASP618  TYR619  PRO620  LYS621  CYS622 
 ASP623  PHE694  ASN695  SER759  ASP760  ASP761  ALA762  ILE779  LEU786  VAL792 
 PHE793  MET794  SER795  GLU796  ALA797  LYS798  CYS799  TRP800  GLU811  SER814 

> <Gold.Protein.RotatedAtoms>
  150.8464  134.7775  159.6973 H   0  0  0  0  0  0  0  0  0  0  0  0  # atno 6907 bound_to 6896
  152.4540  134.5329  159.9826 H   0  0  0  0  0  0  0  0  0  0  0  0  # atno 6908 bound_to 6896
  151.5458  133.3387  159.2979 H   0  0  0  0  0  0  0  0  0  0  0  0  # atno 6909 bound_to 6896
  144.7842  140.4778  143.5818 H   0  0  0  0  0  0  0  0  0  0  0  0  # atno 7974 bound_to 7965
  156.2974  140.2332  156.4459 H   0  0  0  0  0  0  0  0  0  0  0  0  # atno 8008 bound_to 7997
  154.8145  140.0441  157.1387 H   0  0  0  0  0  0  0  0  0  0  0  0  # atno 8009 bound_to 7997
  154.9385  140.3026  155.5136 H   0  0  0  0  0  0  0  0  0  0  0  0  # atno 8010 bound_to 7997
  140.4008  143.2663  151.9145 H   0  0  0  0  0  0  0  0  0  0  0  0  # atno 10167 bound_to 10162
  157.6943  131.0269  150.3177 H   0  0  0  0  0  0  0  0  0  0  0  0  # atno 10718 bound_to 10713
  153.2288  135.4330  155.0572 H   0  0  0  0  0  0  0  0  0  0  0  0  # atno 10763 bound_to 10752
  154.8286  135.3374  154.6818 H   0  0  0  0  0  0  0  0  0  0  0  0  # atno 10764 bound_to 10752
  153.7246  135.7015  153.5060 H   0  0  0  0  0  0  0  0  0  0  0  0  # atno 10765 bound_to 10752
  140.9616  134.0928  157.3962 H   0  0  0  0  0  0  0  0  0  0  0  0  # atno 11005 bound_to 11000
  145.5968  139.1500  143.3151 LP  0  0  0  0  0  0  0  0  0  0  0  0  # atno 17320 bound_to 7965
  146.2065  140.6091  142.9079 LP  0  0  0  0  0  0  0  0  0  0  0  0  # atno 17321 bound_to 7965
  139.4785  144.5635  151.8201 LP  0  0  0  0  0  0  0  0  0  0  0  0  # atno 17342 bound_to 10162
  140.4742  144.1543  150.5922 LP  0  0  0  0  0  0  0  0  0  0  0  0  # atno 17343 bound_to 10162
  156.3669  130.3856  149.7207 LP  0  0  0  0  0  0  0  0  0  0  0  0  # atno 17370 bound_to 10713
  156.4634  130.7962  151.2982 LP  0  0  0  0  0  0  0  0  0  0  0  0  # atno 17371 bound_to 10713
  139.8880  135.0094  156.6595 LP  0  0  0  0  0  0  0  0  0  0  0  0  # atno 17394 bound_to 11000
  140.7459  133.8938  155.8311 LP  0  0  0  0  0  0  0  0  0  0  0  0  # atno 17395 bound_to 11000

$$$$
