AV-unprocessed.smi:3237|AV-procd|sdf|12374|dock9
  -GOLD-   2272018233D 1   1.00000     0.00000
 Structure written by MMmdl.
 36 38  0  0  0  0  0  0  0  0  3 V2000
  136.3958  136.9468  154.9734 C   0  0  0  0  0  0  0  0  0  0  0  0
  137.8704  136.7443  155.0423 C   0  0  0  0  0  0  0  0  0  0  0  0
  138.8559  136.7552  154.0959 C   0  0  0  0  0  0  0  0  0  0  0  0
  140.0296  136.4900  154.8507 C   0  0  0  0  0  0  0  0  0  0  0  0
  141.2976  136.4179  154.2153 N   0  0  0  0  0  0  0  0  0  0  0  0
  142.5010  136.1624  154.7606 C   0  0  0  0  0  0  0  0  0  0  0  0
  142.6025  135.9416  155.9730 O   0  0  0  0  0  0  0  0  0  0  0  0
  143.5005  136.1864  153.8360 N   0  5  0  0  0  0  0  0  0  0  0  0
  143.3497  135.8205  152.4265 C   0  0  1  0  0  0  0  0  0  0  0  0
  144.6035  136.1559  151.6176 C   0  0  0  0  0  0  0  0  0  0  0  0
  144.5910  135.1459  150.4612 C   0  0  0  0  0  0  0  0  0  0  0  0
  143.6384  134.0758  150.8405 N   0  3  1  0  0  0  0  0  0  0  0  0
  144.1182  132.7051  150.5618 C   0  0  0  0  0  0  0  0  0  0  0  0
  145.6105  132.5452  150.7268 C   0  0  0  0  0  0  0  0  0  0  0  0
  145.0031  132.6095  149.3421 C   0  0  0  0  0  0  0  0  0  0  0  0
  143.2461  134.3075  152.2447 C   0  0  0  0  0  0  0  0  0  0  0  0
  139.7812  136.3320  156.1424 N   0  0  0  0  0  0  0  0  0  0  0  0
  138.3967  136.4935  156.2715 O   0  0  0  0  0  0  0  0  0  0  0  0
  136.0872  137.2238  153.9652 H   0  0  0  0  0  0  0  0  0  0  0  0
  136.0821  137.7399  155.6523 H   0  0  0  0  0  0  0  0  0  0  0  0
  135.8674  136.0346  155.2502 H   0  0  0  0  0  0  0  0  0  0  0  0
  138.7522  136.9261  153.0348 H   0  0  0  0  0  0  0  0  0  0  0  0
  141.2953  136.5851  153.2202 H   0  0  0  0  0  0  0  0  0  0  0  0
  142.4895  136.2852  151.9417 H   0  0  0  0  0  0  0  0  0  0  0  0
  144.6115  137.1897  151.2705 H   0  0  0  0  0  0  0  0  0  0  0  0
  145.5017  136.0019  152.2186 H   0  0  0  0  0  0  0  0  0  0  0  0
  144.2524  135.6058  149.5315 H   0  0  0  0  0  0  0  0  0  0  0  0
  145.5941  134.7539  150.2849 H   0  0  0  0  0  0  0  0  0  0  0  0
  143.4425  131.8920  150.8214 H   0  0  0  0  0  0  0  0  0  0  0  0
  146.1868  133.4052  151.0638 H   0  0  0  0  0  0  0  0  0  0  0  0
  145.9768  131.5785  151.0664 H   0  0  0  0  0  0  0  0  0  0  0  0
  144.9720  131.6849  148.7691 H   0  0  0  0  0  0  0  0  0  0  0  0
  145.1742  133.5125  148.7587 H   0  0  0  0  0  0  0  0  0  0  0  0
  143.9448  133.7922  152.9074 H   0  0  0  0  0  0  0  0  0  0  0  0
  142.2441  133.9284  152.4481 H   0  0  0  0  0  0  0  0  0  0  0  0
  142.8071  134.2309  150.2885 H   0  0  0  0  0  0  0  0  0  0  0  0
  1  2  1  0  0  0  0
  1 19  1  0  0  0  0
  1 20  1  0  0  0  0
  1 21  1  0  0  0  0
  2 18  1  0  0  0  0
  2  3  2  0  0  0  0
  3  4  1  0  0  0  0
  3 22  1  0  0  0  0
  4  5  1  0  0  0  0
  4 17  2  0  0  0  0
  5  6  1  0  0  0  0
  5 23  1  0  0  0  0
  6  7  2  0  0  0  0
  6  8  1  0  0  0  0
  8  9  1  0  0  0  0
  9 16  1  0  0  0  0
  9 10  1  0  0  0  0
  9 24  1  0  0  0  0
 10 11  1  0  0  0  0
 10 25  1  0  0  0  0
 10 26  1  0  0  0  0
 11 12  1  0  0  0  0
 11 27  1  0  0  0  0
 11 28  1  0  0  0  0
 12 13  1  0  0  0  0
 12 16  1  0  0  0  0
 12 36  1  0  0  0  0
 13 15  1  0  0  0  0
 13 14  1  0  0  0  0
 13 29  1  0  0  0  0
 14 15  1  0  0  0  0
 14 30  1  0  0  0  0
 14 31  1  0  0  0  0
 15 32  1  0  0  0  0
 15 33  1  0  0  0  0
 16 34  1  0  0  0  0
 16 35  1  0  0  0  0
 17 18  1  0  0  0  0
M  CHG  1   8  -1
M  CHG  1  12   1
M  END
> <s_m_source_file>
AV-unprocessed.smi

> <i_m_source_file_index>
3237

> <i_lp_mmshare_version>
43012

> <i_f3d_flags>
0

> <s_epik_input>
W0NIM11jMVtjSF1jKG5vMSlbTkhdQyg9TylbTkhdW0NAQEhdMltDSDJdW0NIMl1OKFtDSDJdMilbQ0hdM1tDSDJdW0NIMl0z

> <s_epik_cmdline>
J2VwaWtfcHl0aG9uJywgJy1waCcsICc3LjAnLCAnLXRuJywgJzgnLCAnLW1hJywgJzIwMCcsICctbWV0YWxfYmluZGluZycsICctaW1hZScsICc8aW5maWxlLm1hZT4nLCAnLW9tYWUnLCAnPG91dGZpbGUubWFlPic=

> <r_epik_Ionization_Penalty>
6.76456

> <r_epik_Ionization_Penalty_Charging>
6.76456

> <r_epik_Ionization_Penalty_Neutral>
5.76722e-06

> <r_epik_State_Penalty>
6.78919

> <r_epik_Charging_Adjusted_Penalty>
13.5538

> <i_epik_Tot_Q>
0

> <i_epik_Tot_abs_Q>
2

> <r_epik_Metal_State_Penalty>
2.728

> <b_epik_Metal_Only>
1

> <s_lp_Force_Field>
OPLS_2005

> <r_lp_Energy>
31.1689

> <b_lp_Chiralities_Consistent>
1

> <s_lp_Variant>
AV-unprocessed.smi:3237-12

> <Gold.Version>
5.8.1

> <Gold.Id.Protein>
6NUR|6NUR_protein|mol2

> <Gold.PLP.Fitness>
43.4900

> <Gold.PLP.PLP>
-35.1097

> <Gold.PLP.part.hbond>
-3.0000

> <Gold.PLP.part.metal>
0.0000

> <Gold.PLP.part.buried>
-6.9033

> <Gold.PLP.part.nonpolar>
-25.4435

> <Gold.PLP.part.repulsive>
0.1964

> <Gold.PLP.ligand.clash>
0.0000

> <Gold.PLP.ligand.torsion>
0.9529

> <Gold.PLP.Chemscore.Hbond>
3.0000

> <Gold.PLP.Chemscore.CHOScore>
0.0000

> <Gold.PLP.Chemscore.Metal>
0.0000

> <Gold.Chemscore.Hbonds>
donor molecule, donor type, donor heavy atom, donor atom, acceptor molecule, acceptor atom, score
      L1  H    12    36       P1 10186  2.00
      P1  H 11000 11005       L1    17  0.63

> <Gold.PLP.Chemscore.Internal.Correction>
1.2861

> <Gold.Rescore>
     Score         DG    S(hbond)    S(metal)    S(lipo)     H(rot)  DE(clash)    DE(int)     intcor
     15.40     -17.79       1.95        0.00      76.71       1.25       0.00       2.39       ----

> <Gold.Chemscore.Fitness>
15.3971

> <Gold.Chemscore.DG>
-17.7858

> <Gold.Chemscore.ZeroCoef>
-5.4800

> <Gold.Chemscore.Hbond>
1.9526

> <Gold.Chemscore.Metal>
0.0000

> <Gold.Chemscore.Lipo>
76.7102

> <Gold.Chemscore.Internal_Hbond>
0.0000

> <Gold.Chemscore.DEClash>
0.0000

> <Gold.Chemscore.DEInternal>
2.3888

> <Gold.Chemscore.Rot>
1.2464

> <Gold.Chemscore.Internal.Correction>
   9.000000E+99

> <Gold.Chemscore.Hbonds>
donor molecule, donor type, donor heavy atom, donor atom, acceptor molecule, acceptor atom, score
      L1  H    12    36       P1 10186  0.87
      P1  H 11000 11005       L1    17  0.12

> <Gold.Chemscore.Hbond.Weighted>
-6.5216

> <Gold.Chemscore.Metal.Weighted>
-0.0000

> <Gold.Chemscore.Lipo.Weighted>
-8.9751

> <Gold.Chemscore.Internal_Hbond.Weighted>
0.0000

> <Gold.Chemscore.DEClash.Weighted>
0.0000

> <Gold.Chemscore.DEInternal.Weighted>
2.3888

> <Gold.Chemscore.Rot.Weighted>
3.1909

> <Gold.Chemscore.Internal.Correction.Weighted>
   9.000000E+99

> <Gold.Protein.RotatedTorsions>
[ 6907 6896 6895 6894 ] final   64.16 input  -60.11 | X-H torsion
[ 7974 7965 7964 7962 ] final -100.77 input  175.53 | X-H torsion
[ 8008 7997 7996 7995 ] final   12.06 input   59.86 | X-H torsion
[ 10167 10162 10161 10158 ] final  -22.50 input  -65.29 | X-H torsion
[ 10718 10713 10712 10709 ] final  164.68 input   66.30 | X-H torsion
[ 10763 10752 10751 10750 ] final  -99.64 input  -60.55 | X-H torsion
[ 11005 11000 10999 10996 ] final  109.10 input  -57.11 | X-H torsion

> <Gold.Protein.ActiveResidues>
 VAL166  LYS551  ARG553  GLY616  TRP617  ASP618  TYR619  PRO620  LYS621  CYS622 
 ASP623  PHE694  ASN695  SER759  ASP760  ASP761  ALA762  ILE779  LEU786  VAL792 
 PHE793  MET794  SER795  GLU796  ALA797  LYS798  CYS799  TRP800  GLU811  SER814 

> <Gold.Protein.RotatedAtoms>
  152.4310  134.5778  159.9939 H   0  0  0  0  0  0  0  0  0  0  0  0  # atno 6907 bound_to 6896
  151.5901  133.3362  159.3034 H   0  0  0  0  0  0  0  0  0  0  0  0  # atno 6908 bound_to 6896
  150.8203  134.7443  159.6831 H   0  0  0  0  0  0  0  0  0  0  0  0  # atno 6909 bound_to 6896
  145.2902  140.9350  143.2882 H   0  0  0  0  0  0  0  0  0  0  0  0  # atno 7974 bound_to 7965
  154.8154  140.2875  155.5823 H   0  0  0  0  0  0  0  0  0  0  0  0  # atno 8008 bound_to 7997
  156.2992  140.2560  156.2981 H   0  0  0  0  0  0  0  0  0  0  0  0  # atno 8009 bound_to 7997
  154.9399  140.0381  157.2081 H   0  0  0  0  0  0  0  0  0  0  0  0  # atno 8010 bound_to 7997
  140.7286  143.4529  151.0490 H   0  0  0  0  0  0  0  0  0  0  0  0  # atno 10167 bound_to 10162
  157.0909  131.0417  151.2537 H   0  0  0  0  0  0  0  0  0  0  0  0  # atno 10718 bound_to 10713
  154.7514  135.4965  153.9296 H   0  0  0  0  0  0  0  0  0  0  0  0  # atno 10763 bound_to 10752
  153.1148  135.6718  153.9445 H   0  0  0  0  0  0  0  0  0  0  0  0  # atno 10764 bound_to 10752
  153.9194  135.3090  155.3427 H   0  0  0  0  0  0  0  0  0  0  0  0  # atno 10765 bound_to 10752
  139.8856  134.9449  156.6074 H   0  0  0  0  0  0  0  0  0  0  0  0  # atno 11005 bound_to 11000
  144.9179  139.4447  143.6555 LP  0  0  0  0  0  0  0  0  0  0  0  0  # atno 17320 bound_to 7965
  146.3187  139.8023  142.8963 LP  0  0  0  0  0  0  0  0  0  0  0  0  # atno 17321 bound_to 7965
  139.8207  143.7824  152.3176 LP  0  0  0  0  0  0  0  0  0  0  0  0  # atno 17342 bound_to 10162
  139.7906  144.7412  150.9961 LP  0  0  0  0  0  0  0  0  0  0  0  0  # atno 17343 bound_to 10162
  157.4722  130.7715  149.7334 LP  0  0  0  0  0  0  0  0  0  0  0  0  # atno 17370 bound_to 10713
  155.9898  130.3949  150.3056 LP  0  0  0  0  0  0  0  0  0  0  0  0  # atno 17371 bound_to 10713
  140.7838  133.8638  155.8589 LP  0  0  0  0  0  0  0  0  0  0  0  0  # atno 17394 bound_to 11000
  140.9737  134.1497  157.4554 LP  0  0  0  0  0  0  0  0  0  0  0  0  # atno 17395 bound_to 11000

$$$$
