#       Name:                AV-unprocessed.smi:2448
#       Creating user name   scv26
#       Creation time:       Fri Mar 27 13:30:04 2020


#       File generated by GOLD software.
#

@<TRIPOS>MOLECULE
AV-unprocessed.smi:2448
    41    42     1
SMALL
NO_CHARGES


@<TRIPOS>ATOM
      1 ****        -1.9877   1.1024  -2.4861 O.3            1 S1                 0.0000
      2 ****        -1.7934   0.7776  -1.1213 C.3            1 S1                 0.0000
      3 ****        -0.2781   0.7715  -0.8361 C.3            1 S1                 0.0000
      4 ****         0.4052  -0.3400  -1.5037 N.3            1 S1                 0.0000
      5 ****         1.8407  -0.4725  -1.2192 C.3            1 S1                 0.0000
      6 ****         2.1087  -1.2905   0.0706 C.3            1 S1                 0.0000
      7 ****         1.7213  -0.6011   1.3670 C.ar           1 S1                 0.0000
      8 ****         2.4322   0.5350   1.8137 C.ar           1 S1                 0.0000
      9 ****         2.0464   1.1591   3.0176 C.ar           1 S1                 0.0000
     10 ****         1.0090   0.6659   3.7289 N.pl3          1 S1                 1.0000
     11 ****         0.3056  -0.4203   3.3404 C.ar           1 S1                 0.0000
     12 ****         0.6460  -1.0864   2.1454 C.ar           1 S1                 0.0000
     13 ****         2.5486  -1.1147  -2.4310 C.3            1 S1                 0.0000
     14 ****         2.3221  -0.3862  -3.5248 F              1 S1                 0.0000
     15 ****         3.8651  -1.1569  -2.2268 F              1 S1                 0.0000
     16 ****         2.1023  -2.3540  -2.6391 F              1 S1                 0.0000
     17 ****        -2.4925  -0.5543  -0.7946 C.3            1 S1                 0.0000
     18 ****        -4.0024  -0.3000  -0.7731 C.3            1 S1                 0.0000
     19 ****        -4.2661   1.3751  -0.1413 S.3            1 S1                 0.0000
     20 ****        -2.5196   1.8419  -0.2795 C.3            1 S1                 0.0000
     21 ****        -1.6060   0.4192  -3.0157 H              1 S1                 0.0000
     22 ****         0.1592   1.7205  -1.1491 H              1 S1                 0.0000
     23 ****        -0.1354   0.7143   0.2395 H              1 S1                 0.0000
     24 ****         0.2723  -0.2555  -2.5069 H              1 S1                 0.0000
     25 ****         2.2760   0.5209  -1.1018 H              1 S1                 0.0000
     26 ****         1.6065  -2.2569   0.0069 H              1 S1                 0.0000
     27 ****         3.1724  -1.5176   0.1450 H              1 S1                 0.0000
     28 ****         3.2605   0.9258   1.2405 H              1 S1                 0.0000
     29 ****         2.5327   2.0313   3.4296 H              1 S1                 0.0000
     30 ****        -0.5025  -0.7205   3.9916 H              1 S1                 0.0000
     31 ****         0.0822  -1.9522   1.8289 H              1 S1                 0.0000
     32 ****        -2.2325  -1.3463  -1.4981 H              1 S1                 0.0000
     33 ****        -2.1774  -0.8919   0.1938 H              1 S1                 0.0000
     34 ****        -4.4046  -0.3480  -1.7855 H              1 S1                 0.0000
     35 ****        -4.5346  -1.0354  -0.1696 H              1 S1                 0.0000
     36 ****        -2.1165   1.8596   0.7338 H              1 S1                 0.0000
     37 ****        -2.4122   2.8483  -0.6858 H              1 S1                 0.0000
     38 ****         0.7463   1.1326   4.5977 H              1 S1                 0.0000
     39 ****        -1.5445   1.9750  -2.6912 LP             1 S1                 0.0000
     40 ****        -2.9663   1.1719  -2.6799 LP             1 S1                 0.0000
     41 ****        -0.0133  -1.1679  -1.1305 LP             1 S1                 0.0000
@<TRIPOS>BOND
    1    1    2 1     
    2    1   21 1     
    3    2   20 1     
    4    2    3 1     
    5    2   17 1     
    6    3    4 1     
    7    3   22 1     
    8    3   23 1     
    9    4    5 1     
   10    4   24 1     
   11    5    6 1     
   12    5   13 1     
   13    5   25 1     
   14    6    7 1     
   15    6   26 1     
   16    6   27 1     
   17    7   12 ar    
   18    7    8 ar    
   19    8    9 ar    
   20    8   28 1     
   21    9   10 ar    
   22    9   29 1     
   23   10   11 ar    
   24   10   38 1     
   25   11   12 ar    
   26   11   30 1     
   27   12   31 1     
   28   13   14 1     
   29   13   15 1     
   30   13   16 1     
   31   17   18 1     
   32   17   32 1     
   33   17   33 1     
   34   18   19 1     
   35   18   34 1     
   36   18   35 1     
   37   19   20 1     
   38   20   36 1     
   39   20   37 1     
   40    1   39 1     
   41    1   40 1     
   42    4   41 1     
@<TRIPOS>SUBSTRUCTURE
      1 S1             1
@<TRIPOS>SET
LONE_PAIRS      STATIC     ATOMS    <user>   **** ""
3 39 40 41
DONOR_HYDROGENS      STATIC     ATOMS    <user>   **** ""
3 21 24 38
ATOM$BLUE        STATIC     ATOMS    COLORGROUP SYSTEM
3 39 40 41
ATOM$RED        STATIC     ATOMS    COLORGROUP SYSTEM
3 21 24 38
