AV-unprocessed.smi:651|AV-procd|sdf|3191|dock10
  -GOLD-   22720 0113D 1   1.00000     0.00000
 Structure written by MMmdl.
 39 40  0  0  0  0  0  0  0  0  2 V2000
  151.6541  145.0854  159.3849 C   0  0  0  0  0  0  0  0  0  0  0  0
  151.9797  143.6108  159.2763 C   0  0  0  0  0  0  0  0  0  0  0  0
  152.7544  142.9361  160.2441 C   0  0  0  0  0  0  0  0  0  0  0  0
  153.0136  141.5592  160.0816 C   0  0  0  0  0  0  0  0  0  0  0  0
  152.4935  140.8836  158.9554 C   0  0  0  0  0  0  0  0  0  0  0  0
  152.7476  139.3994  158.7556 C   0  0  0  0  0  0  0  0  0  0  0  0
  152.2636  138.9617  157.3732 C   0  0  0  0  0  0  0  0  0  0  0  0
  152.6202  139.5892  156.3769 O   0  0  0  0  0  0  0  0  0  0  0  0
  151.4434  137.8970  157.3361 N   0  0  0  0  0  0  0  0  0  0  0  0
  150.8013  137.3035  156.1589 C   0  0  1  0  0  0  0  0  0  0  0  0
  150.1819  135.9147  156.4219 C   0  0  0  0  0  0  0  0  0  0  0  0
  148.6802  136.0721  156.1808 C   0  0  0  0  0  0  0  0  0  0  0  0
  148.5703  137.2026  155.1598 C   0  0  0  0  0  0  0  0  0  0  0  0
  149.6818  138.1895  155.5494 C   0  0  2  0  0  0  0  0  0  0  0  0
  150.1653  139.0454  154.3692 C   0  0  0  0  0  0  0  0  0  0  0  0
  149.7900  138.6617  153.1465 N   0  0  0  0  0  0  0  0  0  0  0  0
  150.8661  140.0388  154.5547 O   0  0  0  0  0  0  0  0  0  0  0  0
  151.7289  141.6124  158.0177 C   0  0  0  0  0  0  0  0  0  0  0  0
  151.5012  142.9299  158.2110 N   0  3  0  0  0  0  0  0  0  0  0  0
  152.2448  145.5606  160.1686 H   0  0  0  0  0  0  0  0  0  0  0  0
  150.5986  145.2232  159.6212 H   0  0  0  0  0  0  0  0  0  0  0  0
  151.8662  145.5951  158.4446 H   0  0  0  0  0  0  0  0  0  0  0  0
  153.1448  143.4639  161.1021 H   0  0  0  0  0  0  0  0  0  0  0  0
  153.6033  141.0299  160.8160 H   0  0  0  0  0  0  0  0  0  0  0  0
  153.8150  139.1966  158.8538 H   0  0  0  0  0  0  0  0  0  0  0  0
  152.2433  138.8175  159.5287 H   0  0  0  0  0  0  0  0  0  0  0  0
  151.2258  137.4566  158.2184 H   0  0  0  0  0  0  0  0  0  0  0  0
  151.6058  137.1622  155.4353 H   0  0  0  0  0  0  0  0  0  0  0  0
  150.5862  135.2004  155.7035 H   0  0  0  0  0  0  0  0  0  0  0  0
  150.3963  135.5187  157.4151 H   0  0  0  0  0  0  0  0  0  0  0  0
  148.2124  135.1494  155.8366 H   0  0  0  0  0  0  0  0  0  0  0  0
  148.1866  136.3670  157.1074 H   0  0  0  0  0  0  0  0  0  0  0  0
  148.7308  136.8016  154.1577 H   0  0  0  0  0  0  0  0  0  0  0  0
  147.5835  137.6667  155.1746 H   0  0  0  0  0  0  0  0  0  0  0  0
  149.2709  138.8488  156.3155 H   0  0  0  0  0  0  0  0  0  0  0  0
  150.0790  139.1946  152.3390 H   0  0  0  0  0  0  0  0  0  0  0  0
  149.2134  137.8403  153.0352 H   0  0  0  0  0  0  0  0  0  0  0  0
  151.2893  141.1825  157.1293 H   0  0  0  0  0  0  0  0  0  0  0  0
  150.9411  143.4328  157.5220 H   0  0  0  0  0  0  0  0  0  0  0  0
  1  2  1  0  0  0  0
  1 20  1  0  0  0  0
  1 21  1  0  0  0  0
  1 22  1  0  0  0  0
  2 19  1  0  0  0  0
  2  3  2  0  0  0  0
  3  4  1  0  0  0  0
  3 23  1  0  0  0  0
  4  5  2  0  0  0  0
  4 24  1  0  0  0  0
  5  6  1  0  0  0  0
  5 18  1  0  0  0  0
  6  7  1  0  0  0  0
  6 25  1  0  0  0  0
  6 26  1  0  0  0  0
  7  8  2  0  0  0  0
  7  9  1  0  0  0  0
  9 10  1  0  0  0  0
  9 27  1  0  0  0  0
 10 14  1  0  0  0  0
 10 11  1  0  0  0  0
 10 28  1  0  0  0  0
 11 12  1  0  0  0  0
 11 29  1  0  0  0  0
 11 30  1  0  0  0  0
 12 13  1  0  0  0  0
 12 31  1  0  0  0  0
 12 32  1  0  0  0  0
 13 14  1  0  0  0  0
 13 33  1  0  0  0  0
 13 34  1  0  0  0  0
 14 15  1  0  0  0  0
 14 35  1  0  0  0  0
 15 16  1  0  0  0  0
 15 17  2  0  0  0  0
 16 36  1  0  0  0  0
 16 37  1  0  0  0  0
 18 19  2  0  0  0  0
 18 38  1  0  0  0  0
 19 39  1  0  0  0  0
M  CHG  1  19   1
M  END
> <s_m_source_file>
AV-unprocessed.smi

> <i_m_source_file_index>
651

> <i_lp_mmshare_version>
43012

> <i_f3d_flags>
0

> <s_epik_input>
W0NIM11jMVtjSF1bY0hdYyhbY0hdbjEpW0NIMl1DKD1PKVtOSF1bQ0BASF0yW0NIMl1bQ0gyXVtDSDJdW0NASF0yQyg9TylbTkgyXQ==

> <s_epik_cmdline>
J2VwaWtfcHl0aG9uJywgJy1waCcsICc3LjAnLCAnLXRuJywgJzgnLCAnLW1hJywgJzIwMCcsICctbWV0YWxfYmluZGluZycsICctaW1hZScsICc8aW5maWxlLm1hZT4nLCAnLW9tYWUnLCAnPG91dGZpbGUubWFlPic=

> <r_epik_Ionization_Penalty>
2.14971

> <r_epik_Ionization_Penalty_Charging>
2.14971

> <r_epik_Ionization_Penalty_Neutral>
1.65229e-07

> <r_epik_State_Penalty>
2.28946

> <r_epik_Charging_Adjusted_Penalty>
4.43917

> <i_epik_Tot_Q>
1

> <i_epik_Tot_abs_Q>
1

> <r_epik_Metal_State_Penalty>
2.30508

> <b_epik_Metal_Only>
0

> <s_lp_Force_Field>
OPLS_2005

> <r_lp_Energy>
21.472

> <b_lp_Chiralities_Consistent>
1

> <s_lp_Variant>
AV-unprocessed.smi:651-8

> <Gold.Version>
5.8.1

> <Gold.Id.Protein>
6NUR|6NUR_protein|mol2

> <Gold.PLP.Fitness>
43.8663

> <Gold.PLP.PLP>
-33.7974

> <Gold.PLP.part.hbond>
-3.7767

> <Gold.PLP.part.metal>
0.0000

> <Gold.PLP.part.buried>
-5.0629

> <Gold.PLP.part.nonpolar>
-24.6098

> <Gold.PLP.part.repulsive>
0.2848

> <Gold.PLP.ligand.clash>
0.0000

> <Gold.PLP.ligand.torsion>
0.5979

> <Gold.PLP.Chemscore.Hbond>
3.7520

> <Gold.PLP.Chemscore.CHOScore>
0.0000

> <Gold.PLP.Chemscore.Metal>
0.0000

> <Gold.Chemscore.Hbonds>
donor molecule, donor type, donor heavy atom, donor atom, acceptor molecule, acceptor atom, score
      L1  H    16    36       P1  7957  0.87
      L1  H    16    37       P1  7948  0.82
      P1  H  7989  7998       L1    17  1.00
      P1  H  7997  8009       L1     8  1.00

> <Gold.PLP.Chemscore.Internal.Correction>
0.0088

> <Gold.Rescore>
     Score         DG    S(hbond)    S(metal)    S(lipo)     H(rot)  DE(clash)    DE(int)     intcor
     20.51     -22.88       3.73        0.00      86.77       2.04       0.05       2.32       ----

> <Gold.Chemscore.Fitness>
20.5073

> <Gold.Chemscore.DG>
-22.8817

> <Gold.Chemscore.ZeroCoef>
-5.4800

> <Gold.Chemscore.Hbond>
3.7329

> <Gold.Chemscore.Metal>
0.0000

> <Gold.Chemscore.Lipo>
86.7744

> <Gold.Chemscore.Internal_Hbond>
0.0000

> <Gold.Chemscore.DEClash>
0.0504

> <Gold.Chemscore.DEInternal>
2.3239

> <Gold.Chemscore.Rot>
2.0386

> <Gold.Chemscore.Internal.Correction>
   9.000000E+99

> <Gold.Chemscore.Hbonds>
donor molecule, donor type, donor heavy atom, donor atom, acceptor molecule, acceptor atom, score
      L1  H    16    36       P1  7957  0.41
      L1  H    16    37       P1  7948  0.78
      P1  H  7989  7998       L1    17  0.94
      P1  H  7997  8009       L1     8  0.78

> <Gold.Chemscore.Hbond.Weighted>
-12.4679

> <Gold.Chemscore.Metal.Weighted>
-0.0000

> <Gold.Chemscore.Lipo.Weighted>
-10.1526

> <Gold.Chemscore.Internal_Hbond.Weighted>
0.0000

> <Gold.Chemscore.DEClash.Weighted>
0.0504

> <Gold.Chemscore.DEInternal.Weighted>
2.3239

> <Gold.Chemscore.Rot.Weighted>
5.2188

> <Gold.Chemscore.Internal.Correction.Weighted>
   9.000000E+99

> <Gold.Protein.RotatedTorsions>
[ 6907 6896 6895 6894 ] final -122.15 input  -60.11 | X-H torsion
[ 7974 7965 7964 7962 ] final -113.69 input  175.53 | X-H torsion
[ 8008 7997 7996 7995 ] final -172.86 input   59.86 | X-H torsion
[ 10167 10162 10161 10158 ] final -108.80 input  -65.29 | X-H torsion
[ 10718 10713 10712 10709 ] final  -52.45 input   66.30 | X-H torsion
[ 10763 10752 10751 10750 ] final  -82.16 input  -60.55 | X-H torsion
[ 11005 11000 10999 10996 ] final   -8.88 input  -57.11 | X-H torsion

> <Gold.Protein.ActiveResidues>
 VAL166  LYS551  ARG553  GLY616  TRP617  ASP618  TYR619  PRO620  LYS621  CYS622 
 ASP623  PHE694  ASN695  SER759  ASP760  ASP761  ALA762  ILE779  LEU786  VAL792 
 PHE793  MET794  SER795  GLU796  ALA797  LYS798  CYS799  TRP800  GLU811  SER814 

> <Gold.Protein.RotatedAtoms>
  150.8549  133.7731  159.3012 H   0  0  0  0  0  0  0  0  0  0  0  0  # atno 6907 bound_to 6896
  151.5391  135.1067  159.9931 H   0  0  0  0  0  0  0  0  0  0  0  0  # atno 6908 bound_to 6896
  152.4582  133.7723  159.6861 H   0  0  0  0  0  0  0  0  0  0  0  0  # atno 6909 bound_to 6896
  145.1290  140.8713  143.3769 H   0  0  0  0  0  0  0  0  0  0  0  0  # atno 7974 bound_to 7965
  155.9501  140.1124  157.0984 H   0  0  0  0  0  0  0  0  0  0  0  0  # atno 8008 bound_to 7997
  154.4107  140.1202  156.5107 H   0  0  0  0  0  0  0  0  0  0  0  0  # atno 8009 bound_to 7997
  155.6853  140.3473  155.4874 H   0  0  0  0  0  0  0  0  0  0  0  0  # atno 8010 bound_to 7997
  140.1622  143.4111  152.1417 H   0  0  0  0  0  0  0  0  0  0  0  0  # atno 10167 bound_to 10162
  156.1620  130.4149  149.9778 H   0  0  0  0  0  0  0  0  0  0  0  0  # atno 10718 bound_to 10713
  154.5724  135.5601  153.7107 H   0  0  0  0  0  0  0  0  0  0  0  0  # atno 10763 bound_to 10752
  153.0053  135.6300  154.2096 H   0  0  0  0  0  0  0  0  0  0  0  0  # atno 10764 bound_to 10752
  154.2036  135.2877  155.2962 H   0  0  0  0  0  0  0  0  0  0  0  0  # atno 10765 bound_to 10752
  140.7282  133.8771  155.8872 H   0  0  0  0  0  0  0  0  0  0  0  0  # atno 11005 bound_to 11000
  145.0656  139.3071  143.5858 LP  0  0  0  0  0  0  0  0  0  0  0  0  # atno 17320 bound_to 7965
  146.3515  140.0113  142.8667 LP  0  0  0  0  0  0  0  0  0  0  0  0  # atno 17321 bound_to 7965
  139.5376  144.7225  151.4841 LP  0  0  0  0  0  0  0  0  0  0  0  0  # atno 17342 bound_to 10162
  140.6636  143.8447  150.6915 LP  0  0  0  0  0  0  0  0  0  0  0  0  # atno 17343 bound_to 10162
  156.7604  130.9149  151.3641 LP  0  0  0  0  0  0  0  0  0  0  0  0  # atno 17370 bound_to 10713
  157.6740  130.9077  150.0106 LP  0  0  0  0  0  0  0  0  0  0  0  0  # atno 17371 bound_to 10713
  140.9944  134.1234  157.4377 LP  0  0  0  0  0  0  0  0  0  0  0  0  # atno 17394 bound_to 11000
  139.8832  135.0050  156.6286 LP  0  0  0  0  0  0  0  0  0  0  0  0  # atno 17395 bound_to 11000

$$$$
