AV-unprocessed.smi:3275|AV-procd|sdf|12531|dock3
  -GOLD-   2272018443D 1   1.00000     0.00000
 Structure written by MMmdl.
 35 36  0  0  0  0  0  0  0  0  2 V2000
  153.3640  138.8457  155.9275 O   0  0  0  0  0  0  0  0  0  0  0  0
  152.7999  138.6224  154.6534 C   0  0  0  0  0  0  0  0  0  0  0  0
  151.2713  138.6700  154.7434 C   0  0  0  0  0  0  0  0  0  0  0  0
  150.8578  140.0285  154.7364 O   0  0  0  0  0  0  0  0  0  0  0  0
  149.4501  140.2170  154.7987 C   0  0  1  0  0  0  0  0  0  0  0  0
  149.0764  141.7064  154.6433 C   0  0  0  0  0  0  0  0  0  0  0  0
  147.5507  141.8690  154.5457 C   0  0  0  0  0  0  0  0  0  0  0  0
  146.9702  140.9913  153.4243 C   0  0  0  0  0  0  0  0  0  0  0  0
  147.3830  139.6007  153.5945 N   0  0  0  0  0  0  0  0  0  0  0  0
  146.6387  138.6875  152.8262 C   0  0  0  0  0  0  0  0  0  0  0  0
  146.7918  138.6082  151.4191 C   0  0  0  0  0  0  0  0  0  0  0  0
  146.0185  137.6881  150.6831 C   0  0  0  0  0  0  0  0  0  0  0  0
  145.1378  136.8889  151.3204 N   0  3  0  0  0  0  0  0  0  0  0  0
  144.9560  136.9246  152.6572 C   0  0  0  0  0  0  0  0  0  0  0  0
  145.7004  137.8231  153.4488 C   0  0  0  0  0  0  0  0  0  0  0  0
  145.4641  137.8221  155.1623 Cl  0  0  0  0  0  0  0  0  0  0  0  0
  148.8282  139.3926  153.6572 C   0  0  0  0  0  0  0  0  0  0  0  0
  152.6714  139.0810  156.5257 H   0  0  0  0  0  0  0  0  0  0  0  0
  153.1667  139.3816  153.9624 H   0  0  0  0  0  0  0  0  0  0  0  0
  153.1312  137.6527  154.2814 H   0  0  0  0  0  0  0  0  0  0  0  0
  150.8320  138.1410  153.8963 H   0  0  0  0  0  0  0  0  0  0  0  0
  150.9391  138.1710  155.6539 H   0  0  0  0  0  0  0  0  0  0  0  0
  149.0647  139.8353  155.7462 H   0  0  0  0  0  0  0  0  0  0  0  0
  149.4492  142.2932  155.4821 H   0  0  0  0  0  0  0  0  0  0  0  0
  149.5447  142.1110  153.7452 H   0  0  0  0  0  0  0  0  0  0  0  0
  147.0939  141.5925  155.4969 H   0  0  0  0  0  0  0  0  0  0  0  0
  147.2954  142.9145  154.3717 H   0  0  0  0  0  0  0  0  0  0  0  0
  145.8831  141.0753  153.4174 H   0  0  0  0  0  0  0  0  0  0  0  0
  147.3196  141.3476  152.4542 H   0  0  0  0  0  0  0  0  0  0  0  0
  147.4846  139.2491  150.8942 H   0  0  0  0  0  0  0  0  0  0  0  0
  146.0760  137.5714  149.6107 H   0  0  0  0  0  0  0  0  0  0  0  0
  144.2276  136.2327  153.0540 H   0  0  0  0  0  0  0  0  0  0  0  0
  149.2799  139.6880  152.7094 H   0  0  0  0  0  0  0  0  0  0  0  0
  149.0449  138.3336  153.8043 H   0  0  0  0  0  0  0  0  0  0  0  0
  144.5876  136.2293  150.7694 H   0  0  0  0  0  0  0  0  0  0  0  0
  1  2  1  0  0  0  0
  1 18  1  0  0  0  0
  2  3  1  0  0  0  0
  2 19  1  0  0  0  0
  2 20  1  0  0  0  0
  3  4  1  0  0  0  0
  3 21  1  0  0  0  0
  3 22  1  0  0  0  0
  4  5  1  0  0  0  0
  5 17  1  0  0  0  0
  5  6  1  0  0  0  0
  5 23  1  0  0  0  0
  6  7  1  0  0  0  0
  6 24  1  0  0  0  0
  6 25  1  0  0  0  0
  7  8  1  0  0  0  0
  7 26  1  0  0  0  0
  7 27  1  0  0  0  0
  8  9  1  0  0  0  0
  8 28  1  0  0  0  0
  8 29  1  0  0  0  0
  9 10  1  0  0  0  0
  9 17  1  0  0  0  0
 10 15  1  0  0  0  0
 10 11  2  0  0  0  0
 11 12  1  0  0  0  0
 11 30  1  0  0  0  0
 12 13  2  0  0  0  0
 12 31  1  0  0  0  0
 13 14  1  0  0  0  0
 13 35  1  0  0  0  0
 14 15  2  0  0  0  0
 14 32  1  0  0  0  0
 15 16  1  0  0  0  0
 17 33  1  0  0  0  0
 17 34  1  0  0  0  0
M  CHG  1  13   1
M  END
> <s_m_source_file>
AV-unprocessed.smi

> <i_m_source_file_index>
3275

> <i_lp_mmshare_version>
43012

> <i_f3d_flags>
0

> <s_epik_input>
W09IXVtDSDJdW0NIMl1PW0NAQEhdMVtDSDJdW0NIMl1bQ0gyXU4oW0NIMl0xKWMyW2NIXVtjSF1uW2NIXWMyQ2w=

> <s_epik_cmdline>
J2VwaWtfcHl0aG9uJywgJy1waCcsICc3LjAnLCAnLXRuJywgJzgnLCAnLW1hJywgJzIwMCcsICctbWV0YWxfYmluZGluZycsICctaW1hZScsICc8aW5maWxlLm1hZT4nLCAnLW9tYWUnLCAnPG91dGZpbGUubWFlPic=

> <r_lp_tautomer_probability>
1

> <r_epik_Ionization_Penalty>
0.0778579

> <r_epik_Ionization_Penalty_Charging>
0.0778578

> <r_epik_Ionization_Penalty_Neutral>
8.80348e-08

> <r_epik_State_Penalty>
0.0687871

> <r_epik_Charging_Adjusted_Penalty>
0.146645

> <i_epik_Tot_Q>
1

> <i_epik_Tot_abs_Q>
1

> <r_epik_Metal_State_Penalty>
2.85646

> <b_epik_Metal_Only>
0

> <s_lp_Force_Field>
OPLS_2005

> <r_lp_Energy>
26.1135

> <b_lp_Chiralities_Consistent>
1

> <s_lp_Variant>
AV-unprocessed.smi:3275-2

> <Gold.Version>
5.8.1

> <Gold.Id.Protein>
6NUR|6NUR_protein|mol2

> <Gold.PLP.Fitness>
36.2497

> <Gold.PLP.PLP>
-30.5047

> <Gold.PLP.part.hbond>
-3.0000

> <Gold.PLP.part.metal>
0.0000

> <Gold.PLP.part.buried>
7.1099

> <Gold.PLP.part.nonpolar>
-35.0373

> <Gold.PLP.part.repulsive>
0.3153

> <Gold.PLP.ligand.clash>
0.0000

> <Gold.PLP.ligand.torsion>
0.2859

> <Gold.PLP.Chemscore.Hbond>
2.0000

> <Gold.PLP.Chemscore.CHOScore>
0.0000

> <Gold.PLP.Chemscore.Metal>
0.0000

> <Gold.Chemscore.Hbonds>
donor molecule, donor type, donor heavy atom, donor atom, acceptor molecule, acceptor atom, score
      P1  H  7989  7998       L1     4  1.00
      P1  H  7997  8010       L1     1  0.95

> <Gold.PLP.Chemscore.Internal.Correction>
0.3168

> <Gold.Rescore>
     Score         DG    S(hbond)    S(metal)    S(lipo)     H(rot)  DE(clash)    DE(int)     intcor
     13.18     -16.55       1.84        0.00      88.90       2.14       3.02       0.34       ----

> <Gold.Chemscore.Fitness>
13.1838

> <Gold.Chemscore.DG>
-16.5456

> <Gold.Chemscore.ZeroCoef>
-5.4800

> <Gold.Chemscore.Hbond>
1.8391

> <Gold.Chemscore.Metal>
0.0000

> <Gold.Chemscore.Lipo>
88.8995

> <Gold.Chemscore.Internal_Hbond>
0.0000

> <Gold.Chemscore.DEClash>
3.0174

> <Gold.Chemscore.DEInternal>
0.3445

> <Gold.Chemscore.Rot>
2.1400

> <Gold.Chemscore.Internal.Correction>
   9.000000E+99

> <Gold.Chemscore.Hbonds>
donor molecule, donor type, donor heavy atom, donor atom, acceptor molecule, acceptor atom, score
      P1  H  7989  7998       L1     4  0.67
      P1  H  7997  8010       L1     1  0.20

> <Gold.Chemscore.Hbond.Weighted>
-6.1427

> <Gold.Chemscore.Metal.Weighted>
-0.0000

> <Gold.Chemscore.Lipo.Weighted>
-10.4012

> <Gold.Chemscore.Internal_Hbond.Weighted>
0.0000

> <Gold.Chemscore.DEClash.Weighted>
3.0174

> <Gold.Chemscore.DEInternal.Weighted>
0.3445

> <Gold.Chemscore.Rot.Weighted>
5.4783

> <Gold.Chemscore.Internal.Correction.Weighted>
   9.000000E+99

> <Gold.Protein.RotatedTorsions>
[ 6907 6896 6895 6894 ] final  -29.92 input  -60.11 | X-H torsion
[ 7974 7965 7964 7962 ] final -174.60 input  175.53 | X-H torsion
[ 8008 7997 7996 7995 ] final   85.44 input   59.86 | X-H torsion
[ 10167 10162 10161 10158 ] final   51.97 input  -65.29 | X-H torsion
[ 10718 10713 10712 10709 ] final  135.19 input   66.30 | X-H torsion
[ 10763 10752 10751 10750 ] final   49.42 input  -60.55 | X-H torsion
[ 11005 11000 10999 10996 ] final   12.40 input  -57.11 | X-H torsion

> <Gold.Protein.ActiveResidues>
 VAL166  LYS551  ARG553  GLY616  TRP617  ASP618  TYR619  PRO620  LYS621  CYS622 
 ASP623  PHE694  ASN695  SER759  ASP760  ASP761  ALA762  ILE779  LEU786  VAL792 
 PHE793  MET794  SER795  GLU796  ALA797  LYS798  CYS799  TRP800  GLU811  SER814 

> <Gold.Protein.RotatedAtoms>
  151.1125  135.0035  159.8500 H   0  0  0  0  0  0  0  0  0  0  0  0  # atno 6907 bound_to 6896
  152.5444  134.1818  159.8649 H   0  0  0  0  0  0  0  0  0  0  0  0  # atno 6908 bound_to 6896
  151.1870  133.4646  159.2627 H   0  0  0  0  0  0  0  0  0  0  0  0  # atno 6909 bound_to 6896
  144.7131  140.1447  143.6389 H   0  0  0  0  0  0  0  0  0  0  0  0  # atno 7974 bound_to 7965
  155.9500  140.3401  155.6400 H   0  0  0  0  0  0  0  0  0  0  0  0  # atno 8008 bound_to 7997
  155.6932  140.0751  157.2458 H   0  0  0  0  0  0  0  0  0  0  0  0  # atno 8009 bound_to 7997
  154.4120  140.1653  156.2097 H   0  0  0  0  0  0  0  0  0  0  0  0  # atno 8010 bound_to 7997
  140.2563  144.3423  150.6332 H   0  0  0  0  0  0  0  0  0  0  0  0  # atno 10167 bound_to 10162
  157.4596  131.1072  150.9936 H   0  0  0  0  0  0  0  0  0  0  0  0  # atno 10718 bound_to 10713
  152.9787  135.5912  154.4087 H   0  0  0  0  0  0  0  0  0  0  0  0  # atno 10763 bound_to 10752
  154.3725  135.2767  155.2260 H   0  0  0  0  0  0  0  0  0  0  0  0  # atno 10764 bound_to 10752
  154.4209  135.6059  153.6064 H   0  0  0  0  0  0  0  0  0  0  0  0  # atno 10765 bound_to 10752
  140.4924  134.0827  155.7774 H   0  0  0  0  0  0  0  0  0  0  0  0  # atno 11005 bound_to 11000
  145.9170  139.2522  143.1404 LP  0  0  0  0  0  0  0  0  0  0  0  0  # atno 17320 bound_to 7965
  145.9658  140.8799  143.0187 LP  0  0  0  0  0  0  0  0  0  0  0  0  # atno 17321 bound_to 7965
  140.6001  143.2167  151.7089 LP  0  0  0  0  0  0  0  0  0  0  0  0  # atno 17342 bound_to 10162
  139.5030  144.3806  152.0379 LP  0  0  0  0  0  0  0  0  0  0  0  0  # atno 17343 bound_to 10162
  157.0738  130.5875  149.5407 LP  0  0  0  0  0  0  0  0  0  0  0  0  # atno 17370 bound_to 10713
  156.0022  130.5104  150.7705 LP  0  0  0  0  0  0  0  0  0  0  0  0  # atno 17371 bound_to 10713
  141.1477  133.9025  157.2174 LP  0  0  0  0  0  0  0  0  0  0  0  0  # atno 17394 bound_to 11000
  139.9761  135.0113  156.9635 LP  0  0  0  0  0  0  0  0  0  0  0  0  # atno 17395 bound_to 11000

$$$$
