#       Name:                AV-unprocessed.smi:2027
#       Creating user name   scv26
#       Creation time:       Fri Mar 27 10:48:08 2020


#       File generated by GOLD software.
#

@<TRIPOS>MOLECULE
AV-unprocessed.smi:2027
    54    56     1
SMALL
NO_CHARGES


@<TRIPOS>ATOM
      1 ****        -1.6421   2.7520  -4.1422 C.3            1 S1                 0.0000
      2 ****        -1.5435   2.3972  -2.6683 C.ar           1 S1                 0.0000
      3 ****        -2.7221   2.4192  -1.8890 C.ar           1 S1                 0.0000
      4 ****        -2.6004   2.0858  -0.5452 C.ar           1 S1                 0.0000
      5 ****        -3.5565   2.0117   0.4703 N.pl3          1 S1                 1.0000
      6 ****        -2.9570   1.6306   1.6324 C.2            1 S1                 0.0000
      7 ****        -1.6323   1.4605   1.3732 N.pl3          1 S1                 0.0000
      8 ****        -0.5412   1.0346   2.2602 C.3            1 S1                 0.0000
      9 ****        -0.1500  -0.4389   2.0404 C.3            1 S1                 0.0000
     10 ****        -1.2733  -1.2590   2.2974 O.3            1 S1                 0.0000
     11 ****         1.0072  -0.8784   2.9622 C.3            1 S1                 0.0000
     12 ****         1.5868  -2.2072   2.7061 N.3            1 S1                 0.0000
     13 ****         2.2163  -2.7055   3.9236 C.3            1 S1                 0.0000
     14 ****         2.5749  -2.2246   1.6178 C.3            1 S1                 0.0000
     15 ****         2.0066  -2.0298   0.2384 C.2            1 S1                 0.0000
     16 ****         2.4256  -1.0909  -0.7468 C.2            1 S1                 0.0000
     17 ****         1.7014  -1.1469  -1.8521 N.2            1 S1                 0.0000
     18 ****         0.8079  -2.1293  -1.6188 N.pl3          1 S1                 0.0000
     19 ****        -0.1722  -2.4545  -2.6322 C.3            1 S1                 0.0000
     20 ****         0.9808  -2.6952  -0.3739 C.2            1 S1                 0.0000
     21 ****        -1.3624   1.7387   0.0288 C.ar           1 S1                 0.0000
     22 ****        -0.1907   1.7164  -0.7236 C.ar           1 S1                 0.0000
     23 ****        -0.2934   2.0526  -2.0922 C.ar           1 S1                 0.0000
     24 ****         0.9677   2.0368  -2.9390 C.3            1 S1                 0.0000
     25 ****        -2.6722   2.9557  -4.4358 H              1 S1                 0.0000
     26 ****        -1.2772   1.9311  -4.7597 H              1 S1                 0.0000
     27 ****        -1.0505   3.6411  -4.3619 H              1 S1                 0.0000
     28 ****        -3.6768   2.6817  -2.3207 H              1 S1                 0.0000
     29 ****        -3.4459   1.4798   2.5841 H              1 S1                 0.0000
     30 ****         0.3111   1.6945   2.0933 H              1 S1                 0.0000
     31 ****        -0.8667   1.1970   3.2887 H              1 S1                 0.0000
     32 ****         0.1112  -0.5489   0.9945 H              1 S1                 0.0000
     33 ****        -1.4727  -1.2143   3.2199 H              1 S1                 0.0000
     34 ****         1.8024  -0.1322   2.9288 H              1 S1                 0.0000
     35 ****         0.6253  -0.8405   3.9839 H              1 S1                 0.0000
     36 ****         2.6129  -3.7105   3.7746 H              1 S1                 0.0000
     37 ****         1.4954  -2.7612   4.7400 H              1 S1                 0.0000
     38 ****         3.0369  -2.0586   4.2374 H              1 S1                 0.0000
     39 ****         3.3480  -1.4821   1.8208 H              1 S1                 0.0000
     40 ****         3.0959  -3.1829   1.6354 H              1 S1                 0.0000
     41 ****         3.2194  -0.3612  -0.6839 H              1 S1                 0.0000
     42 ****        -0.8154  -3.2635  -2.2849 H              1 S1                 0.0000
     43 ****         0.3322  -2.7691  -3.5463 H              1 S1                 0.0000
     44 ****        -0.7869  -1.5789  -2.8442 H              1 S1                 0.0000
     45 ****         0.3519  -3.4979  -0.0179 H              1 S1                 0.0000
     46 ****         0.7595   1.4486  -0.2863 H              1 S1                 0.0000
     47 ****         1.8454   1.7859  -2.3426 H              1 S1                 0.0000
     48 ****         1.1411   3.0142  -3.3892 H              1 S1                 0.0000
     49 ****         0.8830   1.2966  -3.7348 H              1 S1                 0.0000
     50 ****        -4.5464   2.2011   0.3792 H              1 S1                 0.0000
     51 ****        -1.0666  -2.2036   2.0424 LP             1 S1                 0.0000
     52 ****        -2.0564  -0.9343   1.7670 LP             1 S1                 0.0000
     53 ****         0.8289  -2.7933   2.4196 LP             1 S1                 0.0000
     54 ****         1.7954  -0.5869  -2.6752 LP             1 S1                 0.0000
@<TRIPOS>BOND
    1    1    2 1     
    2    1   25 1     
    3    1   26 1     
    4    1   27 1     
    5    2   23 ar    
    6    2    3 ar    
    7    3    4 ar    
    8    3   28 1     
    9    4   21 ar    
   10    4    5 1     
   11    5    6 2     
   12    5   50 1     
   13    6    7 1     
   14    6   29 1     
   15    7    8 1     
   16    7   21 1     
   17    8    9 1     
   18    8   30 1     
   19    8   31 1     
   20    9   10 1     
   21    9   11 1     
   22    9   32 1     
   23   10   33 1     
   24   11   12 1     
   25   11   34 1     
   26   11   35 1     
   27   12   13 1     
   28   12   14 1     
   29   13   36 1     
   30   13   37 1     
   31   13   38 1     
   32   14   15 1     
   33   14   39 1     
   34   14   40 1     
   35   15   20 2     
   36   15   16 1     
   37   16   17 2     
   38   16   41 1     
   39   17   18 1     
   40   18   19 1     
   41   18   20 1     
   42   19   42 1     
   43   19   43 1     
   44   19   44 1     
   45   20   45 1     
   46   21   22 ar    
   47   22   23 ar    
   48   22   46 1     
   49   23   24 1     
   50   24   47 1     
   51   24   48 1     
   52   24   49 1     
   53   10   51 1     
   54   10   52 1     
   55   12   53 1     
   56   17   54 1     
@<TRIPOS>SUBSTRUCTURE
      1 S1             1
@<TRIPOS>SET
LONE_PAIRS      STATIC     ATOMS    <user>   **** ""
4 51 52 53 54
DONOR_HYDROGENS      STATIC     ATOMS    <user>   **** ""
2 50 33
ATOM$BLUE        STATIC     ATOMS    COLORGROUP SYSTEM
4 51 52 53 54
ATOM$RED        STATIC     ATOMS    COLORGROUP SYSTEM
2 50 33
