AV-unprocessed.smi:2193|AV-procd|sdf|8900|dock10
  -GOLD-   2272012113D 1   1.00000     0.00000
 Structure written by MMmdl.
 41 43  0  0  0  0  0  0  0  0  2 V2000
  150.2498  140.0249  154.0198 O   0  0  0  0  0  0  0  0  0  0  0  0
  149.4103  140.4322  155.0770 C   0  0  0  0  0  0  0  0  0  0  0  0
  150.1819  140.9558  156.2427 C   0  0  0  0  0  0  0  0  0  0  0  0
  150.3156  142.2674  156.5866 N   0  3  0  0  0  0  0  0  0  0  0  0
  151.1156  142.3783  157.7245 C   0  0  0  0  0  0  0  0  0  0  0  0
  151.5294  143.4973  158.4406 C   0  0  0  0  0  0  0  0  0  0  0  0
  152.3470  143.2618  159.5654 C   0  0  0  0  0  0  0  0  0  0  0  0
  152.7224  141.9553  159.9394 C   0  0  0  0  0  0  0  0  0  0  0  0
  152.2977  140.8286  159.2048 C   0  0  0  0  0  0  0  0  0  0  0  0
  151.4898  141.0694  158.0934 C   0  0  0  0  0  0  0  0  0  0  0  0
  150.8911  140.2249  157.1502 N   0  0  0  0  0  0  0  0  0  0  0  0
  151.0908  138.7696  157.2387 C   0  0  0  0  0  0  0  0  0  0  0  0
  150.6788  138.1917  158.6074 C   0  0  2  0  0  0  0  0  0  0  0  0
  151.5921  137.1888  159.0043 O   0  0  0  0  0  0  0  0  0  0  0  0
  149.2667  137.5893  158.5883 C   0  0  0  0  0  0  0  0  0  0  0  0
  148.7945  137.4870  159.9253 O   0  0  0  0  0  0  0  0  0  0  0  0
  148.2044  136.3064  160.3217 C   0  0  0  0  0  0  0  0  0  0  0  0
  147.7465  136.2363  161.6538 C   0  0  0  0  0  0  0  0  0  0  0  0
  147.1307  135.0688  162.1446 C   0  0  0  0  0  0  0  0  0  0  0  0
  146.9667  133.9536  161.3026 C   0  0  0  0  0  0  0  0  0  0  0  0
  146.3748  132.8298  161.7718 F   0  0  0  0  0  0  0  0  0  0  0  0
  147.4198  134.0088  159.9714 C   0  0  0  0  0  0  0  0  0  0  0  0
  148.0354  135.1770  159.4807 C   0  0  0  0  0  0  0  0  0  0  0  0
  149.7429  140.0069  153.2222 H   0  0  0  0  0  0  0  0  0  0  0  0
  148.7308  141.2042  154.7154 H   0  0  0  0  0  0  0  0  0  0  0  0
  148.7970  139.5880  155.3917 H   0  0  0  0  0  0  0  0  0  0  0  0
  151.2426  144.4993  158.1564 H   0  0  0  0  0  0  0  0  0  0  0  0
  152.6926  144.1000  160.1533 H   0  0  0  0  0  0  0  0  0  0  0  0
  153.3489  141.8136  160.8083 H   0  0  0  0  0  0  0  0  0  0  0  0
  152.5891  139.8330  159.5046 H   0  0  0  0  0  0  0  0  0  0  0  0
  150.4923  138.3169  156.4475 H   0  0  0  0  0  0  0  0  0  0  0  0
  152.1277  138.5299  157.0027 H   0  0  0  0  0  0  0  0  0  0  0  0
  150.7145  138.9778  159.3626 H   0  0  0  0  0  0  0  0  0  0  0  0
  152.2385  137.5808  159.5712 H   0  0  0  0  0  0  0  0  0  0  0  0
  148.6002  138.2106  157.9874 H   0  0  0  0  0  0  0  0  0  0  0  0
  149.2997  136.5948  158.1396 H   0  0  0  0  0  0  0  0  0  0  0  0
  147.8680  137.0876  162.3073 H   0  0  0  0  0  0  0  0  0  0  0  0
  146.7844  135.0298  163.1668 H   0  0  0  0  0  0  0  0  0  0  0  0
  147.2955  133.1530  159.3242 H   0  0  0  0  0  0  0  0  0  0  0  0
  148.3702  135.1805  158.4547 H   0  0  0  0  0  0  0  0  0  0  0  0
  149.8926  143.0301  156.0733 H   0  0  0  0  0  0  0  0  0  0  0  0
  1  2  1  0  0  0  0
  1 24  1  0  0  0  0
  2  3  1  0  0  0  0
  2 25  1  0  0  0  0
  2 26  1  0  0  0  0
  3 11  1  0  0  0  0
  3  4  2  0  0  0  0
  4  5  1  0  0  0  0
  4 41  1  0  0  0  0
  5 10  2  0  0  0  0
  5  6  1  0  0  0  0
  6  7  2  0  0  0  0
  6 27  1  0  0  0  0
  7  8  1  0  0  0  0
  7 28  1  0  0  0  0
  8  9  2  0  0  0  0
  8 29  1  0  0  0  0
  9 10  1  0  0  0  0
  9 30  1  0  0  0  0
 10 11  1  0  0  0  0
 11 12  1  0  0  0  0
 12 13  1  0  0  0  0
 12 31  1  0  0  0  0
 12 32  1  0  0  0  0
 13 14  1  0  0  0  0
 13 15  1  0  0  0  0
 13 33  1  0  0  0  0
 14 34  1  0  0  0  0
 15 16  1  0  0  0  0
 15 35  1  0  0  0  0
 15 36  1  0  0  0  0
 16 17  1  0  0  0  0
 17 23  1  0  0  0  0
 17 18  2  0  0  0  0
 18 19  1  0  0  0  0
 18 37  1  0  0  0  0
 19 20  2  0  0  0  0
 19 38  1  0  0  0  0
 20 21  1  0  0  0  0
 20 22  1  0  0  0  0
 22 23  2  0  0  0  0
 22 39  1  0  0  0  0
 23 40  1  0  0  0  0
M  CHG  1   4   1
M  END
> <s_m_source_file>
AV-unprocessed.smi

> <i_m_source_file_index>
2193

> <i_lp_mmshare_version>
43012

> <i_f3d_flags>
0

> <s_epik_input>
W2NIXTFbY0hdW2NIXVtjSF1jKGMxMiluKGMobjIpW0NIMl1bT0hdKVtDSDJdW0NASF0oW09IXSlbQ0gyXU9jM1tjSF1bY0hdYyhGKVtjSF1bY0hdMw==

> <s_epik_cmdline>
J2VwaWtfcHl0aG9uJywgJy1waCcsICc3LjAnLCAnLXRuJywgJzgnLCAnLW1hJywgJzIwMCcsICctbWV0YWxfYmluZGluZycsICctaW1hZScsICc8aW5maWxlLm1hZT4nLCAnLW9tYWUnLCAnPG91dGZpbGUubWFlPic=

> <r_lp_tautomer_probability>
1

> <r_epik_Ionization_Penalty>
1.43752

> <r_epik_Ionization_Penalty_Charging>
1.43666

> <r_epik_Ionization_Penalty_Neutral>
0.000858184

> <r_epik_State_Penalty>
1.52171

> <r_epik_Charging_Adjusted_Penalty>
2.95837

> <i_epik_Tot_Q>
1

> <i_epik_Tot_abs_Q>
1

> <r_epik_Metal_State_Penalty>
5.56725

> <b_epik_Metal_Only>
0

> <s_lp_Force_Field>
OPLS_2005

> <r_lp_Energy>
17.6251

> <b_lp_Chiralities_Consistent>
1

> <s_lp_Variant>
AV-unprocessed.smi:2193-3

> <Gold.Version>
5.8.1

> <Gold.Id.Protein>
6NUR|6NUR_protein|mol2

> <Gold.PLP.Fitness>
59.7724

> <Gold.PLP.PLP>
-48.0530

> <Gold.PLP.part.hbond>
-5.5968

> <Gold.PLP.part.metal>
0.0000

> <Gold.PLP.part.buried>
-6.5464

> <Gold.PLP.part.nonpolar>
-37.2270

> <Gold.PLP.part.repulsive>
0.0596

> <Gold.PLP.ligand.clash>
0.0000

> <Gold.PLP.ligand.torsion>
1.2248

> <Gold.PLP.Chemscore.Hbond>
4.7054

> <Gold.PLP.Chemscore.CHOScore>
0.0000

> <Gold.PLP.Chemscore.Metal>
0.0000

> <Gold.Chemscore.Hbonds>
donor molecule, donor type, donor heavy atom, donor atom, acceptor molecule, acceptor atom, score
      L1  H     1    24       P1  7957  0.91
      L1  H     4    41       P1  8028  2.00
      P1  H  6896  6908       L1    14  0.49
      P1  H  6931  6943       L1    16  0.23
      P1  H  6934  6947       L1    16  0.01
      P1  H  7989  7998       L1     1  0.99

> <Gold.PLP.Chemscore.Internal.Correction>
0.0529

> <Gold.Rescore>
     Score         DG    S(hbond)    S(metal)    S(lipo)     H(rot)  DE(clash)    DE(int)     intcor
     17.48     -19.02       2.68        0.00     111.77       3.31       0.04       1.51       ----

> <Gold.Chemscore.Fitness>
17.4772

> <Gold.Chemscore.DG>
-19.0240

> <Gold.Chemscore.ZeroCoef>
-5.4800

> <Gold.Chemscore.Hbond>
2.6792

> <Gold.Chemscore.Metal>
0.0000

> <Gold.Chemscore.Lipo>
111.7746

> <Gold.Chemscore.Internal_Hbond>
0.0000

> <Gold.Chemscore.DEClash>
0.0366

> <Gold.Chemscore.DEInternal>
1.5102

> <Gold.Chemscore.Rot>
3.3134

> <Gold.Chemscore.Internal.Correction>
   9.000000E+99

> <Gold.Chemscore.Hbonds>
donor molecule, donor type, donor heavy atom, donor atom, acceptor molecule, acceptor atom, score
      L1  H     1    24       P1  7957  0.84
      L1  H     4    41       P1  8028  0.95
      P1  H  6896  6908       L1    14  0.12
      P1  H  6931  6943       L1    16  0.04
      P1  H  6934  6947       L1    16  0.01
      P1  H  7989  7998       L1     1  0.24

> <Gold.Chemscore.Hbond.Weighted>
-8.9487

> <Gold.Chemscore.Metal.Weighted>
-0.0000

> <Gold.Chemscore.Lipo.Weighted>
-13.0776

> <Gold.Chemscore.Internal_Hbond.Weighted>
0.0000

> <Gold.Chemscore.DEClash.Weighted>
0.0366

> <Gold.Chemscore.DEInternal.Weighted>
1.5102

> <Gold.Chemscore.Rot.Weighted>
8.4823

> <Gold.Chemscore.Internal.Correction.Weighted>
   9.000000E+99

> <Gold.Protein.RotatedTorsions>
[ 6907 6896 6895 6894 ] final -130.29 input  -60.11 | X-H torsion
[ 7974 7965 7964 7962 ] final  111.56 input  175.53 | X-H torsion
[ 8008 7997 7996 7995 ] final  172.83 input   59.86 | X-H torsion
[ 10167 10162 10161 10158 ] final -106.31 input  -65.29 | X-H torsion
[ 10718 10713 10712 10709 ] final  -32.52 input   66.30 | X-H torsion
[ 10763 10752 10751 10750 ] final -146.57 input  -60.55 | X-H torsion
[ 11005 11000 10999 10996 ] final  -67.54 input  -57.11 | X-H torsion

> <Gold.Protein.ActiveResidues>
 VAL166  LYS551  ARG553  GLY616  TRP617  ASP618  TYR619  PRO620  LYS621  CYS622 
 ASP623  PHE694  ASN695  SER759  ASP760  ASP761  ALA762  ILE779  LEU786  VAL792 
 PHE793  MET794  SER795  GLU796  ALA797  LYS798  CYS799  TRP800  GLU811  SER814 

> <Gold.Protein.RotatedAtoms>
  150.9381  133.6689  159.2796 H   0  0  0  0  0  0  0  0  0  0  0  0  # atno 6907 bound_to 6896
  151.4087  135.0980  159.9588 H   0  0  0  0  0  0  0  0  0  0  0  0  # atno 6908 bound_to 6896
  152.5057  133.8858  159.7424 H   0  0  0  0  0  0  0  0  0  0  0  0  # atno 6909 bound_to 6896
  145.2407  139.2780  143.4119 H   0  0  0  0  0  0  0  0  0  0  0  0  # atno 7974 bound_to 7965
  156.1136  140.1476  156.9304 H   0  0  0  0  0  0  0  0  0  0  0  0  # atno 8008 bound_to 7997
  154.4784  140.0887  156.7362 H   0  0  0  0  0  0  0  0  0  0  0  0  # atno 8009 bound_to 7997
  155.4553  140.3436  155.4308 H   0  0  0  0  0  0  0  0  0  0  0  0  # atno 8010 bound_to 7997
  140.1892  143.3905  152.1220 H   0  0  0  0  0  0  0  0  0  0  0  0  # atno 10167 bound_to 10162
  156.3739  130.4344  149.7523 H   0  0  0  0  0  0  0  0  0  0  0  0  # atno 10718 bound_to 10713
  154.8329  135.3383  154.6682 H   0  0  0  0  0  0  0  0  0  0  0  0  # atno 10763 bound_to 10752
  153.7299  135.6952  153.4996 H   0  0  0  0  0  0  0  0  0  0  0  0  # atno 10764 bound_to 10752
  153.2319  135.4413  155.0557 H   0  0  0  0  0  0  0  0  0  0  0  0  # atno 10765 bound_to 10752
  141.1510  133.6721  156.6308 H   0  0  0  0  0  0  0  0  0  0  0  0  # atno 11005 bound_to 11000
  146.3329  140.2770  142.8608 LP  0  0  0  0  0  0  0  0  0  0  0  0  # atno 17320 bound_to 7965
  144.9591  140.8257  143.5524 LP  0  0  0  0  0  0  0  0  0  0  0  0  # atno 17321 bound_to 7965
  139.5263  144.7106  151.5217 LP  0  0  0  0  0  0  0  0  0  0  0  0  # atno 17342 bound_to 10162
  140.6467  143.8779  150.6745 LP  0  0  0  0  0  0  0  0  0  0  0  0  # atno 17343 bound_to 10162
  156.4640  130.7965  151.2985 LP  0  0  0  0  0  0  0  0  0  0  0  0  # atno 17370 bound_to 10713
  157.7486  131.0057  150.3123 LP  0  0  0  0  0  0  0  0  0  0  0  0  # atno 17371 bound_to 10713
  140.3468  134.7802  157.4438 LP  0  0  0  0  0  0  0  0  0  0  0  0  # atno 17394 bound_to 11000
  140.0893  134.5623  155.8460 LP  0  0  0  0  0  0  0  0  0  0  0  0  # atno 17395 bound_to 11000

$$$$
