AV-unprocessed.smi:164|AV-procd|sdf|1382|dock7
  -GOLD-   2262019113D 1   1.00000     0.00000
 Structure written by MMmdl.
 53 55  0  0  0  0  0  0  0  0  1 V2000
  153.7024  141.7053  160.7863 C   0  0  0  0  0  0  0  0  0  0  0  0
  152.7826  141.6484  159.5786 C   0  0  0  0  0  0  0  0  0  0  0  0
  152.5244  142.8339  158.8609 C   0  0  0  0  0  0  0  0  0  0  0  0
  151.6797  142.8170  157.7372 C   0  0  0  0  0  0  0  0  0  0  0  0
  151.0883  141.6111  157.3135 C   0  0  0  0  0  0  0  0  0  0  0  0
  150.1767  141.6135  156.1002 C   0  0  0  0  0  0  0  0  0  0  0  0
  151.3523  140.4138  158.0184 C   0  0  0  0  0  0  0  0  0  0  0  0
  150.7822  139.2399  157.5978 O   0  0  0  0  0  0  0  0  0  0  0  0
  151.7278  138.2760  157.1573 C   0  0  0  0  0  0  0  0  0  0  0  0
  151.2022  136.8712  157.4937 C   0  0  2  0  0  0  0  0  0  0  0  0
  152.0361  135.9474  156.8224 O   0  0  0  0  0  0  0  0  0  0  0  0
  149.7545  136.6647  156.9933 C   0  0  0  0  0  0  0  0  0  0  0  0
  148.9343  135.8937  157.9142 N   0  0  0  0  0  0  0  0  0  0  0  0
  148.4337  134.6485  157.4624 C   0  0  0  0  0  0  0  0  0  0  0  0
  148.6956  134.2040  156.3432 O   0  0  0  0  0  0  0  0  0  0  0  0
  147.5723  133.9618  158.4175 C   0  0  0  0  0  0  0  0  0  0  0  0
  147.0107  132.7885  158.0806 F   0  0  0  0  0  0  0  0  0  0  0  0
  147.3098  134.4950  159.6302 C   0  0  0  0  0  0  0  0  0  0  0  0
  147.8403  135.7022  160.0625 N   0  0  0  0  0  0  0  0  0  0  0  0
  147.4656  136.3345  161.3950 C   0  0  2  0  0  0  0  0  0  0  0  0
  146.5703  135.4591  162.2822 C   0  0  0  0  0  0  0  0  0  0  0  0
  145.1666  135.9843  161.9911 C   0  0  0  0  0  0  0  0  0  0  0  0
  145.3739  137.1149  160.9778 C   0  0  0  0  0  0  0  0  0  0  0  0
  146.7340  137.4916  161.1433 O   0  0  0  0  0  0  0  0  0  0  0  0
  148.6392  136.4603  159.1766 C   0  0  0  0  0  0  0  0  0  0  0  0
  149.0527  137.5767  159.4986 O   0  0  0  0  0  0  0  0  0  0  0  0
  152.1859  140.4310  159.1648 C   0  0  0  0  0  0  0  0  0  0  0  0
  152.4419  139.1449  159.9396 C   0  0  0  0  0  0  0  0  0  0  0  0
  154.1985  142.6734  160.8623 H   0  0  0  0  0  0  0  0  0  0  0  0
  154.4767  140.9407  160.7189 H   0  0  0  0  0  0  0  0  0  0  0  0
  153.1351  141.5459  161.7036 H   0  0  0  0  0  0  0  0  0  0  0  0
  152.9726  143.7666  159.1712 H   0  0  0  0  0  0  0  0  0  0  0  0
  151.4891  143.7346  157.2000 H   0  0  0  0  0  0  0  0  0  0  0  0
  149.3355  140.9343  156.2414 H   0  0  0  0  0  0  0  0  0  0  0  0
  150.7279  141.2999  155.2135 H   0  0  0  0  0  0  0  0  0  0  0  0
  149.7729  142.6093  155.9155 H   0  0  0  0  0  0  0  0  0  0  0  0
  151.8317  138.3843  156.0773 H   0  0  0  0  0  0  0  0  0  0  0  0
  152.7174  138.4426  157.5880 H   0  0  0  0  0  0  0  0  0  0  0  0
  151.2590  136.7108  158.5710 H   0  0  0  0  0  0  0  0  0  0  0  0
  151.4897  135.3120  156.3854 H   0  0  0  0  0  0  0  0  0  0  0  0
  149.2415  137.6188  156.8602 H   0  0  0  0  0  0  0  0  0  0  0  0
  149.7123  136.2030  156.0054 H   0  0  0  0  0  0  0  0  0  0  0  0
  146.6390  133.9421  160.2685 H   0  0  0  0  0  0  0  0  0  0  0  0
  148.4139  136.5576  161.8867 H   0  0  0  0  0  0  0  0  0  0  0  0
  146.7137  134.3931  162.1071 H   0  0  0  0  0  0  0  0  0  0  0  0
  146.8261  135.6581  163.3237 H   0  0  0  0  0  0  0  0  0  0  0  0
  144.5076  135.2102  161.5968 H   0  0  0  0  0  0  0  0  0  0  0  0
  144.7159  136.3694  162.9065 H   0  0  0  0  0  0  0  0  0  0  0  0
  145.2109  136.7602  159.9593 H   0  0  0  0  0  0  0  0  0  0  0  0
  144.7054  137.9587  161.1494 H   0  0  0  0  0  0  0  0  0  0  0  0
  151.6945  138.3815  159.7251 H   0  0  0  0  0  0  0  0  0  0  0  0
  152.4133  139.3204  161.0148 H   0  0  0  0  0  0  0  0  0  0  0  0
  153.4210  138.7404  159.6820 H   0  0  0  0  0  0  0  0  0  0  0  0
  1  2  1  0  0  0  0
  1 29  1  0  0  0  0
  1 30  1  0  0  0  0
  1 31  1  0  0  0  0
  2 27  1  0  0  0  0
  2  3  2  0  0  0  0
  3  4  1  0  0  0  0
  3 32  1  0  0  0  0
  4  5  2  0  0  0  0
  4 33  1  0  0  0  0
  5  6  1  0  0  0  0
  5  7  1  0  0  0  0
  6 34  1  0  0  0  0
  6 35  1  0  0  0  0
  6 36  1  0  0  0  0
  7  8  1  0  0  0  0
  7 27  2  0  0  0  0
  8  9  1  0  0  0  0
  9 10  1  0  0  0  0
  9 37  1  0  0  0  0
  9 38  1  0  0  0  0
 10 11  1  0  0  0  0
 10 12  1  0  0  0  0
 10 39  1  0  0  0  0
 11 40  1  0  0  0  0
 12 13  1  0  0  0  0
 12 41  1  0  0  0  0
 12 42  1  0  0  0  0
 13 25  1  0  0  0  0
 13 14  1  0  0  0  0
 14 15  2  0  0  0  0
 14 16  1  0  0  0  0
 16 17  1  0  0  0  0
 16 18  2  0  0  0  0
 18 19  1  0  0  0  0
 18 43  1  0  0  0  0
 19 20  1  0  0  0  0
 19 25  1  0  0  0  0
 20 24  1  0  0  0  0
 20 21  1  0  0  0  0
 20 44  1  0  0  0  0
 21 22  1  0  0  0  0
 21 45  1  0  0  0  0
 21 46  1  0  0  0  0
 22 23  1  0  0  0  0
 22 47  1  0  0  0  0
 22 48  1  0  0  0  0
 23 24  1  0  0  0  0
 23 49  1  0  0  0  0
 23 50  1  0  0  0  0
 25 26  2  0  0  0  0
 27 28  1  0  0  0  0
 28 51  1  0  0  0  0
 28 52  1  0  0  0  0
 28 53  1  0  0  0  0
M  END
> <s_m_source_file>
AV-unprocessed.smi

> <i_m_source_file_index>
164

> <i_lp_mmshare_version>
43012

> <i_f3d_flags>
0

> <s_epik_input>
W0NIM11jMVtjSF1bY0hdYyhbQ0gzXSljKGMxW0NIM10pT1tDSDJdW0NASF0oW09IXSlbQ0gyXW4yYyg9TyljKEYpW2NIXW4oYzI9TylbQ0BASF0zW0NIMl1bQ0gyXVtDSDJdTzM=

> <s_epik_cmdline>
J2VwaWtfcHl0aG9uJywgJy1waCcsICc3LjAnLCAnLXRuJywgJzgnLCAnLW1hJywgJzIwMCcsICctbWV0YWxfYmluZGluZycsICctaW1hZScsICc8aW5maWxlLm1hZT4nLCAnLW9tYWUnLCAnPG91dGZpbGUubWFlPic=

> <r_lp_tautomer_probability>
1

> <r_epik_Ionization_Penalty>
1.45842e-07

> <r_epik_Ionization_Penalty_Charging>
2.86622e-08

> <r_epik_Ionization_Penalty_Neutral>
1.1718e-07

> <r_epik_State_Penalty>
-0

> <r_epik_Charging_Adjusted_Penalty>
2.86622e-08

> <i_epik_Tot_Q>
0

> <i_epik_Tot_abs_Q>
0

> <r_epik_Metal_State_Penalty>
-0

> <b_epik_Metal_Only>
0

> <s_epik_Chemistry_Notes>
This compound contains an acetal/aminal-like group ( X-CH(R)-Y where X, Y are N, S, or O) that may be acid/base labile, releasing an aldehyde.

> <s_lp_Force_Field>
OPLS_2005

> <r_lp_Energy>
44.8383

> <b_lp_Chiralities_Consistent>
1

> <s_lp_Variant>
AV-unprocessed.smi:164-1

> <Gold.Version>
5.8.1

> <Gold.Id.Protein>
6NUR|6NUR_protein|mol2

> <Gold.PLP.Fitness>
49.2470

> <Gold.PLP.PLP>
-44.8974

> <Gold.PLP.part.hbond>
-4.0000

> <Gold.PLP.part.metal>
0.0000

> <Gold.PLP.part.buried>
-6.8520

> <Gold.PLP.part.nonpolar>
-34.4419

> <Gold.PLP.part.repulsive>
0.0053

> <Gold.PLP.ligand.clash>
0.0000

> <Gold.PLP.ligand.torsion>
0.9159

> <Gold.PLP.Chemscore.Hbond>
1.9401

> <Gold.PLP.Chemscore.CHOScore>
0.0000

> <Gold.PLP.Chemscore.Metal>
0.0000

> <Gold.Chemscore.Hbonds>
donor molecule, donor type, donor heavy atom, donor atom, acceptor molecule, acceptor atom, score
      P1  H  6934  6947       L1    24  1.00
      P1  H 10752 10765       L1    11  0.10

> <Gold.PLP.Chemscore.Internal.Correction>
0.3611

> <Gold.Rescore>
     Score         DG    S(hbond)    S(metal)    S(lipo)     H(rot)  DE(clash)    DE(int)     intcor
     13.05     -15.54       1.06        0.00     115.54       2.73       0.06       2.43       ----

> <Gold.Chemscore.Fitness>
13.0508

> <Gold.Chemscore.DG>
-15.5421

> <Gold.Chemscore.ZeroCoef>
-5.4800

> <Gold.Chemscore.Hbond>
1.0588

> <Gold.Chemscore.Metal>
0.0000

> <Gold.Chemscore.Lipo>
115.5412

> <Gold.Chemscore.Internal_Hbond>
0.0000

> <Gold.Chemscore.DEClash>
0.0580

> <Gold.Chemscore.DEInternal>
2.4333

> <Gold.Chemscore.Rot>
2.7315

> <Gold.Chemscore.Internal.Correction>
   9.000000E+99

> <Gold.Chemscore.Hbonds>
donor molecule, donor type, donor heavy atom, donor atom, acceptor molecule, acceptor atom, score
      P1  H  6931  6943       L1    26  0.01
      P1  H  6934  6947       L1    24  0.96

> <Gold.Chemscore.Hbond.Weighted>
-3.5363

> <Gold.Chemscore.Metal.Weighted>
-0.0000

> <Gold.Chemscore.Lipo.Weighted>
-13.5183

> <Gold.Chemscore.Internal_Hbond.Weighted>
0.0000

> <Gold.Chemscore.DEClash.Weighted>
0.0580

> <Gold.Chemscore.DEInternal.Weighted>
2.4333

> <Gold.Chemscore.Rot.Weighted>
6.9925

> <Gold.Chemscore.Internal.Correction.Weighted>
   9.000000E+99

> <Gold.Protein.RotatedTorsions>
[ 6907 6896 6895 6894 ] final   58.02 input  -60.11 | X-H torsion
[ 7974 7965 7964 7962 ] final -123.57 input  175.53 | X-H torsion
[ 8008 7997 7996 7995 ] final  140.95 input   59.86 | X-H torsion
[ 10167 10162 10161 10158 ] final  -53.42 input  -65.29 | X-H torsion
[ 10718 10713 10712 10709 ] final  137.13 input   66.30 | X-H torsion
[ 10763 10752 10751 10750 ] final -125.34 input  -60.55 | X-H torsion
[ 11005 11000 10999 10996 ] final -179.67 input  -57.11 | X-H torsion

> <Gold.Protein.ActiveResidues>
 VAL166  LYS551  ARG553  GLY616  TRP617  ASP618  TYR619  PRO620  LYS621  CYS622 
 ASP623  PHE694  ASN695  SER759  ASP760  ASP761  ALA762  ILE779  LEU786  VAL792 
 PHE793  MET794  SER795  GLU796  ALA797  LYS798  CYS799  TRP800  GLU811  SER814 

> <Gold.Protein.RotatedAtoms>
  152.3785  134.6626  160.0150 H   0  0  0  0  0  0  0  0  0  0  0  0  # atno 6907 bound_to 6896
  151.6897  133.3305  159.3247 H   0  0  0  0  0  0  0  0  0  0  0  0  # atno 6908 bound_to 6896
  150.7729  134.6645  159.6402 H   0  0  0  0  0  0  0  0  0  0  0  0  # atno 6909 bound_to 6896
  145.0173  140.7958  143.4402 H   0  0  0  0  0  0  0  0  0  0  0  0  # atno 7974 bound_to 7965
  156.2972  140.2328  156.4484 H   0  0  0  0  0  0  0  0  0  0  0  0  # atno 8008 bound_to 7997
  154.8123  140.0442  157.1372 H   0  0  0  0  0  0  0  0  0  0  0  0  # atno 8009 bound_to 7997
  154.9409  140.3029  155.5125 H   0  0  0  0  0  0  0  0  0  0  0  0  # atno 8010 bound_to 7997
  140.6485  143.2551  151.4790 H   0  0  0  0  0  0  0  0  0  0  0  0  # atno 10167 bound_to 10162
  157.4393  131.1056  151.0162 H   0  0  0  0  0  0  0  0  0  0  0  0  # atno 10718 bound_to 10713
  154.8734  135.4033  154.3252 H   0  0  0  0  0  0  0  0  0  0  0  0  # atno 10763 bound_to 10752
  153.4074  135.7020  153.6388 H   0  0  0  0  0  0  0  0  0  0  0  0  # atno 10764 bound_to 10752
  153.5105  135.3708  155.2555 H   0  0  0  0  0  0  0  0  0  0  0  0  # atno 10765 bound_to 10752
  140.4161  134.6648  157.4639 H   0  0  0  0  0  0  0  0  0  0  0  0  # atno 11005 bound_to 11000
  145.1943  139.2285  143.5226 LP  0  0  0  0  0  0  0  0  0  0  0  0  # atno 17320 bound_to 7965
  146.3480  140.1746  142.8589 LP  0  0  0  0  0  0  0  0  0  0  0  0  # atno 17321 bound_to 7965
  139.5698  144.1955  152.1820 LP  0  0  0  0  0  0  0  0  0  0  0  0  # atno 17342 bound_to 10162
  140.1248  144.5341  150.6840 LP  0  0  0  0  0  0  0  0  0  0  0  0  # atno 17343 bound_to 10162
  157.1030  130.5990  149.5464 LP  0  0  0  0  0  0  0  0  0  0  0  0  # atno 17370 bound_to 10713
  155.9942  130.5006  150.7412 LP  0  0  0  0  0  0  0  0  0  0  0  0  # atno 17371 bound_to 10713
  140.0233  134.6514  155.9208 LP  0  0  0  0  0  0  0  0  0  0  0  0  # atno 17394 bound_to 11000
  141.1802  133.6545  156.4991 LP  0  0  0  0  0  0  0  0  0  0  0  0  # atno 17395 bound_to 11000

$$$$
