AV-unprocessed.smi:2877|AV-procd|sdf|11044|dock9
  -GOLD-   2272015513D 1   1.00000     0.00000
 Structure written by MMmdl.
 40 41  0  0  0  0  0  0  0  0  2 V2000
  150.8864  141.8639  157.7585 O   0  0  0  0  0  0  0  0  0  0  0  0
  151.7217  141.2215  158.4053 C   0  0  0  0  0  0  0  0  0  0  0  0
  151.8462  139.6794  158.2551 C   0  0  0  0  0  0  0  0  0  0  0  0
  150.7143  138.9200  157.5158 C   0  0  0  0  0  0  0  0  0  0  0  0
  150.8023  137.4901  157.8047 N   0  5  0  0  0  0  0  0  0  0  0  0
  150.3273  136.9066  158.9435 C   0  0  0  0  0  0  0  0  0  0  0  0
  150.8436  136.8213  160.0640 O   0  0  0  0  0  0  0  0  0  0  0  0
  148.9311  136.2845  158.7279 C   0  0  0  0  0  0  0  0  0  0  0  0
  148.1019  137.2204  158.2574 F   0  0  0  0  0  0  0  0  0  0  0  0
  149.0154  135.3268  157.7992 F   0  0  0  0  0  0  0  0  0  0  0  0
  148.3678  135.7226  160.0337 C   0  0  0  0  0  0  0  0  0  0  0  0
  148.3083  134.3282  160.2620 C   0  0  0  0  0  0  0  0  0  0  0  0
  147.7900  133.8642  161.4859 C   0  0  0  0  0  0  0  0  0  0  0  0
  147.3469  134.8040  162.4352 C   0  0  0  0  0  0  0  0  0  0  0  0
  147.4463  136.1728  162.1175 C   0  0  0  0  0  0  0  0  0  0  0  0
  147.9418  136.6285  160.9475 N   0  0  0  0  0  0  0  0  0  0  0  0
  152.5596  141.8451  159.2731 N   0  0  0  0  0  0  0  0  0  0  0  0
  152.4642  143.2799  159.5779 C   0  0  0  0  0  0  0  0  0  0  0  0
  151.9320  143.4466  161.0134 C   0  0  0  0  0  0  0  0  0  0  0  0
  152.8240  142.6993  162.0231 C   0  0  0  0  0  0  0  0  0  0  0  0
  153.0819  141.2443  161.5873 C   0  0  0  0  0  0  0  0  0  0  0  0
  153.5615  141.1873  160.1255 C   0  0  0  0  0  0  0  0  0  0  0  0
  152.7882  139.4757  157.7440 H   0  0  0  0  0  0  0  0  0  0  0  0
  151.9304  139.2542  159.2562 H   0  0  0  0  0  0  0  0  0  0  0  0
  149.7520  139.3195  157.8377 H   0  0  0  0  0  0  0  0  0  0  0  0
  150.7723  139.1348  156.4476 H   0  0  0  0  0  0  0  0  0  0  0  0
  148.6634  133.6273  159.5213 H   0  0  0  0  0  0  0  0  0  0  0  0
  147.7349  132.8058  161.6931 H   0  0  0  0  0  0  0  0  0  0  0  0
  146.9431  134.4842  163.3842 H   0  0  0  0  0  0  0  0  0  0  0  0
  147.1179  136.9220  162.8224 H   0  0  0  0  0  0  0  0  0  0  0  0
  153.4510  143.7360  159.4880 H   0  0  0  0  0  0  0  0  0  0  0  0
  151.8250  143.8241  158.8815 H   0  0  0  0  0  0  0  0  0  0  0  0
  151.8771  144.5039  161.2742 H   0  0  0  0  0  0  0  0  0  0  0  0
  150.9134  143.0600  161.0699 H   0  0  0  0  0  0  0  0  0  0  0  0
  153.7788  143.2200  162.1064 H   0  0  0  0  0  0  0  0  0  0  0  0
  152.3729  142.7221  163.0155 H   0  0  0  0  0  0  0  0  0  0  0  0
  153.8206  140.7840  162.2437 H   0  0  0  0  0  0  0  0  0  0  0  0
  152.1658  140.6613  161.6929 H   0  0  0  0  0  0  0  0  0  0  0  0
  153.7772  140.1582  159.8441 H   0  0  0  0  0  0  0  0  0  0  0  0
  154.5127  141.7126  160.0277 H   0  0  0  0  0  0  0  0  0  0  0  0
  1  2  2  0  0  0  0
  2  3  1  0  0  0  0
  2 17  1  0  0  0  0
  3  4  1  0  0  0  0
  3 23  1  0  0  0  0
  3 24  1  0  0  0  0
  4  5  1  0  0  0  0
  4 25  1  0  0  0  0
  4 26  1  0  0  0  0
  5  6  1  0  0  0  0
  6  7  2  0  0  0  0
  6  8  1  0  0  0  0
  8  9  1  0  0  0  0
  8 10  1  0  0  0  0
  8 11  1  0  0  0  0
 11 16  1  0  0  0  0
 11 12  2  0  0  0  0
 12 13  1  0  0  0  0
 12 27  1  0  0  0  0
 13 14  2  0  0  0  0
 13 28  1  0  0  0  0
 14 15  1  0  0  0  0
 14 29  1  0  0  0  0
 15 16  2  0  0  0  0
 15 30  1  0  0  0  0
 17 22  1  0  0  0  0
 17 18  1  0  0  0  0
 18 19  1  0  0  0  0
 18 31  1  0  0  0  0
 18 32  1  0  0  0  0
 19 20  1  0  0  0  0
 19 33  1  0  0  0  0
 19 34  1  0  0  0  0
 20 21  1  0  0  0  0
 20 35  1  0  0  0  0
 20 36  1  0  0  0  0
 21 22  1  0  0  0  0
 21 37  1  0  0  0  0
 21 38  1  0  0  0  0
 22 39  1  0  0  0  0
 22 40  1  0  0  0  0
M  CHG  1   5  -1
M  END
> <s_m_source_file>
AV-unprocessed.smi

> <i_m_source_file_index>
2877

> <i_lp_mmshare_version>
43012

> <i_f3d_flags>
0

> <s_epik_input>
W0NIMl0xW0NIMl1bQ0gyXVtDSDJdW0NIMl1OMUMoPU8pW0NIMl1bQ0gyXVtOSF1DKD1PKUMoRikoRiljMltjSF1bY0hdW2NIXVtjSF1uMg==

> <s_epik_cmdline>
J2VwaWtfcHl0aG9uJywgJy1waCcsICc3LjAnLCAnLXRuJywgJzgnLCAnLW1hJywgJzIwMCcsICctbWV0YWxfYmluZGluZycsICctaW1hZScsICc8aW5maWxlLm1hZT4nLCAnLW9tYWUnLCAnPG91dGZpbGUubWFlPic=

> <r_lp_tautomer_probability>
1

> <r_epik_Ionization_Penalty>
5.30743

> <r_epik_Ionization_Penalty_Charging>
5.30743

> <r_epik_Ionization_Penalty_Neutral>
2.29237e-06

> <r_epik_State_Penalty>
5.30735

> <r_epik_Charging_Adjusted_Penalty>
10.6148

> <i_epik_Tot_Q>
-1

> <i_epik_Tot_abs_Q>
1

> <r_epik_Metal_State_Penalty>
1.35027

> <b_epik_Metal_Only>
1

> <s_lp_Force_Field>
OPLS_2005

> <r_lp_Energy>
42.7236

> <b_lp_Chiralities_Consistent>
1

> <s_lp_Variant>
AV-unprocessed.smi:2877-2

> <Gold.Version>
5.8.1

> <Gold.Id.Protein>
6NUR|6NUR_protein|mol2

> <Gold.PLP.Fitness>
51.3248

> <Gold.PLP.PLP>
-47.0335

> <Gold.PLP.part.hbond>
-3.7615

> <Gold.PLP.part.metal>
0.0000

> <Gold.PLP.part.buried>
-5.5201

> <Gold.PLP.part.nonpolar>
-38.8900

> <Gold.PLP.part.repulsive>
0.0694

> <Gold.PLP.ligand.clash>
0.0000

> <Gold.PLP.ligand.torsion>
1.6192

> <Gold.PLP.Chemscore.Hbond>
2.4900

> <Gold.PLP.Chemscore.CHOScore>
0.0000

> <Gold.PLP.Chemscore.Metal>
0.0000

> <Gold.Chemscore.Hbonds>
donor molecule, donor type, donor heavy atom, donor atom, acceptor molecule, acceptor atom, score
      P1  H  6896  6907       L1     7  0.75
      P1  H  6931  6943       L1    16  0.41

> <Gold.PLP.Chemscore.Internal.Correction>
0.0598

> <Gold.Rescore>
     Score         DG    S(hbond)    S(metal)    S(lipo)     H(rot)  DE(clash)    DE(int)     intcor
     15.12     -18.56       1.76        0.00     102.84       1.89       0.83       2.61       ----

> <Gold.Chemscore.Fitness>
15.1233

> <Gold.Chemscore.DG>
-18.5603

> <Gold.Chemscore.ZeroCoef>
-5.4800

> <Gold.Chemscore.Hbond>
1.7601

> <Gold.Chemscore.Metal>
0.0000

> <Gold.Chemscore.Lipo>
102.8427

> <Gold.Chemscore.Internal_Hbond>
0.0000

> <Gold.Chemscore.DEClash>
0.8306

> <Gold.Chemscore.DEInternal>
2.6064

> <Gold.Chemscore.Rot>
1.8871

> <Gold.Chemscore.Internal.Correction>
   9.000000E+99

> <Gold.Chemscore.Hbonds>
donor molecule, donor type, donor heavy atom, donor atom, acceptor molecule, acceptor atom, score
      P1  H  6896  6907       L1     7  0.09
      P1  H  6931  6943       L1    16  0.04

> <Gold.Chemscore.Hbond.Weighted>
-5.8786

> <Gold.Chemscore.Metal.Weighted>
-0.0000

> <Gold.Chemscore.Lipo.Weighted>
-12.0326

> <Gold.Chemscore.Internal_Hbond.Weighted>
0.0000

> <Gold.Chemscore.DEClash.Weighted>
0.8306

> <Gold.Chemscore.DEInternal.Weighted>
2.6064

> <Gold.Chemscore.Rot.Weighted>
4.8309

> <Gold.Chemscore.Internal.Correction.Weighted>
   9.000000E+99

> <Gold.Protein.RotatedTorsions>
[ 6907 6896 6895 6894 ] final  -19.43 input  -60.11 | X-H torsion
[ 7974 7965 7964 7962 ] final  144.62 input  175.53 | X-H torsion
[ 8008 7997 7996 7995 ] final  -71.60 input   59.86 | X-H torsion
[ 10167 10162 10161 10158 ] final  118.07 input  -65.29 | X-H torsion
[ 10718 10713 10712 10709 ] final   98.39 input   66.30 | X-H torsion
[ 10763 10752 10751 10750 ] final   12.36 input  -60.55 | X-H torsion
[ 11005 11000 10999 10996 ] final -121.58 input  -57.11 | X-H torsion

> <Gold.Protein.ActiveResidues>
 VAL166  LYS551  ARG553  GLY616  TRP617  ASP618  TYR619  PRO620  LYS621  CYS622 
 ASP623  PHE694  ASN695  SER759  ASP760  ASP761  ALA762  ILE779  LEU786  VAL792 
 PHE793  MET794  SER795  GLU796  ALA797  LYS798  CYS799  TRP800  GLU811  SER814 

> <Gold.Protein.RotatedAtoms>
  151.2633  135.0661  159.9106 H   0  0  0  0  0  0  0  0  0  0  0  0  # atno 6907 bound_to 6896
  152.5362  134.0208  159.7991 H   0  0  0  0  0  0  0  0  0  0  0  0  # atno 6908 bound_to 6896
  151.0435  133.5636  159.2680 H   0  0  0  0  0  0  0  0  0  0  0  0  # atno 6909 bound_to 6896
  144.8820  139.5684  143.5838 H   0  0  0  0  0  0  0  0  0  0  0  0  # atno 7974 bound_to 7965
  154.5100  140.0812  156.7971 H   0  0  0  0  0  0  0  0  0  0  0  0  # atno 8008 bound_to 7997
  155.3806  140.3427  155.4228 H   0  0  0  0  0  0  0  0  0  0  0  0  # atno 8009 bound_to 7997
  156.1562  140.1574  156.8676 H   0  0  0  0  0  0  0  0  0  0  0  0  # atno 8010 bound_to 7997
  139.6136  144.7087  151.2789 H   0  0  0  0  0  0  0  0  0  0  0  0  # atno 10167 bound_to 10162
  157.6896  131.0638  150.4789 H   0  0  0  0  0  0  0  0  0  0  0  0  # atno 10718 bound_to 10713
  153.1831  135.6831  153.8452 H   0  0  0  0  0  0  0  0  0  0  0  0  # atno 10763 bound_to 10752
  153.7777  135.3187  155.3362 H   0  0  0  0  0  0  0  0  0  0  0  0  # atno 10764 bound_to 10752
  154.8072  135.4741  154.0517 H   0  0  0  0  0  0  0  0  0  0  0  0  # atno 10765 bound_to 10752
  141.0059  134.0335  157.3477 H   0  0  0  0  0  0  0  0  0  0  0  0  # atno 11005 bound_to 11000
  146.3001  139.7399  142.9098 LP  0  0  0  0  0  0  0  0  0  0  0  0  # atno 17320 bound_to 7965
  145.3936  141.0376  143.3110 LP  0  0  0  0  0  0  0  0  0  0  0  0  # atno 17321 bound_to 7965
  140.7336  143.6790  150.8017 LP  0  0  0  0  0  0  0  0  0  0  0  0  # atno 17342 bound_to 10162
  140.0389  143.5366  152.2727 LP  0  0  0  0  0  0  0  0  0  0  0  0  # atno 17343 bound_to 10162
  156.5122  130.4142  149.6295 LP  0  0  0  0  0  0  0  0  0  0  0  0  # atno 17370 bound_to 10713
  156.3230  130.7290  151.2206 LP  0  0  0  0  0  0  0  0  0  0  0  0  # atno 17371 bound_to 10713
  139.9063  135.0180  156.7500 LP  0  0  0  0  0  0  0  0  0  0  0  0  # atno 17394 bound_to 11000
  140.6813  133.9472  155.7912 LP  0  0  0  0  0  0  0  0  0  0  0  0  # atno 17395 bound_to 11000

$$$$
