#       Name:                AV-unprocessed.smi:2654
#       Creating user name   scv26
#       Creation time:       Fri Mar 27 14:31:06 2020


#       File generated by GOLD software.
#

@<TRIPOS>MOLECULE
AV-unprocessed.smi:2654
    40    42     1
SMALL
NO_CHARGES


@<TRIPOS>ATOM
      1 ****        -2.7080   2.2607   0.6062 O.2            1 S1                 0.0000
      2 ****        -3.0575   1.1406   0.2341 C.2            1 S1                 0.0000
      3 ****        -2.2309   0.1107  -0.0164 N.am           1 S1                 0.0000
      4 ****        -0.8143   0.0604   0.0886 C.ar           1 S1                 0.0000
      5 ****        -0.0336   0.9582   0.8527 C.ar           1 S1                 0.0000
      6 ****         1.3643   0.7897   0.8816 C.ar           1 S1                 0.0000
      7 ****         1.9550  -0.2700   0.1591 C.ar           1 S1                 0.0000
      8 ****         3.3706  -0.3451   0.2495 N.am           1 S1                 0.0000
      9 ****         4.1961  -1.2539  -0.3027 C.2            1 S1                 0.0000
     10 ****         3.8223  -2.2092  -0.9852 O.2            1 S1                 0.0000
     11 ****         5.6383  -0.9989  -0.0049 C.3            1 S1                 0.0000
     12 ****         6.6508  -1.3596  -1.0733 C.3            1 S1                 0.0000
     13 ****         6.5440  -2.2005   0.1739 C.3            1 S1                 0.0000
     14 ****         1.1994  -1.1357  -0.5596 N.ar           1 S1                 0.0000
     15 ****        -0.1395  -0.9745  -0.5876 C.ar           1 S1                 0.0000
     16 ****        -4.3334   0.7989   0.0090 N.am           1 S1                 0.0000
     17 ****        -5.4614   1.6600   0.1618 C.3            1 S1                 0.0000
     18 ****        -6.7543   1.0453   0.6533 C.3            1 S1                 0.0000
     19 ****        -6.6260   1.4653  -0.7850 C.3            1 S1                 0.0000
     20 ****        -2.6642  -0.7244  -0.3826 H              1 S1                 0.0000
     21 ****        -0.4718   1.7610   1.4243 H              1 S1                 0.0000
     22 ****         1.9729   1.4706   1.4589 H              1 S1                 0.0000
     23 ****         3.8097   0.3807   0.7967 H              1 S1                 0.0000
     24 ****         5.8627  -0.1244   0.6042 H              1 S1                 0.0000
     25 ****         6.2932  -1.7976  -2.0037 H              1 S1                 0.0000
     26 ****         7.5142  -0.7056  -1.1761 H              1 S1                 0.0000
     27 ****         7.3354  -2.1160   0.9157 H              1 S1                 0.0000
     28 ****         6.1158  -3.1961   0.0706 H              1 S1                 0.0000
     29 ****        -0.6890  -1.6953  -1.1757 H              1 S1                 0.0000
     30 ****        -4.5234  -0.1434  -0.2995 H              1 S1                 0.0000
     31 ****        -5.2695   2.6848   0.4769 H              1 S1                 0.0000
     32 ****        -6.7632  -0.0221   0.8657 H              1 S1                 0.0000
     33 ****        -7.3837   1.6533   1.3000 H              1 S1                 0.0000
     34 ****        -7.1706   2.3535  -1.0990 H              1 S1                 0.0000
     35 ****        -6.5494   0.6781  -1.5328 H              1 S1                 0.0000
     36 ****        -1.7383   2.4614   0.7453 LP             1 S1                 0.0000
     37 ****        -3.3938   2.9700   0.7694 LP             1 S1                 0.0000
     38 ****         2.8475  -2.3478  -1.1599 LP             1 S1                 0.0000
     39 ****         4.4937  -2.8459  -1.3644 LP             1 S1                 0.0000
     40 ****         1.6294  -1.8850  -1.0631 LP             1 S1                 0.0000
@<TRIPOS>BOND
    1    1    2 2     
    2    2    3 am    
    3    2   16 am    
    4    3    4 1     
    5    3   20 1     
    6    4   15 ar    
    7    4    5 ar    
    8    5    6 ar    
    9    5   21 1     
   10    6    7 ar    
   11    6   22 1     
   12    7    8 1     
   13    7   14 ar    
   14    8    9 am    
   15    8   23 1     
   16    9   10 2     
   17    9   11 1     
   18   11   13 1     
   19   11   12 1     
   20   11   24 1     
   21   12   13 1     
   22   12   25 1     
   23   12   26 1     
   24   13   27 1     
   25   13   28 1     
   26   14   15 ar    
   27   15   29 1     
   28   16   17 1     
   29   16   30 1     
   30   17   19 1     
   31   17   18 1     
   32   17   31 1     
   33   18   19 1     
   34   18   32 1     
   35   18   33 1     
   36   19   34 1     
   37   19   35 1     
   38    1   36 1     
   39    1   37 1     
   40   10   38 1     
   41   10   39 1     
   42   14   40 1     
@<TRIPOS>SUBSTRUCTURE
      1 S1             1
@<TRIPOS>SET
LONE_PAIRS      STATIC     ATOMS    <user>   **** ""
5 36 37 38 39 40
DONOR_HYDROGENS      STATIC     ATOMS    <user>   **** ""
3 20 23 30
ATOM$BLUE        STATIC     ATOMS    COLORGROUP SYSTEM
5 36 37 38 39 40
ATOM$RED        STATIC     ATOMS    COLORGROUP SYSTEM
3 20 23 30
