#       Name:                AV-unprocessed.smi:610
#       Creating user name   scv26
#       Creation time:       Thu Mar 26 23:58:26 2020


#       File generated by GOLD software.
#

@<TRIPOS>MOLECULE
AV-unprocessed.smi:610
    41    42     1
SMALL
NO_CHARGES


@<TRIPOS>ATOM
      1 ****        -2.7383  -1.6438   1.1640 C.3            1 S1                 0.0000
      2 ****        -2.1989  -0.5760   0.2003 C.3            1 S1                 0.0000
      3 ****        -2.8104  -0.7212  -1.2060 C.3            1 S1                 0.0000
      4 ****        -2.4176   0.3608  -2.0901 N.pl3          1 S1                 0.0000
      5 ****        -1.4225   0.3345  -3.0588 C.2            1 S1                 0.0000
      6 ****        -1.4062   1.5828  -3.6390 C.2            1 S1                 0.0000
      7 ****        -2.3772   2.3875  -3.0476 N.2            1 S1                 0.0000
      8 ****        -2.9352   1.5958  -2.1408 C.2            1 S1                 0.0000
      9 ****        -0.7430  -0.6688   0.1213 N.am           1 S1                 0.0000
     10 ****         0.1324  -0.0359   0.9214 C.2            1 S1                 0.0000
     11 ****        -0.2306   0.6855   1.8516 O.2            1 S1                 0.0000
     12 ****         1.6457  -0.2386   0.6513 C.3            1 S1                 0.0000
     13 ****         1.8848  -1.0519  -0.5350 N.3            1 S1                 0.0000
     14 ****         2.3829   1.1186   0.4828 C.3            1 S1                 0.0000
     15 ****         3.4296   1.2047   1.6008 C.3            1 S1                 0.0000
     16 ****         2.9586   0.2232   2.6686 C.3            1 S1                 0.0000
     17 ****         2.3270  -0.9127   1.8654 C.3            1 S1                 0.0000
     18 ****        -3.8234  -1.5818   1.2486 H              1 S1                 0.0000
     19 ****        -2.3244  -1.5181   2.1651 H              1 S1                 0.0000
     20 ****        -2.4879  -2.6491   0.8235 H              1 S1                 0.0000
     21 ****        -2.4798   0.4044   0.5901 H              1 S1                 0.0000
     22 ****        -2.5181  -1.6698  -1.6591 H              1 S1                 0.0000
     23 ****        -3.8995  -0.7265  -1.1442 H              1 S1                 0.0000
     24 ****        -0.8236  -0.5443  -3.2477 H              1 S1                 0.0000
     25 ****        -0.7752   1.9607  -4.4301 H              1 S1                 0.0000
     26 ****        -3.7374   1.9228  -1.4954 H              1 S1                 0.0000
     27 ****        -0.3620  -1.2517  -0.6103 H              1 S1                 0.0000
     28 ****         1.6423  -0.5165  -1.3563 H              1 S1                 0.0000
     29 ****         2.8729  -1.2473  -0.6083 H              1 S1                 0.0000
     30 ****         2.8612   1.2255  -0.4922 H              1 S1                 0.0000
     31 ****         1.6969   1.9629   0.5695 H              1 S1                 0.0000
     32 ****         4.3987   0.8835   1.2172 H              1 S1                 0.0000
     33 ****         3.5468   2.2176   1.9873 H              1 S1                 0.0000
     34 ****         3.7689  -0.1179   3.3132 H              1 S1                 0.0000
     35 ****         2.2060   0.6961   3.3009 H              1 S1                 0.0000
     36 ****         1.6393  -1.4999   2.4764 H              1 S1                 0.0000
     37 ****         3.1158  -1.5943   1.5417 H              1 S1                 0.0000
     38 ****        -2.6013   3.3392  -3.2574 LP             1 S1                 0.0000
     39 ****        -1.2054   0.8160   2.0321 LP             1 S1                 0.0000
     40 ****         0.4496   1.1406   2.4262 LP             1 S1                 0.0000
     41 ****         1.3458  -1.8915  -0.4673 LP             1 S1                 0.0000
@<TRIPOS>BOND
    1    1    2 1     
    2    1   18 1     
    3    1   19 1     
    4    1   20 1     
    5    2    3 1     
    6    2    9 1     
    7    2   21 1     
    8    3    4 1     
    9    3   22 1     
   10    3   23 1     
   11    4    8 1     
   12    4    5 1     
   13    5    6 2     
   14    5   24 1     
   15    6    7 1     
   16    6   25 1     
   17    7    8 2     
   18    8   26 1     
   19    9   10 am    
   20    9   27 1     
   21   10   11 2     
   22   10   12 1     
   23   12   17 1     
   24   12   13 1     
   25   12   14 1     
   26   13   28 1     
   27   13   29 1     
   28   14   15 1     
   29   14   30 1     
   30   14   31 1     
   31   15   16 1     
   32   15   32 1     
   33   15   33 1     
   34   16   17 1     
   35   16   34 1     
   36   16   35 1     
   37   17   36 1     
   38   17   37 1     
   39    7   38 1     
   40   11   39 1     
   41   11   40 1     
   42   13   41 1     
@<TRIPOS>SUBSTRUCTURE
      1 S1             1
@<TRIPOS>SET
LONE_PAIRS      STATIC     ATOMS    <user>   **** ""
4 38 39 40 41
DONOR_HYDROGENS      STATIC     ATOMS    <user>   **** ""
3 27 28 29
ATOM$BLUE        STATIC     ATOMS    COLORGROUP SYSTEM
4 38 39 40 41
ATOM$RED        STATIC     ATOMS    COLORGROUP SYSTEM
3 27 28 29
