AV-unprocessed.smi:2355|AV-procd|sdf|9385|dock8
  -GOLD-   2272013 13D 1   1.00000     0.00000
 Structure written by MMmdl.
 48 49  0  0  0  0  0  0  0  0  1 V2000
  151.9008  145.9166  160.3517 C   0  0  0  0  0  0  0  0  0  0  0  0
  151.9446  144.5529  159.6952 C   0  0  0  0  0  0  0  0  0  0  0  0
  152.8084  143.5479  160.1712 C   0  0  0  0  0  0  0  0  0  0  0  0
  152.8017  142.3008  159.5161 C   0  0  0  0  0  0  0  0  0  0  0  0
  153.7075  141.1763  159.9716 C   0  0  0  0  0  0  0  0  0  0  0  0
  152.0076  142.0283  158.4588 N   0  0  0  0  0  0  0  0  0  0  0  0
  151.1704  142.9879  157.9926 C   0  0  0  0  0  0  0  0  0  0  0  0
  150.2924  142.8012  156.8919 N   0  0  0  0  0  0  0  0  0  0  0  0
  150.1293  141.7008  156.1367 C   0  0  0  0  0  0  0  0  0  0  0  0
  150.7580  140.6496  156.2654 O   0  0  0  0  0  0  0  0  0  0  0  0
  149.1775  141.8885  155.2108 N   0  0  0  0  0  0  0  0  0  0  0  0
  148.7085  140.8886  154.2512 C   0  0  2  0  0  0  0  0  0  0  0  0
  147.5504  141.4694  153.4198 C   0  0  0  0  0  0  0  0  0  0  0  0
  148.3817  139.5433  154.9729 C   0  0  2  0  0  0  0  0  0  0  0  0
  147.5644  139.8209  156.2615 C   0  0  0  0  0  0  0  0  0  0  0  0
  149.5752  138.6963  155.2275 N   0  0  0  0  0  0  0  0  0  0  0  0
  149.2249  137.3069  155.5446 C   0  0  0  0  0  0  0  0  0  0  0  0
  150.4575  136.4206  155.7948 C   0  0  0  0  0  0  0  0  0  0  0  0
  151.3162  136.4622  154.6639 O   0  0  0  0  0  0  0  0  0  0  0  0
  151.7451  137.7842  154.3702 C   0  0  0  0  0  0  0  0  0  0  0  0
  150.5224  138.6793  154.1057 C   0  0  0  0  0  0  0  0  0  0  0  0
  151.1161  144.2667  158.5913 C   0  0  0  0  0  0  0  0  0  0  0  0
  152.5809  145.9703  161.2025 H   0  0  0  0  0  0  0  0  0  0  0  0
  150.8929  146.1324  160.7070 H   0  0  0  0  0  0  0  0  0  0  0  0
  152.1868  146.6885  159.6368 H   0  0  0  0  0  0  0  0  0  0  0  0
  153.4589  143.7277  161.0146 H   0  0  0  0  0  0  0  0  0  0  0  0
  154.2328  141.4388  160.8904 H   0  0  0  0  0  0  0  0  0  0  0  0
  154.4506  140.9562  159.2048 H   0  0  0  0  0  0  0  0  0  0  0  0
  153.1277  140.2717  160.1582 H   0  0  0  0  0  0  0  0  0  0  0  0
  149.7083  143.5919  156.6641 H   0  0  0  0  0  0  0  0  0  0  0  0
  148.7157  142.7856  155.1841 H   0  0  0  0  0  0  0  0  0  0  0  0
  149.4816  140.6942  153.5093 H   0  0  0  0  0  0  0  0  0  0  0  0
  147.1195  140.7138  152.7626 H   0  0  0  0  0  0  0  0  0  0  0  0
  147.9041  142.2860  152.7893 H   0  0  0  0  0  0  0  0  0  0  0  0
  146.7525  141.8740  154.0418 H   0  0  0  0  0  0  0  0  0  0  0  0
  147.7237  138.9880  154.3024 H   0  0  0  0  0  0  0  0  0  0  0  0
  146.7068  140.4650  156.0776 H   0  0  0  0  0  0  0  0  0  0  0  0
  148.1755  140.2946  157.0304 H   0  0  0  0  0  0  0  0  0  0  0  0
  147.1398  138.9120  156.6846 H   0  0  0  0  0  0  0  0  0  0  0  0
  148.6137  137.2594  156.4436 H   0  0  0  0  0  0  0  0  0  0  0  0
  148.6317  136.8810  154.7340 H   0  0  0  0  0  0  0  0  0  0  0  0
  150.9964  136.7500  156.6844 H   0  0  0  0  0  0  0  0  0  0  0  0
  150.1517  135.3891  155.9701 H   0  0  0  0  0  0  0  0  0  0  0  0
  152.3382  138.1762  155.1981 H   0  0  0  0  0  0  0  0  0  0  0  0
  152.3942  137.7617  153.4947 H   0  0  0  0  0  0  0  0  0  0  0  0
  150.0170  138.3473  153.1976 H   0  0  0  0  0  0  0  0  0  0  0  0
  150.9077  139.6777  153.9094 H   0  0  0  0  0  0  0  0  0  0  0  0
  150.4450  145.0231  158.2102 H   0  0  0  0  0  0  0  0  0  0  0  0
  1  2  1  0  0  0  0
  1 23  1  0  0  0  0
  1 24  1  0  0  0  0
  1 25  1  0  0  0  0
  2 22  1  0  0  0  0
  2  3  2  0  0  0  0
  3  4  1  0  0  0  0
  3 26  1  0  0  0  0
  4  5  1  0  0  0  0
  4  6  2  0  0  0  0
  5 27  1  0  0  0  0
  5 28  1  0  0  0  0
  5 29  1  0  0  0  0
  6  7  1  0  0  0  0
  7  8  1  0  0  0  0
  7 22  2  0  0  0  0
  8  9  1  0  0  0  0
  8 30  1  0  0  0  0
  9 10  2  0  0  0  0
  9 11  1  0  0  0  0
 11 12  1  0  0  0  0
 11 31  1  0  0  0  0
 12 13  1  0  0  0  0
 12 14  1  0  0  0  0
 12 32  1  0  0  0  0
 13 33  1  0  0  0  0
 13 34  1  0  0  0  0
 13 35  1  0  0  0  0
 14 15  1  0  0  0  0
 14 16  1  0  0  0  0
 14 36  1  0  0  0  0
 15 37  1  0  0  0  0
 15 38  1  0  0  0  0
 15 39  1  0  0  0  0
 16 21  1  0  0  0  0
 16 17  1  0  0  0  0
 17 18  1  0  0  0  0
 17 40  1  0  0  0  0
 17 41  1  0  0  0  0
 18 19  1  0  0  0  0
 18 42  1  0  0  0  0
 18 43  1  0  0  0  0
 19 20  1  0  0  0  0
 20 21  1  0  0  0  0
 20 44  1  0  0  0  0
 20 45  1  0  0  0  0
 21 46  1  0  0  0  0
 21 47  1  0  0  0  0
 22 48  1  0  0  0  0
M  END
> <s_m_source_file>
AV-unprocessed.smi

> <i_m_source_file_index>
2355

> <i_lp_mmshare_version>
43012

> <i_f3d_flags>
0

> <s_epik_input>
W0NIM11jMVtjSF1jKFtDSDNdKW5jKFtjSF0xKVtOSF1DKD1PKVtOSF1bQ0BIXShbQ0gzXSlbQ0BIXShbQ0gzXSlOMltDSDJdW0NIMl1PW0NIMl1bQ0gyXTI=

> <s_epik_cmdline>
J2VwaWtfcHl0aG9uJywgJy1waCcsICc3LjAnLCAnLXRuJywgJzgnLCAnLW1hJywgJzIwMCcsICctbWV0YWxfYmluZGluZycsICctaW1hZScsICc8aW5maWxlLm1hZT4nLCAnLW9tYWUnLCAnPG91dGZpbGUubWFlPic=

> <r_epik_Ionization_Penalty>
0.266238

> <r_epik_Ionization_Penalty_Charging>
0

> <r_epik_Ionization_Penalty_Neutral>
0.266238

> <r_epik_State_Penalty>
0.257924

> <r_epik_Charging_Adjusted_Penalty>
0.257924

> <i_epik_Tot_Q>
0

> <i_epik_Tot_abs_Q>
0

> <r_epik_Metal_State_Penalty>
0.257904

> <b_epik_Metal_Only>
0

> <s_lp_Force_Field>
OPLS_2005

> <r_lp_Energy>
36.7742

> <b_lp_Chiralities_Consistent>
1

> <s_lp_Variant>
AV-unprocessed.smi:2355-1

> <Gold.Version>
5.8.1

> <Gold.Id.Protein>
6NUR|6NUR_protein|mol2

> <Gold.PLP.Fitness>
52.1358

> <Gold.PLP.PLP>
-44.6817

> <Gold.PLP.part.hbond>
-3.0000

> <Gold.PLP.part.metal>
0.0000

> <Gold.PLP.part.buried>
-7.9322

> <Gold.PLP.part.nonpolar>
-36.3673

> <Gold.PLP.part.repulsive>
0.4751

> <Gold.PLP.ligand.clash>
0.0000

> <Gold.PLP.ligand.torsion>
0.6878

> <Gold.PLP.Chemscore.Hbond>
2.9120

> <Gold.PLP.Chemscore.CHOScore>
0.0000

> <Gold.PLP.Chemscore.Metal>
0.0000

> <Gold.Chemscore.Hbonds>
donor molecule, donor type, donor heavy atom, donor atom, acceptor molecule, acceptor atom, score
      L1  H     8    30       P1  8028  1.00
      L1  H    11    31       P1  8028  0.91
      P1  H 10752 10763       L1    19  1.00

> <Gold.PLP.Chemscore.Internal.Correction>
0.0937

> <Gold.Rescore>
     Score         DG    S(hbond)    S(metal)    S(lipo)     H(rot)  DE(clash)    DE(int)     intcor
     17.74     -24.18       2.69        0.00     113.71       1.40       0.25       6.19       ----

> <Gold.Chemscore.Fitness>
17.7375

> <Gold.Chemscore.DG>
-24.1795

> <Gold.Chemscore.ZeroCoef>
-5.4800

> <Gold.Chemscore.Hbond>
2.6897

> <Gold.Chemscore.Metal>
0.0000

> <Gold.Chemscore.Lipo>
113.7074

> <Gold.Chemscore.Internal_Hbond>
0.0000

> <Gold.Chemscore.DEClash>
0.2544

> <Gold.Chemscore.DEInternal>
6.1876

> <Gold.Chemscore.Rot>
1.4015

> <Gold.Chemscore.Internal.Correction>
   9.000000E+99

> <Gold.Chemscore.Hbonds>
donor molecule, donor type, donor heavy atom, donor atom, acceptor molecule, acceptor atom, score
      L1  H     8    30       P1  8028  0.99
      L1  H    11    31       P1  8028  0.87
      P1  H 10752 10763       L1    19  0.25

> <Gold.Chemscore.Hbond.Weighted>
-8.9835

> <Gold.Chemscore.Metal.Weighted>
-0.0000

> <Gold.Chemscore.Lipo.Weighted>
-13.3038

> <Gold.Chemscore.Internal_Hbond.Weighted>
0.0000

> <Gold.Chemscore.DEClash.Weighted>
0.2544

> <Gold.Chemscore.DEInternal.Weighted>
6.1876

> <Gold.Chemscore.Rot.Weighted>
3.5878

> <Gold.Chemscore.Internal.Correction.Weighted>
   9.000000E+99

> <Gold.Protein.RotatedTorsions>
[ 6907 6896 6895 6894 ] final -159.33 input  -60.11 | X-H torsion
[ 7974 7965 7964 7962 ] final   -4.27 input  175.53 | X-H torsion
[ 8008 7997 7996 7995 ] final  107.38 input   59.86 | X-H torsion
[ 10167 10162 10161 10158 ] final  171.28 input  -65.29 | X-H torsion
[ 10718 10713 10712 10709 ] final  -58.12 input   66.30 | X-H torsion
[ 10763 10752 10751 10750 ] final   62.12 input  -60.55 | X-H torsion
[ 11005 11000 10999 10996 ] final  -46.20 input  -57.11 | X-H torsion

> <Gold.Protein.ActiveResidues>
 VAL166  LYS551  ARG553  GLY616  TRP617  ASP618  TYR619  PRO620  LYS621  CYS622 
 ASP623  PHE694  ASN695  SER759  ASP760  ASP761  ALA762  ILE779  LEU786  VAL792 
 PHE793  MET794  SER795  GLU796  ALA797  LYS798  CYS799  TRP800  GLU811  SER814 

> <Gold.Protein.RotatedAtoms>
  151.3319  133.3997  159.2663 H   0  0  0  0  0  0  0  0  0  0  0  0  # atno 6907 bound_to 6896
  150.9948  134.9275  159.7931 H   0  0  0  0  0  0  0  0  0  0  0  0  # atno 6908 bound_to 6896
  152.5258  134.3284  159.9226 H   0  0  0  0  0  0  0  0  0  0  0  0  # atno 6909 bound_to 6896
  146.2375  140.1846  142.8332 H   0  0  0  0  0  0  0  0  0  0  0  0  # atno 7974 bound_to 7965
  156.1819  140.3096  155.9165 H   0  0  0  0  0  0  0  0  0  0  0  0  # atno 8008 bound_to 7997
  155.3365  140.0463  157.3061 H   0  0  0  0  0  0  0  0  0  0  0  0  # atno 8009 bound_to 7997
  154.5352  140.2244  155.8744 H   0  0  0  0  0  0  0  0  0  0  0  0  # atno 8010 bound_to 7997
  139.5042  144.3504  151.9929 H   0  0  0  0  0  0  0  0  0  0  0  0  # atno 10167 bound_to 10162
  156.1159  130.4170  150.0534 H   0  0  0  0  0  0  0  0  0  0  0  0  # atno 10718 bound_to 10713
  152.9972  135.5476  154.6142 H   0  0  0  0  0  0  0  0  0  0  0  0  # atno 10763 bound_to 10752
  154.5456  135.2823  155.1058 H   0  0  0  0  0  0  0  0  0  0  0  0  # atno 10764 bound_to 10752
  154.2318  135.6432  153.5230 H   0  0  0  0  0  0  0  0  0  0  0  0  # atno 10765 bound_to 10752
  141.0564  133.6724  156.3121 H   0  0  0  0  0  0  0  0  0  0  0  0  # atno 11005 bound_to 11000
  144.9907  140.8544  143.5341 LP  0  0  0  0  0  0  0  0  0  0  0  0  # atno 17320 bound_to 7965
  145.1851  139.2331  143.5272 LP  0  0  0  0  0  0  0  0  0  0  0  0  # atno 17321 bound_to 7965
  140.2940  144.3721  150.6080 LP  0  0  0  0  0  0  0  0  0  0  0  0  # atno 17342 bound_to 10162
  140.5924  143.2167  151.7227 LP  0  0  0  0  0  0  0  0  0  0  0  0  # atno 17343 bound_to 10162
  156.8485  130.9451  151.3627 LP  0  0  0  0  0  0  0  0  0  0  0  0  # atno 17370 bound_to 10713
  157.6342  130.8753  149.9328 LP  0  0  0  0  0  0  0  0  0  0  0  0  # atno 17371 bound_to 10713
  140.5956  134.5607  157.5508 LP  0  0  0  0  0  0  0  0  0  0  0  0  # atno 17394 bound_to 11000
  139.9394  134.7815  156.0718 LP  0  0  0  0  0  0  0  0  0  0  0  0  # atno 17395 bound_to 11000

$$$$
