#       Name:                AV-unprocessed.smi:1893
#       Creating user name   scv26
#       Creation time:       Fri Mar 27 09:41:38 2020


#       File generated by GOLD software.
#

@<TRIPOS>MOLECULE
AV-unprocessed.smi:1893
    47    48     1
SMALL
NO_CHARGES


@<TRIPOS>ATOM
      1 ****        -2.0391   3.0789  -0.9646 C.3            1 S1                 0.0000
      2 ****        -2.4715   1.9908   0.0425 C.3            1 S1                 0.0000
      3 ****        -4.0024   1.9403   0.2307 C.3            1 S1                 0.0000
      4 ****        -4.7133   1.3305  -0.9864 C.3            1 S1                 0.0000
      5 ****        -4.1193  -0.0464  -1.3065 C.3            1 S1                 0.0000
      6 ****        -2.5941   0.0322  -1.4855 C.3            1 S1                 0.0000
      7 ****        -1.9438   0.6327  -0.2882 N.4            1 S1                 1.0000
      8 ****        -0.4598   0.5600  -0.3116 C.3            1 S1                 0.0000
      9 ****         0.0617  -0.8541   0.0058 C.3            1 S1                 0.0000
     10 ****         1.5186  -0.8907   0.0423 N.am           1 S1                 0.0000
     11 ****         2.2704  -0.5244   1.0935 C.2            1 S1                 0.0000
     12 ****         1.7854  -0.0818   2.1356 O.2            1 S1                 0.0000
     13 ****         3.7940  -0.6740   0.9325 C.3            1 S1                 0.0000
     14 ****         4.5877  -0.0749   2.1113 C.3            1 S1                 0.0000
     15 ****         4.1554  -2.0670   0.6965 N.pl3          1 S1                 0.0000
     16 ****         4.5419  -2.6767  -0.4262 C.2            1 S1                 0.0000
     17 ****         4.7606  -3.9765  -0.2853 N.2            1 S1                 0.0000
     18 ****         4.4664  -4.1150   1.0416 C.2            1 S1                 0.0000
     19 ****         4.0913  -3.0041   1.6752 N.2            1 S1                 0.0000
     20 ****        -2.4315   4.0524  -0.6700 H              1 S1                 0.0000
     21 ****        -2.3982   2.8792  -1.9736 H              1 S1                 0.0000
     22 ****        -0.9548   3.1777  -1.0130 H              1 S1                 0.0000
     23 ****        -2.0496   2.2697   1.0092 H              1 S1                 0.0000
     24 ****        -4.2348   1.3422   1.1131 H              1 S1                 0.0000
     25 ****        -4.3933   2.9383   0.4323 H              1 S1                 0.0000
     26 ****        -5.7822   1.2414  -0.7904 H              1 S1                 0.0000
     27 ****        -4.6124   1.9887  -1.8497 H              1 S1                 0.0000
     28 ****        -4.3568  -0.7427  -0.5010 H              1 S1                 0.0000
     29 ****        -4.5805  -0.4499  -2.2084 H              1 S1                 0.0000
     30 ****        -2.2144  -0.9745  -1.6553 H              1 S1                 0.0000
     31 ****        -2.3453   0.6080  -2.3775 H              1 S1                 0.0000
     32 ****        -0.0851   0.8994  -1.2784 H              1 S1                 0.0000
     33 ****        -0.0600   1.2484   0.4344 H              1 S1                 0.0000
     34 ****        -0.3441  -1.2079   0.9551 H              1 S1                 0.0000
     35 ****        -0.2589  -1.5675  -0.7524 H              1 S1                 0.0000
     36 ****         1.9895  -1.2440  -0.7783 H              1 S1                 0.0000
     37 ****         4.0708  -0.1144   0.0376 H              1 S1                 0.0000
     38 ****         4.3674   0.9857   2.2381 H              1 S1                 0.0000
     39 ****         5.6612  -0.1653   1.9423 H              1 S1                 0.0000
     40 ****         4.3591  -0.5759   3.0529 H              1 S1                 0.0000
     41 ****         4.6619  -2.1601  -1.3672 H              1 S1                 0.0000
     42 ****         4.5251  -5.0636   1.5545 H              1 S1                 0.0000
     43 ****        -2.2230   0.0541   0.4913 H              1 S1                 0.0000
     44 ****         0.7941   0.0169   2.2234 LP             1 S1                 0.0000
     45 ****         2.3829   0.1789   2.8940 LP             1 S1                 0.0000
     46 ****         5.0553  -4.6577  -0.9555 LP             1 S1                 0.0000
     47 ****         3.8282  -2.8899   2.6332 LP             1 S1                 0.0000
@<TRIPOS>BOND
    1    1    2 1     
    2    1   20 1     
    3    1   21 1     
    4    1   22 1     
    5    2    7 1     
    6    2    3 1     
    7    2   23 1     
    8    3    4 1     
    9    3   24 1     
   10    3   25 1     
   11    4    5 1     
   12    4   26 1     
   13    4   27 1     
   14    5    6 1     
   15    5   28 1     
   16    5   29 1     
   17    6    7 1     
   18    6   30 1     
   19    6   31 1     
   20    7    8 1     
   21    7   43 1     
   22    8    9 1     
   23    8   32 1     
   24    8   33 1     
   25    9   10 1     
   26    9   34 1     
   27    9   35 1     
   28   10   11 am    
   29   10   36 1     
   30   11   12 2     
   31   11   13 1     
   32   13   14 1     
   33   13   15 1     
   34   13   37 1     
   35   14   38 1     
   36   14   39 1     
   37   14   40 1     
   38   15   19 1     
   39   15   16 1     
   40   16   17 2     
   41   16   41 1     
   42   17   18 1     
   43   18   19 2     
   44   18   42 1     
   45   12   44 1     
   46   12   45 1     
   47   17   46 1     
   48   19   47 1     
@<TRIPOS>SUBSTRUCTURE
      1 S1             1
@<TRIPOS>SET
LONE_PAIRS      STATIC     ATOMS    <user>   **** ""
4 44 45 46 47
DONOR_HYDROGENS      STATIC     ATOMS    <user>   **** ""
2 43 36
ATOM$BLUE        STATIC     ATOMS    COLORGROUP SYSTEM
4 44 45 46 47
ATOM$RED        STATIC     ATOMS    COLORGROUP SYSTEM
2 43 36
