AV-unprocessed.smi:3187|AV-procd|sdf|12179|dock9
  -GOLD-   2272018 23D 1   1.00000     0.00000
 Structure written by MMmdl.
 42 43  0  0  0  0  0  0  0  0  3 V2000
  152.0245  145.1919  157.0590 C   0  0  0  0  0  0  0  0  0  0  0  0
  152.0973  144.5419  158.4310 C   0  0  0  0  0  0  0  0  0  0  0  0
  152.0884  145.2932  159.5501 C   0  0  0  0  0  0  0  0  0  0  0  0
  152.2110  144.7472  160.9619 C   0  0  0  0  0  0  0  0  0  0  0  0
  152.1523  143.2121  161.0220 C   0  0  0  0  0  0  0  0  0  0  0  0
  152.8789  142.5761  159.8245 C   0  0  1  0  0  0  0  0  0  0  0  0
  153.0450  141.0553  159.9877 C   0  0  0  0  0  0  0  0  0  0  0  0
  152.2281  143.0133  158.4815 C   0  0  1  0  0  0  0  0  0  0  0  0
  150.8793  142.3001  158.2001 C   0  0  0  0  0  0  0  0  0  0  0  0
  150.4303  142.4555  156.8023 N   0  3  0  0  0  0  0  0  0  0  0  0
  149.5781  141.3540  156.3140 C   0  0  0  0  0  0  0  0  0  0  0  0
  149.4262  141.4091  154.7872 C   0  0  0  0  0  0  0  0  0  0  0  0
  148.0289  141.5851  154.3842 N   0  0  0  0  0  0  0  0  0  0  0  0
  147.1452  142.5285  154.8424 C   0  0  0  0  0  0  0  0  0  0  0  0
  145.9608  142.3050  154.1886 C   0  0  0  0  0  0  0  0  0  0  0  0
  146.1716  141.2364  153.3589 N   0  3  0  0  0  0  0  0  0  0  0  0
  147.4300  140.8002  153.4786 C   0  0  0  0  0  0  0  0  0  0  0  0
  152.7996  144.7935  156.4039 H   0  0  0  0  0  0  0  0  0  0  0  0
  152.1742  146.2700  157.1289 H   0  0  0  0  0  0  0  0  0  0  0  0
  151.0545  145.0321  156.5916 H   0  0  0  0  0  0  0  0  0  0  0  0
  152.0200  146.3686  159.4705 H   0  0  0  0  0  0  0  0  0  0  0  0
  153.1642  145.0931  161.3630 H   0  0  0  0  0  0  0  0  0  0  0  0
  151.4306  145.1789  161.5892 H   0  0  0  0  0  0  0  0  0  0  0  0
  152.5906  142.8716  161.9609 H   0  0  0  0  0  0  0  0  0  0  0  0
  151.1127  142.8847  161.0400 H   0  0  0  0  0  0  0  0  0  0  0  0
  153.8926  142.9811  159.8233 H   0  0  0  0  0  0  0  0  0  0  0  0
  152.0913  140.5543  160.1536 H   0  0  0  0  0  0  0  0  0  0  0  0
  153.6787  140.8272  160.8453 H   0  0  0  0  0  0  0  0  0  0  0  0
  153.5146  140.6128  159.1089 H   0  0  0  0  0  0  0  0  0  0  0  0
  152.9263  142.7258  157.6938 H   0  0  0  0  0  0  0  0  0  0  0  0
  150.9610  141.2300  158.3860 H   0  0  0  0  0  0  0  0  0  0  0  0
  150.1055  142.6808  158.8678 H   0  0  0  0  0  0  0  0  0  0  0  0
  149.9100  143.3188  156.7329 H   0  0  0  0  0  0  0  0  0  0  0  0
  150.0161  140.4005  156.6130 H   0  0  0  0  0  0  0  0  0  0  0  0
  148.5983  141.4232  156.7890 H   0  0  0  0  0  0  0  0  0  0  0  0
  149.9987  142.2406  154.3731 H   0  0  0  0  0  0  0  0  0  0  0  0
  149.8039  140.4960  154.3241 H   0  0  0  0  0  0  0  0  0  0  0  0
  147.4156  143.2705  155.5800 H   0  0  0  0  0  0  0  0  0  0  0  0
  145.0091  142.8130  154.2496 H   0  0  0  0  0  0  0  0  0  0  0  0
  147.8720  139.9757  152.9478 H   0  0  0  0  0  0  0  0  0  0  0  0
  151.2470  142.5231  156.2115 H   0  0  0  0  0  0  0  0  0  0  0  0
  145.4771  140.8334  152.7420 H   0  0  0  0  0  0  0  0  0  0  0  0
  1  2  1  0  0  0  0
  1 18  1  0  0  0  0
  1 19  1  0  0  0  0
  1 20  1  0  0  0  0
  2  8  1  0  0  0  0
  2  3  2  0  0  0  0
  3  4  1  0  0  0  0
  3 21  1  0  0  0  0
  4  5  1  0  0  0  0
  4 22  1  0  0  0  0
  4 23  1  0  0  0  0
  5  6  1  0  0  0  0
  5 24  1  0  0  0  0
  5 25  1  0  0  0  0
  6  7  1  0  0  0  0
  6  8  1  0  0  0  0
  6 26  1  0  0  0  0
  7 27  1  0  0  0  0
  7 28  1  0  0  0  0
  7 29  1  0  0  0  0
  8  9  1  0  0  0  0
  8 30  1  0  0  0  0
  9 10  1  0  0  0  0
  9 31  1  0  0  0  0
  9 32  1  0  0  0  0
 10 11  1  0  0  0  0
 10 33  1  0  0  0  0
 10 41  1  0  0  0  0
 11 12  1  0  0  0  0
 11 34  1  0  0  0  0
 11 35  1  0  0  0  0
 12 13  1  0  0  0  0
 12 36  1  0  0  0  0
 12 37  1  0  0  0  0
 13 17  1  0  0  0  0
 13 14  1  0  0  0  0
 14 15  2  0  0  0  0
 14 38  1  0  0  0  0
 15 16  1  0  0  0  0
 15 39  1  0  0  0  0
 16 17  2  0  0  0  0
 16 42  1  0  0  0  0
 17 40  1  0  0  0  0
M  CHG  1  10   1
M  CHG  1  16   1
M  END
> <s_m_source_file>
AV-unprocessed.smi

> <i_m_source_file_index>
3187

> <i_lp_mmshare_version>
43012

> <i_f3d_flags>
0

> <s_epik_input>
W0NIM11DMT1bQ0hdW0NIMl1bQ0gyXVtDQEBIXShbQ0gzXSlbQ0BIXTFbQ0gyXVtOSF1bQ0gyXVtDSDJdbjJbY0hdW2NIXW5bY0hdMg==

> <s_epik_cmdline>
J2VwaWtfcHl0aG9uJywgJy1waCcsICc3LjAnLCAnLXRuJywgJzgnLCAnLW1hJywgJzIwMCcsICctbWV0YWxfYmluZGluZycsICctaW1hZScsICc8aW5maWxlLm1hZT4nLCAnLW9tYWUnLCAnPG91dGZpbGUubWFlPic=

> <r_lp_tautomer_probability>
1

> <r_epik_Ionization_Penalty>
1.51066

> <r_epik_Ionization_Penalty_Charging>
0.0026721

> <r_epik_Ionization_Penalty_Neutral>
1.50798

> <r_epik_State_Penalty>
1.12593

> <r_epik_Charging_Adjusted_Penalty>
1.12861

> <i_epik_Tot_Q>
2

> <i_epik_Tot_abs_Q>
2

> <r_epik_Metal_State_Penalty>
5.12155

> <b_epik_Metal_Only>
0

> <s_lp_Force_Field>
OPLS_2005

> <r_lp_Energy>
24.2531

> <b_lp_Chiralities_Consistent>
1

> <s_lp_Variant>
AV-unprocessed.smi:3187-5

> <Gold.Version>
5.8.1

> <Gold.Id.Protein>
6NUR|6NUR_protein|mol2

> <Gold.PLP.Fitness>
58.9249

> <Gold.PLP.PLP>
-43.7923

> <Gold.PLP.part.hbond>
-2.0000

> <Gold.PLP.part.metal>
0.0000

> <Gold.PLP.part.buried>
-3.2083

> <Gold.PLP.part.nonpolar>
-39.3567

> <Gold.PLP.part.repulsive>
0.0652

> <Gold.PLP.ligand.clash>
0.0000

> <Gold.PLP.ligand.torsion>
0.7326

> <Gold.PLP.Chemscore.Hbond>
3.8385

> <Gold.PLP.Chemscore.CHOScore>
1.6729

> <Gold.PLP.Chemscore.Metal>
0.0000

> <Gold.Chemscore.Hbonds>
donor molecule, donor type, donor heavy atom, donor atom, acceptor molecule, acceptor atom, score
      L1  H    10    33       P1  8028  1.98
      L1  H    16    42       P1 10175  1.86
      L1  C    14    38       P1  8028  0.70
      L1  C    17    40       P1  7957  0.97

> <Gold.PLP.Chemscore.Internal.Correction>
0.0636

> <Gold.Rescore>
     Score         DG    S(hbond)    S(metal)    S(lipo)     H(rot)  DE(clash)    DE(int)     intcor
     19.09     -21.80       1.91        0.00     128.20       1.97       2.01       0.69       ----

> <Gold.Chemscore.Fitness>
19.0947

> <Gold.Chemscore.DG>
-21.7987

> <Gold.Chemscore.ZeroCoef>
-5.4800

> <Gold.Chemscore.Hbond>
1.9074

> <Gold.Chemscore.Metal>
0.0000

> <Gold.Chemscore.Lipo>
128.2009

> <Gold.Chemscore.Internal_Hbond>
0.0000

> <Gold.Chemscore.DEClash>
2.0118

> <Gold.Chemscore.DEInternal>
0.6923

> <Gold.Chemscore.Rot>
1.9732

> <Gold.Chemscore.Internal.Correction>
   9.000000E+99

> <Gold.Chemscore.Hbonds>
donor molecule, donor type, donor heavy atom, donor atom, acceptor molecule, acceptor atom, score
      L1  H    10    33       P1  8028  0.89
      L1  H    16    42       P1 10175  0.27

> <Gold.Chemscore.Hbond.Weighted>
-6.3706

> <Gold.Chemscore.Metal.Weighted>
-0.0000

> <Gold.Chemscore.Lipo.Weighted>
-14.9995

> <Gold.Chemscore.Internal_Hbond.Weighted>
0.0000

> <Gold.Chemscore.DEClash.Weighted>
2.0118

> <Gold.Chemscore.DEInternal.Weighted>
0.6923

> <Gold.Chemscore.Rot.Weighted>
5.0514

> <Gold.Chemscore.Internal.Correction.Weighted>
   9.000000E+99

> <Gold.Protein.RotatedTorsions>
[ 6907 6896 6895 6894 ] final   55.11 input  -60.11 | X-H torsion
[ 7974 7965 7964 7962 ] final  144.55 input  175.53 | X-H torsion
[ 8008 7997 7996 7995 ] final  116.05 input   59.86 | X-H torsion
[ 10167 10162 10161 10158 ] final  129.59 input  -65.29 | X-H torsion
[ 10718 10713 10712 10709 ] final  105.77 input   66.30 | X-H torsion
[ 10763 10752 10751 10750 ] final  164.83 input  -60.55 | X-H torsion
[ 11005 11000 10999 10996 ] final  -17.16 input  -57.11 | X-H torsion

> <Gold.Protein.ActiveResidues>
 VAL166  LYS551  ARG553  GLY616  TRP617  ASP618  TYR619  PRO620  LYS621  CYS622 
 ASP623  PHE694  ASN695  SER759  ASP760  ASP761  ALA762  ILE779  LEU786  VAL792 
 PHE793  MET794  SER795  GLU796  ALA797  LYS798  CYS799  TRP800  GLU811  SER814 

> <Gold.Protein.RotatedAtoms>
  152.3506  134.7011  160.0237 H   0  0  0  0  0  0  0  0  0  0  0  0  # atno 6907 bound_to 6896
  151.7366  133.3314  159.3362 H   0  0  0  0  0  0  0  0  0  0  0  0  # atno 6908 bound_to 6896
  150.7537  134.6249  159.6200 H   0  0  0  0  0  0  0  0  0  0  0  0  # atno 6909 bound_to 6896
  144.8827  139.5675  143.5835 H   0  0  0  0  0  0  0  0  0  0  0  0  # atno 7974 bound_to 7965
  156.2417  140.2925  156.0464 H   0  0  0  0  0  0  0  0  0  0  0  0  # atno 8008 bound_to 7997
  155.1930  140.0407  157.2921 H   0  0  0  0  0  0  0  0  0  0  0  0  # atno 8009 bound_to 7997
  154.6181  140.2469  155.7590 H   0  0  0  0  0  0  0  0  0  0  0  0  # atno 8010 bound_to 7997
  139.5470  144.6782  151.4442 H   0  0  0  0  0  0  0  0  0  0  0  0  # atno 10167 bound_to 10162
  157.6693  131.0835  150.5907 H   0  0  0  0  0  0  0  0  0  0  0  0  # atno 10718 bound_to 10713
  154.3148  135.2757  155.2548 H   0  0  0  0  0  0  0  0  0  0  0  0  # atno 10763 bound_to 10752
  154.4927  135.5829  153.6475 H   0  0  0  0  0  0  0  0  0  0  0  0  # atno 10764 bound_to 10752
  152.9883  135.6138  154.3328 H   0  0  0  0  0  0  0  0  0  0  0  0  # atno 10765 bound_to 10752
  140.8140  133.8119  155.9592 H   0  0  0  0  0  0  0  0  0  0  0  0  # atno 11005 bound_to 11000
  146.3004  139.7410  142.9095 LP  0  0  0  0  0  0  0  0  0  0  0  0  # atno 17320 bound_to 7965
  145.3925  141.0374  143.3116 LP  0  0  0  0  0  0  0  0  0  0  0  0  # atno 17321 bound_to 7965
  140.6721  143.8270  150.7013 LP  0  0  0  0  0  0  0  0  0  0  0  0  # atno 17342 bound_to 10162
  140.1697  143.4204  152.2009 LP  0  0  0  0  0  0  0  0  0  0  0  0  # atno 17343 bound_to 10162
  156.6207  130.4405  149.5823 LP  0  0  0  0  0  0  0  0  0  0  0  0  # atno 17370 bound_to 10713
  156.2357  130.6821  151.1507 LP  0  0  0  0  0  0  0  0  0  0  0  0  # atno 17371 bound_to 10713
  140.9168  134.2191  157.4951 LP  0  0  0  0  0  0  0  0  0  0  0  0  # atno 17394 bound_to 11000
  139.8712  134.9775  156.4960 LP  0  0  0  0  0  0  0  0  0  0  0  0  # atno 17395 bound_to 11000

$$$$
