AV-unprocessed.smi:149|AV-procd|sdf|1240|dock4
  -GOLD-   2262018453D 1   1.00000     0.00000
 Structure written by MMmdl.
 59 63  0  0  0  0  0  0  0  0  1 V2000
  144.2392  136.6724  160.3892 C   0  0  0  0  0  0  0  0  0  0  0  0
  145.1132  136.9843  159.1621 C   0  0  2  0  0  0  0  0  0  0  0  0
  144.8367  136.1435  157.9197 C   0  0  0  0  0  0  0  0  0  0  0  0
  146.0007  136.3600  157.0725 N   0  0  0  0  0  0  0  0  0  0  0  0
  146.1412  135.6733  155.9076 C   0  0  0  0  0  0  0  0  0  0  0  0
  147.2844  134.9669  155.6985 N   0  0  0  0  0  0  0  0  0  0  0  0
  147.4614  134.2761  154.5694 C   0  0  0  0  0  0  0  0  0  0  0  0
  146.6356  134.1526  153.5302 N   0  0  0  0  0  0  0  0  0  0  0  0
  145.4820  134.8506  153.7307 C   0  0  0  0  0  0  0  0  0  0  0  0
  145.1509  135.6240  154.8811 C   0  0  0  0  0  0  0  0  0  0  0  0
  143.8762  136.1601  154.7286 N   0  0  0  0  0  0  0  0  0  0  0  0
  143.4820  135.7334  153.5606 C   0  0  0  0  0  0  0  0  0  0  0  0
  144.3973  134.9651  152.8791 N   0  0  0  0  0  0  0  0  0  0  0  0
  144.2121  134.3379  151.6037 C   0  0  0  0  0  0  0  0  0  0  0  0
  144.1573  132.8141  151.4729 C   0  0  0  0  0  0  0  0  0  0  0  0
  144.8079  132.9175  150.0761 C   0  0  0  0  0  0  0  0  0  0  0  0
  145.8762  131.8540  149.7716 C   0  0  0  0  0  0  0  0  0  0  0  0
  146.7992  131.7348  150.8350 O   0  0  0  0  0  0  0  0  0  0  0  0
  143.8173  132.9940  148.8967 C   0  0  0  0  0  0  0  0  0  0  0  0
  142.7456  132.0879  149.0628 O   0  0  0  0  0  0  0  0  0  0  0  0
  145.3443  134.2783  150.5756 C   0  0  0  0  0  0  0  0  0  0  0  0
  147.1684  136.6259  157.9043 C   0  0  0  0  0  0  0  0  0  0  0  0
  146.6455  136.9104  159.3306 C   0  0  2  0  0  0  0  0  0  0  0  0
  147.1665  136.0287  160.3890 N   0  0  0  0  0  0  0  0  0  0  0  0
  146.9289  136.4928  161.7581 C   0  0  0  0  0  0  0  0  0  0  0  0
  147.5833  135.5587  162.7891 C   0  0  0  0  0  0  0  0  0  0  0  0
  147.0902  134.2345  162.6101 O   0  0  0  0  0  0  0  0  0  0  0  0
  147.3342  133.7273  161.3017 C   0  0  0  0  0  0  0  0  0  0  0  0
  146.6912  134.6551  160.2559 C   0  0  0  0  0  0  0  0  0  0  0  0
  144.3112  135.6332  160.7047 H   0  0  0  0  0  0  0  0  0  0  0  0
  143.1893  136.8706  160.1726 H   0  0  0  0  0  0  0  0  0  0  0  0
  144.5229  137.2980  161.2358 H   0  0  0  0  0  0  0  0  0  0  0  0
  144.8910  138.0160  158.8833 H   0  0  0  0  0  0  0  0  0  0  0  0
  144.7503  135.0857  158.1700 H   0  0  0  0  0  0  0  0  0  0  0  0
  143.9167  136.4566  157.4243 H   0  0  0  0  0  0  0  0  0  0  0  0
  148.3994  133.7475  154.4867 H   0  0  0  0  0  0  0  0  0  0  0  0
  142.5076  135.9744  153.1611 H   0  0  0  0  0  0  0  0  0  0  0  0
  143.3211  134.7955  151.1707 H   0  0  0  0  0  0  0  0  0  0  0  0
  144.7935  132.3106  152.2036 H   0  0  0  0  0  0  0  0  0  0  0  0
  143.1503  132.3956  151.4799 H   0  0  0  0  0  0  0  0  0  0  0  0
  145.4295  130.8785  149.5780 H   0  0  0  0  0  0  0  0  0  0  0  0
  146.4373  132.1158  148.8739 H   0  0  0  0  0  0  0  0  0  0  0  0
  147.6662  131.6413  150.4707 H   0  0  0  0  0  0  0  0  0  0  0  0
  143.4124  133.9994  148.7793 H   0  0  0  0  0  0  0  0  0  0  0  0
  144.3089  132.7561  147.9534 H   0  0  0  0  0  0  0  0  0  0  0  0
  141.9585  132.5825  149.2324 H   0  0  0  0  0  0  0  0  0  0  0  0
  145.3249  135.0831  149.8401 H   0  0  0  0  0  0  0  0  0  0  0  0
  146.3283  134.2020  151.0423 H   0  0  0  0  0  0  0  0  0  0  0  0
  147.8751  135.7976  157.8665 H   0  0  0  0  0  0  0  0  0  0  0  0
  147.6819  137.5070  157.5185 H   0  0  0  0  0  0  0  0  0  0  0  0
  146.9570  137.9226  159.5938 H   0  0  0  0  0  0  0  0  0  0  0  0
  147.3104  137.5014  161.9003 H   0  0  0  0  0  0  0  0  0  0  0  0
  145.8604  136.5391  161.9661 H   0  0  0  0  0  0  0  0  0  0  0  0
  148.6694  135.5688  162.6850 H   0  0  0  0  0  0  0  0  0  0  0  0
  147.3537  135.8912  163.8015 H   0  0  0  0  0  0  0  0  0  0  0  0
  148.4089  133.6431  161.1334 H   0  0  0  0  0  0  0  0  0  0  0  0
  146.9186  132.7226  161.2248 H   0  0  0  0  0  0  0  0  0  0  0  0
  145.6065  134.6223  160.3655 H   0  0  0  0  0  0  0  0  0  0  0  0
  146.9160  134.2785  159.2576 H   0  0  0  0  0  0  0  0  0  0  0  0
  1  2  1  0  0  0  0
  1 30  1  0  0  0  0
  1 31  1  0  0  0  0
  1 32  1  0  0  0  0
  2 23  1  0  0  0  0
  2  3  1  0  0  0  0
  2 33  1  0  0  0  0
  3  4  1  0  0  0  0
  3 34  1  0  0  0  0
  3 35  1  0  0  0  0
  4  5  1  0  0  0  0
  4 22  1  0  0  0  0
  5 10  1  0  0  0  0
  5  6  2  0  0  0  0
  6  7  1  0  0  0  0
  7  8  2  0  0  0  0
  7 36  1  0  0  0  0
  8  9  1  0  0  0  0
  9 13  1  0  0  0  0
  9 10  2  0  0  0  0
 10 11  1  0  0  0  0
 11 12  2  0  0  0  0
 12 13  1  0  0  0  0
 12 37  1  0  0  0  0
 13 14  1  0  0  0  0
 14 21  1  0  0  0  0
 14 15  1  0  0  0  0
 14 38  1  0  0  0  0
 15 16  1  0  0  0  0
 15 39  1  0  0  0  0
 15 40  1  0  0  0  0
 16 17  1  0  0  0  0
 16 19  1  0  0  0  0
 16 21  1  0  0  0  0
 17 18  1  0  0  0  0
 17 41  1  0  0  0  0
 17 42  1  0  0  0  0
 18 43  1  0  0  0  0
 19 20  1  0  0  0  0
 19 44  1  0  0  0  0
 19 45  1  0  0  0  0
 20 46  1  0  0  0  0
 21 47  1  0  0  0  0
 21 48  1  0  0  0  0
 22 23  1  0  0  0  0
 22 49  1  0  0  0  0
 22 50  1  0  0  0  0
 23 24  1  0  0  0  0
 23 51  1  0  0  0  0
 24 29  1  0  0  0  0
 24 25  1  0  0  0  0
 25 26  1  0  0  0  0
 25 52  1  0  0  0  0
 25 53  1  0  0  0  0
 26 27  1  0  0  0  0
 26 54  1  0  0  0  0
 26 55  1  0  0  0  0
 27 28  1  0  0  0  0
 28 29  1  0  0  0  0
 28 56  1  0  0  0  0
 28 57  1  0  0  0  0
 29 58  1  0  0  0  0
 29 59  1  0  0  0  0
M  END
> <s_m_source_file>
AV-unprocessed.smi

> <i_m_source_file_index>
149

> <i_lp_mmshare_version>
43012

> <i_f3d_flags>
0

> <s_epik_input>
W0NIMl0xW0NIMl1PW0NIMl1bQ0gyXU4xW0NAQEhdMltDSDJdTihbQ0gyXVtDQEhdMltDSDNdKWMobltjSF1uMyljKGMzNCluW2NIXW40W0NIXShbQ0gyXTUpW0NIMl1DNShbQ0gyXVtPSF0pW0NIMl1bT0hd

> <s_epik_cmdline>
J2VwaWtfcHl0aG9uJywgJy1waCcsICc3LjAnLCAnLXRuJywgJzgnLCAnLW1hJywgJzIwMCcsICctbWV0YWxfYmluZGluZycsICctaW1hZScsICc8aW5maWxlLm1hZT4nLCAnLW9tYWUnLCAnPG91dGZpbGUubWFlPic=

> <r_lp_tautomer_probability>
1

> <r_epik_Ionization_Penalty>
0.41918

> <r_epik_Ionization_Penalty_Charging>
0

> <r_epik_Ionization_Penalty_Neutral>
0.41918

> <r_epik_State_Penalty>
0.654916

> <r_epik_Charging_Adjusted_Penalty>
0.654916

> <i_epik_Tot_Q>
0

> <i_epik_Tot_abs_Q>
0

> <r_epik_Metal_State_Penalty>
0.653217

> <b_epik_Metal_Only>
0

> <s_lp_Force_Field>
OPLS_2005

> <r_lp_Energy>
80.6686

> <b_lp_Chiralities_Consistent>
1

> <s_lp_Variant>
AV-unprocessed.smi:149-7

> <Gold.Version>
5.8.1

> <Gold.Id.Protein>
6NUR|6NUR_protein|mol2

> <Gold.PLP.Fitness>
45.1302

> <Gold.PLP.PLP>
-37.7272

> <Gold.PLP.part.hbond>
-3.6355

> <Gold.PLP.part.metal>
0.0000

> <Gold.PLP.part.buried>
-6.5978

> <Gold.PLP.part.nonpolar>
-26.9159

> <Gold.PLP.part.repulsive>
0.1457

> <Gold.PLP.ligand.clash>
0.0000

> <Gold.PLP.ligand.torsion>
1.2283

> <Gold.PLP.Chemscore.Hbond>
2.9500

> <Gold.PLP.Chemscore.CHOScore>
0.0000

> <Gold.PLP.Chemscore.Metal>
0.0000

> <Gold.Chemscore.Hbonds>
donor molecule, donor type, donor heavy atom, donor atom, acceptor molecule, acceptor atom, score
      L1  H    18    43       P1 10747  1.00
      L1  H    20    46       P1 10186  0.88
      P1  H 10785 10796       L1    20  1.00

> <Gold.PLP.Chemscore.Internal.Correction>
1.0096

> <Gold.Rescore>
     Score         DG    S(hbond)    S(metal)    S(lipo)     H(rot)  DE(clash)    DE(int)     intcor
     14.03     -16.01       2.69        0.00      86.43       3.34       0.14       1.84       ----

> <Gold.Chemscore.Fitness>
14.0278

> <Gold.Chemscore.DG>
-16.0087

> <Gold.Chemscore.ZeroCoef>
-5.4800

> <Gold.Chemscore.Hbond>
2.6858

> <Gold.Chemscore.Metal>
0.0000

> <Gold.Chemscore.Lipo>
86.4313

> <Gold.Chemscore.Internal_Hbond>
0.0000

> <Gold.Chemscore.DEClash>
0.1394

> <Gold.Chemscore.DEInternal>
1.8415

> <Gold.Chemscore.Rot>
3.3416

> <Gold.Chemscore.Internal.Correction>
   9.000000E+99

> <Gold.Chemscore.Hbonds>
donor molecule, donor type, donor heavy atom, donor atom, acceptor molecule, acceptor atom, score
      L1  H    18    43       P1 10747  0.90
      L1  H    20    46       P1 10186  0.82
      P1  H 10785 10796       L1    20  0.87

> <Gold.Chemscore.Hbond.Weighted>
-8.9707

> <Gold.Chemscore.Metal.Weighted>
-0.0000

> <Gold.Chemscore.Lipo.Weighted>
-10.1125

> <Gold.Chemscore.Internal_Hbond.Weighted>
0.0000

> <Gold.Chemscore.DEClash.Weighted>
0.1394

> <Gold.Chemscore.DEInternal.Weighted>
1.8415

> <Gold.Chemscore.Rot.Weighted>
8.5545

> <Gold.Chemscore.Internal.Correction.Weighted>
   9.000000E+99

> <Gold.Protein.RotatedTorsions>
[ 6907 6896 6895 6894 ] final -130.50 input  -60.11 | X-H torsion
[ 7974 7965 7964 7962 ] final  -83.99 input  175.53 | X-H torsion
[ 8008 7997 7996 7995 ] final   92.62 input   59.86 | X-H torsion
[ 10167 10162 10161 10158 ] final   71.10 input  -65.29 | X-H torsion
[ 10718 10713 10712 10709 ] final  107.94 input   66.30 | X-H torsion
[ 10763 10752 10751 10750 ] final   -0.65 input  -60.55 | X-H torsion
[ 11005 11000 10999 10996 ] final  133.38 input  -57.11 | X-H torsion

> <Gold.Protein.ActiveResidues>
 VAL166  LYS551  ARG553  GLY616  TRP617  ASP618  TYR619  PRO620  LYS621  CYS622 
 ASP623  PHE694  ASN695  SER759  ASP760  ASP761  ALA762  ILE779  LEU786  VAL792 
 PHE793  MET794  SER795  GLU796  ALA797  LYS798  CYS799  TRP800  GLU811  SER814 

> <Gold.Protein.RotatedAtoms>
  150.9404  133.6663  159.2791 H   0  0  0  0  0  0  0  0  0  0  0  0  # atno 6907 bound_to 6896
  151.4054  135.0976  159.9578 H   0  0  0  0  0  0  0  0  0  0  0  0  # atno 6908 bound_to 6896
  152.5067  133.8889  159.7439 H   0  0  0  0  0  0  0  0  0  0  0  0  # atno 6909 bound_to 6896
  145.5125  140.9538  143.1699 H   0  0  0  0  0  0  0  0  0  0  0  0  # atno 7974 bound_to 7965
  156.0374  140.3323  155.7206 H   0  0  0  0  0  0  0  0  0  0  0  0  # atno 8008 bound_to 7997
  155.5795  140.0635  157.2804 H   0  0  0  0  0  0  0  0  0  0  0  0  # atno 8009 bound_to 7997
  154.4378  140.1846  156.0950 H   0  0  0  0  0  0  0  0  0  0  0  0  # atno 8010 bound_to 7997
  140.0497  144.5322  150.7372 H   0  0  0  0  0  0  0  0  0  0  0  0  # atno 10167 bound_to 10162
  157.6607  131.0883  150.6230 H   0  0  0  0  0  0  0  0  0  0  0  0  # atno 10718 bound_to 10713
  153.3347  135.6977  153.6918 H   0  0  0  0  0  0  0  0  0  0  0  0  # atno 10763 bound_to 10752
  153.5706  135.3517  155.2837 H   0  0  0  0  0  0  0  0  0  0  0  0  # atno 10764 bound_to 10752
  154.8625  135.4271  154.2544 H   0  0  0  0  0  0  0  0  0  0  0  0  # atno 10765 bound_to 10752
  139.9848  134.9536  156.9717 H   0  0  0  0  0  0  0  0  0  0  0  0  # atno 11005 bound_to 11000
  144.7719  139.6715  143.7191 LP  0  0  0  0  0  0  0  0  0  0  0  0  # atno 17320 bound_to 7965
  146.2157  139.5545  142.9651 LP  0  0  0  0  0  0  0  0  0  0  0  0  # atno 17321 bound_to 7965
  140.7222  143.2600  151.4240 LP  0  0  0  0  0  0  0  0  0  0  0  0  # atno 17342 bound_to 10162
  139.5961  144.1395  152.2145 LP  0  0  0  0  0  0  0  0  0  0  0  0  # atno 17343 bound_to 10162
  156.6533  130.4491  149.5712 LP  0  0  0  0  0  0  0  0  0  0  0  0  # atno 17370 bound_to 10713
  156.2121  130.6685  151.1280 LP  0  0  0  0  0  0  0  0  0  0  0  0  # atno 17371 bound_to 10713
  140.5024  134.1084  155.7253 LP  0  0  0  0  0  0  0  0  0  0  0  0  # atno 17394 bound_to 11000
  141.1515  133.8960  157.2086 LP  0  0  0  0  0  0  0  0  0  0  0  0  # atno 17395 bound_to 11000

$$$$
