AV-unprocessed.smi:3116|AV-procd|sdf|11877|dock1
  -GOLD-   2272017263D 1   1.00000     0.00000
 Structure written by MMmdl.
 33 33  0  0  0  0  0  0  0  0  1 V2000
  149.6031  140.8919  154.6212 C   0  0  0  0  0  0  0  0  0  0  0  0
  150.5286  139.7587  155.0932 C   0  0  1  0  0  0  0  0  0  0  0  0
  150.5629  139.7364  156.5694 N   0  0  0  0  0  0  0  0  0  0  0  0
  151.4453  140.6943  157.2419 C   0  0  1  0  0  0  0  0  0  0  0  0
  150.8503  142.1132  157.1085 C   0  0  0  0  0  0  0  0  0  0  0  0
  151.6060  140.2303  158.7159 C   0  0  1  0  0  0  0  0  0  0  0  0
  152.0996  138.7735  158.8223 C   0  0  0  0  0  0  0  0  0  0  0  0
  152.4788  141.1115  159.4834 N   0  0  0  0  0  0  0  0  0  0  0  0
  152.3333  142.4641  159.7140 C   0  0  0  0  0  0  0  0  0  0  0  0
  153.3926  142.8663  160.4758 C   0  0  0  0  0  0  0  0  0  0  0  0
  154.1443  141.6734  160.6651 C   0  0  0  0  0  0  0  0  0  0  0  0
  153.5974  140.6262  160.0696 N   0  0  0  0  0  0  0  0  0  0  0  0
  150.0995  138.4221  154.4657 C   0  0  0  0  0  0  0  0  0  0  0  0
  149.9555  138.3912  153.1386 N   0  0  0  0  0  0  0  0  0  0  0  0
  149.9211  137.4274  155.1663 O   0  0  0  0  0  0  0  0  0  0  0  0
  149.5621  140.9439  153.5325 H   0  0  0  0  0  0  0  0  0  0  0  0
  149.9571  141.8593  154.9789 H   0  0  0  0  0  0  0  0  0  0  0  0
  148.5838  140.7586  154.9867 H   0  0  0  0  0  0  0  0  0  0  0  0
  151.5279  140.0003  154.7298 H   0  0  0  0  0  0  0  0  0  0  0  0
  149.6364  139.7861  156.9677 H   0  0  0  0  0  0  0  0  0  0  0  0
  152.4374  140.6941  156.7908 H   0  0  0  0  0  0  0  0  0  0  0  0
  151.4840  142.8623  157.5828 H   0  0  0  0  0  0  0  0  0  0  0  0
  149.8642  142.1749  157.5697 H   0  0  0  0  0  0  0  0  0  0  0  0
  150.7515  142.4168  156.0670 H   0  0  0  0  0  0  0  0  0  0  0  0
  150.6266  140.2797  159.1951 H   0  0  0  0  0  0  0  0  0  0  0  0
  151.3963  138.0786  158.3633 H   0  0  0  0  0  0  0  0  0  0  0  0
  152.2160  138.4752  159.8645 H   0  0  0  0  0  0  0  0  0  0  0  0
  153.0626  138.6397  158.3285 H   0  0  0  0  0  0  0  0  0  0  0  0
  151.4975  143.0228  159.3194 H   0  0  0  0  0  0  0  0  0  0  0  0
  153.5986  143.8609  160.8419 H   0  0  0  0  0  0  0  0  0  0  0  0
  155.0650  141.5385  161.2131 H   0  0  0  0  0  0  0  0  0  0  0  0
  149.6718  137.5367  152.6820 H   0  0  0  0  0  0  0  0  0  0  0  0
  150.1280  139.2257  152.5971 H   0  0  0  0  0  0  0  0  0  0  0  0
  1  2  1  0  0  0  0
  1 16  1  0  0  0  0
  1 17  1  0  0  0  0
  1 18  1  0  0  0  0
  2  3  1  0  0  0  0
  2 13  1  0  0  0  0
  2 19  1  0  0  0  0
  3  4  1  0  0  0  0
  3 20  1  0  0  0  0
  4  5  1  0  0  0  0
  4  6  1  0  0  0  0
  4 21  1  0  0  0  0
  5 22  1  0  0  0  0
  5 23  1  0  0  0  0
  5 24  1  0  0  0  0
  6  7  1  0  0  0  0
  6  8  1  0  0  0  0
  6 25  1  0  0  0  0
  7 26  1  0  0  0  0
  7 27  1  0  0  0  0
  7 28  1  0  0  0  0
  8 12  1  0  0  0  0
  8  9  1  0  0  0  0
  9 10  2  0  0  0  0
  9 29  1  0  0  0  0
 10 11  1  0  0  0  0
 10 30  1  0  0  0  0
 11 12  2  0  0  0  0
 11 31  1  0  0  0  0
 13 14  1  0  0  0  0
 13 15  2  0  0  0  0
 14 32  1  0  0  0  0
 14 33  1  0  0  0  0
M  END
> <s_m_source_file>
AV-unprocessed.smi

> <i_m_source_file_index>
3116

> <i_lp_mmshare_version>
43012

> <i_f3d_flags>
0

> <s_epik_input>
W05IMl1DKD1PKVtDQEhdKFtDSDNdKVtOSF1bQ0BIXShbQ0gzXSlbQ0BIXShbQ0gzXSluMVtjSF1bY0hdW2NIXW4x

> <s_epik_cmdline>
J2VwaWtfcHl0aG9uJywgJy1waCcsICc3LjAnLCAnLXRuJywgJzgnLCAnLW1hJywgJzIwMCcsICctbWV0YWxfYmluZGluZycsICctaW1hZScsICc8aW5maWxlLm1hZT4nLCAnLW9tYWUnLCAnPG91dGZpbGUubWFlPic=

> <r_lp_tautomer_probability>
1

> <r_epik_Ionization_Penalty>
0.865977

> <r_epik_Ionization_Penalty_Charging>
0

> <r_epik_Ionization_Penalty_Neutral>
0.865977

> <r_epik_State_Penalty>
0.901888

> <r_epik_Charging_Adjusted_Penalty>
0.901888

> <i_epik_Tot_Q>
0

> <i_epik_Tot_abs_Q>
0

> <r_epik_Metal_State_Penalty>
0.901181

> <b_epik_Metal_Only>
0

> <s_lp_Force_Field>
OPLS_2005

> <r_lp_Energy>
8.45698

> <b_lp_Chiralities_Consistent>
1

> <s_lp_Variant>
AV-unprocessed.smi:3116-16

> <Gold.Version>
5.8.1

> <Gold.Id.Protein>
6NUR|6NUR_protein|mol2

> <Gold.PLP.Fitness>
35.5302

> <Gold.PLP.PLP>
-30.7320

> <Gold.PLP.part.hbond>
-2.2522

> <Gold.PLP.part.metal>
0.0000

> <Gold.PLP.part.buried>
-2.8175

> <Gold.PLP.part.nonpolar>
-24.8902

> <Gold.PLP.part.repulsive>
0.2134

> <Gold.PLP.ligand.clash>
0.0000

> <Gold.PLP.ligand.torsion>
0.4606

> <Gold.PLP.Chemscore.Hbond>
1.8800

> <Gold.PLP.Chemscore.CHOScore>
0.0000

> <Gold.PLP.Chemscore.Metal>
0.0000

> <Gold.Chemscore.Hbonds>
donor molecule, donor type, donor heavy atom, donor atom, acceptor molecule, acceptor atom, score
      L1  H    14    32       P1  7948  1.00
      L1  H    14    33       P1  7957  0.83

> <Gold.PLP.Chemscore.Internal.Correction>
0.0794

> <Gold.Rescore>
     Score         DG    S(hbond)    S(metal)    S(lipo)     H(rot)  DE(clash)    DE(int)     intcor
     12.44     -14.05       1.93        0.00      70.38       2.38       0.01       1.60       ----

> <Gold.Chemscore.Fitness>
12.4448

> <Gold.Chemscore.DG>
-14.0524

> <Gold.Chemscore.ZeroCoef>
-5.4800

> <Gold.Chemscore.Hbond>
1.9282

> <Gold.Chemscore.Metal>
0.0000

> <Gold.Chemscore.Lipo>
70.3774

> <Gold.Chemscore.Internal_Hbond>
0.0000

> <Gold.Chemscore.DEClash>
0.0108

> <Gold.Chemscore.DEInternal>
1.5968

> <Gold.Chemscore.Rot>
2.3836

> <Gold.Chemscore.Internal.Correction>
   9.000000E+99

> <Gold.Chemscore.Hbonds>
donor molecule, donor type, donor heavy atom, donor atom, acceptor molecule, acceptor atom, score
      L1  H    14    32       P1  7948  0.45
      L1  H    14    33       P1  7957  0.61

> <Gold.Chemscore.Hbond.Weighted>
-6.4402

> <Gold.Chemscore.Metal.Weighted>
-0.0000

> <Gold.Chemscore.Lipo.Weighted>
-8.2342

> <Gold.Chemscore.Internal_Hbond.Weighted>
0.0000

> <Gold.Chemscore.DEClash.Weighted>
0.0108

> <Gold.Chemscore.DEInternal.Weighted>
1.5968

> <Gold.Chemscore.Rot.Weighted>
6.1020

> <Gold.Chemscore.Internal.Correction.Weighted>
   9.000000E+99

> <Gold.Protein.RotatedTorsions>
[ 6907 6896 6895 6894 ] final  177.75 input  -60.11 | X-H torsion
[ 7974 7965 7964 7962 ] final  -32.49 input  175.53 | X-H torsion
[ 8008 7997 7996 7995 ] final   61.23 input   59.86 | X-H torsion
[ 10167 10162 10161 10158 ] final  177.48 input  -65.29 | X-H torsion
[ 10718 10713 10712 10709 ] final  -65.00 input   66.30 | X-H torsion
[ 10763 10752 10751 10750 ] final   59.97 input  -60.55 | X-H torsion
[ 11005 11000 10999 10996 ] final -110.81 input  -57.11 | X-H torsion

> <Gold.Protein.ActiveResidues>
 VAL166  LYS551  ARG553  GLY616  TRP617  ASP618  TYR619  PRO620  LYS621  CYS622 
 ASP623  PHE694  ASN695  SER759  ASP760  ASP761  ALA762  ILE779  LEU786  VAL792 
 PHE793  MET794  SER795  GLU796  ALA797  LYS798  CYS799  TRP800  GLU811  SER814 

> <Gold.Protein.RotatedAtoms>
  151.6990  133.3311  159.3261 H   0  0  0  0  0  0  0  0  0  0  0  0  # atno 6907 bound_to 6896
  150.7744  134.6632  159.6360 H   0  0  0  0  0  0  0  0  0  0  0  0  # atno 6908 bound_to 6896
  152.3781  134.6635  160.0204 H   0  0  0  0  0  0  0  0  0  0  0  0  # atno 6909 bound_to 6896
  146.0986  140.5799  142.8831 H   0  0  0  0  0  0  0  0  0  0  0  0  # atno 7974 bound_to 7965
  155.5951  140.3493  155.4577 H   0  0  0  0  0  0  0  0  0  0  0  0  # atno 8008 bound_to 7997
  156.0272  140.1266  157.0321 H   0  0  0  0  0  0  0  0  0  0  0  0  # atno 8009 bound_to 7997
  154.4338  140.1050  156.6033 H   0  0  0  0  0  0  0  0  0  0  0  0  # atno 8010 bound_to 7997
  139.5255  144.2793  152.0561 H   0  0  0  0  0  0  0  0  0  0  0  0  # atno 10167 bound_to 10162
  156.0696  130.4241  150.1500 H   0  0  0  0  0  0  0  0  0  0  0  0  # atno 10718 bound_to 10713
  152.9908  135.5552  154.5799 H   0  0  0  0  0  0  0  0  0  0  0  0  # atno 10763 bound_to 10752
  154.5183  135.2806  155.1287 H   0  0  0  0  0  0  0  0  0  0  0  0  # atno 10764 bound_to 10752
  154.2650  135.6374  153.5342 H   0  0  0  0  0  0  0  0  0  0  0  0  # atno 10765 bound_to 10752
  141.0770  133.9284  157.2368 H   0  0  0  0  0  0  0  0  0  0  0  0  # atno 11005 bound_to 11000
  144.7414  140.4953  143.6866 LP  0  0  0  0  0  0  0  0  0  0  0  0  # atno 17320 bound_to 7965
  145.5900  139.1495  143.3187 LP  0  0  0  0  0  0  0  0  0  0  0  0  # atno 17321 bound_to 7965
  140.2248  144.4429  150.6325 LP  0  0  0  0  0  0  0  0  0  0  0  0  # atno 17342 bound_to 10162
  140.6394  143.2201  151.6323 LP  0  0  0  0  0  0  0  0  0  0  0  0  # atno 17343 bound_to 10162
  156.9554  130.9788  151.3490 LP  0  0  0  0  0  0  0  0  0  0  0  0  # atno 17370 bound_to 10713
  157.5758  130.8342  149.8454 LP  0  0  0  0  0  0  0  0  0  0  0  0  # atno 17371 bound_to 10713
  139.9583  135.0160  156.9189 LP  0  0  0  0  0  0  0  0  0  0  0  0  # atno 17394 bound_to 11000
  140.5551  134.0589  155.7381 LP  0  0  0  0  0  0  0  0  0  0  0  0  # atno 17395 bound_to 11000

$$$$
