#       Name:                AV-unprocessed.smi:1554
#       Creating user name   scv26
#       Creation time:       Fri Mar 27 06:42:25 2020


#       File generated by GOLD software.
#

@<TRIPOS>MOLECULE
AV-unprocessed.smi:1554
    53    55     1
SMALL
NO_CHARGES


@<TRIPOS>ATOM
      1 ****        -4.9809   4.3982   1.4026 C.3            1 S1                 0.0000
      2 ****        -4.1101   3.3059   0.8071 C.ar           1 S1                 0.0000
      3 ****        -3.6253   3.4560  -0.5118 C.ar           1 S1                 0.0000
      4 ****        -2.8098   2.4650  -1.1007 C.ar           1 S1                 0.0000
      5 ****        -2.2296   2.4082  -2.3565 N.2            1 S1                 0.0000
      6 ****        -1.5929   1.2419  -2.3050 C.2            1 S1                 0.0000
      7 ****        -1.6914   0.5351  -1.1628 N.pl3          1 S1                 0.0000
      8 ****        -1.0863  -0.7549  -0.8811 C.3            1 S1                 0.0000
      9 ****         0.3727  -0.6312  -0.4025 C.3            1 S1                 0.0000
     10 ****         0.4041   0.1160   0.7982 O.3            1 S1                 0.0000
     11 ****         0.9974  -2.0164  -0.1374 C.3            1 S1                 0.0000
     12 ****         2.4391  -2.0255   0.1194 N.3            1 S1                 0.0000
     13 ****         2.8695  -3.3295   0.6117 C.3            1 S1                 0.0000
     14 ****         4.3806  -3.3689   0.8935 C.3            1 S1                 0.0000
     15 ****         5.0918  -3.0173  -0.2884 O.3            1 S1                 0.0000
     16 ****         4.7435  -1.7265  -0.7809 C.3            1 S1                 0.0000
     17 ****         5.5756  -1.4487  -2.0373 C.3            1 S1                 0.0000
     18 ****         3.2284  -1.6835  -1.0631 C.3            1 S1                 0.0000
     19 ****        -2.4918   1.3091  -0.3290 C.ar           1 S1                 0.0000
     20 ****        -2.9678   1.1486   0.9842 C.ar           1 S1                 0.0000
     21 ****        -3.7802   2.1490   1.5579 C.ar           1 S1                 0.0000
     22 ****        -4.2866   1.9680   2.9779 C.3            1 S1                 0.0000
     23 ****        -5.1488   5.2063   0.6900 H              1 S1                 0.0000
     24 ****        -4.5066   4.8249   2.2867 H              1 S1                 0.0000
     25 ****        -5.9539   3.9988   1.6897 H              1 S1                 0.0000
     26 ****        -3.8753   4.3374  -1.0837 H              1 S1                 0.0000
     27 ****        -1.0200   0.8796  -3.1461 H              1 S1                 0.0000
     28 ****        -1.6930  -1.2722  -0.1366 H              1 S1                 0.0000
     29 ****        -1.1327  -1.3560  -1.7901 H              1 S1                 0.0000
     30 ****         0.9352  -0.0888  -1.1611 H              1 S1                 0.0000
     31 ****         0.0359   0.9699   0.6296 H              1 S1                 0.0000
     32 ****         0.4768  -2.4622   0.7117 H              1 S1                 0.0000
     33 ****         0.7874  -2.6706  -0.9850 H              1 S1                 0.0000
     34 ****         2.3288  -3.5769   1.5261 H              1 S1                 0.0000
     35 ****         2.6195  -4.1018  -0.1176 H              1 S1                 0.0000
     36 ****         4.6421  -2.6848   1.7022 H              1 S1                 0.0000
     37 ****         4.6823  -4.3680   1.2079 H              1 S1                 0.0000
     38 ****         4.9939  -0.9814  -0.0238 H              1 S1                 0.0000
     39 ****         5.3532  -0.4621  -2.4446 H              1 S1                 0.0000
     40 ****         5.3742  -2.1858  -2.8151 H              1 S1                 0.0000
     41 ****         6.6419  -1.4828  -1.8135 H              1 S1                 0.0000
     42 ****         2.9905  -2.3712  -1.8764 H              1 S1                 0.0000
     43 ****         2.9738  -0.6848  -1.4143 H              1 S1                 0.0000
     44 ****        -2.7067   0.2639   1.5460 H              1 S1                 0.0000
     45 ****        -3.9519   1.0208   3.4018 H              1 S1                 0.0000
     46 ****        -5.3767   1.9770   2.9998 H              1 S1                 0.0000
     47 ****        -3.9196   2.7700   3.6186 H              1 S1                 0.0000
     48 ****        -2.2769   3.0698  -3.1049 LP             1 S1                 0.0000
     49 ****         1.3490   0.2119   1.1113 LP             1 S1                 0.0000
     50 ****        -0.1339  -0.3507   1.5002 LP             1 S1                 0.0000
     51 ****         2.5998  -1.3236   0.8135 LP             1 S1                 0.0000
     52 ****         4.8894  -3.6942  -0.9960 LP             1 S1                 0.0000
     53 ****         6.0712  -3.0284  -0.0868 LP             1 S1                 0.0000
@<TRIPOS>BOND
    1    1    2 1     
    2    1   23 1     
    3    1   24 1     
    4    1   25 1     
    5    2   21 ar    
    6    2    3 ar    
    7    3    4 ar    
    8    3   26 1     
    9    4   19 ar    
   10    4    5 1     
   11    5    6 2     
   12    6    7 1     
   13    6   27 1     
   14    7    8 1     
   15    7   19 1     
   16    8    9 1     
   17    8   28 1     
   18    8   29 1     
   19    9   10 1     
   20    9   11 1     
   21    9   30 1     
   22   10   31 1     
   23   11   12 1     
   24   11   32 1     
   25   11   33 1     
   26   12   18 1     
   27   12   13 1     
   28   13   14 1     
   29   13   34 1     
   30   13   35 1     
   31   14   15 1     
   32   14   36 1     
   33   14   37 1     
   34   15   16 1     
   35   16   17 1     
   36   16   18 1     
   37   16   38 1     
   38   17   39 1     
   39   17   40 1     
   40   17   41 1     
   41   18   42 1     
   42   18   43 1     
   43   19   20 ar    
   44   20   21 ar    
   45   20   44 1     
   46   21   22 1     
   47   22   45 1     
   48   22   46 1     
   49   22   47 1     
   50    5   48 1     
   51   10   49 1     
   52   10   50 1     
   53   12   51 1     
   54   15   52 1     
   55   15   53 1     
@<TRIPOS>SUBSTRUCTURE
      1 S1             1
@<TRIPOS>SET
LONE_PAIRS      STATIC     ATOMS    <user>   **** ""
6 48 49 50 51 52 53
DONOR_HYDROGENS      STATIC     ATOMS    <user>   **** ""
1 31
ATOM$BLUE        STATIC     ATOMS    COLORGROUP SYSTEM
6 48 49 50 51 52 53
ATOM$RED        STATIC     ATOMS    COLORGROUP SYSTEM
1 31
