#       Name:                AV-unprocessed.smi:1033
#       Creating user name   scv26
#       Creation time:       Fri Mar 27 02:51:23 2020


#       File generated by GOLD software.
#

@<TRIPOS>MOLECULE
AV-unprocessed.smi:1033
    62    64     1
SMALL
NO_CHARGES


@<TRIPOS>ATOM
      1 ****        -6.3468   3.1980  -3.7640 C.3            1 S1                 0.0000
      2 ****        -5.1969   3.0827  -2.7788 C.ar           1 S1                 0.0000
      3 ****        -5.4796   3.0399  -1.3949 C.ar           1 S1                 0.0000
      4 ****        -4.4393   2.9323  -0.4462 C.ar           1 S1                 0.0000
      5 ****        -4.4852   2.8717   0.9360 N.2            1 S1                 0.0000
      6 ****        -3.1953   2.7753   1.2438 C.2            1 S1                 0.0000
      7 ****        -2.3168   2.7611   0.2229 N.pl3          1 S1                 0.0000
      8 ****        -0.8710   2.6578   0.3154 C.3            1 S1                 0.0000
      9 ****        -0.3851   1.1958   0.3566 C.3            1 S1                 0.0000
     10 ****        -0.7857   0.5330  -0.8279 O.3            1 S1                 0.0000
     11 ****         1.1499   1.1082   0.4708 C.3            1 S1                 0.0000
     12 ****         1.6396  -0.2931   0.5427 N.4            1 S1                 1.0000
     13 ****         1.4517  -0.9252   1.8732 C.3            1 S1                 0.0000
     14 ****         1.8845  -2.4026   1.8502 C.3            1 S1                 0.0000
     15 ****         3.2881  -2.5481   1.3840 N.4            1 S1                 1.0000
     16 ****         3.7753  -3.9519   1.3999 C.3            1 S1                 0.0000
     17 ****         4.1286  -4.4453   2.8169 C.3            1 S1                 0.0000
     18 ****         4.5481  -5.9209   2.8198 C.3            1 S1                 0.0000
     19 ****         5.2071  -3.6794   3.3136 O.3            1 S1                 0.0000
     20 ****         3.4800  -1.9033   0.0612 C.3            1 S1                 0.0000
     21 ****         3.0452  -0.4274   0.0887 C.3            1 S1                 0.0000
     22 ****        -3.0974   2.8679  -0.9237 C.ar           1 S1                 0.0000
     23 ****        -2.8035   2.9108  -2.2981 C.ar           1 S1                 0.0000
     24 ****        -3.8548   3.0189  -3.2323 C.ar           1 S1                 0.0000
     25 ****        -3.5268   3.0640  -4.7143 C.3            1 S1                 0.0000
     26 ****        -7.3112   3.1784  -3.2554 H              1 S1                 0.0000
     27 ****        -6.3279   2.3711  -4.4741 H              1 S1                 0.0000
     28 ****        -6.2799   4.1339  -4.3190 H              1 S1                 0.0000
     29 ****        -6.5018   3.0888  -1.0490 H              1 S1                 0.0000
     30 ****        -2.8701   2.7074   2.2718 H              1 S1                 0.0000
     31 ****        -0.4296   3.1871  -0.5303 H              1 S1                 0.0000
     32 ****        -0.5486   3.1862   1.2137 H              1 S1                 0.0000
     33 ****        -0.8590   0.6982   1.2024 H              1 S1                 0.0000
     34 ****        -1.7223   0.6273  -0.9233 H              1 S1                 0.0000
     35 ****         1.5850   1.6016  -0.4000 H              1 S1                 0.0000
     36 ****         1.5037   1.6626   1.3414 H              1 S1                 0.0000
     37 ****         2.0291  -0.3792   2.6212 H              1 S1                 0.0000
     38 ****         0.4075  -0.8671   2.1782 H              1 S1                 0.0000
     39 ****         1.7708  -2.8197   2.8502 H              1 S1                 0.0000
     40 ****         1.2231  -2.9716   1.1945 H              1 S1                 0.0000
     41 ****         3.0240  -4.5994   0.9450 H              1 S1                 0.0000
     42 ****         4.6661  -4.0377   0.7750 H              1 S1                 0.0000
     43 ****         3.2823  -4.3282   3.4929 H              1 S1                 0.0000
     44 ****         3.7396  -6.5575   2.4594 H              1 S1                 0.0000
     45 ****         4.8057  -6.2560   3.8250 H              1 S1                 0.0000
     46 ****         5.4148  -6.0913   2.1800 H              1 S1                 0.0000
     47 ****         5.4516  -4.0170   4.1627 H              1 S1                 0.0000
     48 ****         4.5299  -1.9627  -0.2286 H              1 S1                 0.0000
     49 ****         2.9107  -2.4474  -0.6945 H              1 S1                 0.0000
     50 ****         3.1528  -0.0036  -0.9108 H              1 S1                 0.0000
     51 ****         3.6980   0.1459   0.7494 H              1 S1                 0.0000
     52 ****        -1.7774   2.8588  -2.6309 H              1 S1                 0.0000
     53 ****        -2.4500   3.0472  -4.8846 H              1 S1                 0.0000
     54 ****        -3.9219   3.9737  -5.1668 H              1 S1                 0.0000
     55 ****        -3.9603   2.2052  -5.2271 H              1 S1                 0.0000
     56 ****         3.8745  -2.0428   2.0340 H              1 S1                 0.0000
     57 ****         1.0785  -0.8143  -0.1171 H              1 S1                 0.0000
     58 ****        -5.2795   2.8945   1.5432 LP             1 S1                 0.0000
     59 ****        -0.5488  -0.4367  -0.7683 LP             1 S1                 0.0000
     60 ****        -0.3238   0.9412  -1.6154 LP             1 S1                 0.0000
     61 ****         4.9295  -2.7224   3.3988 LP             1 S1                 0.0000
     62 ****         5.9842  -3.7466   2.6879 LP             1 S1                 0.0000
@<TRIPOS>BOND
    1    1    2 1     
    2    1   26 1     
    3    1   27 1     
    4    1   28 1     
    5    2   24 ar    
    6    2    3 ar    
    7    3    4 ar    
    8    3   29 1     
    9    4   22 ar    
   10    4    5 1     
   11    5    6 2     
   12    6    7 1     
   13    6   30 1     
   14    7    8 1     
   15    7   22 1     
   16    8    9 1     
   17    8   31 1     
   18    8   32 1     
   19    9   10 1     
   20    9   11 1     
   21    9   33 1     
   22   10   34 1     
   23   11   12 1     
   24   11   35 1     
   25   11   36 1     
   26   12   21 1     
   27   12   13 1     
   28   12   57 1     
   29   13   14 1     
   30   13   37 1     
   31   13   38 1     
   32   14   15 1     
   33   14   39 1     
   34   14   40 1     
   35   15   16 1     
   36   15   20 1     
   37   15   56 1     
   38   16   17 1     
   39   16   41 1     
   40   16   42 1     
   41   17   18 1     
   42   17   19 1     
   43   17   43 1     
   44   18   44 1     
   45   18   45 1     
   46   18   46 1     
   47   19   47 1     
   48   20   21 1     
   49   20   48 1     
   50   20   49 1     
   51   21   50 1     
   52   21   51 1     
   53   22   23 ar    
   54   23   24 ar    
   55   23   52 1     
   56   24   25 1     
   57   25   53 1     
   58   25   54 1     
   59   25   55 1     
   60    5   58 1     
   61   10   59 1     
   62   10   60 1     
   63   19   61 1     
   64   19   62 1     
@<TRIPOS>SUBSTRUCTURE
      1 S1             1
@<TRIPOS>SET
LONE_PAIRS      STATIC     ATOMS    <user>   **** ""
5 58 59 60 61 62
DONOR_HYDROGENS      STATIC     ATOMS    <user>   **** ""
4 34 57 56 47
ATOM$BLUE        STATIC     ATOMS    COLORGROUP SYSTEM
5 58 59 60 61 62
ATOM$RED        STATIC     ATOMS    COLORGROUP SYSTEM
4 34 57 56 47
