#       Name:                AV-unprocessed.smi:2104
#       Creating user name   scv26
#       Creation time:       Fri Mar 27 11:32:05 2020


#       File generated by GOLD software.
#

@<TRIPOS>MOLECULE
AV-unprocessed.smi:2104
    50    51     1
SMALL
NO_CHARGES


@<TRIPOS>ATOM
      1 ****        -4.0346   4.4452  -1.1218 C.3            1 S1                 0.0000
      2 ****        -3.9486   2.9848  -0.8372 C.2            1 S1                 0.0000
      3 ****        -2.9196   2.1742  -0.4506 C.2            1 S1                 0.0000
      4 ****        -3.5300   0.8930  -0.3655 C.2            1 S1                 0.0000
      5 ****        -2.9204  -0.2461  -0.0039 N.pl3          1 S1                -1.0000
      6 ****        -2.2007  -0.9496  -0.9079 C.2            1 S1                 0.0000
      7 ****        -2.0692  -0.6833  -2.1048 O.2            1 S1                 0.0000
      8 ****        -1.5826  -2.0197  -0.3883 N.am           1 S1                 0.0000
      9 ****        -0.6723  -2.9158  -1.0954 C.3            1 S1                 0.0000
     10 ****         0.6748  -2.2369  -1.3862 C.3            1 S1                 0.0000
     11 ****         1.2484  -1.8179  -0.1561 O.3            1 S1                 0.0000
     12 ****         2.2793  -0.8456  -0.2803 C.3            1 S1                 0.0000
     13 ****         1.6649   0.5660  -0.4188 C.3            1 S1                 0.0000
     14 ****         0.8951   0.9785   0.8465 C.3            1 S1                 0.0000
     15 ****         1.7876   0.8903   2.0932 C.3            1 S1                 0.0000
     16 ****         2.4061  -0.5092   2.2405 C.3            1 S1                 0.0000
     17 ****         3.1804  -0.9241   0.9725 C.3            1 S1                 0.0000
     18 ****         3.8338  -2.3063   1.1279 C.3            1 S1                 0.0000
     19 ****        -4.8192   0.9261  -0.6580 N.2            1 S1                 0.0000
     20 ****        -5.0946   2.2637  -0.9671 O.3            1 S1                 0.0000
     21 ****        -3.1644   4.7807  -1.6860 H              1 S1                 0.0000
     22 ****        -4.0777   5.0155  -0.1941 H              1 S1                 0.0000
     23 ****        -4.9254   4.6798  -1.7049 H              1 S1                 0.0000
     24 ****        -1.8930   2.4498  -0.2622 H              1 S1                 0.0000
     25 ****        -1.7208  -2.1981   0.5955 H              1 S1                 0.0000
     26 ****        -0.5156  -3.7999  -0.4772 H              1 S1                 0.0000
     27 ****        -1.1342  -3.2587  -2.0224 H              1 S1                 0.0000
     28 ****         1.3535  -2.9326  -1.8806 H              1 S1                 0.0000
     29 ****         0.5282  -1.4018  -2.0706 H              1 S1                 0.0000
     30 ****         2.8870  -1.0689  -1.1593 H              1 S1                 0.0000
     31 ****         2.4624   1.2867  -0.6021 H              1 S1                 0.0000
     32 ****         1.0053   0.6265  -1.2838 H              1 S1                 0.0000
     33 ****         0.5116   1.9927   0.7340 H              1 S1                 0.0000
     34 ****         0.0240   0.3344   0.9727 H              1 S1                 0.0000
     35 ****         2.5813   1.6352   2.0267 H              1 S1                 0.0000
     36 ****         1.2070   1.1356   2.9829 H              1 S1                 0.0000
     37 ****         3.0711  -0.5229   3.1045 H              1 S1                 0.0000
     38 ****         1.6185  -1.2349   2.4480 H              1 S1                 0.0000
     39 ****         3.9902  -0.2058   0.8358 H              1 S1                 0.0000
     40 ****         3.0876  -3.0843   1.2926 H              1 S1                 0.0000
     41 ****         4.5201  -2.3216   1.9749 H              1 S1                 0.0000
     42 ****         4.4027  -2.5737   0.2372 H              1 S1                 0.0000
     43 ****        -2.9982  -0.5762   0.9368 LP             1 S1                 0.0000
     44 ****        -2.5200   0.1217  -2.4904 LP             1 S1                 0.0000
     45 ****        -1.5117  -1.2724  -2.6898 LP             1 S1                 0.0000
     46 ****         1.6320  -2.6219   0.2984 LP             1 S1                 0.0000
     47 ****         0.5213  -1.4300   0.4103 LP             1 S1                 0.0000
     48 ****        -5.4608   0.1591  -0.6584 LP             1 S1                 0.0000
     49 ****        -5.4294   2.3300  -1.9070 LP             1 S1                 0.0000
     50 ****        -5.7884   2.6182  -0.3403 LP             1 S1                 0.0000
@<TRIPOS>BOND
    1    1    2 1     
    2    1   21 1     
    3    1   22 1     
    4    1   23 1     
    5    2   20 1     
    6    2    3 2     
    7    3    4 1     
    8    3   24 1     
    9    4    5 1     
   10    4   19 2     
   11    5    6 1     
   12    6    7 2     
   13    6    8 am    
   14    8    9 1     
   15    8   25 1     
   16    9   10 1     
   17    9   26 1     
   18    9   27 1     
   19   10   11 1     
   20   10   28 1     
   21   10   29 1     
   22   11   12 1     
   23   12   17 1     
   24   12   13 1     
   25   12   30 1     
   26   13   14 1     
   27   13   31 1     
   28   13   32 1     
   29   14   15 1     
   30   14   33 1     
   31   14   34 1     
   32   15   16 1     
   33   15   35 1     
   34   15   36 1     
   35   16   17 1     
   36   16   37 1     
   37   16   38 1     
   38   17   18 1     
   39   17   39 1     
   40   18   40 1     
   41   18   41 1     
   42   18   42 1     
   43   19   20 1     
   44    5   43 1     
   45    7   44 1     
   46    7   45 1     
   47   11   46 1     
   48   11   47 1     
   49   19   48 1     
   50   20   49 1     
   51   20   50 1     
@<TRIPOS>SUBSTRUCTURE
      1 S1             1
@<TRIPOS>SET
LONE_PAIRS      STATIC     ATOMS    <user>   **** ""
8 43 44 45 46 47 48 49 50
DONOR_HYDROGENS      STATIC     ATOMS    <user>   **** ""
1 25
ATOM$BLUE        STATIC     ATOMS    COLORGROUP SYSTEM
8 43 44 45 46 47 48 49 50
ATOM$RED        STATIC     ATOMS    COLORGROUP SYSTEM
1 25
