AV-unprocessed.smi:1047|AV-procd|sdf|4588|dock4
  -GOLD-   22720 3 63D 1   1.00000     0.00000
 Structure written by MMmdl.
 57 59  0  0  0  0  0  0  0  0  3 V2000
  149.1496  133.2545  153.9542 C   0  0  0  0  0  0  0  0  0  0  0  0
  147.8748  132.4594  153.6376 C   0  0  0  0  0  0  0  0  0  0  0  0
  147.2684  132.7552  152.3404 N   0  0  0  0  0  0  0  0  0  0  0  0
  146.3109  131.7340  151.9232 C   0  0  0  0  0  0  0  0  0  0  0  0
  145.6581  132.0784  150.5741 C   0  0  0  0  0  0  0  0  0  0  0  0
  145.0470  133.3623  150.6509 O   0  0  0  0  0  0  0  0  0  0  0  0
  145.9634  134.3974  150.9993 C   0  0  1  0  0  0  0  0  0  0  0  0
  145.1885  135.7211  151.0488 C   0  0  0  0  0  0  0  0  0  0  0  0
  146.0930  136.8588  151.3074 N   0  3  0  0  0  0  0  0  0  0  0  0
  145.9011  137.4862  152.6301 C   0  0  0  0  0  0  0  0  0  0  0  0
  146.8319  138.6989  152.8275 C   0  0  2  0  0  0  0  0  0  0  0  0
  147.6305  138.8635  151.6731 O   0  0  0  0  0  0  0  0  0  0  0  0
  147.7904  138.5609  154.0283 C   0  0  0  0  0  0  0  0  0  0  0  0
  148.3254  139.8490  154.4934 N   0  0  0  0  0  0  0  0  0  0  0  0
  148.1183  141.1003  153.9994 C   0  0  0  0  0  0  0  0  0  0  0  0
  148.8381  141.9684  154.7624 N   0  3  0  0  0  0  0  0  0  0  0  0
  149.5201  141.2622  155.7551 C   0  0  0  0  0  0  0  0  0  0  0  0
  150.3718  141.7025  156.7613 C   0  0  0  0  0  0  0  0  0  0  0  0
  150.9105  140.7226  157.6253 C   0  0  0  0  0  0  0  0  0  0  0  0
  151.8427  141.1705  158.7384 C   0  0  0  0  0  0  0  0  0  0  0  0
  150.5905  139.3501  157.4613 C   0  0  0  0  0  0  0  0  0  0  0  0
  151.1748  138.3048  158.3963 C   0  0  0  0  0  0  0  0  0  0  0  0
  149.7224  138.9224  156.4312 C   0  0  0  0  0  0  0  0  0  0  0  0
  149.1988  139.9005  155.5880 C   0  0  0  0  0  0  0  0  0  0  0  0
  146.5999  134.0516  152.3604 C   0  0  0  0  0  0  0  0  0  0  0  0
  149.4735  133.0649  154.9777 H   0  0  0  0  0  0  0  0  0  0  0  0
  148.9802  134.3269  153.8545 H   0  0  0  0  0  0  0  0  0  0  0  0
  149.9755  132.9786  153.2989 H   0  0  0  0  0  0  0  0  0  0  0  0
  148.0843  131.3915  153.7159 H   0  0  0  0  0  0  0  0  0  0  0  0
  147.1499  132.6805  154.4221 H   0  0  0  0  0  0  0  0  0  0  0  0
  146.8040  130.7665  151.8339 H   0  0  0  0  0  0  0  0  0  0  0  0
  145.5350  131.6214  152.6822 H   0  0  0  0  0  0  0  0  0  0  0  0
  146.3989  132.0677  149.7731 H   0  0  0  0  0  0  0  0  0  0  0  0
  144.9005  131.3373  150.3200 H   0  0  0  0  0  0  0  0  0  0  0  0
  146.7454  134.4623  150.2402 H   0  0  0  0  0  0  0  0  0  0  0  0
  144.6546  135.8783  150.1104 H   0  0  0  0  0  0  0  0  0  0  0  0
  144.4409  135.6848  151.8424 H   0  0  0  0  0  0  0  0  0  0  0  0
  147.0470  136.5342  151.2378 H   0  0  0  0  0  0  0  0  0  0  0  0
  144.8592  137.8005  152.6932 H   0  0  0  0  0  0  0  0  0  0  0  0
  146.0601  136.7486  153.4182 H   0  0  0  0  0  0  0  0  0  0  0  0
  146.2334  139.6016  152.9590 H   0  0  0  0  0  0  0  0  0  0  0  0
  148.1720  138.0975  151.5591 H   0  0  0  0  0  0  0  0  0  0  0  0
  147.3108  138.0450  154.8602 H   0  0  0  0  0  0  0  0  0  0  0  0
  148.6478  137.9471  153.7479 H   0  0  0  0  0  0  0  0  0  0  0  0
  147.4972  141.3584  153.1534 H   0  0  0  0  0  0  0  0  0  0  0  0
  150.6119  142.7492  156.8795 H   0  0  0  0  0  0  0  0  0  0  0  0
  151.4561  140.8621  159.7100 H   0  0  0  0  0  0  0  0  0  0  0  0
  151.9534  142.2555  158.7546 H   0  0  0  0  0  0  0  0  0  0  0  0
  152.8338  140.7361  158.6052 H   0  0  0  0  0  0  0  0  0  0  0  0
  150.8727  137.2975  158.1081 H   0  0  0  0  0  0  0  0  0  0  0  0
  150.8361  138.4754  159.4186 H   0  0  0  0  0  0  0  0  0  0  0  0
  152.2644  138.3410  158.3813 H   0  0  0  0  0  0  0  0  0  0  0  0
  149.4799  137.8768  156.3133 H   0  0  0  0  0  0  0  0  0  0  0  0
  145.8294  134.0564  153.1336 H   0  0  0  0  0  0  0  0  0  0  0  0
  147.3155  134.8289  152.6307 H   0  0  0  0  0  0  0  0  0  0  0  0
  145.9362  137.5566  150.5939 H   0  0  0  0  0  0  0  0  0  0  0  0
  148.8643  142.9691  154.6118 H   0  0  0  0  0  0  0  0  0  0  0  0
  1  2  1  0  0  0  0
  1 26  1  0  0  0  0
  1 27  1  0  0  0  0
  1 28  1  0  0  0  0
  2  3  1  0  0  0  0
  2 29  1  0  0  0  0
  2 30  1  0  0  0  0
  3 25  1  0  0  0  0
  3  4  1  0  0  0  0
  4  5  1  0  0  0  0
  4 31  1  0  0  0  0
  4 32  1  0  0  0  0
  5  6  1  0  0  0  0
  5 33  1  0  0  0  0
  5 34  1  0  0  0  0
  6  7  1  0  0  0  0
  7  8  1  0  0  0  0
  7 25  1  0  0  0  0
  7 35  1  0  0  0  0
  8  9  1  0  0  0  0
  8 36  1  0  0  0  0
  8 37  1  0  0  0  0
  9 10  1  0  0  0  0
  9 38  1  0  0  0  0
  9 56  1  0  0  0  0
 10 11  1  0  0  0  0
 10 39  1  0  0  0  0
 10 40  1  0  0  0  0
 11 12  1  0  0  0  0
 11 13  1  0  0  0  0
 11 41  1  0  0  0  0
 12 42  1  0  0  0  0
 13 14  1  0  0  0  0
 13 43  1  0  0  0  0
 13 44  1  0  0  0  0
 14 24  1  0  0  0  0
 14 15  1  0  0  0  0
 15 16  2  0  0  0  0
 15 45  1  0  0  0  0
 16 17  1  0  0  0  0
 16 57  1  0  0  0  0
 17 24  2  0  0  0  0
 17 18  1  0  0  0  0
 18 19  2  0  0  0  0
 18 46  1  0  0  0  0
 19 20  1  0  0  0  0
 19 21  1  0  0  0  0
 20 47  1  0  0  0  0
 20 48  1  0  0  0  0
 20 49  1  0  0  0  0
 21 22  1  0  0  0  0
 21 23  2  0  0  0  0
 22 50  1  0  0  0  0
 22 51  1  0  0  0  0
 22 52  1  0  0  0  0
 23 24  1  0  0  0  0
 23 53  1  0  0  0  0
 25 54  1  0  0  0  0
 25 55  1  0  0  0  0
M  CHG  1   9   1
M  CHG  1  16   1
M  END
> <s_m_source_file>
AV-unprocessed.smi

> <i_m_source_file_index>
1047

> <i_lp_mmshare_version>
43012

> <i_f3d_flags>
0

> <s_epik_input>
W0NIM11bQ0gyXU4xW0NIMl1bQ0gyXU9bQ0BIXShbQ0gyXTEpW0NIMl1bTkhdW0NIMl1bQ0BIXShbT0hdKVtDSDJdbihbY0hdbjIpYyhjMjMpW2NIXWMoW0NIM10pYyhbY0hdMylbQ0gzXQ==

> <s_epik_cmdline>
J2VwaWtfcHl0aG9uJywgJy1waCcsICc3LjAnLCAnLXRuJywgJzgnLCAnLW1hJywgJzIwMCcsICctbWV0YWxfYmluZGluZycsICctaW1hZScsICc8aW5maWxlLm1hZT4nLCAnLW9tYWUnLCAnPG91dGZpbGUubWFlPic=

> <r_epik_Ionization_Penalty>
1.75732

> <r_epik_Ionization_Penalty_Charging>
1.18089

> <r_epik_Ionization_Penalty_Neutral>
0.576429

> <r_epik_State_Penalty>
1.69377

> <r_epik_Charging_Adjusted_Penalty>
2.87466

> <i_epik_Tot_Q>
2

> <i_epik_Tot_abs_Q>
2

> <r_epik_Metal_State_Penalty>
5.70174

> <b_epik_Metal_Only>
0

> <s_lp_Force_Field>
OPLS_2005

> <r_lp_Energy>
42.0789

> <b_lp_Chiralities_Consistent>
1

> <s_lp_Variant>
AV-unprocessed.smi:1047-29

> <Gold.Version>
5.8.1

> <Gold.Id.Protein>
6NUR|6NUR_protein|mol2

> <Gold.PLP.Fitness>
54.7724

> <Gold.PLP.PLP>
-43.2873

> <Gold.PLP.part.hbond>
-4.9328

> <Gold.PLP.part.metal>
0.0000

> <Gold.PLP.part.buried>
-7.7668

> <Gold.PLP.part.nonpolar>
-33.6527

> <Gold.PLP.part.repulsive>
0.5821

> <Gold.PLP.ligand.clash>
0.0000

> <Gold.PLP.ligand.torsion>
1.4113

> <Gold.PLP.Chemscore.Hbond>
4.7264

> <Gold.PLP.Chemscore.CHOScore>
0.0000

> <Gold.PLP.Chemscore.Metal>
0.0000

> <Gold.Chemscore.Hbonds>
donor molecule, donor type, donor heavy atom, donor atom, acceptor molecule, acceptor atom, score
      L1  H     9    38       P1  7948  2.00
      L1  H     9    56       P1 10171  0.01
      L1  H    12    42       P1  7948  1.00
      L1  H    16    57       P1  8028  1.66

> <Gold.PLP.Chemscore.Internal.Correction>
0.1288

> <Gold.Rescore>
     Score         DG    S(hbond)    S(metal)    S(lipo)     H(rot)  DE(clash)    DE(int)     intcor
     18.73     -20.30       2.93        0.00     102.03       2.69       0.06       1.51       ----

> <Gold.Chemscore.Fitness>
18.7276

> <Gold.Chemscore.DG>
-20.2999

> <Gold.Chemscore.ZeroCoef>
-5.4800

> <Gold.Chemscore.Hbond>
2.9259

> <Gold.Chemscore.Metal>
0.0000

> <Gold.Chemscore.Lipo>
102.0346

> <Gold.Chemscore.Internal_Hbond>
0.0000

> <Gold.Chemscore.DEClash>
0.0580

> <Gold.Chemscore.DEInternal>
1.5143

> <Gold.Chemscore.Rot>
2.6917

> <Gold.Chemscore.Internal.Correction>
   9.000000E+99

> <Gold.Chemscore.Hbonds>
donor molecule, donor type, donor heavy atom, donor atom, acceptor molecule, acceptor atom, score
      L1  H     9    38       P1  7948  0.97
      L1  H     9    56       P1 10171  0.05
      L1  H    12    42       P1  7948  0.96
      L1  H    16    57       P1  8028  0.79

> <Gold.Chemscore.Hbond.Weighted>
-9.7725

> <Gold.Chemscore.Metal.Weighted>
-0.0000

> <Gold.Chemscore.Lipo.Weighted>
-11.9380

> <Gold.Chemscore.Internal_Hbond.Weighted>
0.0000

> <Gold.Chemscore.DEClash.Weighted>
0.0580

> <Gold.Chemscore.DEInternal.Weighted>
1.5143

> <Gold.Chemscore.Rot.Weighted>
6.8907

> <Gold.Chemscore.Internal.Correction.Weighted>
   9.000000E+99

> <Gold.Protein.RotatedTorsions>
[ 6907 6896 6895 6894 ] final   49.26 input  -60.11 | X-H torsion
[ 7974 7965 7964 7962 ] final   49.49 input  175.53 | X-H torsion
[ 8008 7997 7996 7995 ] final  -32.16 input   59.86 | X-H torsion
[ 10167 10162 10161 10158 ] final -104.24 input  -65.29 | X-H torsion
[ 10718 10713 10712 10709 ] final -147.51 input   66.30 | X-H torsion
[ 10763 10752 10751 10750 ] final   34.33 input  -60.55 | X-H torsion
[ 11005 11000 10999 10996 ] final   39.89 input  -57.11 | X-H torsion

> <Gold.Protein.ActiveResidues>
 VAL166  LYS551  ARG553  GLY616  TRP617  ASP618  TYR619  PRO620  LYS621  CYS622 
 ASP623  PHE694  ASN695  SER759  ASP760  ASP761  ALA762  ILE779  LEU786  VAL792 
 PHE793  MET794  SER795  GLU796  ALA797  LYS798  CYS799  TRP800  GLU811  SER814 

> <Gold.Protein.RotatedAtoms>
  152.2888  134.7745  160.0381 H   0  0  0  0  0  0  0  0  0  0  0  0  # atno 6907 bound_to 6896
  151.8299  133.3402  159.3618 H   0  0  0  0  0  0  0  0  0  0  0  0  # atno 6908 bound_to 6896
  150.7221  134.5422  159.5797 H   0  0  0  0  0  0  0  0  0  0  0  0  # atno 6909 bound_to 6896
  146.0104  139.4537  142.9960 H   0  0  0  0  0  0  0  0  0  0  0  0  # atno 7974 bound_to 7965
  154.4189  140.1745  156.1682 H   0  0  0  0  0  0  0  0  0  0  0  0  # atno 8008 bound_to 7997
  155.9782  140.3380  155.6614 H   0  0  0  0  0  0  0  0  0  0  0  0  # atno 8009 bound_to 7997
  155.6535  140.0693  157.2569 H   0  0  0  0  0  0  0  0  0  0  0  0  # atno 8010 bound_to 7997
  140.2114  143.3744  152.1047 H   0  0  0  0  0  0  0  0  0  0  0  0  # atno 10167 bound_to 10162
  156.4085  130.7969  151.2185 H   0  0  0  0  0  0  0  0  0  0  0  0  # atno 10718 bound_to 10713
  153.0169  135.6363  154.1652 H   0  0  0  0  0  0  0  0  0  0  0  0  # atno 10763 bound_to 10752
  154.1390  135.2836  155.3167 H   0  0  0  0  0  0  0  0  0  0  0  0  # atno 10764 bound_to 10752
  154.6138  135.5547  153.7563 H   0  0  0  0  0  0  0  0  0  0  0  0  # atno 10765 bound_to 10752
  140.1984  134.3901  155.8109 H   0  0  0  0  0  0  0  0  0  0  0  0  # atno 11005 bound_to 11000
  145.7351  141.0028  143.1331 LP  0  0  0  0  0  0  0  0  0  0  0  0  # atno 17320 bound_to 7965
  144.6951  139.9031  143.7459 LP  0  0  0  0  0  0  0  0  0  0  0  0  # atno 17321 bound_to 7965
  139.5179  144.6998  151.5527 LP  0  0  0  0  0  0  0  0  0  0  0  0  # atno 17342 bound_to 10162
  140.6321  143.9056  150.6614 LP  0  0  0  0  0  0  0  0  0  0  0  0  # atno 17343 bound_to 10162
  157.7506  131.0265  150.3964 LP  0  0  0  0  0  0  0  0  0  0  0  0  # atno 17370 bound_to 10713
  156.4258  130.3962  149.6794 LP  0  0  0  0  0  0  0  0  0  0  0  0  # atno 17371 bound_to 10713
  141.2227  133.7081  156.8215 LP  0  0  0  0  0  0  0  0  0  0  0  0  # atno 17394 bound_to 11000
  140.2082  134.8847  157.3245 LP  0  0  0  0  0  0  0  0  0  0  0  0  # atno 17395 bound_to 11000

$$$$
