AV-unprocessed.smi:1686|AV-procd|sdf|6759|dock3
  -GOLD-   22720 7523D 1   1.00000     0.00000
 Structure written by MMmdl.
 41 43  0  0  0  0  0  0  0  0  1 V2000
  150.3782  135.0789  156.6610 C   0  0  0  0  0  0  0  0  0  0  0  0
  150.3318  133.5942  156.4385 C   0  0  0  0  0  0  0  0  0  0  0  0
  150.6373  132.7724  157.4344 N   0  0  0  0  0  0  0  0  0  0  0  0
  150.5178  131.4744  156.9245 O   0  0  0  0  0  0  0  0  0  0  0  0
  150.1416  131.5898  155.6301 C   0  0  0  0  0  0  0  0  0  0  0  0
  149.8958  130.2228  154.6168 Cl  0  0  0  0  0  0  0  0  0  0  0  0
  149.9995  132.8914  155.2436 C   0  0  0  0  0  0  0  0  0  0  0  0
  149.6081  133.4584  153.9035 C   0  0  0  0  0  0  0  0  0  0  0  0
  148.1441  133.1263  153.6221 C   0  0  0  0  0  0  0  0  0  0  0  0
  147.6354  132.1212  154.1176 O   0  0  0  0  0  0  0  0  0  0  0  0
  147.4804  133.9871  152.8349 N   0  0  0  0  0  0  0  0  0  0  0  0
  146.0734  133.8865  152.4574 C   0  0  1  0  0  0  0  0  0  0  0  0
  145.3642  135.2060  152.8042 C   0  0  0  0  0  0  0  0  0  0  0  0
  145.9573  133.5395  150.9549 C   0  0  2  0  0  0  0  0  0  0  0  0
  144.6865  134.0809  150.2617 C   0  0  0  0  0  0  0  0  0  0  0  0
  144.1281  132.8391  149.5416 C   0  0  2  0  0  0  0  0  0  0  0  0
  143.5049  131.8915  150.5833 C   0  0  0  0  0  0  0  0  0  0  0  0
  144.7412  131.3115  151.2938 C   0  0  0  0  0  0  0  0  0  0  0  0
  145.9098  132.0333  150.5913 C   0  0  1  0  0  0  0  0  0  0  0  0
  145.3991  132.0914  149.1552 C   0  0  0  0  0  0  0  0  0  0  0  0
  151.2405  135.5191  156.1601 H   0  0  0  0  0  0  0  0  0  0  0  0
  150.4469  135.3275  157.7206 H   0  0  0  0  0  0  0  0  0  0  0  0
  149.4840  135.5619  156.2667 H   0  0  0  0  0  0  0  0  0  0  0  0
  149.7466  134.5398  153.8673 H   0  0  0  0  0  0  0  0  0  0  0  0
  150.2259  133.0493  153.1032 H   0  0  0  0  0  0  0  0  0  0  0  0
  147.9878  134.7840  152.4778 H   0  0  0  0  0  0  0  0  0  0  0  0
  145.5946  133.0941  153.0342 H   0  0  0  0  0  0  0  0  0  0  0  0
  144.3023  135.1630  152.5620 H   0  0  0  0  0  0  0  0  0  0  0  0
  145.7958  136.0450  152.2577 H   0  0  0  0  0  0  0  0  0  0  0  0
  145.4456  135.4264  153.8691 H   0  0  0  0  0  0  0  0  0  0  0  0
  146.8259  133.9652  150.4486 H   0  0  0  0  0  0  0  0  0  0  0  0
  143.9614  134.4994  150.9610 H   0  0  0  0  0  0  0  0  0  0  0  0
  144.9458  134.8642  149.5484 H   0  0  0  0  0  0  0  0  0  0  0  0
  143.4606  133.0768  148.7128 H   0  0  0  0  0  0  0  0  0  0  0  0
  142.8368  132.4124  151.2701 H   0  0  0  0  0  0  0  0  0  0  0  0
  142.9341  131.0983  150.0990 H   0  0  0  0  0  0  0  0  0  0  0  0
  144.7212  131.4643  152.3722 H   0  0  0  0  0  0  0  0  0  0  0  0
  144.8026  130.2360  151.1228 H   0  0  0  0  0  0  0  0  0  0  0  0
  146.8675  131.5248  150.7076 H   0  0  0  0  0  0  0  0  0  0  0  0
  145.2074  131.1079  148.7219 H   0  0  0  0  0  0  0  0  0  0  0  0
  146.0478  132.6572  148.4841 H   0  0  0  0  0  0  0  0  0  0  0  0
  1  2  1  0  0  0  0
  1 21  1  0  0  0  0
  1 22  1  0  0  0  0
  1 23  1  0  0  0  0
  2  7  1  0  0  0  0
  2  3  2  0  0  0  0
  3  4  1  0  0  0  0
  4  5  1  0  0  0  0
  5  6  1  0  0  0  0
  5  7  2  0  0  0  0
  7  8  1  0  0  0  0
  8  9  1  0  0  0  0
  8 24  1  0  0  0  0
  8 25  1  0  0  0  0
  9 10  2  0  0  0  0
  9 11  1  0  0  0  0
 11 12  1  0  0  0  0
 11 26  1  0  0  0  0
 12 13  1  0  0  0  0
 12 14  1  0  0  0  0
 12 27  1  0  0  0  0
 13 28  1  0  0  0  0
 13 29  1  0  0  0  0
 13 30  1  0  0  0  0
 14 19  1  0  0  0  0
 14 15  1  0  0  0  0
 14 31  1  0  0  0  0
 15 16  1  0  0  0  0
 15 32  1  0  0  0  0
 15 33  1  0  0  0  0
 16 20  1  0  0  0  0
 16 17  1  0  0  0  0
 16 34  1  0  0  0  0
 17 18  1  0  0  0  0
 17 35  1  0  0  0  0
 17 36  1  0  0  0  0
 18 19  1  0  0  0  0
 18 37  1  0  0  0  0
 18 38  1  0  0  0  0
 19 20  1  0  0  0  0
 19 39  1  0  0  0  0
 20 40  1  0  0  0  0
 20 41  1  0  0  0  0
M  END
> <s_m_source_file>
AV-unprocessed.smi

> <i_m_source_file_index>
1686

> <i_lp_mmshare_version>
43012

> <i_f3d_flags>
0

> <s_epik_input>
W0NIM11jMW5vYyhDbCljMVtDSDJdQyg9TylbTkhdW0NASF0oW0NIM10pW0NASF0oW0NIMl1bQ0BIXTIzKVtDQEhdKFtDSDJdMylbQ0gyXVtDSDJdMg==

> <s_epik_cmdline>
J2VwaWtfcHl0aG9uJywgJy1waCcsICc3LjAnLCAnLXRuJywgJzgnLCAnLW1hJywgJzIwMCcsICctbWV0YWxfYmluZGluZycsICctaW1hZScsICc8aW5maWxlLm1hZT4nLCAnLW9tYWUnLCAnPG91dGZpbGUubWFlPic=

> <r_lp_tautomer_probability>
1

> <r_epik_Ionization_Penalty>
2.01576e-08

> <r_epik_Ionization_Penalty_Charging>
0

> <r_epik_Ionization_Penalty_Neutral>
2.01576e-08

> <r_epik_State_Penalty>
-0

> <r_epik_Charging_Adjusted_Penalty>
0

> <i_epik_Tot_Q>
0

> <i_epik_Tot_abs_Q>
0

> <r_epik_Metal_State_Penalty>
-0

> <b_epik_Metal_Only>
0

> <s_lp_Force_Field>
OPLS_2005

> <r_lp_Energy>
45.5395

> <b_lp_Chiralities_Consistent>
1

> <s_lp_Variant>
AV-unprocessed.smi:1686-2

> <Gold.Version>
5.8.1

> <Gold.Id.Protein>
6NUR|6NUR_protein|mol2

> <Gold.PLP.Fitness>
41.2410

> <Gold.PLP.PLP>
-37.7850

> <Gold.PLP.part.hbond>
-2.0000

> <Gold.PLP.part.metal>
0.0000

> <Gold.PLP.part.buried>
-4.0738

> <Gold.PLP.part.nonpolar>
-32.8863

> <Gold.PLP.part.repulsive>
0.0441

> <Gold.PLP.ligand.clash>
0.0000

> <Gold.PLP.ligand.torsion>
1.2790

> <Gold.PLP.Chemscore.Hbond>
2.0000

> <Gold.PLP.Chemscore.CHOScore>
0.0000

> <Gold.PLP.Chemscore.Metal>
0.0000

> <Gold.Chemscore.Hbonds>
donor molecule, donor type, donor heavy atom, donor atom, acceptor molecule, acceptor atom, score
      L1  H    11    26       P1  7948  1.00
      P1  H  6896  6908       L1     3  1.00

> <Gold.PLP.Chemscore.Internal.Correction>
0.0140

> <Gold.Rescore>
     Score         DG    S(hbond)    S(metal)    S(lipo)     H(rot)  DE(clash)    DE(int)     intcor
     18.12     -20.12       1.87        0.00     103.79       1.46       0.01       2.00       ----

> <Gold.Chemscore.Fitness>
18.1192

> <Gold.Chemscore.DG>
-20.1241

> <Gold.Chemscore.ZeroCoef>
-5.4800

> <Gold.Chemscore.Hbond>
1.8716

> <Gold.Chemscore.Metal>
0.0000

> <Gold.Chemscore.Lipo>
103.7856

> <Gold.Chemscore.Internal_Hbond>
0.0000

> <Gold.Chemscore.DEClash>
0.0064

> <Gold.Chemscore.DEInternal>
1.9985

> <Gold.Chemscore.Rot>
1.4648

> <Gold.Chemscore.Internal.Correction>
   9.000000E+99

> <Gold.Chemscore.Hbonds>
donor molecule, donor type, donor heavy atom, donor atom, acceptor molecule, acceptor atom, score
      L1  H    11    26       P1  7948  0.70
      P1  H  6896  6908       L1     3  0.91

> <Gold.Chemscore.Hbond.Weighted>
-6.2512

> <Gold.Chemscore.Metal.Weighted>
-0.0000

> <Gold.Chemscore.Lipo.Weighted>
-12.1429

> <Gold.Chemscore.Internal_Hbond.Weighted>
0.0000

> <Gold.Chemscore.DEClash.Weighted>
0.0064

> <Gold.Chemscore.DEInternal.Weighted>
1.9985

> <Gold.Chemscore.Rot.Weighted>
3.7500

> <Gold.Chemscore.Internal.Correction.Weighted>
   9.000000E+99

> <Gold.Protein.RotatedTorsions>
[ 6907 6896 6895 6894 ] final   77.06 input  -60.11 | X-H torsion
[ 7974 7965 7964 7962 ] final   73.89 input  175.53 | X-H torsion
[ 8008 7997 7996 7995 ] final  101.78 input   59.86 | X-H torsion
[ 10167 10162 10161 10158 ] final   58.96 input  -65.29 | X-H torsion
[ 10718 10713 10712 10709 ] final  120.13 input   66.30 | X-H torsion
[ 10763 10752 10751 10750 ] final  140.90 input  -60.55 | X-H torsion
[ 11005 11000 10999 10996 ] final  -37.33 input  -57.11 | X-H torsion

> <Gold.Protein.ActiveResidues>
 VAL166  LYS551  ARG553  GLY616  TRP617  ASP618  TYR619  PRO620  LYS621  CYS622 
 ASP623  PHE694  ASN695  SER759  ASP760  ASP761  ALA762  ILE779  LEU786  VAL792 
 PHE793  MET794  SER795  GLU796  ALA797  LYS798  CYS799  TRP800  GLU811  SER814 

> <Gold.Protein.RotatedAtoms>
  152.5101  134.3874  159.9371 H   0  0  0  0  0  0  0  0  0  0  0  0  # atno 6907 bound_to 6896
  151.3833  133.3807  159.2720 H   0  0  0  0  0  0  0  0  0  0  0  0  # atno 6908 bound_to 6896
  150.9488  134.8910  159.7717 H   0  0  0  0  0  0  0  0  0  0  0  0  # atno 6909 bound_to 6896
  145.7352  139.2699  143.1518 H   0  0  0  0  0  0  0  0  0  0  0  0  # atno 7974 bound_to 7965
  156.1331  140.3192  155.8380 H   0  0  0  0  0  0  0  0  0  0  0  0  # atno 8008 bound_to 7997
  155.4294  140.0518  157.3037 H   0  0  0  0  0  0  0  0  0  0  0  0  # atno 8009 bound_to 7997
  154.4915  140.2094  155.9550 H   0  0  0  0  0  0  0  0  0  0  0  0  # atno 8010 bound_to 7997
  140.1816  144.4176  150.6612 H   0  0  0  0  0  0  0  0  0  0  0  0  # atno 10167 bound_to 10162
  157.5913  131.1064  150.7992 H   0  0  0  0  0  0  0  0  0  0  0  0  # atno 10718 bound_to 10713
  153.9303  135.2991  155.3446 H   0  0  0  0  0  0  0  0  0  0  0  0  # atno 10763 bound_to 10752
  154.7530  135.4971  153.9326 H   0  0  0  0  0  0  0  0  0  0  0  0  # atno 10764 bound_to 10752
  153.1095  135.6755  153.9631 H   0  0  0  0  0  0  0  0  0  0  0  0  # atno 10765 bound_to 10752
  140.9944  133.6988  156.1907 H   0  0  0  0  0  0  0  0  0  0  0  0  # atno 11005 bound_to 11000
  146.0500  140.8079  142.9786 LP  0  0  0  0  0  0  0  0  0  0  0  0  # atno 17320 bound_to 7965
  144.6883  140.3039  143.7259 LP  0  0  0  0  0  0  0  0  0  0  0  0  # atno 17321 bound_to 7965
  140.6516  143.2226  151.6065 LP  0  0  0  0  0  0  0  0  0  0  0  0  # atno 17342 bound_to 10162
  139.5294  144.2962  152.1111 LP  0  0  0  0  0  0  0  0  0  0  0  0  # atno 17343 bound_to 10162
  156.8413  130.5049  149.5321 LP  0  0  0  0  0  0  0  0  0  0  0  0  # atno 17370 bound_to 10713
  156.0968  130.5938  150.9827 LP  0  0  0  0  0  0  0  0  0  0  0  0  # atno 17371 bound_to 10713
  140.6990  134.4585  157.5587 LP  0  0  0  0  0  0  0  0  0  0  0  0  # atno 17394 bound_to 11000
  139.9007  134.8562  156.1907 LP  0  0  0  0  0  0  0  0  0  0  0  0  # atno 17395 bound_to 11000

$$$$
