#       Name:                AV-unprocessed.smi:1033
#       Creating user name   scv26
#       Creation time:       Fri Mar 27 02:51:05 2020


#       File generated by GOLD software.
#

@<TRIPOS>MOLECULE
AV-unprocessed.smi:1033
    62    64     1
SMALL
NO_CHARGES


@<TRIPOS>ATOM
      1 ****        -5.6362   1.1710   3.0790 C.3            1 S1                 0.0000
      2 ****        -4.6424   1.6538   2.0369 C.ar           1 S1                 0.0000
      3 ****        -3.7862   2.7328   2.3523 C.ar           1 S1                 0.0000
      4 ****        -2.8511   3.2143   1.4105 C.ar           1 S1                 0.0000
      5 ****        -1.9287   4.2422   1.5043 N.2            1 S1                 0.0000
      6 ****        -1.3587   4.2022   0.3040 C.2            1 S1                 0.0000
      7 ****        -1.7915   3.2567  -0.5526 N.pl3          1 S1                 0.0000
      8 ****        -1.3150   3.0122  -1.9017 C.3            1 S1                 0.0000
      9 ****        -0.5216   1.6955  -2.0200 C.3            1 S1                 0.0000
     10 ****        -0.0641   1.5828  -3.3521 O.3            1 S1                 0.0000
     11 ****         0.6918   1.6141  -1.0676 C.3            1 S1                 0.0000
     12 ****         1.3796   0.2995  -1.1400 N.4            1 S1                 1.0000
     13 ****         0.6768  -0.7784  -0.3975 C.3            1 S1                 0.0000
     14 ****         1.3877  -2.1311  -0.5794 C.3            1 S1                 0.0000
     15 ****         2.8121  -2.0492  -0.1720 N.4            1 S1                 1.0000
     16 ****         3.4990  -3.3649  -0.2452 C.3            1 S1                 0.0000
     17 ****         4.7221  -3.4457   0.6893 C.3            1 S1                 0.0000
     18 ****         5.4807  -4.7701   0.5348 C.3            1 S1                 0.0000
     19 ****         4.2871  -3.3397   2.0297 O.3            1 S1                 0.0000
     20 ****         3.5148  -0.9703  -0.9132 C.3            1 S1                 0.0000
     21 ****         2.8034   0.3825  -0.7318 C.3            1 S1                 0.0000
     22 ****        -2.7937   2.5804   0.1348 C.ar           1 S1                 0.0000
     23 ****        -3.6413   1.5069  -0.1915 C.ar           1 S1                 0.0000
     24 ****        -4.5697   1.0381   0.7614 C.ar           1 S1                 0.0000
     25 ****        -5.4810  -0.1215   0.4000 C.3            1 S1                 0.0000
     26 ****        -5.5817   1.7692   3.9891 H              1 S1                 0.0000
     27 ****        -5.4342   0.1339   3.3475 H              1 S1                 0.0000
     28 ****        -6.6549   1.2388   2.6964 H              1 S1                 0.0000
     29 ****        -3.8425   3.2033   3.3231 H              1 S1                 0.0000
     30 ****        -0.5732   4.8938   0.0359 H              1 S1                 0.0000
     31 ****        -2.1776   2.9975  -2.5695 H              1 S1                 0.0000
     32 ****        -0.6966   3.8574  -2.2083 H              1 S1                 0.0000
     33 ****        -1.2029   0.8668  -1.8330 H              1 S1                 0.0000
     34 ****         0.4242   2.3619  -3.5729 H              1 S1                 0.0000
     35 ****         1.3877   2.4132  -1.3285 H              1 S1                 0.0000
     36 ****         0.3973   1.7964  -0.0333 H              1 S1                 0.0000
     37 ****         0.6324  -0.5218   0.6624 H              1 S1                 0.0000
     38 ****        -0.3530  -0.8702  -0.7410 H              1 S1                 0.0000
     39 ****         0.8767  -2.8878   0.0174 H              1 S1                 0.0000
     40 ****         1.3248  -2.4516  -1.6208 H              1 S1                 0.0000
     41 ****         2.8028  -4.1595   0.0290 H              1 S1                 0.0000
     42 ****         3.7914  -3.5619  -1.2779 H              1 S1                 0.0000
     43 ****         5.4151  -2.6292   0.4899 H              1 S1                 0.0000
     44 ****         5.8635  -4.8854  -0.4797 H              1 S1                 0.0000
     45 ****         4.8386  -5.6259   0.7468 H              1 S1                 0.0000
     46 ****         6.3329  -4.8175   1.2138 H              1 S1                 0.0000
     47 ****         3.8037  -4.1205   2.2553 H              1 S1                 0.0000
     48 ****         4.5439  -0.8775  -0.5679 H              1 S1                 0.0000
     49 ****         3.5608  -1.2264  -1.9730 H              1 S1                 0.0000
     50 ****         3.3142   1.1390  -1.3291 H              1 S1                 0.0000
     51 ****         2.8655   0.7035   0.3094 H              1 S1                 0.0000
     52 ****        -3.5809   1.0499  -1.1682 H              1 S1                 0.0000
     53 ****        -5.2742  -0.4936  -0.6039 H              1 S1                 0.0000
     54 ****        -6.5253   0.1903   0.4322 H              1 S1                 0.0000
     55 ****        -5.3437  -0.9480   1.0975 H              1 S1                 0.0000
     56 ****         2.8134  -1.7898   0.8048 H              1 S1                 0.0000
     57 ****         1.3786   0.0384  -2.1164 H              1 S1                 0.0000
     58 ****        -1.7406   4.8539   2.2727 LP             1 S1                 0.0000
     59 ****        -0.8454   1.4895  -3.9692 LP             1 S1                 0.0000
     60 ****         0.5263   0.7803  -3.4381 LP             1 S1                 0.0000
     61 ****         3.6971  -2.5385   2.1294 LP             1 S1                 0.0000
     62 ****         5.0787  -3.2480   2.6338 LP             1 S1                 0.0000
@<TRIPOS>BOND
    1    1    2 1     
    2    1   26 1     
    3    1   27 1     
    4    1   28 1     
    5    2   24 ar    
    6    2    3 ar    
    7    3    4 ar    
    8    3   29 1     
    9    4   22 ar    
   10    4    5 1     
   11    5    6 2     
   12    6    7 1     
   13    6   30 1     
   14    7    8 1     
   15    7   22 1     
   16    8    9 1     
   17    8   31 1     
   18    8   32 1     
   19    9   10 1     
   20    9   11 1     
   21    9   33 1     
   22   10   34 1     
   23   11   12 1     
   24   11   35 1     
   25   11   36 1     
   26   12   21 1     
   27   12   13 1     
   28   12   57 1     
   29   13   14 1     
   30   13   37 1     
   31   13   38 1     
   32   14   15 1     
   33   14   39 1     
   34   14   40 1     
   35   15   16 1     
   36   15   20 1     
   37   15   56 1     
   38   16   17 1     
   39   16   41 1     
   40   16   42 1     
   41   17   18 1     
   42   17   19 1     
   43   17   43 1     
   44   18   44 1     
   45   18   45 1     
   46   18   46 1     
   47   19   47 1     
   48   20   21 1     
   49   20   48 1     
   50   20   49 1     
   51   21   50 1     
   52   21   51 1     
   53   22   23 ar    
   54   23   24 ar    
   55   23   52 1     
   56   24   25 1     
   57   25   53 1     
   58   25   54 1     
   59   25   55 1     
   60    5   58 1     
   61   10   59 1     
   62   10   60 1     
   63   19   61 1     
   64   19   62 1     
@<TRIPOS>SUBSTRUCTURE
      1 S1             1
@<TRIPOS>SET
LONE_PAIRS      STATIC     ATOMS    <user>   **** ""
5 58 59 60 61 62
DONOR_HYDROGENS      STATIC     ATOMS    <user>   **** ""
4 34 57 56 47
ATOM$BLUE        STATIC     ATOMS    COLORGROUP SYSTEM
5 58 59 60 61 62
ATOM$RED        STATIC     ATOMS    COLORGROUP SYSTEM
4 34 57 56 47
