AV-unprocessed.smi:1295|AV-procd|sdf|5403|dock4
  -GOLD-   22720 4563D 1   1.00000     0.00000
 Structure written by MMmdl.
 43 44  0  0  0  0  0  0  0  0  1 V2000
  154.2089  141.3424  161.3298 C   0  0  0  0  0  0  0  0  0  0  0  0
  153.2720  141.7326  160.2066 C   0  0  0  0  0  0  0  0  0  0  0  0
  152.9196  142.9496  159.9517 N   0  0  0  0  0  0  0  0  0  0  0  0
  152.0477  143.1887  158.8807 C   0  0  0  0  0  0  0  0  0  0  0  0
  151.6955  144.6453  158.6340 C   0  0  0  0  0  0  0  0  0  0  0  0
  151.5630  142.1705  158.1112 C   0  0  0  0  0  0  0  0  0  0  0  0
  150.6272  142.4016  156.9233 C   0  0  0  0  0  0  0  0  0  0  0  0
  149.3622  141.5406  156.9038 C   0  0  0  0  0  0  0  0  0  0  0  0
  149.2390  140.6058  157.6940 O   0  0  0  0  0  0  0  0  0  0  0  0
  148.4334  141.8779  155.9968 N   0  0  0  0  0  0  0  0  0  0  0  0
  147.1131  141.2746  155.8321 C   0  0  2  0  0  0  0  0  0  0  0  0
  147.2046  139.7437  155.9930 C   0  0  0  0  0  0  0  0  0  0  0  0
  147.9640  139.0833  154.8288 C   0  0  0  0  0  0  0  0  0  0  0  0
  147.3457  139.4638  153.4751 C   0  0  0  0  0  0  0  0  0  0  0  0
  147.2727  140.9892  153.3000 C   0  0  0  0  0  0  0  0  0  0  0  0
  146.5055  141.6587  154.4598 C   0  0  2  0  0  0  0  0  0  0  0  0
  146.4021  143.1815  154.2604 C   0  0  0  0  0  0  0  0  0  0  0  0
  151.9756  140.7850  158.4086 C   0  0  0  0  0  0  0  0  0  0  0  0
  151.6185  139.7985  157.7667 O   0  0  0  0  0  0  0  0  0  0  0  0
  152.8170  140.6486  159.4577 N   0  0  0  0  0  0  0  0  0  0  0  0
  153.1295  139.7198  159.7007 H   0  0  0  0  0  0  0  0  0  0  0  0
  155.1710  141.8396  161.2048 H   0  0  0  0  0  0  0  0  0  0  0  0
  154.3821  140.2657  161.3548 H   0  0  0  0  0  0  0  0  0  0  0  0
  153.7895  141.6432  162.2903 H   0  0  0  0  0  0  0  0  0  0  0  0
  150.6230  144.8051  158.7455 H   0  0  0  0  0  0  0  0  0  0  0  0
  151.9904  144.9462  157.6285 H   0  0  0  0  0  0  0  0  0  0  0  0
  152.2056  145.3019  159.3400 H   0  0  0  0  0  0  0  0  0  0  0  0
  150.3286  143.4489  156.8668 H   0  0  0  0  0  0  0  0  0  0  0  0
  151.1808  142.2216  156.0014 H   0  0  0  0  0  0  0  0  0  0  0  0
  148.6456  142.6523  155.3847 H   0  0  0  0  0  0  0  0  0  0  0  0
  146.4461  141.6544  156.6081 H   0  0  0  0  0  0  0  0  0  0  0  0
  147.6813  139.4917  156.9411 H   0  0  0  0  0  0  0  0  0  0  0  0
  146.1969  139.3288  156.0414 H   0  0  0  0  0  0  0  0  0  0  0  0
  149.0118  139.3858  154.8510 H   0  0  0  0  0  0  0  0  0  0  0  0
  147.9554  137.9996  154.9487 H   0  0  0  0  0  0  0  0  0  0  0  0
  147.9285  139.0243  152.6650 H   0  0  0  0  0  0  0  0  0  0  0  0
  146.3437  139.0397  153.3996 H   0  0  0  0  0  0  0  0  0  0  0  0
  148.2822  141.3975  153.2351 H   0  0  0  0  0  0  0  0  0  0  0  0
  146.7884  141.2220  152.3512 H   0  0  0  0  0  0  0  0  0  0  0  0
  145.4866  141.2687  154.4407 H   0  0  0  0  0  0  0  0  0  0  0  0
  147.3848  143.6511  154.2027 H   0  0  0  0  0  0  0  0  0  0  0  0
  145.8583  143.6485  155.0820 H   0  0  0  0  0  0  0  0  0  0  0  0
  145.8710  143.4190  153.3384 H   0  0  0  0  0  0  0  0  0  0  0  0
  1  2  1  0  0  0  0
  1 22  1  0  0  0  0
  1 23  1  0  0  0  0
  1 24  1  0  0  0  0
  2 20  1  0  0  0  0
  2  3  2  0  0  0  0
  3  4  1  0  0  0  0
  4  5  1  0  0  0  0
  4  6  2  0  0  0  0
  5 25  1  0  0  0  0
  5 26  1  0  0  0  0
  5 27  1  0  0  0  0
  6  7  1  0  0  0  0
  6 18  1  0  0  0  0
  7  8  1  0  0  0  0
  7 28  1  0  0  0  0
  7 29  1  0  0  0  0
  8  9  2  0  0  0  0
  8 10  1  0  0  0  0
 10 11  1  0  0  0  0
 10 30  1  0  0  0  0
 11 16  1  0  0  0  0
 11 12  1  0  0  0  0
 11 31  1  0  0  0  0
 12 13  1  0  0  0  0
 12 32  1  0  0  0  0
 12 33  1  0  0  0  0
 13 14  1  0  0  0  0
 13 34  1  0  0  0  0
 13 35  1  0  0  0  0
 14 15  1  0  0  0  0
 14 36  1  0  0  0  0
 14 37  1  0  0  0  0
 15 16  1  0  0  0  0
 15 38  1  0  0  0  0
 15 39  1  0  0  0  0
 16 17  1  0  0  0  0
 16 40  1  0  0  0  0
 17 41  1  0  0  0  0
 17 42  1  0  0  0  0
 17 43  1  0  0  0  0
 18 19  2  0  0  0  0
 18 20  1  0  0  0  0
 20 21  1  0  0  0  0
M  END
> <s_m_source_file>
AV-unprocessed.smi

> <i_m_source_file_index>
1295

> <i_lp_mmshare_version>
43012

> <i_f3d_flags>
0

> <s_epik_input>
W0NIM11jMW5jKFtDSDNdKWMoYyg9TylbbkhdMSlbQ0gyXUMoPU8pW05IXVtDQEBIXTJbQ0gyXVtDSDJdW0NIMl1bQ0gyXVtDQEhdMltDSDNd

> <s_epik_cmdline>
J2VwaWtfcHl0aG9uJywgJy1waCcsICc3LjAnLCAnLXRuJywgJzgnLCAnLW1hJywgJzIwMCcsICctbWV0YWxfYmluZGluZycsICctaW1hZScsICc8aW5maWxlLm1hZT4nLCAnLW9tYWUnLCAnPG91dGZpbGUubWFlPic=

> <r_lp_tautomer_probability>
0.839158

> <r_epik_Ionization_Penalty>
0.00037085

> <r_epik_Ionization_Penalty_Charging>
0.000336002

> <r_epik_Ionization_Penalty_Neutral>
3.48485e-05

> <r_epik_State_Penalty>
0.09125

> <r_epik_Charging_Adjusted_Penalty>
0.091586

> <i_epik_Tot_Q>
0

> <i_epik_Tot_abs_Q>
0

> <r_epik_Metal_State_Penalty>
0.251445

> <b_epik_Metal_Only>
0

> <s_lp_Force_Field>
OPLS_2005

> <r_lp_Energy>
10.0645

> <b_lp_Chiralities_Consistent>
1

> <s_lp_Variant>
AV-unprocessed.smi:1295-3

> <Gold.Version>
5.8.1

> <Gold.Id.Protein>
6NUR|6NUR_protein|mol2

> <Gold.PLP.Fitness>
36.7016

> <Gold.PLP.PLP>
-35.7372

> <Gold.PLP.part.hbond>
-1.0000

> <Gold.PLP.part.metal>
0.0000

> <Gold.PLP.part.buried>
-3.1638

> <Gold.PLP.part.nonpolar>
-30.6184

> <Gold.PLP.part.repulsive>
0.2039

> <Gold.PLP.ligand.clash>
0.0000

> <Gold.PLP.ligand.torsion>
0.4061

> <Gold.PLP.Chemscore.Hbond>
0.5881

> <Gold.PLP.Chemscore.CHOScore>
0.0000

> <Gold.PLP.Chemscore.Metal>
0.0000

> <Gold.Chemscore.Hbonds>
donor molecule, donor type, donor heavy atom, donor atom, acceptor molecule, acceptor atom, score
      L1  H    10    30       P1  8028  0.61

> <Gold.PLP.Chemscore.Internal.Correction>
0.0122

> <Gold.Rescore>
     Score         DG    S(hbond)    S(metal)    S(lipo)     H(rot)  DE(clash)    DE(int)     intcor
      9.55     -13.85       0.78        0.00      81.70       1.48       0.08       4.22       ----

> <Gold.Chemscore.Fitness>
9.5478

> <Gold.Chemscore.DG>
-13.8487

> <Gold.Chemscore.ZeroCoef>
-5.4800

> <Gold.Chemscore.Hbond>
0.7783

> <Gold.Chemscore.Metal>
0.0000

> <Gold.Chemscore.Lipo>
81.6959

> <Gold.Chemscore.Internal_Hbond>
0.0000

> <Gold.Chemscore.DEClash>
0.0810

> <Gold.Chemscore.DEInternal>
4.2199

> <Gold.Chemscore.Rot>
1.4801

> <Gold.Chemscore.Internal.Correction>
   9.000000E+99

> <Gold.Chemscore.Hbonds>
donor molecule, donor type, donor heavy atom, donor atom, acceptor molecule, acceptor atom, score
      L1  H    10    30       P1  8028  0.59

> <Gold.Chemscore.Hbond.Weighted>
-2.5994

> <Gold.Chemscore.Metal.Weighted>
-0.0000

> <Gold.Chemscore.Lipo.Weighted>
-9.5584

> <Gold.Chemscore.Internal_Hbond.Weighted>
0.0000

> <Gold.Chemscore.DEClash.Weighted>
0.0810

> <Gold.Chemscore.DEInternal.Weighted>
4.2199

> <Gold.Chemscore.Rot.Weighted>
3.7891

> <Gold.Chemscore.Internal.Correction.Weighted>
   9.000000E+99

> <Gold.Protein.RotatedTorsions>
[ 6907 6896 6895 6894 ] final -123.54 input  -60.11 | X-H torsion
[ 7974 7965 7964 7962 ] final -119.34 input  175.53 | X-H torsion
[ 8008 7997 7996 7995 ] final  -38.17 input   59.86 | X-H torsion
[ 10167 10162 10161 10158 ] final  -11.75 input  -65.29 | X-H torsion
[ 10718 10713 10712 10709 ] final  -69.50 input   66.30 | X-H torsion
[ 10763 10752 10751 10750 ] final   82.81 input  -60.55 | X-H torsion
[ 11005 11000 10999 10996 ] final   -3.73 input  -57.11 | X-H torsion

> <Gold.Protein.ActiveResidues>
 VAL166  LYS551  ARG553  GLY616  TRP617  ASP618  TYR619  PRO620  LYS621  CYS622 
 ASP623  PHE694  ASN695  SER759  ASP760  ASP761  ALA762  ILE779  LEU786  VAL792 
 PHE793  MET794  SER795  GLU796  ALA797  LYS798  CYS799  TRP800  GLU811  SER814 

> <Gold.Protein.RotatedAtoms>
  150.8681  133.7545  159.2970 H   0  0  0  0  0  0  0  0  0  0  0  0  # atno 6907 bound_to 6896
  151.5166  135.1065  159.9877 H   0  0  0  0  0  0  0  0  0  0  0  0  # atno 6908 bound_to 6896
  152.4675  133.7911  159.6958 H   0  0  0  0  0  0  0  0  0  0  0  0  # atno 6909 bound_to 6896
  145.0637  140.8309  143.4137 H   0  0  0  0  0  0  0  0  0  0  0  0  # atno 7974 bound_to 7965
  154.4041  140.1585  156.2657 H   0  0  0  0  0  0  0  0  0  0  0  0  # atno 8008 bound_to 7997
  155.8998  140.3434  155.5995 H   0  0  0  0  0  0  0  0  0  0  0  0  # atno 8009 bound_to 7997
  155.7462  140.0799  157.2213 H   0  0  0  0  0  0  0  0  0  0  0  0  # atno 8010 bound_to 7997
  140.7146  143.5606  150.9200 H   0  0  0  0  0  0  0  0  0  0  0  0  # atno 10167 bound_to 10162
  156.0452  130.4314  150.2157 H   0  0  0  0  0  0  0  0  0  0  0  0  # atno 10718 bound_to 10713
  153.1236  135.4714  154.9235 H   0  0  0  0  0  0  0  0  0  0  0  0  # atno 10763 bound_to 10752
  154.7599  135.3128  154.8401 H   0  0  0  0  0  0  0  0  0  0  0  0  # atno 10764 bound_to 10752
  153.8960  135.6880  153.4811 H   0  0  0  0  0  0  0  0  0  0  0  0  # atno 10765 bound_to 10752
  140.6725  133.9224  155.8503 H   0  0  0  0  0  0  0  0  0  0  0  0  # atno 11005 bound_to 11000
  145.1377  139.2591  143.5506 LP  0  0  0  0  0  0  0  0  0  0  0  0  # atno 17320 bound_to 7965
  146.3525  140.1046  142.8606 LP  0  0  0  0  0  0  0  0  0  0  0  0  # atno 17321 bound_to 7965
  139.9331  143.6469  152.3071 LP  0  0  0  0  0  0  0  0  0  0  0  0  # atno 17342 bound_to 10162
  139.6927  144.7645  151.1410 LP  0  0  0  0  0  0  0  0  0  0  0  0  # atno 17343 bound_to 10162
  157.0247  130.9990  151.3329 LP  0  0  0  0  0  0  0  0  0  0  0  0  # atno 17370 bound_to 10713
  157.5319  130.8064  149.7927 LP  0  0  0  0  0  0  0  0  0  0  0  0  # atno 17371 bound_to 10713
  141.0381  134.0661  157.3935 LP  0  0  0  0  0  0  0  0  0  0  0  0  # atno 17394 bound_to 11000
  139.8977  135.0151  156.7113 LP  0  0  0  0  0  0  0  0  0  0  0  0  # atno 17395 bound_to 11000

$$$$
