AV-unprocessed.smi:1144|AV-procd|sdf|4877|dock6
  -GOLD-   22720 3453D 1   1.00000     0.00000
 Structure written by MMmdl.
 35 36  0  0  0  0  0  0  0  0  2 V2000
  147.2351  141.3166  156.3265 C   0  0  0  0  0  0  0  0  0  0  0  0
  148.3343  141.9377  155.5522 N   0  3  2  0  0  0  0  0  0  0  0  0
  148.3035  141.6117  154.1069 C   0  0  0  0  0  0  0  0  0  0  0  0
  148.8694  140.2054  153.8385 C   0  0  0  0  0  0  0  0  0  0  0  0
  150.1794  140.1089  154.3839 O   0  0  0  0  0  0  0  0  0  0  0  0
  150.1991  140.2821  155.7979 C   0  0  1  0  0  0  0  0  0  0  0  0
  151.6421  140.0871  156.2823 C   0  0  0  0  0  0  0  0  0  0  0  0
  151.7029  139.8397  157.7150 N   0  0  0  0  0  0  0  0  0  0  0  0
  152.2779  140.7074  158.6240 C   0  0  0  0  0  0  0  0  0  0  0  0
  153.2309  140.2339  159.4350 N   0  0  0  0  0  0  0  0  0  0  0  0
  153.7750  141.1021  160.3150 C   0  0  0  0  0  0  0  0  0  0  0  0
  153.3613  142.4471  160.3805 C   0  0  0  0  0  0  0  0  0  0  0  0
  152.3484  142.8362  159.4776 C   0  0  0  0  0  0  0  0  0  0  0  0
  151.8259  144.2646  159.4615 C   0  0  0  0  0  0  0  0  0  0  0  0
  150.5391  144.2632  159.1138 F   0  0  0  0  0  0  0  0  0  0  0  0
  151.9409  144.7931  160.6796 F   0  0  0  0  0  0  0  0  0  0  0  0
  152.4977  145.0312  158.6001 F   0  0  0  0  0  0  0  0  0  0  0  0
  151.8111  141.9572  158.5986 N   0  0  0  0  0  0  0  0  0  0  0  0
  149.6804  141.6994  156.1264 C   0  0  0  0  0  0  0  0  0  0  0  0
  147.2945  140.2284  156.3202 H   0  0  0  0  0  0  0  0  0  0  0  0
  146.2681  141.6050  155.9129 H   0  0  0  0  0  0  0  0  0  0  0  0
  147.2617  141.6515  157.3638 H   0  0  0  0  0  0  0  0  0  0  0  0
  147.2894  141.7046  153.7166 H   0  0  0  0  0  0  0  0  0  0  0  0
  148.9078  142.3492  153.5772 H   0  0  0  0  0  0  0  0  0  0  0  0
  148.2268  139.4297  154.2575 H   0  0  0  0  0  0  0  0  0  0  0  0
  148.9224  140.0234  152.7649 H   0  0  0  0  0  0  0  0  0  0  0  0
  149.5613  139.5340  156.2722 H   0  0  0  0  0  0  0  0  0  0  0  0
  152.1125  139.2605  155.7484 H   0  0  0  0  0  0  0  0  0  0  0  0
  152.2257  140.9825  156.0648 H   0  0  0  0  0  0  0  0  0  0  0  0
  151.3915  138.9448  158.0638 H   0  0  0  0  0  0  0  0  0  0  0  0
  154.5444  140.7215  160.9701 H   0  0  0  0  0  0  0  0  0  0  0  0
  153.7961  143.1420  161.0835 H   0  0  0  0  0  0  0  0  0  0  0  0
  150.3621  142.4417  155.7088 H   0  0  0  0  0  0  0  0  0  0  0  0
  149.6634  141.8675  157.2041 H   0  0  0  0  0  0  0  0  0  0  0  0
  148.1714  142.9324  155.6203 H   0  0  0  0  0  0  0  0  0  0  0  0
  1  2  1  0  0  0  0
  1 20  1  0  0  0  0
  1 21  1  0  0  0  0
  1 22  1  0  0  0  0
  2 19  1  0  0  0  0
  2  3  1  0  0  0  0
  2 35  1  0  0  0  0
  3  4  1  0  0  0  0
  3 23  1  0  0  0  0
  3 24  1  0  0  0  0
  4  5  1  0  0  0  0
  4 25  1  0  0  0  0
  4 26  1  0  0  0  0
  5  6  1  0  0  0  0
  6  7  1  0  0  0  0
  6 19  1  0  0  0  0
  6 27  1  0  0  0  0
  7  8  1  0  0  0  0
  7 28  1  0  0  0  0
  7 29  1  0  0  0  0
  8  9  1  0  0  0  0
  8 30  1  0  0  0  0
  9 18  1  0  0  0  0
  9 10  2  0  0  0  0
 10 11  1  0  0  0  0
 11 12  2  0  0  0  0
 11 31  1  0  0  0  0
 12 13  1  0  0  0  0
 12 32  1  0  0  0  0
 13 14  1  0  0  0  0
 13 18  2  0  0  0  0
 14 15  1  0  0  0  0
 14 16  1  0  0  0  0
 14 17  1  0  0  0  0
 19 33  1  0  0  0  0
 19 34  1  0  0  0  0
M  CHG  1   2   1
M  END
> <s_m_source_file>
AV-unprocessed.smi

> <i_m_source_file_index>
1144

> <i_lp_mmshare_version>
43012

> <i_f3d_flags>
0

> <s_epik_input>
W0NIM11OMVtDSDJdW0NIMl1PW0NASF0oW0NIMl0xKVtDSDJdW05IXWMybltjSF1bY0hdYyhuMilDKEYpKEYpRg==

> <s_epik_cmdline>
J2VwaWtfcHl0aG9uJywgJy1waCcsICc3LjAnLCAnLXRuJywgJzgnLCAnLW1hJywgJzIwMCcsICctbWV0YWxfYmluZGluZycsICctaW1hZScsICc8aW5maWxlLm1hZT4nLCAnLW9tYWUnLCAnPG91dGZpbGUubWFlPic=

> <r_lp_tautomer_probability>
1

> <r_epik_Ionization_Penalty>
0.178506

> <r_epik_Ionization_Penalty_Charging>
0.178504

> <r_epik_Ionization_Penalty_Neutral>
2.47225e-06

> <r_epik_State_Penalty>
0.167974

> <r_epik_Charging_Adjusted_Penalty>
0.346478

> <i_epik_Tot_Q>
1

> <i_epik_Tot_abs_Q>
1

> <r_epik_Metal_State_Penalty>
0.167974

> <b_epik_Metal_Only>
0

> <s_lp_Force_Field>
OPLS_2005

> <r_lp_Energy>
13.0579

> <b_lp_Chiralities_Consistent>
1

> <s_lp_Variant>
AV-unprocessed.smi:1144-2

> <Gold.Version>
5.8.1

> <Gold.Id.Protein>
6NUR|6NUR_protein|mol2

> <Gold.PLP.Fitness>
47.8229

> <Gold.PLP.PLP>
-42.3943

> <Gold.PLP.part.hbond>
-2.0000

> <Gold.PLP.part.metal>
0.0000

> <Gold.PLP.part.buried>
-2.6435

> <Gold.PLP.part.nonpolar>
-37.8931

> <Gold.PLP.part.repulsive>
0.2680

> <Gold.PLP.ligand.clash>
0.0000

> <Gold.PLP.ligand.torsion>
1.7884

> <Gold.PLP.Chemscore.Hbond>
3.0000

> <Gold.PLP.Chemscore.CHOScore>
0.0000

> <Gold.PLP.Chemscore.Metal>
0.0000

> <Gold.Chemscore.Hbonds>
donor molecule, donor type, donor heavy atom, donor atom, acceptor molecule, acceptor atom, score
      L1  H     2    35       P1  8028  2.00
      P1  H  7989  7998       L1     5  1.00

> <Gold.PLP.Chemscore.Internal.Correction>
0.0055

> <Gold.Rescore>
     Score         DG    S(hbond)    S(metal)    S(lipo)     H(rot)  DE(clash)    DE(int)     intcor
     14.52     -17.48       1.80        0.00      80.33       1.34       1.08       1.88       ----

> <Gold.Chemscore.Fitness>
14.5242

> <Gold.Chemscore.DG>
-17.4821

> <Gold.Chemscore.ZeroCoef>
-5.4800

> <Gold.Chemscore.Hbond>
1.8048

> <Gold.Chemscore.Metal>
0.0000

> <Gold.Chemscore.Lipo>
80.3327

> <Gold.Chemscore.Internal_Hbond>
0.0000

> <Gold.Chemscore.DEClash>
1.0801

> <Gold.Chemscore.DEInternal>
1.8778

> <Gold.Chemscore.Rot>
1.3379

> <Gold.Chemscore.Internal.Correction>
   9.000000E+99

> <Gold.Chemscore.Hbonds>
donor molecule, donor type, donor heavy atom, donor atom, acceptor molecule, acceptor atom, score
      L1  H     2    35       P1  8028  0.87
      P1  H  7989  7998       L1     5  0.86

> <Gold.Chemscore.Hbond.Weighted>
-6.0281

> <Gold.Chemscore.Metal.Weighted>
-0.0000

> <Gold.Chemscore.Lipo.Weighted>
-9.3989

> <Gold.Chemscore.Internal_Hbond.Weighted>
0.0000

> <Gold.Chemscore.DEClash.Weighted>
1.0801

> <Gold.Chemscore.DEInternal.Weighted>
1.8778

> <Gold.Chemscore.Rot.Weighted>
3.4250

> <Gold.Chemscore.Internal.Correction.Weighted>
   9.000000E+99

> <Gold.Protein.RotatedTorsions>
[ 6907 6896 6895 6894 ] final  -54.44 input  -60.11 | X-H torsion
[ 7974 7965 7964 7962 ] final -104.60 input  175.53 | X-H torsion
[ 8008 7997 7996 7995 ] final  139.95 input   59.86 | X-H torsion
[ 10167 10162 10161 10158 ] final  -51.18 input  -65.29 | X-H torsion
[ 10718 10713 10712 10709 ] final  132.00 input   66.30 | X-H torsion
[ 10763 10752 10751 10750 ] final  -68.83 input  -60.55 | X-H torsion
[ 11005 11000 10999 10996 ] final  151.93 input  -57.11 | X-H torsion

> <Gold.Protein.ActiveResidues>
 VAL166  LYS551  ARG553  GLY616  TRP617  ASP618  TYR619  PRO620  LYS621  CYS622 
 ASP623  PHE694  ASN695  SER759  ASP760  ASP761  ALA762  ILE779  LEU786  VAL792 
 PHE793  MET794  SER795  GLU796  ALA797  LYS798  CYS799  TRP800  GLU811  SER814 

> <Gold.Protein.RotatedAtoms>
  150.8338  134.7602  159.6875 H   0  0  0  0  0  0  0  0  0  0  0  0  # atno 6907 bound_to 6896
  152.4438  134.5533  159.9883 H   0  0  0  0  0  0  0  0  0  0  0  0  # atno 6908 bound_to 6896
  151.5688  133.3355  159.3021 H   0  0  0  0  0  0  0  0  0  0  0  0  # atno 6909 bound_to 6896
  145.2411  140.9205  143.3149 H   0  0  0  0  0  0  0  0  0  0  0  0  # atno 7974 bound_to 7965
  156.2984  140.2354  156.4321 H   0  0  0  0  0  0  0  0  0  0  0  0  # atno 8008 bound_to 7997
  154.8261  140.0435  157.1465 H   0  0  0  0  0  0  0  0  0  0  0  0  # atno 8009 bound_to 7997
  154.9260  140.3010  155.5195 H   0  0  0  0  0  0  0  0  0  0  0  0  # atno 8010 bound_to 7997
  140.6601  143.2629  151.4466 H   0  0  0  0  0  0  0  0  0  0  0  0  # atno 10167 bound_to 10162
  157.4913  131.1090  150.9552 H   0  0  0  0  0  0  0  0  0  0  0  0  # atno 10718 bound_to 10713
  154.3946  135.6045  153.5862 H   0  0  0  0  0  0  0  0  0  0  0  0  # atno 10763 bound_to 10752
  152.9787  135.5892  154.4256 H   0  0  0  0  0  0  0  0  0  0  0  0  # atno 10764 bound_to 10752
  154.4046  135.2843  155.2053 H   0  0  0  0  0  0  0  0  0  0  0  0  # atno 10765 bound_to 10752
  140.1263  134.8831  157.2142 H   0  0  0  0  0  0  0  0  0  0  0  0  # atno 11005 bound_to 11000
  144.9588  139.4002  143.6366 LP  0  0  0  0  0  0  0  0  0  0  0  0  # atno 17320 bound_to 7965
  146.3328  139.8631  142.8853 LP  0  0  0  0  0  0  0  0  0  0  0  0  # atno 17321 bound_to 7965
  139.5833  144.1661  152.1996 LP  0  0  0  0  0  0  0  0  0  0  0  0  # atno 17342 bound_to 10162
  140.0993  144.5553  150.7000 LP  0  0  0  0  0  0  0  0  0  0  0  0  # atno 17343 bound_to 10162
  157.0253  130.5690  149.5336 LP  0  0  0  0  0  0  0  0  0  0  0  0  # atno 17370 bound_to 10713
  156.0175  130.5270  150.8179 LP  0  0  0  0  0  0  0  0  0  0  0  0  # atno 17371 bound_to 10713
  140.2900  134.3251  155.7318 LP  0  0  0  0  0  0  0  0  0  0  0  0  # atno 17394 bound_to 11000
  141.2162  133.7529  156.9489 LP  0  0  0  0  0  0  0  0  0  0  0  0  # atno 17395 bound_to 11000

$$$$
