AV-unprocessed.smi:1193|AV-procd|sdf|4989|dock3
  -GOLD-   22720 3583D 1   1.00000     0.00000
 Structure written by MMmdl.
 38 39  0  0  0  0  0  0  0  0  1 V2000
  146.1585  143.5573  153.2015 C   0  0  0  0  0  0  0  0  0  0  0  0
  147.3978  143.1797  153.7912 O   0  0  0  0  0  0  0  0  0  0  0  0
  147.8273  141.8740  153.6471 C   0  0  0  0  0  0  0  0  0  0  0  0
  147.0955  141.0368  152.8697 N   0  0  0  0  0  0  0  0  0  0  0  0
  147.5115  139.7615  152.7297 C   0  0  0  0  0  0  0  0  0  0  0  0
  148.6647  139.2545  153.3559 C   0  0  0  0  0  0  0  0  0  0  0  0
  149.4253  140.1206  154.1631 C   0  0  0  0  0  0  0  0  0  0  0  0
  149.0095  141.4666  154.3084 C   0  0  0  0  0  0  0  0  0  0  0  0
  149.6911  142.4221  155.1118 N   0  0  0  0  0  0  0  0  0  0  0  0
  150.7934  142.2576  155.8625 C   0  0  0  0  0  0  0  0  0  0  0  0
  151.4222  141.2070  155.9883 O   0  0  0  0  0  0  0  0  0  0  0  0
  151.1452  143.4051  156.4604 N   0  0  0  0  0  0  0  0  0  0  0  0
  152.2891  143.5729  157.3547 C   0  0  0  0  0  0  0  0  0  0  0  0
  151.9143  144.1852  158.7166 C   0  0  0  0  0  0  0  0  0  0  0  0
  151.2821  145.2424  158.7631 O   0  0  0  0  0  0  0  0  0  0  0  0
  152.3104  143.5402  159.8334 N   0  0  0  0  0  0  0  0  0  0  0  0
  152.0425  143.9654  161.2070 C   0  0  0  0  0  0  0  0  0  0  0  0
  152.4557  142.7884  162.0912 C   0  0  0  0  0  0  0  0  0  0  0  0
  153.5024  142.0525  161.2662 C   0  0  0  0  0  0  0  0  0  0  0  0
  153.0732  142.2936  159.8185 C   0  0  0  0  0  0  0  0  0  0  0  0
  145.9717  144.6123  153.4014 H   0  0  0  0  0  0  0  0  0  0  0  0
  145.3271  142.9889  153.6209 H   0  0  0  0  0  0  0  0  0  0  0  0
  146.1743  143.4240  152.1186 H   0  0  0  0  0  0  0  0  0  0  0  0
  146.9036  139.1247  152.1045 H   0  0  0  0  0  0  0  0  0  0  0  0
  148.9566  138.2231  153.2243 H   0  0  0  0  0  0  0  0  0  0  0  0
  150.2989  139.7315  154.6623 H   0  0  0  0  0  0  0  0  0  0  0  0
  149.3334  143.3643  155.0526 H   0  0  0  0  0  0  0  0  0  0  0  0
  150.5705  144.2195  156.3019 H   0  0  0  0  0  0  0  0  0  0  0  0
  152.7872  142.6127  157.4986 H   0  0  0  0  0  0  0  0  0  0  0  0
  153.0055  144.2305  156.8619 H   0  0  0  0  0  0  0  0  0  0  0  0
  152.6513  144.8422  161.4330 H   0  0  0  0  0  0  0  0  0  0  0  0
  150.9953  144.2257  161.3663 H   0  0  0  0  0  0  0  0  0  0  0  0
  152.8286  143.1025  163.0664 H   0  0  0  0  0  0  0  0  0  0  0  0
  151.5972  142.1358  162.2565 H   0  0  0  0  0  0  0  0  0  0  0  0
  154.4817  142.5014  161.4376 H   0  0  0  0  0  0  0  0  0  0  0  0
  153.5716  140.9934  161.5158 H   0  0  0  0  0  0  0  0  0  0  0  0
  152.4262  141.4869  159.4710 H   0  0  0  0  0  0  0  0  0  0  0  0
  153.9360  142.3475  159.1526 H   0  0  0  0  0  0  0  0  0  0  0  0
  1  2  1  0  0  0  0
  1 21  1  0  0  0  0
  1 22  1  0  0  0  0
  1 23  1  0  0  0  0
  2  3  1  0  0  0  0
  3  8  1  0  0  0  0
  3  4  2  0  0  0  0
  4  5  1  0  0  0  0
  5  6  2  0  0  0  0
  5 24  1  0  0  0  0
  6  7  1  0  0  0  0
  6 25  1  0  0  0  0
  7  8  2  0  0  0  0
  7 26  1  0  0  0  0
  8  9  1  0  0  0  0
  9 10  1  0  0  0  0
  9 27  1  0  0  0  0
 10 11  2  0  0  0  0
 10 12  1  0  0  0  0
 12 13  1  0  0  0  0
 12 28  1  0  0  0  0
 13 14  1  0  0  0  0
 13 29  1  0  0  0  0
 13 30  1  0  0  0  0
 14 15  2  0  0  0  0
 14 16  1  0  0  0  0
 16 20  1  0  0  0  0
 16 17  1  0  0  0  0
 17 18  1  0  0  0  0
 17 31  1  0  0  0  0
 17 32  1  0  0  0  0
 18 19  1  0  0  0  0
 18 33  1  0  0  0  0
 18 34  1  0  0  0  0
 19 20  1  0  0  0  0
 19 35  1  0  0  0  0
 19 36  1  0  0  0  0
 20 37  1  0  0  0  0
 20 38  1  0  0  0  0
M  END
> <s_m_source_file>
AV-unprocessed.smi

> <i_m_source_file_index>
1193

> <i_lp_mmshare_version>
43012

> <i_f3d_flags>
0

> <s_epik_input>
W0NIM11PYzFuW2NIXVtjSF1bY0hdYzFbTkhdQyg9TylbTkhdW0NIMl1DKD1PKU4yW0NIMl1bQ0gyXVtDSDJdW0NIMl0y

> <s_epik_cmdline>
J2VwaWtfcHl0aG9uJywgJy1waCcsICc3LjAnLCAnLXRuJywgJzgnLCAnLW1hJywgJzIwMCcsICctbWV0YWxfYmluZGluZycsICctaW1hZScsICc8aW5maWxlLm1hZT4nLCAnLW9tYWUnLCAnPG91dGZpbGUubWFlPic=

> <r_lp_tautomer_probability>
1

> <r_epik_Ionization_Penalty>
0.000141665

> <r_epik_Ionization_Penalty_Charging>
0

> <r_epik_Ionization_Penalty_Neutral>
0.000141665

> <r_epik_State_Penalty>
-0

> <r_epik_Charging_Adjusted_Penalty>
0

> <i_epik_Tot_Q>
0

> <i_epik_Tot_abs_Q>
0

> <r_epik_Metal_State_Penalty>
-0

> <b_epik_Metal_Only>
0

> <s_lp_Force_Field>
OPLS_2005

> <r_lp_Energy>
26.7485

> <b_lp_Chiralities_Consistent>
1

> <s_lp_Variant>
AV-unprocessed.smi:1193-1

> <Gold.Version>
5.8.1

> <Gold.Id.Protein>
6NUR|6NUR_protein|mol2

> <Gold.PLP.Fitness>
53.0686

> <Gold.PLP.PLP>
-47.3970

> <Gold.PLP.part.hbond>
-2.3066

> <Gold.PLP.part.metal>
0.0000

> <Gold.PLP.part.buried>
-6.4489

> <Gold.PLP.part.nonpolar>
-40.3045

> <Gold.PLP.part.repulsive>
2.4165

> <Gold.PLP.ligand.clash>
0.0000

> <Gold.PLP.ligand.torsion>
0.0927

> <Gold.PLP.Chemscore.Hbond>
1.9440

> <Gold.PLP.Chemscore.CHOScore>
0.0000

> <Gold.PLP.Chemscore.Metal>
0.0000

> <Gold.Chemscore.Hbonds>
donor molecule, donor type, donor heavy atom, donor atom, acceptor molecule, acceptor atom, score
      L1  H     9    27       P1  8028  1.00
      L1  H    12    28       P1  8028  0.86
      P1  H  8022  8030       L1     2  0.51

> <Gold.PLP.Chemscore.Internal.Correction>
0.0250

> <Gold.Rescore>
     Score         DG    S(hbond)    S(metal)    S(lipo)     H(rot)  DE(clash)    DE(int)     intcor
     16.27     -17.63       1.88        0.00      84.70       1.58       0.29       1.08       ----

> <Gold.Chemscore.Fitness>
16.2655

> <Gold.Chemscore.DG>
-17.6338

> <Gold.Chemscore.ZeroCoef>
-5.4800

> <Gold.Chemscore.Hbond>
1.8831

> <Gold.Chemscore.Metal>
0.0000

> <Gold.Chemscore.Lipo>
84.7021

> <Gold.Chemscore.Internal_Hbond>
0.0000

> <Gold.Chemscore.DEClash>
0.2862

> <Gold.Chemscore.DEInternal>
1.0821

> <Gold.Chemscore.Rot>
1.5804

> <Gold.Chemscore.Internal.Correction>
   9.000000E+99

> <Gold.Chemscore.Hbonds>
donor molecule, donor type, donor heavy atom, donor atom, acceptor molecule, acceptor atom, score
      L1  H     9    27       P1  8028  0.93
      L1  H    12    28       P1  8028  0.85
      P1  H  8022  8030       L1     2  0.25

> <Gold.Chemscore.Hbond.Weighted>
-6.2896

> <Gold.Chemscore.Metal.Weighted>
-0.0000

> <Gold.Chemscore.Lipo.Weighted>
-9.9101

> <Gold.Chemscore.Internal_Hbond.Weighted>
0.0000

> <Gold.Chemscore.DEClash.Weighted>
0.2862

> <Gold.Chemscore.DEInternal.Weighted>
1.0821

> <Gold.Chemscore.Rot.Weighted>
4.0459

> <Gold.Chemscore.Internal.Correction.Weighted>
   9.000000E+99

> <Gold.Protein.RotatedTorsions>
[ 6907 6896 6895 6894 ] final -153.87 input  -60.11 | X-H torsion
[ 7974 7965 7964 7962 ] final   27.43 input  175.53 | X-H torsion
[ 8008 7997 7996 7995 ] final  147.72 input   59.86 | X-H torsion
[ 10167 10162 10161 10158 ] final   55.91 input  -65.29 | X-H torsion
[ 10718 10713 10712 10709 ] final  162.45 input   66.30 | X-H torsion
[ 10763 10752 10751 10750 ] final  -96.64 input  -60.55 | X-H torsion
[ 11005 11000 10999 10996 ] final  -49.34 input  -57.11 | X-H torsion

> <Gold.Protein.ActiveResidues>
 VAL166  LYS551  ARG553  GLY616  TRP617  ASP618  TYR619  PRO620  LYS621  CYS622 
 ASP623  PHE694  ASN695  SER759  ASP760  ASP761  ALA762  ILE779  LEU786  VAL792 
 PHE793  MET794  SER795  GLU796  ALA797  LYS798  CYS799  TRP800  GLU811  SER814 

> <Gold.Protein.RotatedAtoms>
  151.2490  133.4360  159.2610 H   0  0  0  0  0  0  0  0  0  0  0  0  # atno 6907 bound_to 6896
  151.0635  134.9752  159.8283 H   0  0  0  0  0  0  0  0  0  0  0  0  # atno 6908 bound_to 6896
  152.5402  134.2439  159.8925 H   0  0  0  0  0  0  0  0  0  0  0  0  # atno 6909 bound_to 6896
  146.1784  139.7192  142.8918 H   0  0  0  0  0  0  0  0  0  0  0  0  # atno 7974 bound_to 7965
  156.2815  140.2148  156.5584 H   0  0  0  0  0  0  0  0  0  0  0  0  # atno 8008 bound_to 7997
  154.7234  140.0501  157.0683 H   0  0  0  0  0  0  0  0  0  0  0  0  # atno 8009 bound_to 7997
  155.0449  140.3150  155.4715 H   0  0  0  0  0  0  0  0  0  0  0  0  # atno 8010 bound_to 7997
  140.2144  144.3855  150.6475 H   0  0  0  0  0  0  0  0  0  0  0  0  # atno 10167 bound_to 10162
  157.1224  131.0496  151.2409 H   0  0  0  0  0  0  0  0  0  0  0  0  # atno 10718 bound_to 10713
  154.7258  135.5076  153.8883 H   0  0  0  0  0  0  0  0  0  0  0  0  # atno 10763 bound_to 10752
  153.0903  135.6657  153.9875 H   0  0  0  0  0  0  0  0  0  0  0  0  # atno 10764 bound_to 10752
  153.9688  135.3040  155.3408 H   0  0  0  0  0  0  0  0  0  0  0  0  # atno 10765 bound_to 10752
  141.0753  133.6667  156.3571 H   0  0  0  0  0  0  0  0  0  0  0  0  # atno 11005 bound_to 11000
  145.4145  141.0400  143.2998 LP  0  0  0  0  0  0  0  0  0  0  0  0  # atno 17320 bound_to 7965
  144.8274  139.5686  143.6959 LP  0  0  0  0  0  0  0  0  0  0  0  0  # atno 17321 bound_to 7965
  140.6300  143.2186  151.6515 LP  0  0  0  0  0  0  0  0  0  0  0  0  # atno 17342 bound_to 10162
  139.5167  144.3337  152.0803 LP  0  0  0  0  0  0  0  0  0  0  0  0  # atno 17343 bound_to 10162
  157.4465  130.7574  149.7114 LP  0  0  0  0  0  0  0  0  0  0  0  0  # atno 17370 bound_to 10713
  155.9825  130.4008  150.3410 LP  0  0  0  0  0  0  0  0  0  0  0  0  # atno 17371 bound_to 10713
  140.5586  134.5957  157.5427 LP  0  0  0  0  0  0  0  0  0  0  0  0  # atno 17394 bound_to 11000
  139.9566  134.7525  156.0329 LP  0  0  0  0  0  0  0  0  0  0  0  0  # atno 17395 bound_to 11000

$$$$
