AV-unprocessed.smi:906|AV-procd|sdf|4100|dock8
  -GOLD-   22720 1593D 1   1.00000     0.00000
 Structure written by MMmdl.
 47 48  0  0  0  0  0  0  0  0  1 V2000
  151.7565  145.4058  159.3714 C   0  0  0  0  0  0  0  0  0  0  0  0
  152.4728  144.1907  159.9221 C   0  0  0  0  0  0  0  0  0  0  0  0
  152.6147  144.0022  161.3131 C   0  0  0  0  0  0  0  0  0  0  0  0
  153.2926  142.8550  161.7683 C   0  0  0  0  0  0  0  0  0  0  0  0
  153.8021  141.9445  160.8196 C   0  0  0  0  0  0  0  0  0  0  0  0
  154.5584  140.7011  161.2557 C   0  0  0  0  0  0  0  0  0  0  0  0
  153.8964  139.3959  160.7827 C   0  0  0  0  0  0  0  0  0  0  0  0
  154.5908  138.2307  161.3230 N   0  0  0  0  0  0  0  0  0  0  0  0
  154.2353  136.9472  161.1468 C   0  0  0  0  0  0  0  0  0  0  0  0
  153.2165  136.6238  160.5347 O   0  0  0  0  0  0  0  0  0  0  0  0
  155.1071  136.0461  161.6638 N   0  0  0  0  0  0  0  0  0  0  0  0
  155.9952  136.2387  162.8194 C   0  0  0  0  0  0  0  0  0  0  0  0
  155.4790  135.3779  163.9883 C   0  0  0  0  0  0  0  0  0  0  0  0
  155.4463  133.9618  163.5961 N   0  0  0  0  0  0  0  0  0  0  0  0
  155.0792  133.0241  164.6713 C   0  0  2  0  0  0  0  0  0  0  0  0
  154.0294  133.5841  165.6566 C   0  0  0  0  0  0  0  0  0  0  0  0
  156.3246  132.4608  165.3971 C   0  0  0  0  0  0  0  0  0  0  0  0
  157.1802  131.9458  164.5133 F   0  0  0  0  0  0  0  0  0  0  0  0
  156.9525  133.3897  166.1179 F   0  0  0  0  0  0  0  0  0  0  0  0
  155.9443  131.4835  166.2201 F   0  0  0  0  0  0  0  0  0  0  0  0
  154.6168  133.7671  162.3999 C   0  0  0  0  0  0  0  0  0  0  0  0
  155.1353  134.6428  161.2432 C   0  0  0  0  0  0  0  0  0  0  0  0
  153.6057  142.2266  159.4514 C   0  0  0  0  0  0  0  0  0  0  0  0
  152.9563  143.3235  159.0056 N   0  0  0  0  0  0  0  0  0  0  0  0
  151.3347  146.0132  160.1730 H   0  0  0  0  0  0  0  0  0  0  0  0
  150.9430  145.1023  158.7119 H   0  0  0  0  0  0  0  0  0  0  0  0
  152.4481  146.0267  158.8015 H   0  0  0  0  0  0  0  0  0  0  0  0
  152.2173  144.7189  162.0165 H   0  0  0  0  0  0  0  0  0  0  0  0
  153.4238  142.6839  162.8267 H   0  0  0  0  0  0  0  0  0  0  0  0
  155.5792  140.7531  160.8750 H   0  0  0  0  0  0  0  0  0  0  0  0
  154.6397  140.7009  162.3431 H   0  0  0  0  0  0  0  0  0  0  0  0
  152.8539  139.3665  161.1004 H   0  0  0  0  0  0  0  0  0  0  0  0
  153.8905  139.3754  159.6918 H   0  0  0  0  0  0  0  0  0  0  0  0
  155.4435  138.4111  161.8323 H   0  0  0  0  0  0  0  0  0  0  0  0
  157.0082  135.9362  162.5492 H   0  0  0  0  0  0  0  0  0  0  0  0
  156.0810  137.2754  163.1442 H   0  0  0  0  0  0  0  0  0  0  0  0
  156.1349  135.5226  164.8443 H   0  0  0  0  0  0  0  0  0  0  0  0
  154.4846  135.7174  164.2796 H   0  0  0  0  0  0  0  0  0  0  0  0
  154.6241  132.1656  164.1754 H   0  0  0  0  0  0  0  0  0  0  0  0
  153.7066  132.8090  166.3516 H   0  0  0  0  0  0  0  0  0  0  0  0
  153.1364  133.9439  165.1465 H   0  0  0  0  0  0  0  0  0  0  0  0
  154.4279  134.4030  166.2554 H   0  0  0  0  0  0  0  0  0  0  0  0
  154.6450  132.7198  162.0974 H   0  0  0  0  0  0  0  0  0  0  0  0
  153.5759  134.0136  162.6108 H   0  0  0  0  0  0  0  0  0  0  0  0
  154.5399  134.4598  160.3479 H   0  0  0  0  0  0  0  0  0  0  0  0
  156.1565  134.3608  160.9816 H   0  0  0  0  0  0  0  0  0  0  0  0
  153.9853  141.5574  158.6932 H   0  0  0  0  0  0  0  0  0  0  0  0
  1  2  1  0  0  0  0
  1 25  1  0  0  0  0
  1 26  1  0  0  0  0
  1 27  1  0  0  0  0
  2 24  1  0  0  0  0
  2  3  2  0  0  0  0
  3  4  1  0  0  0  0
  3 28  1  0  0  0  0
  4  5  2  0  0  0  0
  4 29  1  0  0  0  0
  5  6  1  0  0  0  0
  5 23  1  0  0  0  0
  6  7  1  0  0  0  0
  6 30  1  0  0  0  0
  6 31  1  0  0  0  0
  7  8  1  0  0  0  0
  7 32  1  0  0  0  0
  7 33  1  0  0  0  0
  8  9  1  0  0  0  0
  8 34  1  0  0  0  0
  9 10  2  0  0  0  0
  9 11  1  0  0  0  0
 11 22  1  0  0  0  0
 11 12  1  0  0  0  0
 12 13  1  0  0  0  0
 12 35  1  0  0  0  0
 12 36  1  0  0  0  0
 13 14  1  0  0  0  0
 13 37  1  0  0  0  0
 13 38  1  0  0  0  0
 14 15  1  0  0  0  0
 14 21  1  0  0  0  0
 15 16  1  0  0  0  0
 15 17  1  0  0  0  0
 15 39  1  0  0  0  0
 16 40  1  0  0  0  0
 16 41  1  0  0  0  0
 16 42  1  0  0  0  0
 17 18  1  0  0  0  0
 17 19  1  0  0  0  0
 17 20  1  0  0  0  0
 21 22  1  0  0  0  0
 21 43  1  0  0  0  0
 21 44  1  0  0  0  0
 22 45  1  0  0  0  0
 22 46  1  0  0  0  0
 23 24  2  0  0  0  0
 23 47  1  0  0  0  0
M  END
> <s_m_source_file>
AV-unprocessed.smi

> <i_m_source_file_index>
906

> <i_lp_mmshare_version>
43012

> <i_f3d_flags>
0

> <s_epik_input>
W0NIM11jMVtjSF1bY0hdYyhbY0hdbjEpW0NIMl1bQ0gyXVtOSF1DKD1PKU4yW0NIMl1bQ0gyXU4oW0NASF0oW0NIM10pQyhGKShGKUYpW0NIMl1bQ0gyXTI=

> <s_epik_cmdline>
J2VwaWtfcHl0aG9uJywgJy1waCcsICc3LjAnLCAnLXRuJywgJzgnLCAnLW1hJywgJzIwMCcsICctbWV0YWxfYmluZGluZycsICctaW1hZScsICc8aW5maWxlLm1hZT4nLCAnLW9tYWUnLCAnPG91dGZpbGUubWFlPic=

> <r_epik_Ionization_Penalty>
0.0782886

> <r_epik_Ionization_Penalty_Charging>
0

> <r_epik_Ionization_Penalty_Neutral>
0.0782886

> <r_epik_State_Penalty>
0.0661423

> <r_epik_Charging_Adjusted_Penalty>
0.0661423

> <i_epik_Tot_Q>
0

> <i_epik_Tot_abs_Q>
0

> <r_epik_Metal_State_Penalty>
0.060629

> <b_epik_Metal_Only>
0

> <s_lp_Force_Field>
OPLS_2005

> <r_lp_Energy>
48.1538

> <b_lp_Chiralities_Consistent>
1

> <s_lp_Variant>
AV-unprocessed.smi:906-1

> <Gold.Version>
5.8.1

> <Gold.Id.Protein>
6NUR|6NUR_protein|mol2

> <Gold.PLP.Fitness>
49.8813

> <Gold.PLP.PLP>
-48.5767

> <Gold.PLP.part.hbond>
-0.9845

> <Gold.PLP.part.metal>
0.0000

> <Gold.PLP.part.buried>
-6.4165

> <Gold.PLP.part.nonpolar>
-41.8297

> <Gold.PLP.part.repulsive>
0.0182

> <Gold.PLP.ligand.clash>
0.0000

> <Gold.PLP.ligand.torsion>
1.1588

> <Gold.PLP.Chemscore.Hbond>
1.0000

> <Gold.PLP.Chemscore.CHOScore>
0.0000

> <Gold.PLP.Chemscore.Metal>
0.0000

> <Gold.Chemscore.Hbonds>
donor molecule, donor type, donor heavy atom, donor atom, acceptor molecule, acceptor atom, score
      P1  H  6896  6909       L1    10  1.00

> <Gold.PLP.Chemscore.Internal.Correction>
0.6222

> <Gold.Rescore>
     Score         DG    S(hbond)    S(metal)    S(lipo)     H(rot)  DE(clash)    DE(int)     intcor
     18.25     -19.34       0.99        0.00     124.71       1.58       0.08       1.00       ----

> <Gold.Chemscore.Fitness>
18.2526

> <Gold.Chemscore.DG>
-19.3351

> <Gold.Chemscore.ZeroCoef>
-5.4800

> <Gold.Chemscore.Hbond>
0.9937

> <Gold.Chemscore.Metal>
0.0000

> <Gold.Chemscore.Lipo>
124.7130

> <Gold.Chemscore.Internal_Hbond>
0.0000

> <Gold.Chemscore.DEClash>
0.0814

> <Gold.Chemscore.DEInternal>
1.0012

> <Gold.Chemscore.Rot>
1.5841

> <Gold.Chemscore.Internal.Correction>
   9.000000E+99

> <Gold.Chemscore.Hbonds>
donor molecule, donor type, donor heavy atom, donor atom, acceptor molecule, acceptor atom, score
      P1  H  6896  6909       L1    10  0.95

> <Gold.Chemscore.Hbond.Weighted>
-3.3191

> <Gold.Chemscore.Metal.Weighted>
-0.0000

> <Gold.Chemscore.Lipo.Weighted>
-14.5914

> <Gold.Chemscore.Internal_Hbond.Weighted>
0.0000

> <Gold.Chemscore.DEClash.Weighted>
0.0814

> <Gold.Chemscore.DEInternal.Weighted>
1.0012

> <Gold.Chemscore.Rot.Weighted>
4.0554

> <Gold.Chemscore.Internal.Correction.Weighted>
   9.000000E+99

> <Gold.Protein.RotatedTorsions>
[ 6907 6896 6895 6894 ] final  153.80 input  -60.11 | X-H torsion
[ 7974 7965 7964 7962 ] final -128.36 input  175.53 | X-H torsion
[ 8008 7997 7996 7995 ] final   39.38 input   59.86 | X-H torsion
[ 10167 10162 10161 10158 ] final   52.92 input  -65.29 | X-H torsion
[ 10718 10713 10712 10709 ] final  179.10 input   66.30 | X-H torsion
[ 10763 10752 10751 10750 ] final -146.90 input  -60.55 | X-H torsion
[ 11005 11000 10999 10996 ] final  136.32 input  -57.11 | X-H torsion

> <Gold.Protein.ActiveResidues>
 VAL166  LYS551  ARG553  GLY616  TRP617  ASP618  TYR619  PRO620  LYS621  CYS622 
 ASP623  PHE694  ASN695  SER759  ASP760  ASP761  ALA762  ILE779  LEU786  VAL792 
 PHE793  MET794  SER795  GLU796  ALA797  LYS798  CYS799  TRP800  GLU811  SER814 

> <Gold.Protein.RotatedAtoms>
  152.0676  133.4091  159.4444 H   0  0  0  0  0  0  0  0  0  0  0  0  # atno 6907 bound_to 6896
  150.6864  134.3128  159.4763 H   0  0  0  0  0  0  0  0  0  0  0  0  # atno 6908 bound_to 6896
  152.0957  134.9376  160.0621 H   0  0  0  0  0  0  0  0  0  0  0  0  # atno 6909 bound_to 6896
  144.9678  140.7514  143.4689 H   0  0  0  0  0  0  0  0  0  0  0  0  # atno 7974 bound_to 7965
  155.2357  140.3341  155.4298 H   0  0  0  0  0  0  0  0  0  0  0  0  # atno 8008 bound_to 7997
  156.2277  140.1836  156.7368 H   0  0  0  0  0  0  0  0  0  0  0  0  # atno 8009 bound_to 7997
  154.5925  140.0635  156.9244 H   0  0  0  0  0  0  0  0  0  0  0  0  # atno 8010 bound_to 7997
  140.2462  144.3529  150.6363 H   0  0  0  0  0  0  0  0  0  0  0  0  # atno 10167 bound_to 10162
  156.8807  130.9815  151.3062 H   0  0  0  0  0  0  0  0  0  0  0  0  # atno 10718 bound_to 10713
  154.8313  135.3374  154.6733 H   0  0  0  0  0  0  0  0  0  0  0  0  # atno 10763 bound_to 10752
  153.7353  135.6949  153.4984 H   0  0  0  0  0  0  0  0  0  0  0  0  # atno 10764 bound_to 10752
  153.2283  135.4425  155.0518 H   0  0  0  0  0  0  0  0  0  0  0  0  # atno 10765 bound_to 10752
  140.0038  134.9467  157.0130 H   0  0  0  0  0  0  0  0  0  0  0  0  # atno 11005 bound_to 11000
  145.2604  139.1995  143.4895 LP  0  0  0  0  0  0  0  0  0  0  0  0  # atno 17320 bound_to 7965
  146.3373  140.2533  142.8599 LP  0  0  0  0  0  0  0  0  0  0  0  0  # atno 17321 bound_to 7965
  140.6076  143.2168  151.6951 LP  0  0  0  0  0  0  0  0  0  0  0  0  # atno 17342 bound_to 10162
  139.5061  144.3694  152.0485 LP  0  0  0  0  0  0  0  0  0  0  0  0  # atno 17343 bound_to 10162
  157.6142  130.8606  149.9001 LP  0  0  0  0  0  0  0  0  0  0  0  0  # atno 17370 bound_to 10713
  156.0679  130.3689  150.0839 LP  0  0  0  0  0  0  0  0  0  0  0  0  # atno 17371 bound_to 10713
  140.4679  134.1417  155.7199 LP  0  0  0  0  0  0  0  0  0  0  0  0  # atno 17394 bound_to 11000
  141.1662  133.8699  157.1708 LP  0  0  0  0  0  0  0  0  0  0  0  0  # atno 17395 bound_to 11000

$$$$
