AV-unprocessed.smi:1709|AV-procd|sdf|6895|dock2
  -GOLD-   22720 8103D 1   1.00000     0.00000
 Structure written by MMmdl.
 43 45  0  0  0  0  0  0  0  0  2 V2000
  147.6003  132.9733  152.4266 C   0  0  0  0  0  0  0  0  0  0  0  0
  146.2805  133.0579  151.6764 C   0  0  0  0  0  0  0  0  0  0  0  0
  145.6697  131.8688  151.2245 C   0  0  0  0  0  0  0  0  0  0  0  0
  144.4514  131.9447  150.5290 C   0  0  0  0  0  0  0  0  0  0  0  0
  143.8932  133.2152  150.3116 C   0  0  0  0  0  0  0  0  0  0  0  0
  144.4707  134.3566  150.7393 N   0  0  0  0  0  0  0  0  0  0  0  0
  145.6457  134.3031  151.4191 C   0  0  0  0  0  0  0  0  0  0  0  0
  146.3321  135.4630  151.8953 N   0  0  0  0  0  0  0  0  0  0  0  0
  145.8764  136.6373  152.3809 C   0  0  0  0  0  0  0  0  0  0  0  0
  144.6710  136.8605  152.4771 O   0  0  0  0  0  0  0  0  0  0  0  0
  146.8108  137.5304  152.7463 N   0  0  0  0  0  0  0  0  0  0  0  0
  146.5572  138.8482  153.3237 C   0  0  2  0  0  0  0  0  0  0  0  0
  146.5891  139.9742  152.2719 C   0  0  0  0  0  0  0  0  0  0  0  0
  147.3586  141.1156  152.9442 C   0  0  0  0  0  0  0  0  0  0  0  0
  148.3144  140.4072  153.8031 N   0  3  1  0  0  0  0  0  0  0  0  0
  149.0724  141.1843  154.8046 C   0  0  0  0  0  0  0  0  0  0  0  0
  150.1278  140.2577  155.4456 C   0  0  0  0  0  0  0  0  0  0  0  0
  149.5060  138.9516  155.9893 C   0  0  0  0  0  0  0  0  0  0  0  0
  148.6228  138.2541  154.9326 C   0  0  0  0  0  0  0  0  0  0  0  0
  147.5948  139.2651  154.3925 C   0  0  2  0  0  0  0  0  0  0  0  0
  147.9134  131.9379  152.5643 H   0  0  0  0  0  0  0  0  0  0  0  0
  147.5102  133.4287  153.4132 H   0  0  0  0  0  0  0  0  0  0  0  0
  148.3858  133.4910  151.8756 H   0  0  0  0  0  0  0  0  0  0  0  0
  146.1274  130.9074  151.4070 H   0  0  0  0  0  0  0  0  0  0  0  0
  143.9588  131.0528  150.1709 H   0  0  0  0  0  0  0  0  0  0  0  0
  142.9590  133.3199  149.7803 H   0  0  0  0  0  0  0  0  0  0  0  0
  147.3366  135.4134  151.8048 H   0  0  0  0  0  0  0  0  0  0  0  0
  147.7780  137.2614  152.6300 H   0  0  0  0  0  0  0  0  0  0  0  0
  145.5682  138.8495  153.7865 H   0  0  0  0  0  0  0  0  0  0  0  0
  147.1349  139.6485  151.3848 H   0  0  0  0  0  0  0  0  0  0  0  0
  145.5923  140.2777  151.9506 H   0  0  0  0  0  0  0  0  0  0  0  0
  147.8590  141.7669  152.2269 H   0  0  0  0  0  0  0  0  0  0  0  0
  146.6900  141.7219  153.5574 H   0  0  0  0  0  0  0  0  0  0  0  0
  149.5597  142.0321  154.3218 H   0  0  0  0  0  0  0  0  0  0  0  0
  148.3954  141.5858  155.5602 H   0  0  0  0  0  0  0  0  0  0  0  0
  150.8820  140.0066  154.6986 H   0  0  0  0  0  0  0  0  0  0  0  0
  150.6520  140.7832  156.2444 H   0  0  0  0  0  0  0  0  0  0  0  0
  150.2917  138.2749  156.3261 H   0  0  0  0  0  0  0  0  0  0  0  0
  148.9018  139.1811  156.8678 H   0  0  0  0  0  0  0  0  0  0  0  0
  149.2432  137.8708  154.1213 H   0  0  0  0  0  0  0  0  0  0  0  0
  148.1195  137.3972  155.3810 H   0  0  0  0  0  0  0  0  0  0  0  0
  147.0216  139.6434  155.2419 H   0  0  0  0  0  0  0  0  0  0  0  0
  148.9967  140.0098  153.1734 H   0  0  0  0  0  0  0  0  0  0  0  0
  1  2  1  0  0  0  0
  1 21  1  0  0  0  0
  1 22  1  0  0  0  0
  1 23  1  0  0  0  0
  2  7  1  0  0  0  0
  2  3  2  0  0  0  0
  3  4  1  0  0  0  0
  3 24  1  0  0  0  0
  4  5  2  0  0  0  0
  4 25  1  0  0  0  0
  5  6  1  0  0  0  0
  5 26  1  0  0  0  0
  6  7  2  0  0  0  0
  7  8  1  0  0  0  0
  8  9  1  0  0  0  0
  8 27  1  0  0  0  0
  9 10  2  0  0  0  0
  9 11  1  0  0  0  0
 11 12  1  0  0  0  0
 11 28  1  0  0  0  0
 12 20  1  0  0  0  0
 12 13  1  0  0  0  0
 12 29  1  0  0  0  0
 13 14  1  0  0  0  0
 13 30  1  0  0  0  0
 13 31  1  0  0  0  0
 14 15  1  0  0  0  0
 14 32  1  0  0  0  0
 14 33  1  0  0  0  0
 15 20  1  0  0  0  0
 15 16  1  0  0  0  0
 15 43  1  0  0  0  0
 16 17  1  0  0  0  0
 16 34  1  0  0  0  0
 16 35  1  0  0  0  0
 17 18  1  0  0  0  0
 17 36  1  0  0  0  0
 17 37  1  0  0  0  0
 18 19  1  0  0  0  0
 18 38  1  0  0  0  0
 18 39  1  0  0  0  0
 19 20  1  0  0  0  0
 19 40  1  0  0  0  0
 19 41  1  0  0  0  0
 20 42  1  0  0  0  0
M  CHG  1  15   1
M  END
> <s_m_source_file>
AV-unprocessed.smi

> <i_m_source_file_index>
1709

> <i_lp_mmshare_version>
43012

> <i_f3d_flags>
0

> <s_epik_input>
W0NIM11jMVtjSF1bY0hdW2NIXW5jMVtOSF1DKD1PKVtOSF1bQ0BIXShbQ0gyXVtDSDJdMilbQ0BASF0oTjIzKVtDSDJdW0NIMl1bQ0gyXVtDSDJdMw==

> <s_epik_cmdline>
J2VwaWtfcHl0aG9uJywgJy1waCcsICc3LjAnLCAnLXRuJywgJzgnLCAnLW1hJywgJzIwMCcsICctbWV0YWxfYmluZGluZycsICctaW1hZScsICc8aW5maWxlLm1hZT4nLCAnLW9tYWUnLCAnPG91dGZpbGUubWFlPic=

> <r_epik_Ionization_Penalty>
0.00101524

> <r_epik_Ionization_Penalty_Charging>
0.000974069

> <r_epik_Ionization_Penalty_Neutral>
4.11757e-05

> <r_epik_State_Penalty>
0.000633842

> <r_epik_Charging_Adjusted_Penalty>
0.00160791

> <i_epik_Tot_Q>
1

> <i_epik_Tot_abs_Q>
1

> <r_epik_Metal_State_Penalty>
-0

> <b_epik_Metal_Only>
0

> <s_lp_Force_Field>
OPLS_2005

> <r_lp_Energy>
46.0593

> <b_lp_Chiralities_Consistent>
1

> <s_lp_Variant>
AV-unprocessed.smi:1709-5

> <Gold.Version>
5.8.1

> <Gold.Id.Protein>
6NUR|6NUR_protein|mol2

> <Gold.PLP.Fitness>
41.2815

> <Gold.PLP.PLP>
-30.4536

> <Gold.PLP.part.hbond>
-3.0000

> <Gold.PLP.part.metal>
0.0000

> <Gold.PLP.part.buried>
-0.3217

> <Gold.PLP.part.nonpolar>
-28.1238

> <Gold.PLP.part.repulsive>
0.5249

> <Gold.PLP.ligand.clash>
0.0000

> <Gold.PLP.ligand.torsion>
0.5752

> <Gold.PLP.Chemscore.Hbond>
2.9920

> <Gold.PLP.Chemscore.CHOScore>
1.0000

> <Gold.PLP.Chemscore.Metal>
0.0000

> <Gold.Chemscore.Hbonds>
donor molecule, donor type, donor heavy atom, donor atom, acceptor molecule, acceptor atom, score
      L1  H     8    27       P1  7948  1.00
      L1  H    11    28       P1  7948  0.98
      L1  H    15    43       P1  7957  0.68
      L1  C     5    26       P1 10186  1.00

> <Gold.PLP.Chemscore.Internal.Correction>
0.0022

> <Gold.Rescore>
     Score         DG    S(hbond)    S(metal)    S(lipo)     H(rot)  DE(clash)    DE(int)     intcor
     19.71     -23.05       2.88        0.00      89.79       1.00       2.03       1.30       ----

> <Gold.Chemscore.Fitness>
19.7123

> <Gold.Chemscore.DG>
-23.0475

> <Gold.Chemscore.ZeroCoef>
-5.4800

> <Gold.Chemscore.Hbond>
2.8808

> <Gold.Chemscore.Metal>
0.0000

> <Gold.Chemscore.Lipo>
89.7924

> <Gold.Chemscore.Internal_Hbond>
0.0000

> <Gold.Chemscore.DEClash>
2.0344

> <Gold.Chemscore.DEInternal>
1.3007

> <Gold.Chemscore.Rot>
1.0000

> <Gold.Chemscore.Internal.Correction>
   9.000000E+99

> <Gold.Chemscore.Hbonds>
donor molecule, donor type, donor heavy atom, donor atom, acceptor molecule, acceptor atom, score
      L1  H     8    27       P1  7948  0.94
      L1  H    11    28       P1  7948  0.93
      L1  H    15    43       P1  7957  0.67

> <Gold.Chemscore.Hbond.Weighted>
-9.6218

> <Gold.Chemscore.Metal.Weighted>
-0.0000

> <Gold.Chemscore.Lipo.Weighted>
-10.5057

> <Gold.Chemscore.Internal_Hbond.Weighted>
0.0000

> <Gold.Chemscore.DEClash.Weighted>
2.0344

> <Gold.Chemscore.DEInternal.Weighted>
1.3007

> <Gold.Chemscore.Rot.Weighted>
2.5600

> <Gold.Chemscore.Internal.Correction.Weighted>
   9.000000E+99

> <Gold.Protein.RotatedTorsions>
[ 6907 6896 6895 6894 ] final -179.92 input  -60.11 | X-H torsion
[ 7974 7965 7964 7962 ] final -144.49 input  175.53 | X-H torsion
[ 8008 7997 7996 7995 ] final -118.59 input   59.86 | X-H torsion
[ 10167 10162 10161 10158 ] final  -85.67 input  -65.29 | X-H torsion
[ 10718 10713 10712 10709 ] final   78.53 input   66.30 | X-H torsion
[ 10763 10752 10751 10750 ] final  177.36 input  -60.55 | X-H torsion
[ 11005 11000 10999 10996 ] final  118.42 input  -57.11 | X-H torsion

> <Gold.Protein.ActiveResidues>
 VAL166  LYS551  ARG553  GLY616  TRP617  ASP618  TYR619  PRO620  LYS621  CYS622 
 ASP623  PHE694  ASN695  SER759  ASP760  ASP761  ALA762  ILE779  LEU786  VAL792 
 PHE793  MET794  SER795  GLU796  ALA797  LYS798  CYS799  TRP800  GLU811  SER814 

> <Gold.Protein.RotatedAtoms>
  151.6613  133.3317  159.3174 H   0  0  0  0  0  0  0  0  0  0  0  0  # atno 6907 bound_to 6896
  150.7912  134.6941  159.6522 H   0  0  0  0  0  0  0  0  0  0  0  0  # atno 6908 bound_to 6896
  152.3992  134.6319  160.0129 H   0  0  0  0  0  0  0  0  0  0  0  0  # atno 6909 bound_to 6896
  144.8294  140.5703  143.5525 H   0  0  0  0  0  0  0  0  0  0  0  0  # atno 7974 bound_to 7965
  155.1021  140.0396  157.2700 H   0  0  0  0  0  0  0  0  0  0  0  0  # atno 8008 bound_to 7997
  154.6750  140.2620  155.6942 H   0  0  0  0  0  0  0  0  0  0  0  0  # atno 8009 bound_to 7997
  156.2673  140.2790  156.1273 H   0  0  0  0  0  0  0  0  0  0  0  0  # atno 8010 bound_to 7997
  140.4015  143.2661  151.9136 H   0  0  0  0  0  0  0  0  0  0  0  0  # atno 10167 bound_to 10162
  157.6748  130.9872  150.1800 H   0  0  0  0  0  0  0  0  0  0  0  0  # atno 10718 bound_to 10713
  154.4934  135.2780  155.1478 H   0  0  0  0  0  0  0  0  0  0  0  0  # atno 10763 bound_to 10752
  154.3141  135.6223  153.5482 H   0  0  0  0  0  0  0  0  0  0  0  0  # atno 10764 bound_to 10752
  152.9891  135.5727  154.5361 H   0  0  0  0  0  0  0  0  0  0  0  0  # atno 10765 bound_to 10752
  139.9109  134.9620  156.7500 H   0  0  0  0  0  0  0  0  0  0  0  0  # atno 11005 bound_to 11000
  145.4929  139.1487  143.3700 LP  0  0  0  0  0  0  0  0  0  0  0  0  # atno 17320 bound_to 7965
  146.2598  140.5067  142.8858 LP  0  0  0  0  0  0  0  0  0  0  0  0  # atno 17321 bound_to 7965
  139.4784  144.5629  151.8211 LP  0  0  0  0  0  0  0  0  0  0  0  0  # atno 17342 bound_to 10162
  140.4735  144.1553  150.5921 LP  0  0  0  0  0  0  0  0  0  0  0  0  # atno 17343 bound_to 10162
  156.2535  130.3703  149.8207 LP  0  0  0  0  0  0  0  0  0  0  0  0  # atno 17370 bound_to 10713
  156.5973  130.8531  151.3423 LP  0  0  0  0  0  0  0  0  0  0  0  0  # atno 17371 bound_to 10713
  140.6781  133.9499  155.7894 LP  0  0  0  0  0  0  0  0  0  0  0  0  # atno 17394 bound_to 11000
  141.0530  134.0458  157.3759 LP  0  0  0  0  0  0  0  0  0  0  0  0  # atno 17395 bound_to 11000

$$$$
