AV-unprocessed.smi:1815|AV-procd|sdf|7362|dock5
  -GOLD-   22720 9 23D 1   1.00000     0.00000
 Structure written by MMmdl.
 39 40  0  0  0  0  0  0  0  0  3 V2000
  148.8385  140.6609  154.3042 C   0  0  0  0  0  0  0  0  0  0  0  0
  149.4900  139.2887  154.0990 C   0  0  2  0  0  0  0  0  0  0  0  0
  148.7821  138.1836  154.9055 C   0  0  0  0  0  0  0  0  0  0  0  0
  149.4854  136.8884  154.7479 N   0  3  2  0  0  0  0  0  0  0  0  0
  148.7982  135.7855  155.4647 C   0  0  0  0  0  0  0  0  0  0  0  0
  148.8612  134.4549  154.6989 C   0  0  0  0  0  0  0  0  0  0  0  0
  148.1140  134.5557  153.4535 N   0  0  0  0  0  0  0  0  0  0  0  0
  147.3455  133.5905  152.9326 C   0  0  0  0  0  0  0  0  0  0  0  0
  147.2347  132.5110  153.5181 O   0  0  0  0  0  0  0  0  0  0  0  0
  146.7549  133.9392  151.7676 N   0  5  0  0  0  0  0  0  0  0  0  0
  145.6755  133.2693  151.3323 C   0  0  0  0  0  0  0  0  0  0  0  0
  145.6175  131.9334  151.2887 N   0  0  0  0  0  0  0  0  0  0  0  0
  144.3985  131.4455  150.8138 C   0  0  0  0  0  0  0  0  0  0  0  0
  143.5040  132.4333  150.4972 C   0  0  0  0  0  0  0  0  0  0  0  0
  144.1709  134.0152  150.7850 S   0  0  0  0  0  0  0  0  0  0  0  0
  150.9175  137.0330  155.1080 C   0  0  0  0  0  0  0  0  0  0  0  0
  151.5669  138.1680  154.2937 C   0  0  2  0  0  0  0  0  0  0  0  0
  153.0287  138.4010  154.6913 C   0  0  0  0  0  0  0  0  0  0  0  0
  150.8469  139.3748  154.5199 O   0  0  0  0  0  0  0  0  0  0  0  0
  147.7961  140.6538  153.9849 H   0  0  0  0  0  0  0  0  0  0  0  0
  149.3561  141.4281  153.7277 H   0  0  0  0  0  0  0  0  0  0  0  0
  148.8651  140.9590  155.3527 H   0  0  0  0  0  0  0  0  0  0  0  0
  149.4584  139.0459  153.0354 H   0  0  0  0  0  0  0  0  0  0  0  0
  148.7468  138.4507  155.9633 H   0  0  0  0  0  0  0  0  0  0  0  0
  147.7505  138.0860  154.5645 H   0  0  0  0  0  0  0  0  0  0  0  0
  149.2195  135.6760  156.4654 H   0  0  0  0  0  0  0  0  0  0  0  0
  147.7481  136.0503  155.5982 H   0  0  0  0  0  0  0  0  0  0  0  0
  149.8967  134.1940  154.4752 H   0  0  0  0  0  0  0  0  0  0  0  0
  148.4413  133.6441  155.2946 H   0  0  0  0  0  0  0  0  0  0  0  0
  148.1782  135.4243  152.9429 H   0  0  0  0  0  0  0  0  0  0  0  0
  144.2536  130.3783  150.7363 H   0  0  0  0  0  0  0  0  0  0  0  0
  142.4995  132.3284  150.1158 H   0  0  0  0  0  0  0  0  0  0  0  0
  151.0056  137.2369  156.1765 H   0  0  0  0  0  0  0  0  0  0  0  0
  151.4537  136.1045  154.9154 H   0  0  0  0  0  0  0  0  0  0  0  0
  151.5328  137.9237  153.2305 H   0  0  0  0  0  0  0  0  0  0  0  0
  153.6272  137.5039  154.5302 H   0  0  0  0  0  0  0  0  0  0  0  0
  153.1134  138.6756  155.7431 H   0  0  0  0  0  0  0  0  0  0  0  0
  153.4699  139.2045  154.1009 H   0  0  0  0  0  0  0  0  0  0  0  0
  149.4469  136.6601  153.7646 H   0  0  0  0  0  0  0  0  0  0  0  0
  1  2  1  0  0  0  0
  1 20  1  0  0  0  0
  1 21  1  0  0  0  0
  1 22  1  0  0  0  0
  2 19  1  0  0  0  0
  2  3  1  0  0  0  0
  2 23  1  0  0  0  0
  3  4  1  0  0  0  0
  3 24  1  0  0  0  0
  3 25  1  0  0  0  0
  4  5  1  0  0  0  0
  4 16  1  0  0  0  0
  4 39  1  0  0  0  0
  5  6  1  0  0  0  0
  5 26  1  0  0  0  0
  5 27  1  0  0  0  0
  6  7  1  0  0  0  0
  6 28  1  0  0  0  0
  6 29  1  0  0  0  0
  7  8  1  0  0  0  0
  7 30  1  0  0  0  0
  8  9  2  0  0  0  0
  8 10  1  0  0  0  0
 10 11  1  0  0  0  0
 11 15  1  0  0  0  0
 11 12  2  0  0  0  0
 12 13  1  0  0  0  0
 13 14  2  0  0  0  0
 13 31  1  0  0  0  0
 14 15  1  0  0  0  0
 14 32  1  0  0  0  0
 16 17  1  0  0  0  0
 16 33  1  0  0  0  0
 16 34  1  0  0  0  0
 17 18  1  0  0  0  0
 17 19  1  0  0  0  0
 17 35  1  0  0  0  0
 18 36  1  0  0  0  0
 18 37  1  0  0  0  0
 18 38  1  0  0  0  0
M  CHG  1   4   1
M  CHG  1  10  -1
M  END
> <s_m_source_file>
AV-unprocessed.smi

> <i_m_source_file_index>
1815

> <i_lp_mmshare_version>
43012

> <i_f3d_flags>
0

> <s_epik_input>
W0NIM11bQ0BASF0xW0NIMl1OKFtDSDJdW0NASF0oTzEpW0NIM10pW0NIMl1bQ0gyXVtOSF1DKD1PKVtOSF1jMm5bY0hdW2NIXXMy

> <s_epik_cmdline>
J2VwaWtfcHl0aG9uJywgJy1waCcsICc3LjAnLCAnLXRuJywgJzgnLCAnLW1hJywgJzIwMCcsICctbWV0YWxfYmluZGluZycsICctaW1hZScsICc8aW5maWxlLm1hZT4nLCAnLW9tYWUnLCAnPG91dGZpbGUubWFlPic=

> <r_lp_tautomer_probability>
0.999

> <r_epik_Ionization_Penalty>
6.71699

> <r_epik_Ionization_Penalty_Charging>
5.88592

> <r_epik_Ionization_Penalty_Neutral>
0.831074

> <r_epik_State_Penalty>
6.08365

> <r_epik_Charging_Adjusted_Penalty>
11.9696

> <i_epik_Tot_Q>
0

> <i_epik_Tot_abs_Q>
2

> <r_epik_Metal_State_Penalty>
2.0947

> <b_epik_Metal_Only>
1

> <s_lp_Force_Field>
OPLS_2005

> <r_lp_Energy>
4.96906

> <b_lp_Chiralities_Consistent>
1

> <s_lp_Variant>
AV-unprocessed.smi:1815-13

> <Gold.Version>
5.8.1

> <Gold.Id.Protein>
6NUR|6NUR_protein|mol2

> <Gold.PLP.Fitness>
46.0971

> <Gold.PLP.PLP>
-32.4821

> <Gold.PLP.part.hbond>
-2.6592

> <Gold.PLP.part.metal>
0.0000

> <Gold.PLP.part.buried>
-3.4974

> <Gold.PLP.part.nonpolar>
-27.2011

> <Gold.PLP.part.repulsive>
0.5603

> <Gold.PLP.ligand.clash>
0.0000

> <Gold.PLP.ligand.torsion>
1.1175

> <Gold.PLP.Chemscore.Hbond>
3.8960

> <Gold.PLP.Chemscore.CHOScore>
1.3639

> <Gold.PLP.Chemscore.Metal>
0.0000

> <Gold.Chemscore.Hbonds>
donor molecule, donor type, donor heavy atom, donor atom, acceptor molecule, acceptor atom, score
      L1  H     4    39       P1  7948  2.00
      L1  H     7    30       P1  7948  0.90
      P1  H  7989  7998       L1    19  1.00
      L1  C    14    32       P1 10186  0.65
      L1  C    14    32       P1 10952  0.71

> <Gold.PLP.Chemscore.Internal.Correction>
0.0703

> <Gold.Rescore>
     Score         DG    S(hbond)    S(metal)    S(lipo)     H(rot)  DE(clash)    DE(int)     intcor
     15.23     -18.73       2.59        0.00      74.34       1.61       1.12       2.39       ----

> <Gold.Chemscore.Fitness>
15.2263

> <Gold.Chemscore.DG>
-18.7302

> <Gold.Chemscore.ZeroCoef>
-5.4800

> <Gold.Chemscore.Hbond>
2.5939

> <Gold.Chemscore.Metal>
0.0000

> <Gold.Chemscore.Lipo>
74.3403

> <Gold.Chemscore.Internal_Hbond>
0.0000

> <Gold.Chemscore.DEClash>
1.1152

> <Gold.Chemscore.DEInternal>
2.3888

> <Gold.Chemscore.Rot>
1.6060

> <Gold.Chemscore.Internal.Correction>
   9.000000E+99

> <Gold.Chemscore.Hbonds>
donor molecule, donor type, donor heavy atom, donor atom, acceptor molecule, acceptor atom, score
      L1  H     4    39       P1  7948  0.86
      L1  H     7    30       P1  7948  0.81
      P1  H  7989  7998       L1    19  0.40

> <Gold.Chemscore.Hbond.Weighted>
-8.6636

> <Gold.Chemscore.Metal.Weighted>
-0.0000

> <Gold.Chemscore.Lipo.Weighted>
-8.6978

> <Gold.Chemscore.Internal_Hbond.Weighted>
0.0000

> <Gold.Chemscore.DEClash.Weighted>
1.1152

> <Gold.Chemscore.DEInternal.Weighted>
2.3888

> <Gold.Chemscore.Rot.Weighted>
4.1112

> <Gold.Chemscore.Internal.Correction.Weighted>
   9.000000E+99

> <Gold.Protein.RotatedTorsions>
[ 6907 6896 6895 6894 ] final -166.03 input  -60.11 | X-H torsion
[ 7974 7965 7964 7962 ] final  109.53 input  175.53 | X-H torsion
[ 8008 7997 7996 7995 ] final  163.55 input   59.86 | X-H torsion
[ 10167 10162 10161 10158 ] final  107.38 input  -65.29 | X-H torsion
[ 10718 10713 10712 10709 ] final -122.03 input   66.30 | X-H torsion
[ 10763 10752 10751 10750 ] final  164.48 input  -60.55 | X-H torsion
[ 11005 11000 10999 10996 ] final   77.49 input  -57.11 | X-H torsion

> <Gold.Protein.ActiveResidues>
 VAL166  LYS551  ARG553  GLY616  TRP617  ASP618  TYR619  PRO620  LYS621  CYS622 
 ASP623  PHE694  ASN695  SER759  ASP760  ASP761  ALA762  ILE779  LEU786  VAL792 
 PHE793  MET794  SER795  GLU796  ALA797  LYS798  CYS799  TRP800  GLU811  SER814 

> <Gold.Protein.RotatedAtoms>
  151.4371  133.3654  159.2776 H   0  0  0  0  0  0  0  0  0  0  0  0  # atno 6907 bound_to 6896
  150.9184  134.8603  159.7483 H   0  0  0  0  0  0  0  0  0  0  0  0  # atno 6908 bound_to 6896
  152.4969  134.4306  159.9563 H   0  0  0  0  0  0  0  0  0  0  0  0  # atno 6909 bound_to 6896
  145.2666  139.2682  143.3989 H   0  0  0  0  0  0  0  0  0  0  0  0  # atno 7974 bound_to 7965
  156.1949  140.1720  156.8019 H   0  0  0  0  0  0  0  0  0  0  0  0  # atno 8008 bound_to 7997
  154.5517  140.0716  156.8709 H   0  0  0  0  0  0  0  0  0  0  0  0  # atno 8009 bound_to 7997
  155.3017  140.3362  155.4250 H   0  0  0  0  0  0  0  0  0  0  0  0  # atno 8010 bound_to 7997
  139.6931  144.7105  151.1313 H   0  0  0  0  0  0  0  0  0  0  0  0  # atno 10167 bound_to 10162
  156.1385  130.6448  150.9734 H   0  0  0  0  0  0  0  0  0  0  0  0  # atno 10718 bound_to 10713
  154.3096  135.2757  155.2572 H   0  0  0  0  0  0  0  0  0  0  0  0  # atno 10763 bound_to 10752
  154.4974  135.5817  153.6508 H   0  0  0  0  0  0  0  0  0  0  0  0  # atno 10764 bound_to 10752
  152.9890  135.6149  154.3272 H   0  0  0  0  0  0  0  0  0  0  0  0  # atno 10765 bound_to 10752
  139.9252  134.7687  156.1529 H   0  0  0  0  0  0  0  0  0  0  0  0  # atno 11005 bound_to 11000
  146.3259  140.3097  142.8626 LP  0  0  0  0  0  0  0  0  0  0  0  0  # atno 17320 bound_to 7965
  144.9372  140.8039  143.5653 LP  0  0  0  0  0  0  0  0  0  0  0  0  # atno 17321 bound_to 7965
  140.7688  143.5530  150.9183 LP  0  0  0  0  0  0  0  0  0  0  0  0  # atno 17342 bound_to 10162
  139.9208  143.6608  152.3097 LP  0  0  0  0  0  0  0  0  0  0  0  0  # atno 17343 bound_to 10162
  157.6554  131.0890  150.7958 LP  0  0  0  0  0  0  0  0  0  0  0  0  # atno 17370 bound_to 10713
  156.8036  130.4929  149.5366 LP  0  0  0  0  0  0  0  0  0  0  0  0  # atno 17371 bound_to 10713
  141.0804  133.6757  156.2325 LP  0  0  0  0  0  0  0  0  0  0  0  0  # atno 17394 bound_to 11000
  140.6357  134.5218  157.5564 LP  0  0  0  0  0  0  0  0  0  0  0  0  # atno 17395 bound_to 11000

$$$$
