AV-unprocessed.smi:2032|AV-procd|sdf|8247|dock6
  -GOLD-   2272010513D 1   1.00000     0.00000
 Structure written by MMmdl.
 41 42  0  0  0  0  0  0  0  0  2 V2000
  154.1872  140.5229  160.3620 C   0  0  0  0  0  0  0  0  0  0  0  0
  152.8652  141.1463  159.9020 C   0  0  2  0  0  0  0  0  0  0  0  0
  152.1470  140.2752  158.8560 C   0  0  0  0  0  0  0  0  0  0  0  0
  150.9145  140.8891  158.3541 N   0  0  0  0  0  0  0  0  0  0  0  0
  150.2116  140.0359  157.3654 C   0  0  1  0  0  0  0  0  0  0  0  0
  150.8072  140.1544  155.9387 C   0  0  0  0  0  0  0  0  0  0  0  0
  150.1726  138.5358  157.7685 C   0  0  0  0  0  0  0  0  0  0  0  0
  149.3043  138.2831  158.9143 N   0  0  0  0  0  0  0  0  0  0  0  0
  149.0928  137.0835  159.4719 C   0  0  0  0  0  0  0  0  0  0  0  0
  149.6598  136.0875  159.0161 O   0  0  0  0  0  0  0  0  0  0  0  0
  148.2413  137.1106  160.5225 N   0  5  0  0  0  0  0  0  0  0  0  0
  147.9719  135.9798  161.1954 C   0  0  0  0  0  0  0  0  0  0  0  0
  148.2245  134.7603  160.7059 N   0  0  0  0  0  0  0  0  0  0  0  0
  147.8660  133.7279  161.5746 C   0  0  0  0  0  0  0  0  0  0  0  0
  147.3174  134.1714  162.7486 C   0  0  0  0  0  0  0  0  0  0  0  0
  147.2343  135.9093  162.7986 S   0  0  0  0  0  0  0  0  0  0  0  0
  151.2549  142.2130  157.8193 C   0  0  0  0  0  0  0  0  0  0  0  0
  152.0180  143.1093  158.8157 C   0  0  1  0  0  0  0  0  0  0  0  0
  151.1255  143.6786  159.9320 C   0  0  0  0  0  0  0  0  0  0  0  0
  153.1515  142.4223  159.3408 O   0  0  0  0  0  0  0  0  0  0  0  0
  154.0246  139.5421  160.8094 H   0  0  0  0  0  0  0  0  0  0  0  0
  154.6746  141.1506  161.1084 H   0  0  0  0  0  0  0  0  0  0  0  0
  154.8780  140.4005  159.5275 H   0  0  0  0  0  0  0  0  0  0  0  0
  152.2246  141.2677  160.7759 H   0  0  0  0  0  0  0  0  0  0  0  0
  152.8211  140.0671  158.0237 H   0  0  0  0  0  0  0  0  0  0  0  0
  151.9319  139.3221  159.3352 H   0  0  0  0  0  0  0  0  0  0  0  0
  149.1762  140.3751  157.3058 H   0  0  0  0  0  0  0  0  0  0  0  0
  150.3290  139.4812  155.2282 H   0  0  0  0  0  0  0  0  0  0  0  0
  151.8736  139.9262  155.9367 H   0  0  0  0  0  0  0  0  0  0  0  0
  150.6728  141.1491  155.5163 H   0  0  0  0  0  0  0  0  0  0  0  0
  149.8435  137.9300  156.9224 H   0  0  0  0  0  0  0  0  0  0  0  0
  151.1580  138.1746  158.0590 H   0  0  0  0  0  0  0  0  0  0  0  0
  148.8238  139.0763  159.3129 H   0  0  0  0  0  0  0  0  0  0  0  0
  148.0363  132.7046  161.2747 H   0  0  0  0  0  0  0  0  0  0  0  0
  146.9584  133.5865  163.5817 H   0  0  0  0  0  0  0  0  0  0  0  0
  151.8592  142.0927  156.9189 H   0  0  0  0  0  0  0  0  0  0  0  0
  150.3603  142.7568  157.5236 H   0  0  0  0  0  0  0  0  0  0  0  0
  152.4110  143.9621  158.2615 H   0  0  0  0  0  0  0  0  0  0  0  0
  150.3386  144.3075  159.5150 H   0  0  0  0  0  0  0  0  0  0  0  0
  151.7078  144.2917  160.6201 H   0  0  0  0  0  0  0  0  0  0  0  0
  150.6403  142.8933  160.5109 H   0  0  0  0  0  0  0  0  0  0  0  0
  1  2  1  0  0  0  0
  1 21  1  0  0  0  0
  1 22  1  0  0  0  0
  1 23  1  0  0  0  0
  2 20  1  0  0  0  0
  2  3  1  0  0  0  0
  2 24  1  0  0  0  0
  3  4  1  0  0  0  0
  3 25  1  0  0  0  0
  3 26  1  0  0  0  0
  4  5  1  0  0  0  0
  4 17  1  0  0  0  0
  5  6  1  0  0  0  0
  5  7  1  0  0  0  0
  5 27  1  0  0  0  0
  6 28  1  0  0  0  0
  6 29  1  0  0  0  0
  6 30  1  0  0  0  0
  7  8  1  0  0  0  0
  7 31  1  0  0  0  0
  7 32  1  0  0  0  0
  8  9  1  0  0  0  0
  8 33  1  0  0  0  0
  9 10  2  0  0  0  0
  9 11  1  0  0  0  0
 11 12  1  0  0  0  0
 12 16  1  0  0  0  0
 12 13  2  0  0  0  0
 13 14  1  0  0  0  0
 14 15  2  0  0  0  0
 14 34  1  0  0  0  0
 15 16  1  0  0  0  0
 15 35  1  0  0  0  0
 17 18  1  0  0  0  0
 17 36  1  0  0  0  0
 17 37  1  0  0  0  0
 18 19  1  0  0  0  0
 18 20  1  0  0  0  0
 18 38  1  0  0  0  0
 19 39  1  0  0  0  0
 19 40  1  0  0  0  0
 19 41  1  0  0  0  0
M  CHG  1  11  -1
M  END
> <s_m_source_file>
AV-unprocessed.smi

> <i_m_source_file_index>
2032

> <i_lp_mmshare_version>
43012

> <i_f3d_flags>
0

> <s_epik_input>
W0NIM11bQ0BASF0xW0NIMl1OKFtDSDJdW0NASF0oTzEpW0NIM10pW0NASF0oW0NIM10pW0NIMl1bTkhdQyg9TylbTkhdYzJuW2NIXVtjSF1zMg==

> <s_epik_cmdline>
J2VwaWtfcHl0aG9uJywgJy1waCcsICc3LjAnLCAnLXRuJywgJzgnLCAnLW1hJywgJzIwMCcsICctbWV0YWxfYmluZGluZycsICctaW1hZScsICc8aW5maWxlLm1hZT4nLCAnLW9tYWUnLCAnPG91dGZpbGUubWFlPic=

> <r_lp_tautomer_probability>
0.999

> <r_epik_Ionization_Penalty>
7.22375

> <r_epik_Ionization_Penalty_Charging>
5.82415

> <r_epik_Ionization_Penalty_Neutral>
1.39959

> <r_epik_State_Penalty>
6.03347

> <r_epik_Charging_Adjusted_Penalty>
11.8576

> <i_epik_Tot_Q>
-1

> <i_epik_Tot_abs_Q>
1

> <r_epik_Metal_State_Penalty>
2.01024

> <b_epik_Metal_Only>
1

> <s_lp_Force_Field>
OPLS_2005

> <r_lp_Energy>
26.6576

> <b_lp_Chiralities_Consistent>
1

> <s_lp_Variant>
AV-unprocessed.smi:2032-17

> <Gold.Version>
5.8.1

> <Gold.Id.Protein>
6NUR|6NUR_protein|mol2

> <Gold.PLP.Fitness>
47.6710

> <Gold.PLP.PLP>
-37.1163

> <Gold.PLP.part.hbond>
-3.0000

> <Gold.PLP.part.metal>
0.0000

> <Gold.PLP.part.buried>
-5.7239

> <Gold.PLP.part.nonpolar>
-31.5595

> <Gold.PLP.part.repulsive>
0.2328

> <Gold.PLP.ligand.clash>
0.0000

> <Gold.PLP.ligand.torsion>
0.4692

> <Gold.PLP.Chemscore.Hbond>
3.8160

> <Gold.PLP.Chemscore.CHOScore>
0.0000

> <Gold.PLP.Chemscore.Metal>
0.0000

> <Gold.Chemscore.Hbonds>
donor molecule, donor type, donor heavy atom, donor atom, acceptor molecule, acceptor atom, score
      P1  H  6896  6909       L1    10  1.00
      P1  H  6931  6943       L1    11  1.60
      P1  H  6934  6947       L1    11  0.72

> <Gold.PLP.Chemscore.Internal.Correction>
0.0451

> <Gold.Rescore>
     Score         DG    S(hbond)    S(metal)    S(lipo)     H(rot)  DE(clash)    DE(int)     intcor
     16.01     -18.10       1.77        0.00      91.08       1.54       0.10       1.99       ----

> <Gold.Chemscore.Fitness>
16.0094

> <Gold.Chemscore.DG>
-18.1043

> <Gold.Chemscore.ZeroCoef>
-5.4800

> <Gold.Chemscore.Hbond>
1.7718

> <Gold.Chemscore.Metal>
0.0000

> <Gold.Chemscore.Lipo>
91.0825

> <Gold.Chemscore.Internal_Hbond>
0.0000

> <Gold.Chemscore.DEClash>
0.1027

> <Gold.Chemscore.DEInternal>
1.9922

> <Gold.Chemscore.Rot>
1.5431

> <Gold.Chemscore.Internal.Correction>
   9.000000E+99

> <Gold.Chemscore.Hbonds>
donor molecule, donor type, donor heavy atom, donor atom, acceptor molecule, acceptor atom, score
      P1  H  6896  6909       L1    10  0.96
      P1  H  6931  6943       L1    11  0.19
      P1  H  6934  6947       L1    11  0.33

> <Gold.Chemscore.Hbond.Weighted>
-5.9179

> <Gold.Chemscore.Metal.Weighted>
-0.0000

> <Gold.Chemscore.Lipo.Weighted>
-10.6567

> <Gold.Chemscore.Internal_Hbond.Weighted>
0.0000

> <Gold.Chemscore.DEClash.Weighted>
0.1027

> <Gold.Chemscore.DEInternal.Weighted>
1.9922

> <Gold.Chemscore.Rot.Weighted>
3.9503

> <Gold.Chemscore.Internal.Correction.Weighted>
   9.000000E+99

> <Gold.Protein.RotatedTorsions>
[ 6907 6896 6895 6894 ] final   47.83 input  -60.11 | X-H torsion
[ 7974 7965 7964 7962 ] final  -27.33 input  175.53 | X-H torsion
[ 8008 7997 7996 7995 ] final   31.78 input   59.86 | X-H torsion
[ 10167 10162 10161 10158 ] final -120.29 input  -65.29 | X-H torsion
[ 10718 10713 10712 10709 ] final  124.36 input   66.30 | X-H torsion
[ 10763 10752 10751 10750 ] final -143.38 input  -60.55 | X-H torsion
[ 11005 11000 10999 10996 ] final  -67.04 input  -57.11 | X-H torsion

> <Gold.Protein.ActiveResidues>
 VAL166  LYS551  ARG553  GLY616  TRP617  ASP618  TYR619  PRO620  LYS621  CYS622 
 ASP623  PHE694  ASN695  SER759  ASP760  ASP761  ALA762  ILE779  LEU786  VAL792 
 PHE793  MET794  SER795  GLU796  ALA797  LYS798  CYS799  TRP800  GLU811  SER814 

> <Gold.Protein.RotatedAtoms>
  152.2726  134.7916  160.0411 H   0  0  0  0  0  0  0  0  0  0  0  0  # atno 6907 bound_to 6896
  151.8523  133.3437  159.3685 H   0  0  0  0  0  0  0  0  0  0  0  0  # atno 6908 bound_to 6896
  150.7158  134.5214  159.5700 H   0  0  0  0  0  0  0  0  0  0  0  0  # atno 6909 bound_to 6896
  146.1365  140.5137  142.8670 H   0  0  0  0  0  0  0  0  0  0  0  0  # atno 7974 bound_to 7965
  155.1120  140.3240  155.4519 H   0  0  0  0  0  0  0  0  0  0  0  0  # atno 8008 bound_to 7997
  156.2688  140.2042  156.6191 H   0  0  0  0  0  0  0  0  0  0  0  0  # atno 8009 bound_to 7997
  154.6749  140.0532  157.0192 H   0  0  0  0  0  0  0  0  0  0  0  0  # atno 8010 bound_to 7997
  140.0375  143.5187  152.2146 H   0  0  0  0  0  0  0  0  0  0  0  0  # atno 10167 bound_to 10162
  157.5591  131.1090  150.8570 H   0  0  0  0  0  0  0  0  0  0  0  0  # atno 10718 bound_to 10713
  154.8472  135.3469  154.6178 H   0  0  0  0  0  0  0  0  0  0  0  0  # atno 10763 bound_to 10752
  153.6787  135.6981  153.5129 H   0  0  0  0  0  0  0  0  0  0  0  0  # atno 10764 bound_to 10752
  153.2685  135.4300  155.0921 H   0  0  0  0  0  0  0  0  0  0  0  0  # atno 10765 bound_to 10752
  141.1498  133.6711  156.6231 H   0  0  0  0  0  0  0  0  0  0  0  0  # atno 11005 bound_to 11000
  144.7746  140.5711  143.6647 LP  0  0  0  0  0  0  0  0  0  0  0  0  # atno 17320 bound_to 7965
  145.5143  139.1478  143.3587 LP  0  0  0  0  0  0  0  0  0  0  0  0  # atno 17321 bound_to 7965
  139.6036  144.7590  151.3115 LP  0  0  0  0  0  0  0  0  0  0  0  0  # atno 17342 bound_to 10162
  140.7275  143.6961  150.7882 LP  0  0  0  0  0  0  0  0  0  0  0  0  # atno 17343 bound_to 10162
  156.9073  130.5268  149.5281 LP  0  0  0  0  0  0  0  0  0  0  0  0  # atno 17370 bound_to 10713
  156.0646  130.5691  150.9262 LP  0  0  0  0  0  0  0  0  0  0  0  0  # atno 17371 bound_to 10713
  140.3525  134.7757  157.4477 LP  0  0  0  0  0  0  0  0  0  0  0  0  # atno 17394 bound_to 11000
  140.0849  134.5680  155.8502 LP  0  0  0  0  0  0  0  0  0  0  0  0  # atno 17395 bound_to 11000

$$$$
