AV-unprocessed.smi:73|AV-procd|sdf|760|dock1
  -GOLD-   2262017 93D 1   1.00000     0.00000
 Structure written by MMmdl.
 35 36  0  0  0  0  0  0  0  0  2 V2000
  150.9816  138.2940  154.0218 C   0  0  0  0  0  0  0  0  0  0  0  0
  149.9024  138.4665  155.1017 C   0  0  0  0  0  0  0  0  0  0  0  0
  149.4995  139.8489  155.4282 N   0  0  0  0  0  0  0  0  0  0  0  0
  150.6716  140.7411  155.5166 C   0  0  0  0  0  0  0  0  0  0  0  0
  151.4776  140.6050  156.7678 C   0  0  0  0  0  0  0  0  0  0  0  0
  152.0539  139.4981  157.2424 N   0  0  0  0  0  0  0  0  0  0  0  0
  152.6824  139.8741  158.4087 N   0  0  0  0  0  0  0  0  0  0  0  0
  152.4448  141.1809  158.5447 C   0  0  0  0  0  0  0  0  0  0  0  0
  152.9037  142.0769  159.6431 C   0  0  0  0  0  0  0  0  0  0  0  0
  151.6972  141.7024  157.5383 O   0  0  0  0  0  0  0  0  0  0  0  0
  148.5302  140.3544  154.4328 C   0  0  1  0  0  0  0  0  0  0  0  0
  147.1142  139.7312  154.5046 C   0  0  0  0  0  0  0  0  0  0  0  0
  146.1310  140.7857  154.1914 N   0  3  0  0  0  0  0  0  0  0  0  0
  146.8655  142.0047  153.8268 C   0  0  0  0  0  0  0  0  0  0  0  0
  148.2246  141.8678  154.5070 C   0  0  1  0  0  0  0  0  0  0  0  0
  148.0947  142.3139  155.8460 O   0  0  0  0  0  0  0  0  0  0  0  0
  148.9769  142.4732  154.0006 H   0  0  0  0  0  0  0  0  0  0  0  0
  151.3650  137.2736  154.0307 H   0  0  0  0  0  0  0  0  0  0  0  0
  151.8253  138.9633  154.1924 H   0  0  0  0  0  0  0  0  0  0  0  0
  150.5961  138.4714  153.0191 H   0  0  0  0  0  0  0  0  0  0  0  0
  149.0241  137.8767  154.8345 H   0  0  0  0  0  0  0  0  0  0  0  0
  150.3125  137.9864  155.9884 H   0  0  0  0  0  0  0  0  0  0  0  0
  151.3225  140.5958  154.6531 H   0  0  0  0  0  0  0  0  0  0  0  0
  150.3700  141.7857  155.4867 H   0  0  0  0  0  0  0  0  0  0  0  0
  153.3686  141.4946  160.4389 H   0  0  0  0  0  0  0  0  0  0  0  0
  152.0568  142.6236  160.0585 H   0  0  0  0  0  0  0  0  0  0  0  0
  153.6319  142.7923  159.2608 H   0  0  0  0  0  0  0  0  0  0  0  0
  148.9186  140.1550  153.4323 H   0  0  0  0  0  0  0  0  0  0  0  0
  147.0096  138.8957  153.8118 H   0  0  0  0  0  0  0  0  0  0  0  0
  146.8901  139.3656  155.5075 H   0  0  0  0  0  0  0  0  0  0  0  0
  145.5102  140.5021  153.4470 H   0  0  0  0  0  0  0  0  0  0  0  0
  146.9945  142.0125  152.7436 H   0  0  0  0  0  0  0  0  0  0  0  0
  146.3236  142.9092  154.1063 H   0  0  0  0  0  0  0  0  0  0  0  0
  148.4453  143.1901  155.9067 H   0  0  0  0  0  0  0  0  0  0  0  0
  145.5968  140.9734  155.0279 H   0  0  0  0  0  0  0  0  0  0  0  0
  1  2  1  0  0  0  0
  1 18  1  0  0  0  0
  1 19  1  0  0  0  0
  1 20  1  0  0  0  0
  2  3  1  0  0  0  0
  2 21  1  0  0  0  0
  2 22  1  0  0  0  0
  3  4  1  0  0  0  0
  3 11  1  0  0  0  0
  4  5  1  0  0  0  0
  4 23  1  0  0  0  0
  4 24  1  0  0  0  0
  5 10  1  0  0  0  0
  5  6  2  0  0  0  0
  6  7  1  0  0  0  0
  7  8  2  0  0  0  0
  8  9  1  0  0  0  0
  8 10  1  0  0  0  0
  9 25  1  0  0  0  0
  9 26  1  0  0  0  0
  9 27  1  0  0  0  0
 11 15  1  0  0  0  0
 11 12  1  0  0  0  0
 11 28  1  0  0  0  0
 12 13  1  0  0  0  0
 12 29  1  0  0  0  0
 12 30  1  0  0  0  0
 13 14  1  0  0  0  0
 13 31  1  0  0  0  0
 13 35  1  0  0  0  0
 14 15  1  0  0  0  0
 14 32  1  0  0  0  0
 14 33  1  0  0  0  0
 15 17  1  0  0  0  0
 15 16  1  0  0  0  0
 16 34  1  0  0  0  0
M  CHG  1  13   1
M  END
> <s_m_source_file>
AV-unprocessed.smi

> <i_m_source_file_index>
73

> <i_lp_mmshare_version>
43012

> <i_f3d_flags>
0

> <s_epik_input>
W09IXVtDQEBIXTFbQ0gyXVtOSF1bQ0gyXVtDQEhdMU4oW0NIMl1bQ0gzXSlbQ0gyXWMybm5jKG8yKVtDSDNd

> <s_epik_cmdline>
J2VwaWtfcHl0aG9uJywgJy1waCcsICc3LjAnLCAnLXRuJywgJzgnLCAnLW1hJywgJzIwMCcsICctbWV0YWxfYmluZGluZycsICctaW1hZScsICc8aW5maWxlLm1hZT4nLCAnLW9tYWUnLCAnPG91dGZpbGUubWFlPic=

> <r_lp_tautomer_probability>
1

> <r_epik_Ionization_Penalty>
0.00160433

> <r_epik_Ionization_Penalty_Charging>
0.000122314

> <r_epik_Ionization_Penalty_Neutral>
0.00148202

> <r_epik_State_Penalty>
-0

> <r_epik_Charging_Adjusted_Penalty>
0.000122314

> <i_epik_Tot_Q>
1

> <i_epik_Tot_abs_Q>
1

> <r_epik_Metal_State_Penalty>
-0

> <b_epik_Metal_Only>
0

> <s_lp_Force_Field>
OPLS_2005

> <r_lp_Energy>
44.8836

> <b_lp_Chiralities_Consistent>
1

> <s_lp_Variant>
AV-unprocessed.smi:73-2

> <Gold.Version>
5.8.1

> <Gold.Id.Protein>
6NUR|6NUR_protein|mol2

> <Gold.PLP.Fitness>
34.6495

> <Gold.PLP.PLP>
-26.6472

> <Gold.PLP.part.hbond>
-2.0000

> <Gold.PLP.part.metal>
0.0000

> <Gold.PLP.part.buried>
-3.7638

> <Gold.PLP.part.nonpolar>
-20.5333

> <Gold.PLP.part.repulsive>
0.0586

> <Gold.PLP.ligand.clash>
0.0000

> <Gold.PLP.ligand.torsion>
0.5114

> <Gold.PLP.Chemscore.Hbond>
3.0000

> <Gold.PLP.Chemscore.CHOScore>
0.0000

> <Gold.PLP.Chemscore.Metal>
0.0000

> <Gold.Chemscore.Hbonds>
donor molecule, donor type, donor heavy atom, donor atom, acceptor molecule, acceptor atom, score
      L1  H    13    31       P1 10175  1.82
      L1  H    16    34       P1  8028  1.00

> <Gold.PLP.Chemscore.Internal.Correction>
0.0250

> <Gold.Rescore>
     Score         DG    S(hbond)    S(metal)    S(lipo)     H(rot)  DE(clash)    DE(int)     intcor
     10.67     -11.77       1.86        0.00      55.49       2.51       0.15       0.95       ----

> <Gold.Chemscore.Fitness>
10.6690

> <Gold.Chemscore.DG>
-11.7726

> <Gold.Chemscore.ZeroCoef>
-5.4800

> <Gold.Chemscore.Hbond>
1.8602

> <Gold.Chemscore.Metal>
0.0000

> <Gold.Chemscore.Lipo>
55.4921

> <Gold.Chemscore.Internal_Hbond>
0.0000

> <Gold.Chemscore.DEClash>
0.1509

> <Gold.Chemscore.DEInternal>
0.9528

> <Gold.Chemscore.Rot>
2.5051

> <Gold.Chemscore.Internal.Correction>
   9.000000E+99

> <Gold.Chemscore.Hbonds>
donor molecule, donor type, donor heavy atom, donor atom, acceptor molecule, acceptor atom, score
      L1  H    13    31       P1 10175  0.82
      L1  H    16    34       P1  8028  0.93

> <Gold.Chemscore.Hbond.Weighted>
-6.2131

> <Gold.Chemscore.Metal.Weighted>
-0.0000

> <Gold.Chemscore.Lipo.Weighted>
-6.4926

> <Gold.Chemscore.Internal_Hbond.Weighted>
0.0000

> <Gold.Chemscore.DEClash.Weighted>
0.1509

> <Gold.Chemscore.DEInternal.Weighted>
0.9528

> <Gold.Chemscore.Rot.Weighted>
6.4131

> <Gold.Chemscore.Internal.Correction.Weighted>
   9.000000E+99

> <Gold.Protein.RotatedTorsions>
[ 6907 6896 6895 6894 ] final    4.45 input  -60.11 | X-H torsion
[ 7974 7965 7964 7962 ] final  -58.92 input  175.53 | X-H torsion
[ 8008 7997 7996 7995 ] final  -22.10 input   59.86 | X-H torsion
[ 10167 10162 10161 10158 ] final    8.46 input  -65.29 | X-H torsion
[ 10718 10713 10712 10709 ] final  145.86 input   66.30 | X-H torsion
[ 10763 10752 10751 10750 ] final   97.48 input  -60.55 | X-H torsion
[ 11005 11000 10999 10996 ] final   90.95 input  -57.11 | X-H torsion

> <Gold.Protein.ActiveResidues>
 VAL166  LYS551  ARG553  GLY616  TRP617  ASP618  TYR619  PRO620  LYS621  CYS622 
 ASP623  PHE694  ASN695  SER759  ASP760  ASP761  ALA762  ILE779  LEU786  VAL792 
 PHE793  MET794  SER795  GLU796  ALA797  LYS798  CYS799  TRP800  GLU811  SER814 

> <Gold.Protein.RotatedAtoms>
  151.6414  135.1012  160.0141 H   0  0  0  0  0  0  0  0  0  0  0  0  # atno 6907 bound_to 6896
  152.4052  133.6873  159.6358 H   0  0  0  0  0  0  0  0  0  0  0  0  # atno 6908 bound_to 6896
  150.7947  133.8639  159.3280 H   0  0  0  0  0  0  0  0  0  0  0  0  # atno 6909 bound_to 6896
  145.8336  140.8464  143.0071 H   0  0  0  0  0  0  0  0  0  0  0  0  # atno 7974 bound_to 7965
  154.4664  140.2017  156.0107 H   0  0  0  0  0  0  0  0  0  0  0  0  # atno 8008 bound_to 7997
  156.0935  140.3254  155.7817 H   0  0  0  0  0  0  0  0  0  0  0  0  # atno 8009 bound_to 7997
  155.4917  140.0547  157.2943 H   0  0  0  0  0  0  0  0  0  0  0  0  # atno 8010 bound_to 7997
  140.6313  143.7988  150.7299 H   0  0  0  0  0  0  0  0  0  0  0  0  # atno 10167 bound_to 10162
  157.3401  131.0934  151.1089 H   0  0  0  0  0  0  0  0  0  0  0  0  # atno 10718 bound_to 10713
  153.2774  135.4182  155.1046 H   0  0  0  0  0  0  0  0  0  0  0  0  # atno 10763 bound_to 10752
  154.8477  135.3487  154.6159 H   0  0  0  0  0  0  0  0  0  0  0  0  # atno 10764 bound_to 10752
  153.6579  135.7049  153.5244 H   0  0  0  0  0  0  0  0  0  0  0  0  # atno 10765 bound_to 10752
  139.8847  134.8645  156.3358 H   0  0  0  0  0  0  0  0  0  0  0  0  # atno 11005 bound_to 11000
  144.6738  140.0708  143.7473 LP  0  0  0  0  0  0  0  0  0  0  0  0  # atno 17320 bound_to 7965
  145.9544  139.2756  143.1193 LP  0  0  0  0  0  0  0  0  0  0  0  0  # atno 17321 bound_to 7965
  140.1599  143.4284  152.2074 LP  0  0  0  0  0  0  0  0  0  0  0  0  # atno 17342 bound_to 10162
  139.5527  144.7349  151.4387 LP  0  0  0  0  0  0  0  0  0  0  0  0  # atno 17343 bound_to 10162
  157.2304  130.6522  149.5847 LP  0  0  0  0  0  0  0  0  0  0  0  0  # atno 17370 bound_to 10713
  155.9706  130.4600  150.6058 LP  0  0  0  0  0  0  0  0  0  0  0  0  # atno 17371 bound_to 10713
  140.9692  133.7338  156.0510 LP  0  0  0  0  0  0  0  0  0  0  0  0  # atno 17394 bound_to 11000
  140.7892  134.3637  157.5469 LP  0  0  0  0  0  0  0  0  0  0  0  0  # atno 17395 bound_to 11000

$$$$
