AV-unprocessed.smi:1734|AV-procd|sdf|6980|dock2
  -GOLD-   22720 8193D 1   1.00000     0.00000
 Structure written by MMmdl.
 50 52  0  0  0  0  0  0  0  0  1 V2000
  145.6629  135.1181  151.3355 C   0  0  0  0  0  0  0  0  0  0  0  0
  145.6885  133.6011  151.4314 C   0  0  0  0  0  0  0  0  0  0  0  0
  144.6465  132.8548  150.8409 C   0  0  0  0  0  0  0  0  0  0  0  0
  144.6699  131.4528  150.9324 C   0  0  0  0  0  0  0  0  0  0  0  0
  145.7415  130.8523  151.6152 C   0  0  0  0  0  0  0  0  0  0  0  0
  146.7414  131.5574  152.1821 N   0  0  0  0  0  0  0  0  0  0  0  0
  146.7344  132.9119  152.1025 C   0  0  0  0  0  0  0  0  0  0  0  0
  147.7582  133.7198  152.6735 N   0  0  0  0  0  0  0  0  0  0  0  0
  148.6834  133.3758  153.5868 C   0  0  0  0  0  0  0  0  0  0  0  0
  148.7892  132.2685  154.1152 O   0  0  0  0  0  0  0  0  0  0  0  0
  149.4949  134.4058  153.8664 N   0  0  0  0  0  0  0  0  0  0  0  0
  150.5990  134.3633  154.8203 C   0  0  0  0  0  0  0  0  0  0  0  0
  150.3875  135.3166  156.0314 C   0  0  2  0  0  0  0  0  0  0  0  0
  149.1699  134.9048  156.9176 C   0  0  2  0  0  0  0  0  0  0  0  0
  148.8588  135.7947  158.1245 C   0  0  0  0  0  0  0  0  0  0  0  0
  148.4904  134.7988  159.2193 C   0  0  0  0  0  0  0  0  0  0  0  0
  149.2864  133.6679  158.9103 O   0  0  0  0  0  0  0  0  0  0  0  0
  149.2155  133.4815  157.5043 C   0  0  0  0  0  0  0  0  0  0  0  0
  150.4734  136.7560  155.7112 N   0  0  0  0  0  0  0  0  0  0  0  0
  151.7617  137.1457  155.1423 C   0  0  0  0  0  0  0  0  0  0  0  0
  151.8684  138.6686  154.9640 C   0  0  0  0  0  0  0  0  0  0  0  0
  150.7979  139.1212  154.1420 O   0  0  0  0  0  0  0  0  0  0  0  0
  149.5203  138.8106  154.6879 C   0  0  0  0  0  0  0  0  0  0  0  0
  149.3878  137.2908  154.8919 C   0  0  0  0  0  0  0  0  0  0  0  0
  144.8080  135.4646  150.7542 H   0  0  0  0  0  0  0  0  0  0  0  0
  146.5674  135.4879  150.8519 H   0  0  0  0  0  0  0  0  0  0  0  0
  145.5941  135.5605  152.3297 H   0  0  0  0  0  0  0  0  0  0  0  0
  143.8371  133.3480  150.3228 H   0  0  0  0  0  0  0  0  0  0  0  0
  143.8875  130.8534  150.4910 H   0  0  0  0  0  0  0  0  0  0  0  0
  145.7987  129.7779  151.7085 H   0  0  0  0  0  0  0  0  0  0  0  0
  147.7938  134.6706  152.3376 H   0  0  0  0  0  0  0  0  0  0  0  0
  149.3401  135.2809  153.3878 H   0  0  0  0  0  0  0  0  0  0  0  0
  150.7264  133.3310  155.1456 H   0  0  0  0  0  0  0  0  0  0  0  0
  151.5100  134.6187  154.2805 H   0  0  0  0  0  0  0  0  0  0  0  0
  151.2394  135.1313  156.6872 H   0  0  0  0  0  0  0  0  0  0  0  0
  148.2906  134.9361  156.2724 H   0  0  0  0  0  0  0  0  0  0  0  0
  149.7211  136.3812  158.4349 H   0  0  0  0  0  0  0  0  0  0  0  0
  148.0500  136.4982  157.9256 H   0  0  0  0  0  0  0  0  0  0  0  0
  148.6970  135.1772  160.2207 H   0  0  0  0  0  0  0  0  0  0  0  0
  147.4344  134.5294  159.1629 H   0  0  0  0  0  0  0  0  0  0  0  0
  148.2947  132.9458  157.2683 H   0  0  0  0  0  0  0  0  0  0  0  0
  150.0442  132.8720  157.1451 H   0  0  0  0  0  0  0  0  0  0  0  0
  152.5731  136.7995  155.7834 H   0  0  0  0  0  0  0  0  0  0  0  0
  151.9050  136.6759  154.1695 H   0  0  0  0  0  0  0  0  0  0  0  0
  151.8381  139.1755  155.9297 H   0  0  0  0  0  0  0  0  0  0  0  0
  152.8157  138.9301  154.4926 H   0  0  0  0  0  0  0  0  0  0  0  0
  149.3865  139.3374  155.6343 H   0  0  0  0  0  0  0  0  0  0  0  0
  148.7456  139.1699  154.0105 H   0  0  0  0  0  0  0  0  0  0  0  0
  149.3707  136.7963  153.9204 H   0  0  0  0  0  0  0  0  0  0  0  0
  148.4272  137.1063  155.3669 H   0  0  0  0  0  0  0  0  0  0  0  0
  1  2  1  0  0  0  0
  1 25  1  0  0  0  0
  1 26  1  0  0  0  0
  1 27  1  0  0  0  0
  2  7  1  0  0  0  0
  2  3  2  0  0  0  0
  3  4  1  0  0  0  0
  3 28  1  0  0  0  0
  4  5  2  0  0  0  0
  4 29  1  0  0  0  0
  5  6  1  0  0  0  0
  5 30  1  0  0  0  0
  6  7  2  0  0  0  0
  7  8  1  0  0  0  0
  8  9  1  0  0  0  0
  8 31  1  0  0  0  0
  9 10  2  0  0  0  0
  9 11  1  0  0  0  0
 11 12  1  0  0  0  0
 11 32  1  0  0  0  0
 12 13  1  0  0  0  0
 12 33  1  0  0  0  0
 12 34  1  0  0  0  0
 13 14  1  0  0  0  0
 13 19  1  0  0  0  0
 13 35  1  0  0  0  0
 14 18  1  0  0  0  0
 14 15  1  0  0  0  0
 14 36  1  0  0  0  0
 15 16  1  0  0  0  0
 15 37  1  0  0  0  0
 15 38  1  0  0  0  0
 16 17  1  0  0  0  0
 16 39  1  0  0  0  0
 16 40  1  0  0  0  0
 17 18  1  0  0  0  0
 18 41  1  0  0  0  0
 18 42  1  0  0  0  0
 19 24  1  0  0  0  0
 19 20  1  0  0  0  0
 20 21  1  0  0  0  0
 20 43  1  0  0  0  0
 20 44  1  0  0  0  0
 21 22  1  0  0  0  0
 21 45  1  0  0  0  0
 21 46  1  0  0  0  0
 22 23  1  0  0  0  0
 23 24  1  0  0  0  0
 23 47  1  0  0  0  0
 23 48  1  0  0  0  0
 24 49  1  0  0  0  0
 24 50  1  0  0  0  0
M  END
> <s_m_source_file>
AV-unprocessed.smi

> <i_m_source_file_index>
1734

> <i_lp_mmshare_version>
43012

> <i_f3d_flags>
0

> <s_epik_input>
W0NIM11jMVtjSF1bY0hdW2NIXW5jMVtOSF1DKD1PKVtOSF1bQ0gyXVtDQEhdKFtDQEBIXTJbQ0gyXVtDSDJdT1tDSDJdMilOM1tDSDJdW0NIMl1PW0NIMl1bQ0gyXTM=

> <s_epik_cmdline>
J2VwaWtfcHl0aG9uJywgJy1waCcsICc3LjAnLCAnLXRuJywgJzgnLCAnLW1hJywgJzIwMCcsICctbWV0YWxfYmluZGluZycsICctaW1hZScsICc8aW5maWxlLm1hZT4nLCAnLW9tYWUnLCAnPG91dGZpbGUubWFlPic=

> <r_epik_Ionization_Penalty>
0.125073

> <r_epik_Ionization_Penalty_Charging>
0

> <r_epik_Ionization_Penalty_Neutral>
0.125073

> <r_epik_State_Penalty>
0.114484

> <r_epik_Charging_Adjusted_Penalty>
0.114484

> <i_epik_Tot_Q>
0

> <i_epik_Tot_abs_Q>
0

> <r_epik_Metal_State_Penalty>
0.114483

> <b_epik_Metal_Only>
0

> <s_lp_Force_Field>
OPLS_2005

> <r_lp_Energy>
56.0061

> <b_lp_Chiralities_Consistent>
1

> <s_lp_Variant>
AV-unprocessed.smi:1734-1

> <Gold.Version>
5.8.1

> <Gold.Id.Protein>
6NUR|6NUR_protein|mol2

> <Gold.PLP.Fitness>
46.2159

> <Gold.PLP.PLP>
-34.5435

> <Gold.PLP.part.hbond>
-4.0000

> <Gold.PLP.part.metal>
0.0000

> <Gold.PLP.part.buried>
-5.7940

> <Gold.PLP.part.nonpolar>
-26.0113

> <Gold.PLP.part.repulsive>
0.4481

> <Gold.PLP.ligand.clash>
0.0000

> <Gold.PLP.ligand.torsion>
0.2570

> <Gold.PLP.Chemscore.Hbond>
3.9520

> <Gold.PLP.Chemscore.CHOScore>
0.0000

> <Gold.PLP.Chemscore.Metal>
0.0000

> <Gold.Chemscore.Hbonds>
donor molecule, donor type, donor heavy atom, donor atom, acceptor molecule, acceptor atom, score
      L1  H     8    31       P1  7948  0.91
      L1  H    11    32       P1  7948  0.84
      P1  H  6896  6907       L1    17  0.65
      P1  H  7989  7998       L1    22  0.94

> <Gold.PLP.Chemscore.Internal.Correction>
0.3303

> <Gold.Rescore>
     Score         DG    S(hbond)    S(metal)    S(lipo)     H(rot)  DE(clash)    DE(int)     intcor
     15.51     -18.36       2.46        0.00      76.07       1.65       0.19       2.66       ----

> <Gold.Chemscore.Fitness>
15.5147

> <Gold.Chemscore.DG>
-18.3625

> <Gold.Chemscore.ZeroCoef>
-5.4800

> <Gold.Chemscore.Hbond>
2.4553

> <Gold.Chemscore.Metal>
0.0000

> <Gold.Chemscore.Lipo>
76.0734

> <Gold.Chemscore.Internal_Hbond>
0.0000

> <Gold.Chemscore.DEClash>
0.1889

> <Gold.Chemscore.DEInternal>
2.6589

> <Gold.Chemscore.Rot>
1.6480

> <Gold.Chemscore.Internal.Correction>
   9.000000E+99

> <Gold.Chemscore.Hbonds>
donor molecule, donor type, donor heavy atom, donor atom, acceptor molecule, acceptor atom, score
      L1  H     8    31       P1  7948  0.58
      L1  H    11    32       P1  7948  0.14
      P1  H  6896  6907       L1    17  0.07
      P1  H  7989  7998       L1    22  0.20

> <Gold.Chemscore.Hbond.Weighted>
-8.2007

> <Gold.Chemscore.Metal.Weighted>
-0.0000

> <Gold.Chemscore.Lipo.Weighted>
-8.9006

> <Gold.Chemscore.Internal_Hbond.Weighted>
0.0000

> <Gold.Chemscore.DEClash.Weighted>
0.1889

> <Gold.Chemscore.DEInternal.Weighted>
2.6589

> <Gold.Chemscore.Rot.Weighted>
4.2188

> <Gold.Chemscore.Internal.Correction.Weighted>
   9.000000E+99

> <Gold.Protein.RotatedTorsions>
[ 6907 6896 6895 6894 ] final  -85.68 input  -60.11 | X-H torsion
[ 7974 7965 7964 7962 ] final -122.79 input  175.53 | X-H torsion
[ 8008 7997 7996 7995 ] final  -78.95 input   59.86 | X-H torsion
[ 10167 10162 10161 10158 ] final  -85.34 input  -65.29 | X-H torsion
[ 10718 10713 10712 10709 ] final -153.82 input   66.30 | X-H torsion
[ 10763 10752 10751 10750 ] final  174.92 input  -60.55 | X-H torsion
[ 11005 11000 10999 10996 ] final -124.17 input  -57.11 | X-H torsion

> <Gold.Protein.ActiveResidues>
 VAL166  LYS551  ARG553  GLY616  TRP617  ASP618  TYR619  PRO620  LYS621  CYS622 
 ASP623  PHE694  ASN695  SER759  ASP760  ASP761  ALA762  ILE779  LEU786  VAL792 
 PHE793  MET794  SER795  GLU796  ALA797  LYS798  CYS799  TRP800  GLU811  SER814 

> <Gold.Protein.RotatedAtoms>
  150.6869  134.3167  159.4768 H   0  0  0  0  0  0  0  0  0  0  0  0  # atno 6907 bound_to 6896
  152.1047  134.9314  160.0578 H   0  0  0  0  0  0  0  0  0  0  0  0  # atno 6908 bound_to 6896
  152.0580  133.4014  159.4442 H   0  0  0  0  0  0  0  0  0  0  0  0  # atno 6909 bound_to 6896
  145.0257  140.8025  143.4354 H   0  0  0  0  0  0  0  0  0  0  0  0  # atno 7974 bound_to 7965
  154.5738  140.0686  156.9004 H   0  0  0  0  0  0  0  0  0  0  0  0  # atno 8008 bound_to 7997
  155.2585  140.3357  155.4257 H   0  0  0  0  0  0  0  0  0  0  0  0  # atno 8009 bound_to 7997
  156.2139  140.1770  156.7619 H   0  0  0  0  0  0  0  0  0  0  0  0  # atno 8010 bound_to 7997
  140.4047  143.2648  151.9097 H   0  0  0  0  0  0  0  0  0  0  0  0  # atno 10167 bound_to 10162
  156.4909  130.8347  151.2570 H   0  0  0  0  0  0  0  0  0  0  0  0  # atno 10718 bound_to 10713
  154.4606  135.2767  155.1716 H   0  0  0  0  0  0  0  0  0  0  0  0  # atno 10763 bound_to 10752
  154.3505  135.6151  153.5644 H   0  0  0  0  0  0  0  0  0  0  0  0  # atno 10764 bound_to 10752
  152.9854  135.5810  154.4967 H   0  0  0  0  0  0  0  0  0  0  0  0  # atno 10765 bound_to 10752
  140.9862  134.0604  157.3708 H   0  0  0  0  0  0  0  0  0  0  0  0  # atno 11005 bound_to 11000
  145.1837  139.2338  143.5279 LP  0  0  0  0  0  0  0  0  0  0  0  0  # atno 17320 bound_to 7965
  146.3492  140.1616  142.8590 LP  0  0  0  0  0  0  0  0  0  0  0  0  # atno 17321 bound_to 7965
  139.4784  144.5598  151.8256 LP  0  0  0  0  0  0  0  0  0  0  0  0  # atno 17342 bound_to 10162
  140.4702  144.1597  150.5917 LP  0  0  0  0  0  0  0  0  0  0  0  0  # atno 17343 bound_to 10162
  157.7474  131.0014  150.2960 LP  0  0  0  0  0  0  0  0  0  0  0  0  # atno 17370 bound_to 10713
  156.3427  130.3818  149.7395 LP  0  0  0  0  0  0  0  0  0  0  0  0  # atno 17371 bound_to 10713
  139.8971  135.0149  156.7086 LP  0  0  0  0  0  0  0  0  0  0  0  0  # atno 17394 bound_to 11000
  140.7111  133.9222  155.8085 LP  0  0  0  0  0  0  0  0  0  0  0  0  # atno 17395 bound_to 11000

$$$$
