AV-unprocessed.smi:1082|AV-procd|sdf|4714|dock7
  -GOLD-   22720 3243D 1   1.00000     0.00000
 Structure written by MMmdl.
 48 50  0  0  0  0  0  0  0  0  4 V2000
  154.2634  141.1879  160.5521 O   0  0  0  0  0  0  0  0  0  0  0  0
  153.5115  140.3227  160.0891 C   0  0  0  0  0  0  0  0  0  0  0  0
  153.5934  138.9752  160.2488 N   0  5  0  0  0  0  0  0  0  0  0  0
  154.2636  138.3059  161.3662 C   0  0  0  0  0  0  0  0  0  0  0  0
  154.1029  136.7776  161.2340 C   0  0  0  0  0  0  0  0  0  0  0  0
  154.8649  136.0234  162.2657 N   0  3  0  0  0  0  0  0  0  0  0  0
  154.4773  136.3319  163.6630 C   0  0  0  0  0  0  0  0  0  0  0  0
  154.5189  135.0107  164.4437 C   0  0  0  0  0  0  0  0  0  0  0  0
  155.2330  134.0316  163.5175 C   0  0  0  0  0  0  0  0  0  0  0  0
  154.8716  134.5482  162.1297 C   0  0  0  0  0  0  0  0  0  0  0  0
  152.4730  140.6777  159.3135 N   0  0  0  0  0  0  0  0  0  0  0  0
  152.1291  141.9788  158.8548 C   0  0  0  0  0  0  0  0  0  0  0  0
  152.6130  143.1319  159.5221 C   0  0  0  0  0  0  0  0  0  0  0  0
  152.2027  144.4106  159.1006 C   0  0  0  0  0  0  0  0  0  0  0  0
  151.2999  144.5151  158.0283 C   0  0  0  0  0  0  0  0  0  0  0  0
  150.8463  143.3974  157.4238 N   0  3  0  0  0  0  0  0  0  0  0  0
  151.2154  142.1395  157.7737 C   0  0  0  0  0  0  0  0  0  0  0  0
  150.6666  141.0620  157.0414 N   0  0  0  0  0  0  0  0  0  0  0  0
  151.5536  140.0215  156.5293 C   0  0  0  0  0  0  0  0  0  0  0  0
  150.9664  139.5775  155.1851 C   0  0  0  0  0  0  0  0  0  0  0  0
  149.5041  140.0055  155.2691 C   0  0  0  0  0  0  0  0  0  0  0  0
  149.5845  141.2893  156.0908 C   0  0  0  0  0  0  0  0  0  0  0  0
  155.3265  138.5464  161.3898 H   0  0  0  0  0  0  0  0  0  0  0  0
  153.8703  138.6126  162.3362 H   0  0  0  0  0  0  0  0  0  0  0  0
  153.0422  136.5409  161.3336 H   0  0  0  0  0  0  0  0  0  0  0  0
  154.3950  136.4449  160.2374 H   0  0  0  0  0  0  0  0  0  0  0  0
  155.1803  137.0588  164.0709 H   0  0  0  0  0  0  0  0  0  0  0  0
  153.4788  136.7679  163.7201 H   0  0  0  0  0  0  0  0  0  0  0  0
  155.0149  135.1088  165.4097 H   0  0  0  0  0  0  0  0  0  0  0  0
  153.5015  134.6633  164.6281 H   0  0  0  0  0  0  0  0  0  0  0  0
  156.3115  134.0966  163.6679 H   0  0  0  0  0  0  0  0  0  0  0  0
  154.9308  132.9962  163.6775 H   0  0  0  0  0  0  0  0  0  0  0  0
  153.8764  134.1952  161.8545 H   0  0  0  0  0  0  0  0  0  0  0  0
  155.5746  134.2107  161.3672 H   0  0  0  0  0  0  0  0  0  0  0  0
  151.9660  139.9140  158.8906 H   0  0  0  0  0  0  0  0  0  0  0  0
  153.2801  143.0481  160.3673 H   0  0  0  0  0  0  0  0  0  0  0  0
  152.5666  145.2957  159.6014 H   0  0  0  0  0  0  0  0  0  0  0  0
  150.9251  145.4513  157.6408 H   0  0  0  0  0  0  0  0  0  0  0  0
  152.5801  140.3737  156.4163 H   0  0  0  0  0  0  0  0  0  0  0  0
  151.5564  139.1855  157.2294 H   0  0  0  0  0  0  0  0  0  0  0  0
  151.4586  140.1163  154.3742 H   0  0  0  0  0  0  0  0  0  0  0  0
  151.0890  138.5097  155.0015 H   0  0  0  0  0  0  0  0  0  0  0  0
  149.0437  140.1533  154.2918 H   0  0  0  0  0  0  0  0  0  0  0  0
  148.9269  139.2522  155.8074 H   0  0  0  0  0  0  0  0  0  0  0  0
  148.6443  141.5040  156.5999 H   0  0  0  0  0  0  0  0  0  0  0  0
  149.8231  142.1290  155.4368 H   0  0  0  0  0  0  0  0  0  0  0  0
  155.8258  136.3237  162.1765 H   0  0  0  0  0  0  0  0  0  0  0  0
  150.1911  143.5057  156.6497 H   0  0  0  0  0  0  0  0  0  0  0  0
  1  2  2  0  0  0  0
  2  3  1  0  0  0  0
  2 11  1  0  0  0  0
  3  4  1  0  0  0  0
  4  5  1  0  0  0  0
  4 23  1  0  0  0  0
  4 24  1  0  0  0  0
  5  6  1  0  0  0  0
  5 25  1  0  0  0  0
  5 26  1  0  0  0  0
  6 10  1  0  0  0  0
  6  7  1  0  0  0  0
  6 47  1  0  0  0  0
  7  8  1  0  0  0  0
  7 27  1  0  0  0  0
  7 28  1  0  0  0  0
  8  9  1  0  0  0  0
  8 29  1  0  0  0  0
  8 30  1  0  0  0  0
  9 10  1  0  0  0  0
  9 31  1  0  0  0  0
  9 32  1  0  0  0  0
 10 33  1  0  0  0  0
 10 34  1  0  0  0  0
 11 12  1  0  0  0  0
 11 35  1  0  0  0  0
 12 17  1  0  0  0  0
 12 13  2  0  0  0  0
 13 14  1  0  0  0  0
 13 36  1  0  0  0  0
 14 15  2  0  0  0  0
 14 37  1  0  0  0  0
 15 16  1  0  0  0  0
 15 38  1  0  0  0  0
 16 17  2  0  0  0  0
 16 48  1  0  0  0  0
 17 18  1  0  0  0  0
 18 22  1  0  0  0  0
 18 19  1  0  0  0  0
 19 20  1  0  0  0  0
 19 39  1  0  0  0  0
 19 40  1  0  0  0  0
 20 21  1  0  0  0  0
 20 41  1  0  0  0  0
 20 42  1  0  0  0  0
 21 22  1  0  0  0  0
 21 43  1  0  0  0  0
 21 44  1  0  0  0  0
 22 45  1  0  0  0  0
 22 46  1  0  0  0  0
M  CHG  1   3  -1
M  CHG  1   6   1
M  CHG  1  16   1
M  END
> <s_m_source_file>
AV-unprocessed.smi

> <i_m_source_file_index>
1082

> <i_lp_mmshare_version>
43012

> <i_f3d_flags>
0

> <s_epik_input>
W0NIMl0xW0NIMl1bQ0gyXVtDSDJdTjFbQ0gyXVtDSDJdW05IXUMoPU8pW05IXWMyW2NIXVtjSF1bY0hdbmMyTjNbQ0gyXVtDSDJdW0NIMl1bQ0gyXTM=

> <s_epik_cmdline>
J2VwaWtfcHl0aG9uJywgJy1waCcsICc3LjAnLCAnLXRuJywgJzgnLCAnLW1hJywgJzIwMCcsICctbWV0YWxfYmluZGluZycsICctaW1hZScsICc8aW5maWxlLm1hZT4nLCAnLW9tYWUnLCAnPG91dGZpbGUubWFlPic=

> <r_lp_tautomer_probability>
0.999994

> <r_epik_Ionization_Penalty>
8.55934

> <r_epik_Ionization_Penalty_Charging>
8.55934

> <r_epik_Ionization_Penalty_Neutral>
3.77642e-06

> <r_epik_State_Penalty>
8.06887

> <r_epik_Charging_Adjusted_Penalty>
16.6282

> <i_epik_Tot_Q>
1

> <i_epik_Tot_abs_Q>
3

> <r_epik_Metal_State_Penalty>
4.05607

> <b_epik_Metal_Only>
1

> <s_lp_Force_Field>
OPLS_2005

> <r_lp_Energy>
53.4939

> <b_lp_Chiralities_Consistent>
1

> <s_lp_Variant>
AV-unprocessed.smi:1082-3

> <Gold.Version>
5.8.1

> <Gold.Id.Protein>
6NUR|6NUR_protein|mol2

> <Gold.PLP.Fitness>
49.4157

> <Gold.PLP.PLP>
-44.2120

> <Gold.PLP.part.hbond>
-1.0000

> <Gold.PLP.part.metal>
0.0000

> <Gold.PLP.part.buried>
-5.0071

> <Gold.PLP.part.nonpolar>
-38.9493

> <Gold.PLP.part.repulsive>
0.2017

> <Gold.PLP.ligand.clash>
0.0000

> <Gold.PLP.ligand.torsion>
0.4131

> <Gold.PLP.Chemscore.Hbond>
1.8080

> <Gold.PLP.Chemscore.CHOScore>
0.0000

> <Gold.PLP.Chemscore.Metal>
0.0000

> <Gold.Chemscore.Hbonds>
donor molecule, donor type, donor heavy atom, donor atom, acceptor molecule, acceptor atom, score
      L1  H    16    48       P1  8028  1.84

> <Gold.PLP.Chemscore.Internal.Correction>
0.6058

> <Gold.Rescore>
     Score         DG    S(hbond)    S(metal)    S(lipo)     H(rot)  DE(clash)    DE(int)     intcor
     15.81     -17.84       0.85        0.00     116.26       1.60       0.07       1.96       ----

> <Gold.Chemscore.Fitness>
15.8115

> <Gold.Chemscore.DG>
-17.8365

> <Gold.Chemscore.ZeroCoef>
-5.4800

> <Gold.Chemscore.Hbond>
0.8532

> <Gold.Chemscore.Metal>
0.0000

> <Gold.Chemscore.Lipo>
116.2590

> <Gold.Chemscore.Internal_Hbond>
0.0000

> <Gold.Chemscore.DEClash>
0.0664

> <Gold.Chemscore.DEInternal>
1.9586

> <Gold.Chemscore.Rot>
1.5998

> <Gold.Chemscore.Internal.Correction>
   9.000000E+99

> <Gold.Chemscore.Hbonds>
donor molecule, donor type, donor heavy atom, donor atom, acceptor molecule, acceptor atom, score
      L1  H    16    48       P1  8028  0.85

> <Gold.Chemscore.Hbond.Weighted>
-2.8498

> <Gold.Chemscore.Metal.Weighted>
-0.0000

> <Gold.Chemscore.Lipo.Weighted>
-13.6023

> <Gold.Chemscore.Internal_Hbond.Weighted>
0.0000

> <Gold.Chemscore.DEClash.Weighted>
0.0664

> <Gold.Chemscore.DEInternal.Weighted>
1.9586

> <Gold.Chemscore.Rot.Weighted>
4.0956

> <Gold.Chemscore.Internal.Correction.Weighted>
   9.000000E+99

> <Gold.Protein.RotatedTorsions>
[ 6907 6896 6895 6894 ] final -164.27 input  -60.11 | X-H torsion
[ 7974 7965 7964 7962 ] final  -87.93 input  175.53 | X-H torsion
[ 8008 7997 7996 7995 ] final -117.43 input   59.86 | X-H torsion
[ 10167 10162 10161 10158 ] final   50.31 input  -65.29 | X-H torsion
[ 10718 10713 10712 10709 ] final  -49.09 input   66.30 | X-H torsion
[ 10763 10752 10751 10750 ] final   70.01 input  -60.55 | X-H torsion
[ 11005 11000 10999 10996 ] final   99.08 input  -57.11 | X-H torsion

> <Gold.Protein.ActiveResidues>
 VAL166  LYS551  ARG553  GLY616  TRP617  ASP618  TYR619  PRO620  LYS621  CYS622 
 ASP623  PHE694  ASN695  SER759  ASP760  ASP761  ALA762  ILE779  LEU786  VAL792 
 PHE793  MET794  SER795  GLU796  ALA797  LYS798  CYS799  TRP800  GLU811  SER814 

> <Gold.Protein.RotatedAtoms>
  151.4092  133.3732  159.2741 H   0  0  0  0  0  0  0  0  0  0  0  0  # atno 6907 bound_to 6896
  150.9375  134.8788  159.7602 H   0  0  0  0  0  0  0  0  0  0  0  0  # atno 6908 bound_to 6896
  152.5056  134.4041  159.9478 H   0  0  0  0  0  0  0  0  0  0  0  0  # atno 6909 bound_to 6896
  145.4599  140.9561  143.1975 H   0  0  0  0  0  0  0  0  0  0  0  0  # atno 7974 bound_to 7965
  155.0836  140.0394  157.2647 H   0  0  0  0  0  0  0  0  0  0  0  0  # atno 8008 bound_to 7997
  154.6887  140.2648  155.6809 H   0  0  0  0  0  0  0  0  0  0  0  0  # atno 8009 bound_to 7997
  156.2721  140.2764  156.1458 H   0  0  0  0  0  0  0  0  0  0  0  0  # atno 8010 bound_to 7997
  140.2738  144.3235  150.6283 H   0  0  0  0  0  0  0  0  0  0  0  0  # atno 10167 bound_to 10162
  156.1926  130.4153  149.9351 H   0  0  0  0  0  0  0  0  0  0  0  0  # atno 10718 bound_to 10713
  153.0318  135.5189  154.7375 H   0  0  0  0  0  0  0  0  0  0  0  0  # atno 10763 bound_to 10752
  154.6385  135.2909  155.0135 H   0  0  0  0  0  0  0  0  0  0  0  0  # atno 10764 bound_to 10752
  154.1061  135.6629  153.4929 H   0  0  0  0  0  0  0  0  0  0  0  0  # atno 10765 bound_to 10752
  139.8771  134.9079  156.4552 H   0  0  0  0  0  0  0  0  0  0  0  0  # atno 11005 bound_to 11000
  144.8009  139.6143  143.7072 LP  0  0  0  0  0  0  0  0  0  0  0  0  # atno 17320 bound_to 7965
  146.2457  139.6093  142.9461 LP  0  0  0  0  0  0  0  0  0  0  0  0  # atno 17321 bound_to 7965
  140.5868  143.2169  151.7327 LP  0  0  0  0  0  0  0  0  0  0  0  0  # atno 17342 bound_to 10162
  139.4981  144.3998  152.0193 LP  0  0  0  0  0  0  0  0  0  0  0  0  # atno 17343 bound_to 10162
  156.7086  130.8961  151.3607 LP  0  0  0  0  0  0  0  0  0  0  0  0  # atno 17370 bound_to 10713
  157.6938  130.9261  150.0587 LP  0  0  0  0  0  0  0  0  0  0  0  0  # atno 17371 bound_to 10713
  140.8903  133.7853  155.9565 LP  0  0  0  0  0  0  0  0  0  0  0  0  # atno 17394 bound_to 11000
  140.8760  134.2669  157.5167 LP  0  0  0  0  0  0  0  0  0  0  0  0  # atno 17395 bound_to 11000

$$$$
