AV-unprocessed.smi:2843|AV-procd|sdf|10937|dock5
  -GOLD-   2272015383D 1   1.00000     0.00000
 Structure written by MMmdl.
 29 29  0  0  0  0  0  0  0  0  1 V2000
  152.7490  142.5011  159.8186 C   0  0  0  0  0  0  0  0  0  0  0  0
  152.1470  141.5917  158.8032 C   0  0  0  0  0  0  0  0  0  0  0  0
  152.1166  140.2327  158.6703 C   0  0  0  0  0  0  0  0  0  0  0  0
  151.3690  140.0281  157.4778 C   0  0  0  0  0  0  0  0  0  0  0  0
  150.9988  138.7301  156.8194 C   0  0  0  0  0  0  0  0  0  0  0  0
  151.6544  138.7063  155.0980 S   0  0  0  0  0  0  0  0  0  0  0  0
  152.6968  139.7355  154.9642 O   0  0  0  0  0  0  0  0  0  0  0  0
  151.9460  137.3133  154.7258 O   0  0  0  0  0  0  0  0  0  0  0  0
  150.2955  139.2233  154.1716 N   0  0  0  0  0  0  0  0  0  0  0  0
  149.0214  138.5418  154.3901 C   0  0  0  0  0  0  0  0  0  0  0  0
  147.8605  139.4069  153.8826 C   0  0  0  0  0  0  0  0  0  0  0  0
  148.1188  140.9058  154.0837 C   0  0  0  0  0  0  0  0  0  0  0  0
  149.2060  141.3159  153.2831 O   0  0  0  0  0  0  0  0  0  0  0  0
  150.9888  141.1733  156.9353 N   0  0  0  0  0  0  0  0  0  0  0  0
  151.4798  142.1781  157.7762 O   0  0  0  0  0  0  0  0  0  0  0  0
  153.2126  141.9328  160.6252 H   0  0  0  0  0  0  0  0  0  0  0  0
  151.9892  143.1492  160.2556 H   0  0  0  0  0  0  0  0  0  0  0  0
  153.5139  143.1325  159.3663 H   0  0  0  0  0  0  0  0  0  0  0  0
  152.5561  139.4973  159.3278 H   0  0  0  0  0  0  0  0  0  0  0  0
  151.4122  137.8757  157.3566 H   0  0  0  0  0  0  0  0  0  0  0  0
  149.9167  138.6071  156.7793 H   0  0  0  0  0  0  0  0  0  0  0  0
  150.5249  139.2500  153.1783 H   0  0  0  0  0  0  0  0  0  0  0  0
  149.0366  137.5836  153.8692 H   0  0  0  0  0  0  0  0  0  0  0  0
  148.9042  138.3328  155.4540 H   0  0  0  0  0  0  0  0  0  0  0  0
  147.6936  139.2059  152.8231 H   0  0  0  0  0  0  0  0  0  0  0  0
  146.9424  139.1242  154.4003 H   0  0  0  0  0  0  0  0  0  0  0  0
  147.2377  141.4883  153.8119 H   0  0  0  0  0  0  0  0  0  0  0  0
  148.3449  141.1215  155.1285 H   0  0  0  0  0  0  0  0  0  0  0  0
  149.4966  140.5780  152.7689 H   0  0  0  0  0  0  0  0  0  0  0  0
  1  2  1  0  0  0  0
  1 16  1  0  0  0  0
  1 17  1  0  0  0  0
  1 18  1  0  0  0  0
  2 15  1  0  0  0  0
  2  3  2  0  0  0  0
  3  4  1  0  0  0  0
  3 19  1  0  0  0  0
  4  5  1  0  0  0  0
  4 14  2  0  0  0  0
  5  6  1  0  0  0  0
  5 20  1  0  0  0  0
  5 21  1  0  0  0  0
  6  7  2  0  0  0  0
  6  8  2  0  0  0  0
  6  9  1  0  0  0  0
  9 10  1  0  0  0  0
  9 22  1  0  0  0  0
 10 11  1  0  0  0  0
 10 23  1  0  0  0  0
 10 24  1  0  0  0  0
 11 12  1  0  0  0  0
 11 25  1  0  0  0  0
 11 26  1  0  0  0  0
 12 13  1  0  0  0  0
 12 27  1  0  0  0  0
 12 28  1  0  0  0  0
 13 29  1  0  0  0  0
 14 15  1  0  0  0  0
M  END
> <s_m_source_file>
AV-unprocessed.smi

> <i_m_source_file_index>
2843

> <i_lp_mmshare_version>
43012

> <i_f3d_flags>
0

> <s_epik_input>
W0NIM11jMVtjSF1jKG5vMSlbQ0gyXVMoPU8pKD1PKVtOSF1bQ0gyXVtDSDJdW0NIMl1bT0hd

> <s_epik_cmdline>
J2VwaWtfcHl0aG9uJywgJy1waCcsICc3LjAnLCAnLXRuJywgJzgnLCAnLW1hJywgJzIwMCcsICctbWV0YWxfYmluZGluZycsICctaW1hZScsICc8aW5maWxlLm1hZT4nLCAnLW9tYWUnLCAnPG91dGZpbGUubWFlPic=

> <r_lp_tautomer_probability>
1

> <r_epik_Ionization_Penalty>
0.000153409

> <r_epik_Ionization_Penalty_Charging>
0

> <r_epik_Ionization_Penalty_Neutral>
0.000153409

> <r_epik_State_Penalty>
-0

> <r_epik_Charging_Adjusted_Penalty>
0

> <i_epik_Tot_Q>
0

> <i_epik_Tot_abs_Q>
0

> <r_epik_Metal_State_Penalty>
0.110712

> <b_epik_Metal_Only>
0

> <s_lp_Force_Field>
OPLS_2005

> <r_lp_Energy>
-3.16936

> <b_lp_Chiralities_Consistent>
1

> <s_lp_Variant>
AV-unprocessed.smi:2843-1

> <Gold.Version>
5.8.1

> <Gold.Id.Protein>
6NUR|6NUR_protein|mol2

> <Gold.PLP.Fitness>
38.5208

> <Gold.PLP.PLP>
-27.6477

> <Gold.PLP.part.hbond>
-7.3116

> <Gold.PLP.part.metal>
0.0000

> <Gold.PLP.part.buried>
-2.4657

> <Gold.PLP.part.nonpolar>
-17.3934

> <Gold.PLP.part.repulsive>
0.2288

> <Gold.PLP.ligand.clash>
0.0000

> <Gold.PLP.ligand.torsion>
0.8535

> <Gold.PLP.Chemscore.Hbond>
4.1377

> <Gold.PLP.Chemscore.CHOScore>
0.0000

> <Gold.PLP.Chemscore.Metal>
0.0000

> <Gold.Chemscore.Hbonds>
donor molecule, donor type, donor heavy atom, donor atom, acceptor molecule, acceptor atom, score
      L1  H     9    22       P1  7957  0.18
      L1  H    13    29       P1  7957  0.82
      P1  H  7989  7998       L1     7  0.35
      P1  H  7997  8008       L1     7  0.98
      P1  H  8011  8017       L1    13  0.80
      P1  H 10752 10763       L1     8  0.91

> <Gold.PLP.Chemscore.Internal.Correction>
0.1670

> <Gold.Rescore>
     Score         DG    S(hbond)    S(metal)    S(lipo)     H(rot)  DE(clash)    DE(int)     intcor
     13.69     -14.67       3.22        0.00      54.34       3.09       0.01       0.97       ----

> <Gold.Chemscore.Fitness>
13.6894

> <Gold.Chemscore.DG>
-14.6701

> <Gold.Chemscore.ZeroCoef>
-5.4800

> <Gold.Chemscore.Hbond>
3.2192

> <Gold.Chemscore.Metal>
0.0000

> <Gold.Chemscore.Lipo>
54.3378

> <Gold.Chemscore.Internal_Hbond>
0.0000

> <Gold.Chemscore.DEClash>
0.0134

> <Gold.Chemscore.DEInternal>
0.9673

> <Gold.Chemscore.Rot>
3.0935

> <Gold.Chemscore.Internal.Correction>
   9.000000E+99

> <Gold.Chemscore.Hbonds>
donor molecule, donor type, donor heavy atom, donor atom, acceptor molecule, acceptor atom, score
      L1  H     9    22       P1  7957  0.16
      L1  H    13    29       P1  7957  0.81
      P1  H  7989  7998       L1     7  0.05
      P1  H  7997  8008       L1     7  0.91
      P1  H  8011  8017       L1    13  0.11
      P1  H 10752 10763       L1     8  0.87

> <Gold.Chemscore.Hbond.Weighted>
-10.7520

> <Gold.Chemscore.Metal.Weighted>
-0.0000

> <Gold.Chemscore.Lipo.Weighted>
-6.3575

> <Gold.Chemscore.Internal_Hbond.Weighted>
0.0000

> <Gold.Chemscore.DEClash.Weighted>
0.0134

> <Gold.Chemscore.DEInternal.Weighted>
0.9673

> <Gold.Chemscore.Rot.Weighted>
7.9195

> <Gold.Chemscore.Internal.Correction.Weighted>
   9.000000E+99

> <Gold.Protein.RotatedTorsions>
[ 6907 6896 6895 6894 ] final   46.43 input  -60.11 | X-H torsion
[ 7974 7965 7964 7962 ] final  125.33 input  175.53 | X-H torsion
[ 8008 7997 7996 7995 ] final  -12.35 input   59.86 | X-H torsion
[ 10167 10162 10161 10158 ] final  -54.62 input  -65.29 | X-H torsion
[ 10718 10713 10712 10709 ] final  126.64 input   66.30 | X-H torsion
[ 10763 10752 10751 10750 ] final   45.35 input  -60.55 | X-H torsion
[ 11005 11000 10999 10996 ] final   59.69 input  -57.11 | X-H torsion

> <Gold.Protein.ActiveResidues>
 VAL166  LYS551  ARG553  GLY616  TRP617  ASP618  TYR619  PRO620  LYS621  CYS622 
 ASP623  PHE694  ASN695  SER759  ASP760  ASP761  ALA762  ILE779  LEU786  VAL792 
 PHE793  MET794  SER795  GLU796  ALA797  LYS798  CYS799  TRP800  GLU811  SER814 

> <Gold.Protein.RotatedAtoms>
  152.2563  134.8081  160.0437 H   0  0  0  0  0  0  0  0  0  0  0  0  # atno 6907 bound_to 6896
  151.8743  133.3477  159.3753 H   0  0  0  0  0  0  0  0  0  0  0  0  # atno 6908 bound_to 6896
  150.7101  134.5008  159.5605 H   0  0  0  0  0  0  0  0  0  0  0  0  # atno 6909 bound_to 6896
  145.0742  139.3706  143.4942 H   0  0  0  0  0  0  0  0  0  0  0  0  # atno 7974 bound_to 7965
  154.5385  140.2278  155.8682 H   0  0  0  0  0  0  0  0  0  0  0  0  # atno 8008 bound_to 7997
  156.1835  140.3094  155.9156 H   0  0  0  0  0  0  0  0  0  0  0  0  # atno 8009 bound_to 7997
  155.3306  140.0445  157.3033 H   0  0  0  0  0  0  0  0  0  0  0  0  # atno 8010 bound_to 7997
  140.6420  143.2513  151.4962 H   0  0  0  0  0  0  0  0  0  0  0  0  # atno 10167 bound_to 10162
  157.5401  131.1097  150.8872 H   0  0  0  0  0  0  0  0  0  0  0  0  # atno 10718 bound_to 10713
  152.9826  135.6042  154.3422 H   0  0  0  0  0  0  0  0  0  0  0  0  # atno 10763 bound_to 10752
  154.3118  135.2771  155.2564 H   0  0  0  0  0  0  0  0  0  0  0  0  # atno 10764 bound_to 10752
  154.4770  135.5927  153.6418 H   0  0  0  0  0  0  0  0  0  0  0  0  # atno 10765 bound_to 10752
  140.0285  134.6047  155.9539 H   0  0  0  0  0  0  0  0  0  0  0  0  # atno 11005 bound_to 11000
  146.3529  140.0501  142.8636 LP  0  0  0  0  0  0  0  0  0  0  0  0  # atno 17320 bound_to 7965
  145.1256  140.9488  143.4575 LP  0  0  0  0  0  0  0  0  0  0  0  0  # atno 17321 bound_to 7965
  139.5630  144.2111  152.1721 LP  0  0  0  0  0  0  0  0  0  0  0  0  # atno 17342 bound_to 10162
  140.1384  144.5224  150.6759 LP  0  0  0  0  0  0  0  0  0  0  0  0  # atno 17343 bound_to 10162
  156.9427  130.5390  149.5280 LP  0  0  0  0  0  0  0  0  0  0  0  0  # atno 17370 bound_to 10713
  156.0490  130.5562  150.8946 LP  0  0  0  0  0  0  0  0  0  0  0  0  # atno 17371 bound_to 10713
  141.1817  133.6548  156.5048 LP  0  0  0  0  0  0  0  0  0  0  0  0  # atno 17394 bound_to 11000
  140.4265  134.7140  157.4919 LP  0  0  0  0  0  0  0  0  0  0  0  0  # atno 17395 bound_to 11000

$$$$
