AV-unprocessed.smi:639|AV-procd|sdf|3148|dock3
  -GOLD-   22720 0 73D 1   1.00000     0.00000
 Structure written by MMmdl.
 23 24  0  0  0  0  0  0  0  0  2 V2000
  152.9612  142.8917  160.4563 C   0  0  0  0  0  0  0  0  0  0  0  0
  152.3441  142.4865  159.2117 N   0  0  0  0  0  0  0  0  0  0  0  0
  152.3114  141.2358  158.6349 C   0  0  0  0  0  0  0  0  0  0  0  0
  151.6162  141.3353  157.4596 C   0  0  0  0  0  0  0  0  0  0  0  0
  151.2938  140.2624  156.4339 C   0  0  1  0  0  0  0  0  0  0  0  0
  150.4549  140.8357  155.2751 C   0  0  0  0  0  0  0  0  0  0  0  0
  152.4838  139.6104  155.9051 N   0  5  0  0  0  0  0  0  0  0  0  0
  152.4584  138.3028  156.2570 C   0  0  0  0  0  0  0  0  0  0  0  0
  153.2946  137.4388  156.0031 O   0  0  0  0  0  0  0  0  0  0  0  0
  151.3536  138.0240  156.9552 N   0  0  0  0  0  0  0  0  0  0  0  0
  150.5836  139.0968  157.1084 C   0  0  0  0  0  0  0  0  0  0  0  0
  149.4955  139.1548  157.6811 O   0  0  0  0  0  0  0  0  0  0  0  0
  151.2661  142.7178  157.4146 C   0  0  0  0  0  0  0  0  0  0  0  0
  151.6988  143.4012  158.4614 N   0  0  0  0  0  0  0  0  0  0  0  0
  153.4255  142.0321  160.9405 H   0  0  0  0  0  0  0  0  0  0  0  0
  152.2074  143.3103  161.1236 H   0  0  0  0  0  0  0  0  0  0  0  0
  153.7261  143.6439  160.2606 H   0  0  0  0  0  0  0  0  0  0  0  0
  152.7818  140.3828  159.1017 H   0  0  0  0  0  0  0  0  0  0  0  0
  149.5200  141.2680  155.6336 H   0  0  0  0  0  0  0  0  0  0  0  0
  150.2001  140.0685  154.5424 H   0  0  0  0  0  0  0  0  0  0  0  0
  150.9981  141.6224  154.7500 H   0  0  0  0  0  0  0  0  0  0  0  0
  151.1264  137.1074  157.3102 H   0  0  0  0  0  0  0  0  0  0  0  0
  150.7087  143.2405  156.6513 H   0  0  0  0  0  0  0  0  0  0  0  0
  1  2  1  0  0  0  0
  1 15  1  0  0  0  0
  1 16  1  0  0  0  0
  1 17  1  0  0  0  0
  2 14  1  0  0  0  0
  2  3  1  0  0  0  0
  3  4  2  0  0  0  0
  3 18  1  0  0  0  0
  4  5  1  0  0  0  0
  4 13  1  0  0  0  0
  5 11  1  0  0  0  0
  5  6  1  0  0  0  0
  5  7  1  0  0  0  0
  6 19  1  0  0  0  0
  6 20  1  0  0  0  0
  6 21  1  0  0  0  0
  7  8  1  0  0  0  0
  8  9  2  0  0  0  0
  8 10  1  0  0  0  0
 10 11  1  0  0  0  0
 10 22  1  0  0  0  0
 11 12  2  0  0  0  0
 13 14  2  0  0  0  0
 13 23  1  0  0  0  0
M  CHG  1   7  -1
M  END
> <s_m_source_file>
AV-unprocessed.smi

> <i_m_source_file_index>
639

> <i_lp_mmshare_version>
43012

> <i_f3d_flags>
0

> <s_epik_input>
W0NIM11uMVtjSF1jKFtjSF1uMSlbQ0BAXTIoW0NIM10pW05IXUMoPU8pW05IXUMyPU8=

> <s_epik_cmdline>
J2VwaWtfcHl0aG9uJywgJy1waCcsICc3LjAnLCAnLXRuJywgJzgnLCAnLW1hJywgJzIwMCcsICctbWV0YWxfYmluZGluZycsICctaW1hZScsICc8aW5maWxlLm1hZT4nLCAnLW9tYWUnLCAnPG91dGZpbGUubWFlPic=

> <r_lp_tautomer_probability>
1

> <r_epik_Ionization_Penalty>
4.83415

> <r_epik_Ionization_Penalty_Charging>
4.8337

> <r_epik_Ionization_Penalty_Neutral>
0.000449923

> <r_epik_State_Penalty>
4.85653

> <r_epik_Charging_Adjusted_Penalty>
9.69023

> <i_epik_Tot_Q>
-1

> <i_epik_Tot_abs_Q>
1

> <r_epik_Metal_State_Penalty>
1.31841

> <b_epik_Metal_Only>
1

> <s_lp_Force_Field>
OPLS_2005

> <r_lp_Energy>
8.78459

> <b_lp_Chiralities_Consistent>
1

> <s_lp_Variant>
AV-unprocessed.smi:639-5

> <Gold.Version>
5.8.1

> <Gold.Id.Protein>
6NUR|6NUR_protein|mol2

> <Gold.PLP.Fitness>
32.8385

> <Gold.PLP.PLP>
-22.9514

> <Gold.PLP.part.hbond>
-2.0000

> <Gold.PLP.part.metal>
0.0000

> <Gold.PLP.part.buried>
-2.8811

> <Gold.PLP.part.nonpolar>
-17.9723

> <Gold.PLP.part.repulsive>
0.1025

> <Gold.PLP.ligand.clash>
0.0000

> <Gold.PLP.ligand.torsion>
0.0357

> <Gold.PLP.Chemscore.Hbond>
2.3019

> <Gold.PLP.Chemscore.CHOScore>
0.9983

> <Gold.PLP.Chemscore.Metal>
0.0000

> <Gold.Chemscore.Hbonds>
donor molecule, donor type, donor heavy atom, donor atom, acceptor molecule, acceptor atom, score
      P1  H  7997  8008       L1     7  2.00
      P1  H 10752 10764       L1     9  0.33
      L1  C    13    23       P1  8028  0.98

> <Gold.PLP.Chemscore.Internal.Correction>
0.0579

> <Gold.Rescore>
     Score         DG    S(hbond)    S(metal)    S(lipo)     H(rot)  DE(clash)    DE(int)     intcor
     14.01     -14.08       1.68        0.00      47.58       1.00       0.04       0.03       ----

> <Gold.Chemscore.Fitness>
14.0117

> <Gold.Chemscore.DG>
-14.0849

> <Gold.Chemscore.ZeroCoef>
-5.4800

> <Gold.Chemscore.Hbond>
1.6762

> <Gold.Chemscore.Metal>
0.0000

> <Gold.Chemscore.Lipo>
47.5770

> <Gold.Chemscore.Internal_Hbond>
0.0000

> <Gold.Chemscore.DEClash>
0.0402

> <Gold.Chemscore.DEInternal>
0.0330

> <Gold.Chemscore.Rot>
1.0000

> <Gold.Chemscore.Internal.Correction>
   9.000000E+99

> <Gold.Chemscore.Hbonds>
donor molecule, donor type, donor heavy atom, donor atom, acceptor molecule, acceptor atom, score
      P1  H  7997  8008       L1     7  0.49
      P1  H 10752 10764       L1     9  0.32

> <Gold.Chemscore.Hbond.Weighted>
-5.5984

> <Gold.Chemscore.Metal.Weighted>
-0.0000

> <Gold.Chemscore.Lipo.Weighted>
-5.5665

> <Gold.Chemscore.Internal_Hbond.Weighted>
0.0000

> <Gold.Chemscore.DEClash.Weighted>
0.0402

> <Gold.Chemscore.DEInternal.Weighted>
0.0330

> <Gold.Chemscore.Rot.Weighted>
2.5600

> <Gold.Chemscore.Internal.Correction.Weighted>
   9.000000E+99

> <Gold.Protein.RotatedTorsions>
[ 6907 6896 6895 6894 ] final   51.54 input  -60.11 | X-H torsion
[ 7974 7965 7964 7962 ] final  -64.24 input  175.53 | X-H torsion
[ 8008 7997 7996 7995 ] final  -32.15 input   59.86 | X-H torsion
[ 10167 10162 10161 10158 ] final    2.03 input  -65.29 | X-H torsion
[ 10718 10713 10712 10709 ] final   -5.54 input   66.30 | X-H torsion
[ 10763 10752 10751 10750 ] final  -11.04 input  -60.55 | X-H torsion
[ 11005 11000 10999 10996 ] final -160.35 input  -57.11 | X-H torsion

> <Gold.Protein.ActiveResidues>
 VAL166  LYS551  ARG553  GLY616  TRP617  ASP618  TYR619  PRO620  LYS621  CYS622 
 ASP623  PHE694  ASN695  SER759  ASP760  ASP761  ALA762  ILE779  LEU786  VAL792 
 PHE793  MET794  SER795  GLU796  ALA797  LYS798  CYS799  TRP800  GLU811  SER814 

> <Gold.Protein.RotatedAtoms>
  152.3137  134.7466  160.0330 H   0  0  0  0  0  0  0  0  0  0  0  0  # atno 6907 bound_to 6896
  151.7937  133.3357  159.3515 H   0  0  0  0  0  0  0  0  0  0  0  0  # atno 6908 bound_to 6896
  150.7333  134.5749  159.5953 H   0  0  0  0  0  0  0  0  0  0  0  0  # atno 6909 bound_to 6896
  145.7692  140.8821  143.0389 H   0  0  0  0  0  0  0  0  0  0  0  0  # atno 7974 bound_to 7965
  154.4189  140.1745  156.1681 H   0  0  0  0  0  0  0  0  0  0  0  0  # atno 8008 bound_to 7997
  155.9783  140.3380  155.6615 H   0  0  0  0  0  0  0  0  0  0  0  0  # atno 8009 bound_to 7997
  155.6534  140.0693  157.2570 H   0  0  0  0  0  0  0  0  0  0  0  0  # atno 8010 bound_to 7997
  140.6655  143.7191  150.7818 H   0  0  0  0  0  0  0  0  0  0  0  0  # atno 10167 bound_to 10162
  156.7450  130.5221  149.5816 H   0  0  0  0  0  0  0  0  0  0  0  0  # atno 10718 bound_to 10713
  153.4779  135.7017  153.5955 H   0  0  0  0  0  0  0  0  0  0  0  0  # atno 10763 bound_to 10752
  153.4181  135.3832  155.2093 H   0  0  0  0  0  0  0  0  0  0  0  0  # atno 10764 bound_to 10752
  154.8723  135.3921  154.4225 H   0  0  0  0  0  0  0  0  0  0  0  0  # atno 10765 bound_to 10752
  140.6324  134.4637  157.5230 H   0  0  0  0  0  0  0  0  0  0  0  0  # atno 11005 bound_to 11000
  144.6816  139.9831  143.7483 LP  0  0  0  0  0  0  0  0  0  0  0  0  # atno 17320 bound_to 7965
  146.0187  139.3232  143.0826 LP  0  0  0  0  0  0  0  0  0  0  0  0  # atno 17321 bound_to 7965
  140.0868  143.4916  152.2500 LP  0  0  0  0  0  0  0  0  0  0  0  0  # atno 17342 bound_to 10162
  139.5902  144.7547  151.3420 LP  0  0  0  0  0  0  0  0  0  0  0  0  # atno 17343 bound_to 10162
  156.1439  130.6263  151.0505 LP  0  0  0  0  0  0  0  0  0  0  0  0  # atno 17370 bound_to 10713
  157.6802  131.0840  150.7390 LP  0  0  0  0  0  0  0  0  0  0  0  0  # atno 17371 bound_to 10713
  139.9111  134.8343  156.1526 LP  0  0  0  0  0  0  0  0  0  0  0  0  # atno 17394 bound_to 11000
  141.0665  133.6816  156.2056 LP  0  0  0  0  0  0  0  0  0  0  0  0  # atno 17395 bound_to 11000

$$$$
