AV-unprocessed.smi:2237|AV-procd|sdf|9050|dock2
  -GOLD-   2272012253D 1   1.00000     0.00000
 Structure written by MMmdl.
 54 56  0  0  0  0  0  0  0  0  2 V2000
  153.7831  141.2157  159.9718 C   0  0  0  0  0  0  0  0  0  0  0  0
  152.9637  142.3794  159.4545 C   0  0  0  0  0  0  0  0  0  0  0  0
  153.1016  143.6673  160.0083 C   0  0  0  0  0  0  0  0  0  0  0  0
  152.3114  144.7039  159.4804 C   0  0  0  0  0  0  0  0  0  0  0  0
  151.4225  144.4124  158.4278 C   0  0  0  0  0  0  0  0  0  0  0  0
  151.3435  143.0921  157.9301 C   0  0  0  0  0  0  0  0  0  0  0  0
  150.4177  142.9027  156.8700 N   0  0  0  0  0  0  0  0  0  0  0  0
  150.1735  141.7806  156.1702 C   0  0  0  0  0  0  0  0  0  0  0  0
  150.7307  140.6962  156.3444 O   0  0  0  0  0  0  0  0  0  0  0  0
  149.2270  141.9843  155.2424 N   0  0  0  0  0  0  0  0  0  0  0  0
  148.7109  140.9672  154.3315 C   0  0  0  0  0  0  0  0  0  0  0  0
  147.3497  141.3745  153.7563 C   0  0  0  0  0  0  0  0  0  0  0  0
  146.7527  140.2455  152.8987 C   0  0  0  0  0  0  0  0  0  0  0  0
  146.5706  139.0026  153.6693 N   0  0  0  0  0  0  0  0  0  0  0  0
  145.9222  137.9553  152.8470 C   0  0  2  0  0  0  0  0  0  0  0  0
  146.0943  136.5505  153.4880 C   0  0  0  0  0  0  0  0  0  0  0  0
  145.5438  135.4197  152.6046 C   0  0  0  0  0  0  0  0  0  0  0  0
  146.1745  135.4340  151.2666 N   0  3  1  0  0  0  0  0  0  0  0  0
  145.7697  134.2786  150.4375 C   0  0  0  0  0  0  0  0  0  0  0  0
  145.9468  136.7268  150.5844 C   0  0  0  0  0  0  0  0  0  0  0  0
  146.5093  137.8947  151.4100 C   0  0  0  0  0  0  0  0  0  0  0  0
  147.8921  138.5776  154.1630 C   0  0  0  0  0  0  0  0  0  0  0  0
  148.5350  139.6395  155.0720 C   0  0  0  0  0  0  0  0  0  0  0  0
  152.1105  142.0994  158.4459 N   0  0  0  0  0  0  0  0  0  0  0  0
  154.4584  141.5299  160.7681 H   0  0  0  0  0  0  0  0  0  0  0  0
  154.3815  140.7861  159.1677 H   0  0  0  0  0  0  0  0  0  0  0  0
  153.1291  140.4379  160.3668 H   0  0  0  0  0  0  0  0  0  0  0  0
  153.7934  143.8589  160.8154 H   0  0  0  0  0  0  0  0  0  0  0  0
  152.3848  145.7063  159.8756 H   0  0  0  0  0  0  0  0  0  0  0  0
  150.8079  145.1974  158.0112 H   0  0  0  0  0  0  0  0  0  0  0  0
  149.8732  143.7146  156.6198 H   0  0  0  0  0  0  0  0  0  0  0  0
  148.8251  142.9073  155.1671 H   0  0  0  0  0  0  0  0  0  0  0  0
  149.4206  140.8193  153.5148 H   0  0  0  0  0  0  0  0  0  0  0  0
  146.6589  141.6226  154.5637 H   0  0  0  0  0  0  0  0  0  0  0  0
  147.4526  142.2755  153.1506 H   0  0  0  0  0  0  0  0  0  0  0  0
  145.8040  140.6215  152.5250 H   0  0  0  0  0  0  0  0  0  0  0  0
  147.3858  140.0565  152.0303 H   0  0  0  0  0  0  0  0  0  0  0  0
  144.8568  138.1803  152.7734 H   0  0  0  0  0  0  0  0  0  0  0  0
  147.1496  136.3660  153.6950 H   0  0  0  0  0  0  0  0  0  0  0  0
  145.5718  136.4759  154.4397 H   0  0  0  0  0  0  0  0  0  0  0  0
  145.7333  134.4596  153.0864 H   0  0  0  0  0  0  0  0  0  0  0  0
  144.4614  135.5149  152.5024 H   0  0  0  0  0  0  0  0  0  0  0  0
  144.6981  134.2980  150.2350 H   0  0  0  0  0  0  0  0  0  0  0  0
  146.0060  133.3410  150.9418 H   0  0  0  0  0  0  0  0  0  0  0  0
  146.2986  134.2850  149.4839 H   0  0  0  0  0  0  0  0  0  0  0  0
  146.4266  136.7116  149.6050 H   0  0  0  0  0  0  0  0  0  0  0  0
  144.8784  136.8681  150.4120 H   0  0  0  0  0  0  0  0  0  0  0  0
  146.2827  138.8011  150.8507 H   0  0  0  0  0  0  0  0  0  0  0  0
  147.5968  137.8152  151.4565 H   0  0  0  0  0  0  0  0  0  0  0  0
  147.8119  137.6773  154.7678 H   0  0  0  0  0  0  0  0  0  0  0  0
  148.5501  138.3468  153.3237 H   0  0  0  0  0  0  0  0  0  0  0  0
  149.5016  139.2814  155.4282 H   0  0  0  0  0  0  0  0  0  0  0  0
  147.9124  139.7820  155.9569 H   0  0  0  0  0  0  0  0  0  0  0  0
  147.1709  135.3510  151.4119 H   0  0  0  0  0  0  0  0  0  0  0  0
  1  2  1  0  0  0  0
  1 25  1  0  0  0  0
  1 26  1  0  0  0  0
  1 27  1  0  0  0  0
  2 24  1  0  0  0  0
  2  3  2  0  0  0  0
  3  4  1  0  0  0  0
  3 28  1  0  0  0  0
  4  5  2  0  0  0  0
  4 29  1  0  0  0  0
  5  6  1  0  0  0  0
  5 30  1  0  0  0  0
  6  7  1  0  0  0  0
  6 24  2  0  0  0  0
  7  8  1  0  0  0  0
  7 31  1  0  0  0  0
  8  9  2  0  0  0  0
  8 10  1  0  0  0  0
 10 11  1  0  0  0  0
 10 32  1  0  0  0  0
 11 23  1  0  0  0  0
 11 12  1  0  0  0  0
 11 33  1  0  0  0  0
 12 13  1  0  0  0  0
 12 34  1  0  0  0  0
 12 35  1  0  0  0  0
 13 14  1  0  0  0  0
 13 36  1  0  0  0  0
 13 37  1  0  0  0  0
 14 15  1  0  0  0  0
 14 22  1  0  0  0  0
 15 21  1  0  0  0  0
 15 16  1  0  0  0  0
 15 38  1  0  0  0  0
 16 17  1  0  0  0  0
 16 39  1  0  0  0  0
 16 40  1  0  0  0  0
 17 18  1  0  0  0  0
 17 41  1  0  0  0  0
 17 42  1  0  0  0  0
 18 19  1  0  0  0  0
 18 20  1  0  0  0  0
 18 54  1  0  0  0  0
 19 43  1  0  0  0  0
 19 44  1  0  0  0  0
 19 45  1  0  0  0  0
 20 21  1  0  0  0  0
 20 46  1  0  0  0  0
 20 47  1  0  0  0  0
 21 48  1  0  0  0  0
 21 49  1  0  0  0  0
 22 23  1  0  0  0  0
 22 50  1  0  0  0  0
 22 51  1  0  0  0  0
 23 52  1  0  0  0  0
 23 53  1  0  0  0  0
M  CHG  1  18   1
M  END
> <s_m_source_file>
AV-unprocessed.smi

> <i_m_source_file_index>
2237

> <i_lp_mmshare_version>
43012

> <i_f3d_flags>
0

> <s_epik_input>
W0NIM11jMVtjSF1bY0hdW2NIXWMobjEpW05IXUMoPU8pW05IXVtDSF0yW0NIMl1bQ0gyXU4oW0NIMl1bQ0gyXTIpW0NIXTNbQ0gyXVtDSDJdTihbQ0gzXSlbQ0gyXVtDSDJdMw==

> <s_epik_cmdline>
J2VwaWtfcHl0aG9uJywgJy1waCcsICc3LjAnLCAnLXRuJywgJzgnLCAnLW1hJywgJzIwMCcsICctbWV0YWxfYmluZGluZycsICctaW1hZScsICc8aW5maWxlLm1hZT4nLCAnLW9tYWUnLCAnPG91dGZpbGUubWFlPic=

> <r_epik_Ionization_Penalty>
1.00983

> <r_epik_Ionization_Penalty_Charging>
0.000974969

> <r_epik_Ionization_Penalty_Neutral>
1.00886

> <r_epik_State_Penalty>
1.10286

> <r_epik_Charging_Adjusted_Penalty>
1.10383

> <i_epik_Tot_Q>
1

> <i_epik_Tot_abs_Q>
1

> <r_epik_Metal_State_Penalty>
1.10284

> <b_epik_Metal_Only>
0

> <s_lp_Force_Field>
OPLS_2005

> <r_lp_Energy>
33.8519

> <b_lp_Chiralities_Consistent>
1

> <s_lp_Variant>
AV-unprocessed.smi:2237-5

> <Gold.Version>
5.8.1

> <Gold.Id.Protein>
6NUR|6NUR_protein|mol2

> <Gold.PLP.Fitness>
53.4126

> <Gold.PLP.PLP>
-42.6322

> <Gold.PLP.part.hbond>
-3.0000

> <Gold.PLP.part.metal>
0.0000

> <Gold.PLP.part.buried>
0.9285

> <Gold.PLP.part.nonpolar>
-41.9879

> <Gold.PLP.part.repulsive>
0.5030

> <Gold.PLP.ligand.clash>
0.0403

> <Gold.PLP.ligand.torsion>
0.5557

> <Gold.PLP.Chemscore.Hbond>
3.9760

> <Gold.PLP.Chemscore.CHOScore>
0.0000

> <Gold.PLP.Chemscore.Metal>
0.0000

> <Gold.Chemscore.Hbonds>
donor molecule, donor type, donor heavy atom, donor atom, acceptor molecule, acceptor atom, score
      L1  H     7    31       P1  8028  1.00
      L1  H    10    32       P1  8028  0.99
      L1  H    18    54       P1  7948  2.00

> <Gold.PLP.Chemscore.Internal.Correction>
0.0040

> <Gold.Rescore>
     Score         DG    S(hbond)    S(metal)    S(lipo)     H(rot)  DE(clash)    DE(int)     intcor
     21.01     -26.53       2.80        0.00     126.63       1.22       2.27       3.26       ----

> <Gold.Chemscore.Fitness>
21.0060

> <Gold.Chemscore.DG>
-26.5313

> <Gold.Chemscore.ZeroCoef>
-5.4800

> <Gold.Chemscore.Hbond>
2.8003

> <Gold.Chemscore.Metal>
0.0000

> <Gold.Chemscore.Lipo>
126.6344

> <Gold.Chemscore.Internal_Hbond>
0.0000

> <Gold.Chemscore.DEClash>
2.2680

> <Gold.Chemscore.DEInternal>
3.2574

> <Gold.Chemscore.Rot>
1.2179

> <Gold.Chemscore.Internal.Correction>
   9.000000E+99

> <Gold.Chemscore.Hbonds>
donor molecule, donor type, donor heavy atom, donor atom, acceptor molecule, acceptor atom, score
      L1  H     7    31       P1  8028  0.99
      L1  H    10    32       P1  8028  0.93
      L1  H    18    54       P1  7948  0.85

> <Gold.Chemscore.Hbond.Weighted>
-9.3528

> <Gold.Chemscore.Metal.Weighted>
-0.0000

> <Gold.Chemscore.Lipo.Weighted>
-14.8162

> <Gold.Chemscore.Internal_Hbond.Weighted>
0.0000

> <Gold.Chemscore.DEClash.Weighted>
2.2680

> <Gold.Chemscore.DEInternal.Weighted>
3.2574

> <Gold.Chemscore.Rot.Weighted>
3.1177

> <Gold.Chemscore.Internal.Correction.Weighted>
   9.000000E+99

> <Gold.Protein.RotatedTorsions>
[ 6907 6896 6895 6894 ] final   80.77 input  -60.11 | X-H torsion
[ 7974 7965 7964 7962 ] final    8.76 input  175.53 | X-H torsion
[ 8008 7997 7996 7995 ] final  106.98 input   59.86 | X-H torsion
[ 10167 10162 10161 10158 ] final  -45.36 input  -65.29 | X-H torsion
[ 10718 10713 10712 10709 ] final  -51.83 input   66.30 | X-H torsion
[ 10763 10752 10751 10750 ] final   39.33 input  -60.55 | X-H torsion
[ 11005 11000 10999 10996 ] final   12.72 input  -57.11 | X-H torsion

> <Gold.Protein.ActiveResidues>
 VAL166  LYS551  ARG553  GLY616  TRP617  ASP618  TYR619  PRO620  LYS621  CYS622 
 ASP623  PHE694  ASN695  SER759  ASP760  ASP761  ALA762  ILE779  LEU786  VAL792 
 PHE793  MET794  SER795  GLU796  ALA797  LYS798  CYS799  TRP800  GLU811  SER814 

> <Gold.Protein.RotatedAtoms>
  152.5246  134.3307  159.9181 H   0  0  0  0  0  0  0  0  0  0  0  0  # atno 6907 bound_to 6896
  151.3256  133.4015  159.2666 H   0  0  0  0  0  0  0  0  0  0  0  0  # atno 6908 bound_to 6896
  150.9922  134.9272  159.7964 H   0  0  0  0  0  0  0  0  0  0  0  0  # atno 6909 bound_to 6896
  146.2412  139.9885  142.8428 H   0  0  0  0  0  0  0  0  0  0  0  0  # atno 7974 bound_to 7965
  156.1787  140.3103  155.9108 H   0  0  0  0  0  0  0  0  0  0  0  0  # atno 8008 bound_to 7997
  155.3431  140.0467  157.3062 H   0  0  0  0  0  0  0  0  0  0  0  0  # atno 8009 bound_to 7997
  154.5319  140.2233  155.8800 H   0  0  0  0  0  0  0  0  0  0  0  0  # atno 8010 bound_to 7997
  140.6861  143.2883  151.3628 H   0  0  0  0  0  0  0  0  0  0  0  0  # atno 10167 bound_to 10162
  156.1675  130.4149  149.9698 H   0  0  0  0  0  0  0  0  0  0  0  0  # atno 10718 bound_to 10713
  152.9971  135.6224  154.2447 H   0  0  0  0  0  0  0  0  0  0  0  0  # atno 10763 bound_to 10752
  154.2187  135.2797  155.2934 H   0  0  0  0  0  0  0  0  0  0  0  0  # atno 10764 bound_to 10752
  154.5547  135.5723  153.7011 H   0  0  0  0  0  0  0  0  0  0  0  0  # atno 10765 bound_to 10752
  140.4888  134.0861  155.7767 H   0  0  0  0  0  0  0  0  0  0  0  0  # atno 11005 bound_to 11000
  145.1525  140.9631  143.4424 LP  0  0  0  0  0  0  0  0  0  0  0  0  # atno 17320 bound_to 7965
  145.0191  139.3440  143.6081 LP  0  0  0  0  0  0  0  0  0  0  0  0  # atno 17321 bound_to 7965
  139.6220  144.0887  152.2400 LP  0  0  0  0  0  0  0  0  0  0  0  0  # atno 17342 bound_to 10162
  140.0335  144.6063  150.7469 LP  0  0  0  0  0  0  0  0  0  0  0  0  # atno 17343 bound_to 10162
  156.7508  130.9114  151.3637 LP  0  0  0  0  0  0  0  0  0  0  0  0  # atno 17370 bound_to 10713
  157.6779  130.9111  150.0194 LP  0  0  0  0  0  0  0  0  0  0  0  0  # atno 17371 bound_to 10713
  141.1494  133.8996  157.2135 LP  0  0  0  0  0  0  0  0  0  0  0  0  # atno 17394 bound_to 11000
  139.9781  135.0107  156.9682 LP  0  0  0  0  0  0  0  0  0  0  0  0  # atno 17395 bound_to 11000

$$$$
