AV-unprocessed.smi:829|AV-procd|sdf|3866|dock7
  -GOLD-   22720 1313D 1   1.00000     0.00000
 Structure written by MMmdl.
 49 51  0  0  0  0  0  0  0  0  2 V2000
  144.6835  139.3251  156.3747 O   0  0  0  0  0  0  0  0  0  0  0  0
  144.5933  140.0535  155.3869 C   0  0  0  0  0  0  0  0  0  0  0  0
  143.4599  140.3349  154.7202 N   0  0  0  0  0  0  0  0  0  0  0  0
  142.1329  139.8907  154.9746 C   0  0  0  0  0  0  0  0  0  0  0  0
  141.9721  138.5918  155.5003 C   0  0  0  0  0  0  0  0  0  0  0  0
  140.6702  138.1162  155.7541 C   0  0  0  0  0  0  0  0  0  0  0  0
  139.5566  138.8396  155.5148 N   0  0  0  0  0  0  0  0  0  0  0  0
  139.7104  140.0786  155.0020 C   0  0  0  0  0  0  0  0  0  0  0  0
  140.9659  140.6488  154.7104 C   0  0  0  0  0  0  0  0  0  0  0  0
  145.6475  140.6659  154.8280 N   0  0  0  0  0  0  0  0  0  0  0  0
  147.0262  140.5566  155.2959 C   0  0  2  0  0  0  0  0  0  0  0  0
  147.2001  141.2490  156.6600 C   0  0  0  0  0  0  0  0  0  0  0  0
  148.6699  141.2266  157.1126 C   0  0  0  0  0  0  0  0  0  0  0  0
  149.5561  141.8430  156.0917 N   0  3  1  0  0  0  0  0  0  0  0  0
  150.9642  141.9730  156.5478 C   0  0  0  0  0  0  0  0  0  0  0  0
  151.0581  142.6232  157.9412 C   0  0  0  0  0  0  0  0  0  0  0  0
  151.6599  144.0315  157.9647 C   0  0  0  0  0  0  0  0  0  0  0  0
  152.0921  144.2513  159.4174 C   0  0  0  0  0  0  0  0  0  0  0  0
  152.3292  142.8537  160.0086 C   0  0  0  0  0  0  0  0  0  0  0  0
  151.9656  141.8534  158.9050 C   0  0  0  0  0  0  0  0  0  0  0  0
  149.4314  141.1602  154.7774 C   0  0  0  0  0  0  0  0  0  0  0  0
  147.9798  141.1927  154.2722 C   0  0  0  0  0  0  0  0  0  0  0  0
  143.5661  140.9075  153.8957 H   0  0  0  0  0  0  0  0  0  0  0  0
  142.8283  137.9673  155.7104 H   0  0  0  0  0  0  0  0  0  0  0  0
  140.5199  137.1266  156.1597 H   0  0  0  0  0  0  0  0  0  0  0  0
  138.8029  140.6330  154.8131 H   0  0  0  0  0  0  0  0  0  0  0  0
  140.9996  141.6399  154.2868 H   0  0  0  0  0  0  0  0  0  0  0  0
  145.4855  141.2441  154.0163 H   0  0  0  0  0  0  0  0  0  0  0  0
  147.2888  139.5014  155.3955 H   0  0  0  0  0  0  0  0  0  0  0  0
  146.8565  142.2827  156.5978 H   0  0  0  0  0  0  0  0  0  0  0  0
  146.5784  140.7625  157.4128 H   0  0  0  0  0  0  0  0  0  0  0  0
  148.7599  141.7711  158.0537 H   0  0  0  0  0  0  0  0  0  0  0  0
  148.9903  140.2012  157.3047 H   0  0  0  0  0  0  0  0  0  0  0  0
  151.4193  140.9835  156.6138 H   0  0  0  0  0  0  0  0  0  0  0  0
  151.5611  142.5206  155.8166 H   0  0  0  0  0  0  0  0  0  0  0  0
  150.0608  142.6651  158.3830 H   0  0  0  0  0  0  0  0  0  0  0  0
  152.5368  144.0734  157.3169 H   0  0  0  0  0  0  0  0  0  0  0  0
  150.9587  144.7945  157.6257 H   0  0  0  0  0  0  0  0  0  0  0  0
  152.9800  144.8813  159.4813 H   0  0  0  0  0  0  0  0  0  0  0  0
  151.2967  144.7525  159.9706 H   0  0  0  0  0  0  0  0  0  0  0  0
  153.3608  142.7208  160.3366 H   0  0  0  0  0  0  0  0  0  0  0  0
  151.6897  142.7070  160.8802 H   0  0  0  0  0  0  0  0  0  0  0  0
  151.4897  140.9552  159.2995 H   0  0  0  0  0  0  0  0  0  0  0  0
  152.8746  141.5418  158.3885 H   0  0  0  0  0  0  0  0  0  0  0  0
  150.0773  141.6383  154.0420 H   0  0  0  0  0  0  0  0  0  0  0  0
  149.7718  140.1274  154.8690 H   0  0  0  0  0  0  0  0  0  0  0  0
  147.9098  140.6672  153.3191 H   0  0  0  0  0  0  0  0  0  0  0  0
  147.6863  142.2259  154.0790 H   0  0  0  0  0  0  0  0  0  0  0  0
  149.2163  142.7857  155.9649 H   0  0  0  0  0  0  0  0  0  0  0  0
  1  2  2  0  0  0  0
  2  3  1  0  0  0  0
  2 10  1  0  0  0  0
  3  4  1  0  0  0  0
  3 23  1  0  0  0  0
  4  9  1  0  0  0  0
  4  5  2  0  0  0  0
  5  6  1  0  0  0  0
  5 24  1  0  0  0  0
  6  7  2  0  0  0  0
  6 25  1  0  0  0  0
  7  8  1  0  0  0  0
  8  9  2  0  0  0  0
  8 26  1  0  0  0  0
  9 27  1  0  0  0  0
 10 11  1  0  0  0  0
 10 28  1  0  0  0  0
 11 22  1  0  0  0  0
 11 12  1  0  0  0  0
 11 29  1  0  0  0  0
 12 13  1  0  0  0  0
 12 30  1  0  0  0  0
 12 31  1  0  0  0  0
 13 14  1  0  0  0  0
 13 32  1  0  0  0  0
 13 33  1  0  0  0  0
 14 15  1  0  0  0  0
 14 21  1  0  0  0  0
 14 49  1  0  0  0  0
 15 16  1  0  0  0  0
 15 34  1  0  0  0  0
 15 35  1  0  0  0  0
 16 20  1  0  0  0  0
 16 17  1  0  0  0  0
 16 36  1  0  0  0  0
 17 18  1  0  0  0  0
 17 37  1  0  0  0  0
 17 38  1  0  0  0  0
 18 19  1  0  0  0  0
 18 39  1  0  0  0  0
 18 40  1  0  0  0  0
 19 20  1  0  0  0  0
 19 41  1  0  0  0  0
 19 42  1  0  0  0  0
 20 43  1  0  0  0  0
 20 44  1  0  0  0  0
 21 22  1  0  0  0  0
 21 45  1  0  0  0  0
 21 46  1  0  0  0  0
 22 47  1  0  0  0  0
 22 48  1  0  0  0  0
M  CHG  1  14   1
M  END
> <s_m_source_file>
AV-unprocessed.smi

> <i_m_source_file_index>
829

> <i_lp_mmshare_version>
43012

> <i_f3d_flags>
0

> <s_epik_input>
W2NIXTFbY0hdbltjSF1bY0hdYzFbTkhdQyg9TylbTkhdW0NIXTJbQ0gyXVtDSDJdTihbQ0gyXVtDSDJdMilbQ0gyXVtDSF0zW0NIMl1bQ0gyXVtDSDJdW0NIMl0z

> <s_epik_cmdline>
J2VwaWtfcHl0aG9uJywgJy1waCcsICc3LjAnLCAnLXRuJywgJzgnLCAnLW1hJywgJzIwMCcsICctbWV0YWxfYmluZGluZycsICctaW1hZScsICc8aW5maWxlLm1hZT4nLCAnLW9tYWUnLCAnPG91dGZpbGUubWFlPic=

> <r_epik_Ionization_Penalty>
0.101981

> <r_epik_Ionization_Penalty_Charging>
0.00207989

> <r_epik_Ionization_Penalty_Neutral>
0.0999008

> <r_epik_State_Penalty>
0.0935668

> <r_epik_Charging_Adjusted_Penalty>
0.0956467

> <i_epik_Tot_Q>
1

> <i_epik_Tot_abs_Q>
1

> <r_epik_Metal_State_Penalty>
0.0787682

> <b_epik_Metal_Only>
0

> <s_lp_Force_Field>
OPLS_2005

> <r_lp_Energy>
43.2002

> <b_lp_Chiralities_Consistent>
1

> <s_lp_Variant>
AV-unprocessed.smi:829-1

> <Gold.Version>
5.8.1

> <Gold.Id.Protein>
6NUR|6NUR_protein|mol2

> <Gold.PLP.Fitness>
43.5557

> <Gold.PLP.PLP>
-33.8283

> <Gold.PLP.part.hbond>
-2.3520

> <Gold.PLP.part.metal>
0.0000

> <Gold.PLP.part.buried>
-4.4443

> <Gold.PLP.part.nonpolar>
-27.0258

> <Gold.PLP.part.repulsive>
0.1271

> <Gold.PLP.ligand.clash>
0.0000

> <Gold.PLP.ligand.torsion>
1.0267

> <Gold.PLP.Chemscore.Hbond>
2.9120

> <Gold.PLP.Chemscore.CHOScore>
1.0000

> <Gold.PLP.Chemscore.Metal>
0.0000

> <Gold.Chemscore.Hbonds>
donor molecule, donor type, donor heavy atom, donor atom, acceptor molecule, acceptor atom, score
      L1  H     3    23       P1 10175  0.46
      L1  H    14    49       P1  8028  2.00

> <Gold.PLP.Chemscore.Internal.Correction>
0.0447

> <Gold.Rescore>
     Score         DG    S(hbond)    S(metal)    S(lipo)     H(rot)  DE(clash)    DE(int)     intcor
     17.84     -20.28       1.99        0.00      99.17       1.35       0.10       2.34       ----

> <Gold.Chemscore.Fitness>
17.8439

> <Gold.Chemscore.DG>
-20.2836

> <Gold.Chemscore.ZeroCoef>
-5.4800

> <Gold.Chemscore.Hbond>
1.9896

> <Gold.Chemscore.Metal>
0.0000

> <Gold.Chemscore.Lipo>
99.1689

> <Gold.Chemscore.Internal_Hbond>
0.0000

> <Gold.Chemscore.DEClash>
0.1008

> <Gold.Chemscore.DEInternal>
2.3389

> <Gold.Chemscore.Rot>
1.3455

> <Gold.Chemscore.Internal.Correction>
   9.000000E+99

> <Gold.Chemscore.Hbonds>
donor molecule, donor type, donor heavy atom, donor atom, acceptor molecule, acceptor atom, score
      L1  H     3    23       P1 10175  0.34
      L1  H    10    28       P1 10175  0.01
      L1  H    14    49       P1  8028  0.97

> <Gold.Chemscore.Hbond.Weighted>
-6.6453

> <Gold.Chemscore.Metal.Weighted>
-0.0000

> <Gold.Chemscore.Lipo.Weighted>
-11.6028

> <Gold.Chemscore.Internal_Hbond.Weighted>
0.0000

> <Gold.Chemscore.DEClash.Weighted>
0.1008

> <Gold.Chemscore.DEInternal.Weighted>
2.3389

> <Gold.Chemscore.Rot.Weighted>
3.4445

> <Gold.Chemscore.Internal.Correction.Weighted>
   9.000000E+99

> <Gold.Protein.RotatedTorsions>
[ 6907 6896 6895 6894 ] final   40.74 input  -60.11 | X-H torsion
[ 7974 7965 7964 7962 ] final   85.37 input  175.53 | X-H torsion
[ 8008 7997 7996 7995 ] final  144.39 input   59.86 | X-H torsion
[ 10167 10162 10161 10158 ] final -117.71 input  -65.29 | X-H torsion
[ 10718 10713 10712 10709 ] final  -25.10 input   66.30 | X-H torsion
[ 10763 10752 10751 10750 ] final -114.44 input  -60.55 | X-H torsion
[ 11005 11000 10999 10996 ] final  -28.56 input  -57.11 | X-H torsion

> <Gold.Protein.ActiveResidues>
 VAL166  LYS551  ARG553  GLY616  TRP617  ASP618  TYR619  PRO620  LYS621  CYS622 
 ASP623  PHE694  ASN695  SER759  ASP760  ASP761  ALA762  ILE779  LEU786  VAL792 
 PHE793  MET794  SER795  GLU796  ALA797  LYS798  CYS799  TRP800  GLU811  SER814 

> <Gold.Protein.RotatedAtoms>
  152.1864  134.8710  160.0521 H   0  0  0  0  0  0  0  0  0  0  0  0  # atno 6907 bound_to 6896
  151.9615  133.3692  159.4045 H   0  0  0  0  0  0  0  0  0  0  0  0  # atno 6908 bound_to 6896
  150.6927  134.4159  159.5226 H   0  0  0  0  0  0  0  0  0  0  0  0  # atno 6909 bound_to 6896
  145.5865  139.2332  143.2323 H   0  0  0  0  0  0  0  0  0  0  0  0  # atno 7974 bound_to 7965
  156.2909  140.2237  156.5045 H   0  0  0  0  0  0  0  0  0  0  0  0  # atno 8008 bound_to 7997
  154.7662  140.0470  157.1035 H   0  0  0  0  0  0  0  0  0  0  0  0  # atno 8009 bound_to 7997
  154.9930  140.3092  155.4901 H   0  0  0  0  0  0  0  0  0  0  0  0  # atno 8010 bound_to 7997
  140.0654  143.4928  152.2009 H   0  0  0  0  0  0  0  0  0  0  0  0  # atno 10167 bound_to 10162
  156.4689  130.4520  149.6882 H   0  0  0  0  0  0  0  0  0  0  0  0  # atno 10718 bound_to 10713
  154.8440  135.4417  154.1507 H   0  0  0  0  0  0  0  0  0  0  0  0  # atno 10763 bound_to 10752
  153.2668  135.6941  153.7527 H   0  0  0  0  0  0  0  0  0  0  0  0  # atno 10764 bound_to 10752
  153.6783  135.3407  155.3147 H   0  0  0  0  0  0  0  0  0  0  0  0  # atno 10765 bound_to 10752
  140.9219  133.7393  156.0814 H   0  0  0  0  0  0  0  0  0  0  0  0  # atno 11005 bound_to 11000
  146.1678  140.6691  142.9247 LP  0  0  0  0  0  0  0  0  0  0  0  0  # atno 17320 bound_to 7965
  144.7370  140.4837  143.6896 LP  0  0  0  0  0  0  0  0  0  0  0  0  # atno 17321 bound_to 7965
  139.5868  144.7534  151.3499 LP  0  0  0  0  0  0  0  0  0  0  0  0  # atno 17342 bound_to 10162
  140.7152  143.7286  150.7641 LP  0  0  0  0  0  0  0  0  0  0  0  0  # atno 17343 bound_to 10162
  156.3639  130.7496  151.2471 LP  0  0  0  0  0  0  0  0  0  0  0  0  # atno 17370 bound_to 10713
  157.7493  131.0342  150.4308 LP  0  0  0  0  0  0  0  0  0  0  0  0  # atno 17371 bound_to 10713
  140.7976  134.3546  157.5448 LP  0  0  0  0  0  0  0  0  0  0  0  0  # atno 17394 bound_to 11000
  139.8777  134.9178  156.3187 LP  0  0  0  0  0  0  0  0  0  0  0  0  # atno 17395 bound_to 11000

$$$$
