AV-unprocessed.smi:2061|AV-procd|sdf|8370|dock10
  -GOLD-   2272011 43D 1   1.00000     0.00000
 Structure written by MMmdl.
 46 47  0  0  0  0  0  0  0  0  2 V2000
  144.2142  132.0424  150.0528 C   0  0  0  0  0  0  0  0  0  0  0  0
  144.5511  133.3306  150.7219 C   0  0  0  0  0  0  0  0  0  0  0  0
  145.6986  134.0693  150.7947 C   0  0  0  0  0  0  0  0  0  0  0  0
  145.3130  135.1808  151.5901 C   0  0  0  0  0  0  0  0  0  0  0  0
  146.2390  136.2078  151.9052 N   0  0  0  0  0  0  0  0  0  0  0  0
  145.9804  137.3891  152.4914 C   0  0  0  0  0  0  0  0  0  0  0  0
  144.8724  137.7654  152.8748 O   0  0  0  0  0  0  0  0  0  0  0  0
  147.0904  138.1319  152.6090 N   0  0  0  0  0  0  0  0  0  0  0  0
  147.1327  139.4718  153.1873 C   0  0  0  0  0  0  0  0  0  0  0  0
  147.2040  139.4618  154.7376 C   0  0  2  0  0  0  0  0  0  0  0  0
  146.2187  140.5025  155.3225 C   0  0  0  0  0  0  0  0  0  0  0  0
  148.6217  139.6513  155.1872 N   0  3  1  0  0  0  0  0  0  0  0  0
  149.6252  138.7323  154.5854 C   0  0  0  0  0  0  0  0  0  0  0  0
  151.0220  138.9663  155.1913 C   0  0  1  0  0  0  0  0  0  0  0  0
  152.0918  138.0994  154.5175 C   0  0  0  0  0  0  0  0  0  0  0  0
  151.3991  140.3289  155.0270 O   0  0  0  0  0  0  0  0  0  0  0  0
  150.4924  141.2681  155.5996 C   0  0  2  0  0  0  0  0  0  0  0  0
  150.5345  141.2669  157.1381 C   0  0  0  0  0  0  0  0  0  0  0  0
  149.0811  141.0566  155.0211 C   0  0  0  0  0  0  0  0  0  0  0  0
  144.0451  135.1262  151.9683 N   0  0  0  0  0  0  0  0  0  0  0  0
  143.5505  133.9399  151.4139 O   0  0  0  0  0  0  0  0  0  0  0  0
  145.1033  131.5849  149.6187 H   0  0  0  0  0  0  0  0  0  0  0  0
  143.4904  132.2009  149.2535 H   0  0  0  0  0  0  0  0  0  0  0  0
  143.7848  131.3374  150.7646 H   0  0  0  0  0  0  0  0  0  0  0  0
  146.6566  133.8473  150.3489 H   0  0  0  0  0  0  0  0  0  0  0  0
  147.1976  136.0271  151.6463 H   0  0  0  0  0  0  0  0  0  0  0  0
  147.9615  137.7495  152.2710 H   0  0  0  0  0  0  0  0  0  0  0  0
  147.9719  140.0054  152.7425 H   0  0  0  0  0  0  0  0  0  0  0  0
  146.2368  140.0029  152.8643 H   0  0  0  0  0  0  0  0  0  0  0  0
  146.8756  138.4869  155.1012 H   0  0  0  0  0  0  0  0  0  0  0  0
  145.2045  140.3474  154.9550 H   0  0  0  0  0  0  0  0  0  0  0  0
  146.5083  141.5201  155.0584 H   0  0  0  0  0  0  0  0  0  0  0  0
  146.1510  140.4356  156.4084 H   0  0  0  0  0  0  0  0  0  0  0  0
  149.3613  137.6923  154.7739 H   0  0  0  0  0  0  0  0  0  0  0  0
  149.6485  138.8752  153.5038 H   0  0  0  0  0  0  0  0  0  0  0  0
  151.0067  138.7149  156.2520 H   0  0  0  0  0  0  0  0  0  0  0  0
  151.8608  137.0386  154.6186 H   0  0  0  0  0  0  0  0  0  0  0  0
  153.0706  138.2691  154.9666 H   0  0  0  0  0  0  0  0  0  0  0  0
  152.1708  138.3247  153.4533 H   0  0  0  0  0  0  0  0  0  0  0  0
  150.8372  142.2512  155.2773 H   0  0  0  0  0  0  0  0  0  0  0  0
  149.9356  142.0844  157.5404 H   0  0  0  0  0  0  0  0  0  0  0  0
  151.5548  141.3989  157.4987 H   0  0  0  0  0  0  0  0  0  0  0  0
  150.1452  140.3426  157.5639 H   0  0  0  0  0  0  0  0  0  0  0  0
  149.0887  141.3006  153.9575 H   0  0  0  0  0  0  0  0  0  0  0  0
  148.3955  141.7603  155.4904 H   0  0  0  0  0  0  0  0  0  0  0  0
  148.6297  139.4528  156.1775 H   0  0  0  0  0  0  0  0  0  0  0  0
  1  2  1  0  0  0  0
  1 22  1  0  0  0  0
  1 23  1  0  0  0  0
  1 24  1  0  0  0  0
  2 21  1  0  0  0  0
  2  3  2  0  0  0  0
  3  4  1  0  0  0  0
  3 25  1  0  0  0  0
  4  5  1  0  0  0  0
  4 20  2  0  0  0  0
  5  6  1  0  0  0  0
  5 26  1  0  0  0  0
  6  7  2  0  0  0  0
  6  8  1  0  0  0  0
  8  9  1  0  0  0  0
  8 27  1  0  0  0  0
  9 10  1  0  0  0  0
  9 28  1  0  0  0  0
  9 29  1  0  0  0  0
 10 11  1  0  0  0  0
 10 12  1  0  0  0  0
 10 30  1  0  0  0  0
 11 31  1  0  0  0  0
 11 32  1  0  0  0  0
 11 33  1  0  0  0  0
 12 19  1  0  0  0  0
 12 13  1  0  0  0  0
 12 46  1  0  0  0  0
 13 14  1  0  0  0  0
 13 34  1  0  0  0  0
 13 35  1  0  0  0  0
 14 15  1  0  0  0  0
 14 16  1  0  0  0  0
 14 36  1  0  0  0  0
 15 37  1  0  0  0  0
 15 38  1  0  0  0  0
 15 39  1  0  0  0  0
 16 17  1  0  0  0  0
 17 18  1  0  0  0  0
 17 19  1  0  0  0  0
 17 40  1  0  0  0  0
 18 41  1  0  0  0  0
 18 42  1  0  0  0  0
 18 43  1  0  0  0  0
 19 44  1  0  0  0  0
 19 45  1  0  0  0  0
 20 21  1  0  0  0  0
M  CHG  1  12   1
M  END
> <s_m_source_file>
AV-unprocessed.smi

> <i_m_source_file_index>
2061

> <i_lp_mmshare_version>
43012

> <i_f3d_flags>
0

> <s_epik_input>
W0NIM11jMVtjSF1jKG5vMSlbTkhdQyg9TylbTkhdW0NIMl1bQ0BIXShbQ0gzXSlOMltDSDJdW0NAQEhdKFtDSDNdKU9bQ0BASF0oW0NIM10pW0NIMl0y

> <s_epik_cmdline>
J2VwaWtfcHl0aG9uJywgJy1waCcsICc3LjAnLCAnLXRuJywgJzgnLCAnLW1hJywgJzIwMCcsICctbWV0YWxfYmluZGluZycsICctaW1hZScsICc8aW5maWxlLm1hZT4nLCAnLW9tYWUnLCAnPG91dGZpbGUubWFlPic=

> <r_epik_Ionization_Penalty>
0.707076

> <r_epik_Ionization_Penalty_Charging>
0.707039

> <r_epik_Ionization_Penalty_Neutral>
3.6548e-05

> <r_epik_State_Penalty>
0.730276

> <r_epik_Charging_Adjusted_Penalty>
1.43732

> <i_epik_Tot_Q>
1

> <i_epik_Tot_abs_Q>
1

> <r_epik_Metal_State_Penalty>
0.743132

> <b_epik_Metal_Only>
0

> <s_lp_Force_Field>
OPLS_2005

> <r_lp_Energy>
19.8294

> <b_lp_Chiralities_Consistent>
1

> <s_lp_Variant>
AV-unprocessed.smi:2061-11

> <Gold.Version>
5.8.1

> <Gold.Id.Protein>
6NUR|6NUR_protein|mol2

> <Gold.PLP.Fitness>
41.2602

> <Gold.PLP.PLP>
-34.0143

> <Gold.PLP.part.hbond>
-3.0000

> <Gold.PLP.part.metal>
0.0000

> <Gold.PLP.part.buried>
-5.9472

> <Gold.PLP.part.nonpolar>
-27.0097

> <Gold.PLP.part.repulsive>
1.8629

> <Gold.PLP.ligand.clash>
0.0000

> <Gold.PLP.ligand.torsion>
0.8639

> <Gold.PLP.Chemscore.Hbond>
2.9760

> <Gold.PLP.Chemscore.CHOScore>
0.0000

> <Gold.PLP.Chemscore.Metal>
0.0000

> <Gold.Chemscore.Hbonds>
donor molecule, donor type, donor heavy atom, donor atom, acceptor molecule, acceptor atom, score
      L1  H     5    26       P1  7948  1.00
      L1  H     8    27       P1  7948  0.98
      P1  H  7989  7998       L1    16  1.00

> <Gold.PLP.Chemscore.Internal.Correction>
0.0458

> <Gold.Rescore>
     Score         DG    S(hbond)    S(metal)    S(lipo)     H(rot)  DE(clash)    DE(int)     intcor
     17.05     -19.24       2.68        0.00      75.79       1.58       0.06       2.13       ----

> <Gold.Chemscore.Fitness>
17.0513

> <Gold.Chemscore.DG>
-19.2440

> <Gold.Chemscore.ZeroCoef>
-5.4800

> <Gold.Chemscore.Hbond>
2.6798

> <Gold.Chemscore.Metal>
0.0000

> <Gold.Chemscore.Lipo>
75.7865

> <Gold.Chemscore.Internal_Hbond>
0.0000

> <Gold.Chemscore.DEClash>
0.0600

> <Gold.Chemscore.DEInternal>
2.1327

> <Gold.Chemscore.Rot>
1.5834

> <Gold.Chemscore.Internal.Correction>
   9.000000E+99

> <Gold.Chemscore.Hbonds>
donor molecule, donor type, donor heavy atom, donor atom, acceptor molecule, acceptor atom, score
      L1  H     5    26       P1  7948  0.98
      L1  H     8    27       P1  7948  0.93
      P1  H  7989  7998       L1    16  0.41

> <Gold.Chemscore.Hbond.Weighted>
-8.9504

> <Gold.Chemscore.Metal.Weighted>
-0.0000

> <Gold.Chemscore.Lipo.Weighted>
-8.8670

> <Gold.Chemscore.Internal_Hbond.Weighted>
0.0000

> <Gold.Chemscore.DEClash.Weighted>
0.0600

> <Gold.Chemscore.DEInternal.Weighted>
2.1327

> <Gold.Chemscore.Rot.Weighted>
4.0535

> <Gold.Chemscore.Internal.Correction.Weighted>
   9.000000E+99

> <Gold.Protein.RotatedTorsions>
[ 6907 6896 6895 6894 ] final   16.83 input  -60.11 | X-H torsion
[ 7974 7965 7964 7962 ] final  -62.02 input  175.53 | X-H torsion
[ 8008 7997 7996 7995 ] final  -52.62 input   59.86 | X-H torsion
[ 10167 10162 10161 10158 ] final   93.24 input  -65.29 | X-H torsion
[ 10718 10713 10712 10709 ] final  177.26 input   66.30 | X-H torsion
[ 10763 10752 10751 10750 ] final  -15.16 input  -60.55 | X-H torsion
[ 11005 11000 10999 10996 ] final  -62.33 input  -57.11 | X-H torsion

> <Gold.Protein.ActiveResidues>
 VAL166  LYS551  ARG553  GLY616  TRP617  ASP618  TYR619  PRO620  LYS621  CYS622 
 ASP623  PHE694  ASN695  SER759  ASP760  ASP761  ALA762  ILE779  LEU786  VAL792 
 PHE793  MET794  SER795  GLU796  ALA797  LYS798  CYS799  TRP800  GLU811  SER814 

> <Gold.Protein.RotatedAtoms>
  151.8401  135.0593  160.0446 H   0  0  0  0  0  0  0  0  0  0  0  0  # atno 6907 bound_to 6896
  152.2815  133.5470  159.5509 H   0  0  0  0  0  0  0  0  0  0  0  0  # atno 6908 bound_to 6896
  150.7191  134.0473  159.3828 H   0  0  0  0  0  0  0  0  0  0  0  0  # atno 6909 bound_to 6896
  145.7963  140.8681  143.0254 H   0  0  0  0  0  0  0  0  0  0  0  0  # atno 7974 bound_to 7965
  154.4111  140.1219  156.5022 H   0  0  0  0  0  0  0  0  0  0  0  0  # atno 8008 bound_to 7997
  155.6884  140.3495  155.4864 H   0  0  0  0  0  0  0  0  0  0  0  0  # atno 8009 bound_to 7997
  155.9491  140.1101  157.0982 H   0  0  0  0  0  0  0  0  0  0  0  0  # atno 8010 bound_to 7997
  139.8199  144.6736  150.9532 H   0  0  0  0  0  0  0  0  0  0  0  0  # atno 10167 bound_to 10162
  156.9080  130.9900  151.3025 H   0  0  0  0  0  0  0  0  0  0  0  0  # atno 10718 bound_to 10713
  153.5392  135.7013  153.5645 H   0  0  0  0  0  0  0  0  0  0  0  0  # atno 10763 bound_to 10752
  153.3618  135.3967  155.1724 H   0  0  0  0  0  0  0  0  0  0  0  0  # atno 10764 bound_to 10752
  154.8675  135.3790  154.4895 H   0  0  0  0  0  0  0  0  0  0  0  0  # atno 10765 bound_to 10752
  141.1356  133.6639  156.5511 H   0  0  0  0  0  0  0  0  0  0  0  0  # atno 11005 bound_to 11000
  144.6774  140.0195  143.7484 LP  0  0  0  0  0  0  0  0  0  0  0  0  # atno 17320 bound_to 7965
  145.9924  139.3025  143.0977 LP  0  0  0  0  0  0  0  0  0  0  0  0  # atno 17321 bound_to 7965
  140.7814  143.4102  151.1005 LP  0  0  0  0  0  0  0  0  0  0  0  0  # atno 17342 bound_to 10162
  139.7763  143.8420  152.3130 LP  0  0  0  0  0  0  0  0  0  0  0  0  # atno 17343 bound_to 10162
  157.5985  130.8495  149.8765 LP  0  0  0  0  0  0  0  0  0  0  0  0  # atno 17370 bound_to 10713
  156.0549  130.3710  150.1113 LP  0  0  0  0  0  0  0  0  0  0  0  0  # atno 17371 bound_to 10713
  140.4063  134.7312  157.4810 LP  0  0  0  0  0  0  0  0  0  0  0  0  # atno 17394 bound_to 11000
  140.0459  134.6200  155.8921 LP  0  0  0  0  0  0  0  0  0  0  0  0  # atno 17395 bound_to 11000

$$$$
