AV-unprocessed.smi:936|AV-procd|sdf|4208|dock3
  -GOLD-   22720 2113D 1   1.00000     0.00000
 Structure written by MMmdl.
 40 41  0  0  0  0  0  0  0  0  1 V2000
  147.5416  136.9938  154.4350 C   0  0  0  0  0  0  0  0  0  0  0  0
  146.9097  138.2465  153.8105 C   0  0  0  0  0  0  0  0  0  0  0  0
  146.6708  138.1120  152.2999 C   0  0  0  0  0  0  0  0  0  0  0  0
  147.6706  139.4896  154.1494 C   0  0  0  0  0  0  0  0  0  0  0  0
  148.8618  139.4881  154.7560 N   0  0  0  0  0  0  0  0  0  0  0  0
  149.3694  140.7757  154.9541 C   0  0  0  0  0  0  0  0  0  0  0  0
  150.6983  140.9625  155.6206 C   0  0  0  0  0  0  0  0  0  0  0  0
  150.7080  140.4211  157.0598 C   0  0  0  0  0  0  0  0  0  0  0  0
  151.5793  141.2103  157.9230 N   0  0  0  0  0  0  0  0  0  0  0  0
  151.6326  142.5531  157.9506 C   0  0  0  0  0  0  0  0  0  0  0  0
  150.9413  143.2504  157.2064 O   0  0  0  0  0  0  0  0  0  0  0  0
  152.5202  143.0697  158.8384 N   0  0  0  0  0  0  0  0  0  0  0  0
  153.4380  142.2961  159.6912 C   0  0  0  0  0  0  0  0  0  0  0  0
  152.8027  142.1134  161.0797 C   0  0  0  0  0  0  0  0  0  0  0  0
  152.5536  143.7201  161.8981 S   0  0  0  0  0  0  0  0  0  0  0  0
  151.7088  144.6170  160.5581 C   0  0  0  0  0  0  0  0  0  0  0  0
  152.4778  144.4830  159.2328 C   0  0  0  0  0  0  0  0  0  0  0  0
  148.5389  141.7625  154.4852 C   0  0  0  0  0  0  0  0  0  0  0  0
  147.0875  141.1086  153.7778 S   0  0  0  0  0  0  0  0  0  0  0  0
  147.6237  137.0939  155.5176 H   0  0  0  0  0  0  0  0  0  0  0  0
  148.5424  136.8159  154.0401 H   0  0  0  0  0  0  0  0  0  0  0  0
  146.9416  136.1071  154.2297 H   0  0  0  0  0  0  0  0  0  0  0  0
  145.9258  138.3544  154.2686 H   0  0  0  0  0  0  0  0  0  0  0  0
  146.1448  138.9831  151.9080 H   0  0  0  0  0  0  0  0  0  0  0  0
  146.0674  137.2325  152.0740 H   0  0  0  0  0  0  0  0  0  0  0  0
  147.6116  138.0185  151.7568 H   0  0  0  0  0  0  0  0  0  0  0  0
  151.4738  140.4656  155.0365 H   0  0  0  0  0  0  0  0  0  0  0  0
  150.9639  142.0205  155.6282 H   0  0  0  0  0  0  0  0  0  0  0  0
  149.7008  140.4535  157.4760 H   0  0  0  0  0  0  0  0  0  0  0  0
  151.0156  139.3741  157.0729 H   0  0  0  0  0  0  0  0  0  0  0  0
  152.1839  140.7002  158.5503 H   0  0  0  0  0  0  0  0  0  0  0  0
  153.6976  141.3246  159.2709 H   0  0  0  0  0  0  0  0  0  0  0  0
  154.3889  142.8225  159.7850 H   0  0  0  0  0  0  0  0  0  0  0  0
  151.8429  141.6020  160.9967 H   0  0  0  0  0  0  0  0  0  0  0  0
  153.4407  141.4957  161.7120 H   0  0  0  0  0  0  0  0  0  0  0  0
  150.6964  144.2260  160.4516 H   0  0  0  0  0  0  0  0  0  0  0  0
  151.6183  145.6658  160.8411 H   0  0  0  0  0  0  0  0  0  0  0  0
  153.4902  144.8741  159.3428 H   0  0  0  0  0  0  0  0  0  0  0  0
  152.0109  145.1046  158.4673 H   0  0  0  0  0  0  0  0  0  0  0  0
  148.6929  142.8312  154.5128 H   0  0  0  0  0  0  0  0  0  0  0  0
  1  2  1  0  0  0  0
  1 20  1  0  0  0  0
  1 21  1  0  0  0  0
  1 22  1  0  0  0  0
  2  3  1  0  0  0  0
  2  4  1  0  0  0  0
  2 23  1  0  0  0  0
  3 24  1  0  0  0  0
  3 25  1  0  0  0  0
  3 26  1  0  0  0  0
  4 19  1  0  0  0  0
  4  5  2  0  0  0  0
  5  6  1  0  0  0  0
  6  7  1  0  0  0  0
  6 18  2  0  0  0  0
  7  8  1  0  0  0  0
  7 27  1  0  0  0  0
  7 28  1  0  0  0  0
  8  9  1  0  0  0  0
  8 29  1  0  0  0  0
  8 30  1  0  0  0  0
  9 10  1  0  0  0  0
  9 31  1  0  0  0  0
 10 11  2  0  0  0  0
 10 12  1  0  0  0  0
 12 17  1  0  0  0  0
 12 13  1  0  0  0  0
 13 14  1  0  0  0  0
 13 32  1  0  0  0  0
 13 33  1  0  0  0  0
 14 15  1  0  0  0  0
 14 34  1  0  0  0  0
 14 35  1  0  0  0  0
 15 16  1  0  0  0  0
 16 17  1  0  0  0  0
 16 36  1  0  0  0  0
 16 37  1  0  0  0  0
 17 38  1  0  0  0  0
 17 39  1  0  0  0  0
 18 19  1  0  0  0  0
 18 40  1  0  0  0  0
M  END
> <s_m_source_file>
AV-unprocessed.smi

> <i_m_source_file_index>
936

> <i_lp_mmshare_version>
43012

> <i_f3d_flags>
0

> <s_epik_input>
W0NIM11bQ0hdKFtDSDNdKWMxbmMoW2NIXXMxKVtDSDJdW0NIMl1bTkhdQyg9TylOMltDSDJdW0NIMl1TW0NIMl1bQ0gyXTI=

> <s_epik_cmdline>
J2VwaWtfcHl0aG9uJywgJy1waCcsICc3LjAnLCAnLXRuJywgJzgnLCAnLW1hJywgJzIwMCcsICctbWV0YWxfYmluZGluZycsICctaW1hZScsICc8aW5maWxlLm1hZT4nLCAnLW9tYWUnLCAnPG91dGZpbGUubWFlPic=

> <r_epik_Ionization_Penalty>
0.00156596

> <r_epik_Ionization_Penalty_Charging>
0

> <r_epik_Ionization_Penalty_Neutral>
0.00156596

> <r_epik_State_Penalty>
0.00101864

> <r_epik_Charging_Adjusted_Penalty>
0.00101864

> <i_epik_Tot_Q>
0

> <i_epik_Tot_abs_Q>
0

> <r_epik_Metal_State_Penalty>
-0

> <b_epik_Metal_Only>
0

> <s_lp_Force_Field>
OPLS_2005

> <r_lp_Energy>
11.6004

> <b_lp_Chiralities_Consistent>
1

> <s_lp_Variant>
AV-unprocessed.smi:936-1

> <Gold.Version>
5.8.1

> <Gold.Id.Protein>
6NUR|6NUR_protein|mol2

> <Gold.PLP.Fitness>
44.3627

> <Gold.PLP.PLP>
-42.1632

> <Gold.PLP.part.hbond>
0.0000

> <Gold.PLP.part.metal>
0.0000

> <Gold.PLP.part.buried>
-2.2011

> <Gold.PLP.part.nonpolar>
-40.2505

> <Gold.PLP.part.repulsive>
1.7659

> <Gold.PLP.ligand.clash>
0.0000

> <Gold.PLP.ligand.torsion>
0.4580

> <Gold.PLP.Chemscore.Hbond>
0.0000

> <Gold.PLP.Chemscore.CHOScore>
1.0000

> <Gold.PLP.Chemscore.Metal>
0.0000

> <Gold.Chemscore.Hbonds>
donor molecule, donor type, donor heavy atom, donor atom, acceptor molecule, acceptor atom, score
      L1  C    18    40       P1  8028  1.00

> <Gold.PLP.Chemscore.Internal.Correction>
0.1154

> <Gold.Rescore>
     Score         DG    S(hbond)    S(metal)    S(lipo)     H(rot)  DE(clash)    DE(int)     intcor
     12.58     -15.25       0.00        0.00     114.28       1.41       0.98       1.69       ----

> <Gold.Chemscore.Fitness>
12.5773

> <Gold.Chemscore.DG>
-15.2499

> <Gold.Chemscore.ZeroCoef>
-5.4800

> <Gold.Chemscore.Hbond>
0.0000

> <Gold.Chemscore.Metal>
0.0000

> <Gold.Chemscore.Lipo>
114.2844

> <Gold.Chemscore.Internal_Hbond>
0.0000

> <Gold.Chemscore.DEClash>
0.9816

> <Gold.Chemscore.DEInternal>
1.6910

> <Gold.Chemscore.Rot>
1.4068

> <Gold.Chemscore.Internal.Correction>
   9.000000E+99

> <Gold.Chemscore.Hbond.Weighted>
-0.0000

> <Gold.Chemscore.Metal.Weighted>
-0.0000

> <Gold.Chemscore.Lipo.Weighted>
-13.3713

> <Gold.Chemscore.Internal_Hbond.Weighted>
0.0000

> <Gold.Chemscore.DEClash.Weighted>
0.9816

> <Gold.Chemscore.DEInternal.Weighted>
1.6910

> <Gold.Chemscore.Rot.Weighted>
3.6014

> <Gold.Chemscore.Internal.Correction.Weighted>
   9.000000E+99

> <Gold.Protein.RotatedTorsions>
[ 6907 6896 6895 6894 ] final  124.49 input  -60.11 | X-H torsion
[ 7974 7965 7964 7962 ] final  -28.01 input  175.53 | X-H torsion
[ 8008 7997 7996 7995 ] final   75.51 input   59.86 | X-H torsion
[ 10167 10162 10161 10158 ] final  -93.31 input  -65.29 | X-H torsion
[ 10718 10713 10712 10709 ] final  -21.60 input   66.30 | X-H torsion
[ 10763 10752 10751 10750 ] final    4.33 input  -60.55 | X-H torsion
[ 11005 11000 10999 10996 ] final -126.18 input  -57.11 | X-H torsion

> <Gold.Protein.ActiveResidues>
 VAL166  LYS551  ARG553  GLY616  TRP617  ASP618  TYR619  PRO620  LYS621  CYS622 
 ASP623  PHE694  ASN695  SER759  ASP760  ASP761  ALA762  ILE779  LEU786  VAL792 
 PHE793  MET794  SER795  GLU796  ALA797  LYS798  CYS799  TRP800  GLU811  SER814 

> <Gold.Protein.RotatedAtoms>
  152.4073  133.6909  159.6367 H   0  0  0  0  0  0  0  0  0  0  0  0  # atno 6907 bound_to 6896
  150.7957  133.8686  159.3261 H   0  0  0  0  0  0  0  0  0  0  0  0  # atno 6908 bound_to 6896
  151.6437  135.1011  160.0198 H   0  0  0  0  0  0  0  0  0  0  0  0  # atno 6909 bound_to 6896
  146.1318  140.5227  142.8690 H   0  0  0  0  0  0  0  0  0  0  0  0  # atno 7974 bound_to 7965
  155.8140  140.3472  155.5474 H   0  0  0  0  0  0  0  0  0  0  0  0  # atno 8008 bound_to 7997
  155.8411  140.0941  157.1754 H   0  0  0  0  0  0  0  0  0  0  0  0  # atno 8009 bound_to 7997
  154.4005  140.1394  156.3717 H   0  0  0  0  0  0  0  0  0  0  0  0  # atno 8010 bound_to 7997
  140.3259  143.3022  151.9995 H   0  0  0  0  0  0  0  0  0  0  0  0  # atno 10167 bound_to 10162
  156.5159  130.4621  149.6623 H   0  0  0  0  0  0  0  0  0  0  0  0  # atno 10718 bound_to 10713
  153.2726  135.6933  153.7466 H   0  0  0  0  0  0  0  0  0  0  0  0  # atno 10763 bound_to 10752
  153.6483  135.3381  155.3093 H   0  0  0  0  0  0  0  0  0  0  0  0  # atno 10764 bound_to 10752
  154.8469  135.4448  154.1753 H   0  0  0  0  0  0  0  0  0  0  0  0  # atno 10765 bound_to 10752
  140.9702  134.0816  157.3877 H   0  0  0  0  0  0  0  0  0  0  0  0  # atno 11005 bound_to 11000
  144.7698  140.5613  143.6678 LP  0  0  0  0  0  0  0  0  0  0  0  0  # atno 17320 bound_to 7965
  145.5244  139.1476  143.3534 LP  0  0  0  0  0  0  0  0  0  0  0  0  # atno 17321 bound_to 7965
  139.4865  144.6274  151.7138 LP  0  0  0  0  0  0  0  0  0  0  0  0  # atno 17342 bound_to 10162
  140.5441  144.0532  150.6100 LP  0  0  0  0  0  0  0  0  0  0  0  0  # atno 17343 bound_to 10162
  156.3195  130.7273  151.2182 LP  0  0  0  0  0  0  0  0  0  0  0  0  # atno 17370 bound_to 10713
  157.7444  131.0459  150.4868 LP  0  0  0  0  0  0  0  0  0  0  0  0  # atno 17371 bound_to 10713
  139.8909  135.0115  156.6764 LP  0  0  0  0  0  0  0  0  0  0  0  0  # atno 17394 bound_to 11000
  140.7340  133.9035  155.8231 LP  0  0  0  0  0  0  0  0  0  0  0  0  # atno 17395 bound_to 11000

$$$$
