AV-unprocessed.smi:2346|AV-procd|sdf|9366|dock1
  -GOLD-   2272012593D 1   1.00000     0.00000
 Structure written by MMmdl.
 44 46  0  0  0  0  0  0  0  0  1 V2000
  155.1572  133.5494  160.1053 C   0  0  0  0  0  0  0  0  0  0  0  0
  154.3679  134.7203  159.9606 O   0  0  0  0  0  0  0  0  0  0  0  0
  154.4152  135.6725  160.9584 C   0  0  0  0  0  0  0  0  0  0  0  0
  155.2219  135.5579  162.1188 C   0  0  0  0  0  0  0  0  0  0  0  0
  155.2155  136.5719  163.0970 C   0  0  0  0  0  0  0  0  0  0  0  0
  156.0457  136.4458  164.2832 C   0  0  0  0  0  0  0  0  0  0  0  0
  156.7068  136.3453  165.2273 N   0  0  0  0  0  0  0  0  0  0  0  0
  154.4031  137.7079  162.9234 C   0  0  0  0  0  0  0  0  0  0  0  0
  153.5983  137.8295  161.7761 C   0  0  0  0  0  0  0  0  0  0  0  0
  153.5984  136.8135  160.7887 C   0  0  0  0  0  0  0  0  0  0  0  0
  152.8393  136.8643  159.6404 O   0  0  0  0  0  0  0  0  0  0  0  0
  152.1385  138.0607  159.3312 C   0  0  0  0  0  0  0  0  0  0  0  0
  153.1118  139.0339  158.6502 C   0  0  0  0  0  0  0  0  0  0  0  0
  152.4659  140.2919  158.2996 N   0  0  0  0  0  0  0  0  0  0  0  0
  151.7996  140.6115  157.1604 C   0  0  0  0  0  0  0  0  0  0  0  0
  151.6136  139.6321  156.0344 C   0  0  1  0  0  0  0  0  0  0  0  0
  150.9140  138.3490  156.5017 C   0  0  0  0  0  0  0  0  0  0  0  0
  150.8691  140.1813  154.9658 O   0  0  0  0  0  0  0  0  0  0  0  0
  151.2907  141.8455  157.1172 N   0  0  0  0  0  0  0  0  0  0  0  0
  151.6888  142.3843  158.3244 C   0  0  0  0  0  0  0  0  0  0  0  0
  151.4770  143.6704  158.8707 C   0  0  0  0  0  0  0  0  0  0  0  0
  151.9946  144.0007  160.1403 C   0  0  0  0  0  0  0  0  0  0  0  0
  152.7270  143.0510  160.8816 C   0  0  0  0  0  0  0  0  0  0  0  0
  152.9437  141.7623  160.3581 C   0  0  0  0  0  0  0  0  0  0  0  0
  152.4274  141.4382  159.0888 C   0  0  0  0  0  0  0  0  0  0  0  0
  154.9962  132.9010  159.2440 H   0  0  0  0  0  0  0  0  0  0  0  0
  154.8777  132.9875  160.9974 H   0  0  0  0  0  0  0  0  0  0  0  0
  156.2208  133.7880  160.1449 H   0  0  0  0  0  0  0  0  0  0  0  0
  155.8537  134.6960  162.2761 H   0  0  0  0  0  0  0  0  0  0  0  0
  154.3922  138.4922  163.6669 H   0  0  0  0  0  0  0  0  0  0  0  0
  152.9904  138.7154  161.6738 H   0  0  0  0  0  0  0  0  0  0  0  0
  151.3016  137.8492  158.6637 H   0  0  0  0  0  0  0  0  0  0  0  0
  151.7415  138.5124  160.2410 H   0  0  0  0  0  0  0  0  0  0  0  0
  153.9750  139.2289  159.2860 H   0  0  0  0  0  0  0  0  0  0  0  0
  153.5059  138.5843  157.7382 H   0  0  0  0  0  0  0  0  0  0  0  0
  152.5858  139.3746  155.6161 H   0  0  0  0  0  0  0  0  0  0  0  0
  151.4833  137.8596  157.2925 H   0  0  0  0  0  0  0  0  0  0  0  0
  150.8088  137.6366  155.6829 H   0  0  0  0  0  0  0  0  0  0  0  0
  149.9177  138.5593  156.8923 H   0  0  0  0  0  0  0  0  0  0  0  0
  150.0585  140.5211  155.3136 H   0  0  0  0  0  0  0  0  0  0  0  0
  150.9187  144.4052  158.3099 H   0  0  0  0  0  0  0  0  0  0  0  0
  151.8300  144.9877  160.5469 H   0  0  0  0  0  0  0  0  0  0  0  0
  153.1226  143.3121  161.8521 H   0  0  0  0  0  0  0  0  0  0  0  0
  153.5080  141.0342  160.9216 H   0  0  0  0  0  0  0  0  0  0  0  0
  1  2  1  0  0  0  0
  1 26  1  0  0  0  0
  1 27  1  0  0  0  0
  1 28  1  0  0  0  0
  2  3  1  0  0  0  0
  3 10  1  0  0  0  0
  3  4  2  0  0  0  0
  4  5  1  0  0  0  0
  4 29  1  0  0  0  0
  5  6  1  0  0  0  0
  5  8  2  0  0  0  0
  6  7  3  0  0  0  0
  8  9  1  0  0  0  0
  8 30  1  0  0  0  0
  9 10  2  0  0  0  0
  9 31  1  0  0  0  0
 10 11  1  0  0  0  0
 11 12  1  0  0  0  0
 12 13  1  0  0  0  0
 12 32  1  0  0  0  0
 12 33  1  0  0  0  0
 13 14  1  0  0  0  0
 13 34  1  0  0  0  0
 13 35  1  0  0  0  0
 14 25  1  0  0  0  0
 14 15  1  0  0  0  0
 15 16  1  0  0  0  0
 15 19  2  0  0  0  0
 16 17  1  0  0  0  0
 16 18  1  0  0  0  0
 16 36  1  0  0  0  0
 17 37  1  0  0  0  0
 17 38  1  0  0  0  0
 17 39  1  0  0  0  0
 18 40  1  0  0  0  0
 19 20  1  0  0  0  0
 20 25  2  0  0  0  0
 20 21  1  0  0  0  0
 21 22  2  0  0  0  0
 21 41  1  0  0  0  0
 22 23  1  0  0  0  0
 22 42  1  0  0  0  0
 23 24  2  0  0  0  0
 23 43  1  0  0  0  0
 24 25  1  0  0  0  0
 24 44  1  0  0  0  0
M  END
> <s_m_source_file>
AV-unprocessed.smi

> <i_m_source_file_index>
2346

> <i_lp_mmshare_version>
43012

> <i_f3d_flags>
0

> <s_epik_input>
W0NIM11PYzFbY0hdYyhDI04pW2NIXVtjSF1jMU9bQ0gyXVtDSDJdbihjKG4yKVtDQEhdKFtDSDNdKVtPSF0pYyhjMjMpW2NIXVtjSF1bY0hdW2NIXTM=

> <s_epik_cmdline>
J2VwaWtfcHl0aG9uJywgJy1waCcsICc3LjAnLCAnLXRuJywgJzgnLCAnLW1hJywgJzIwMCcsICctbWV0YWxfYmluZGluZycsICctaW1hZScsICc8aW5maWxlLm1hZT4nLCAnLW9tYWUnLCAnPG91dGZpbGUubWFlPic=

> <r_epik_Ionization_Penalty>
0.0419826

> <r_epik_Ionization_Penalty_Charging>
0

> <r_epik_Ionization_Penalty_Neutral>
0.0419826

> <r_epik_State_Penalty>
0.0354317

> <r_epik_Charging_Adjusted_Penalty>
0.0354317

> <i_epik_Tot_Q>
0

> <i_epik_Tot_abs_Q>
0

> <r_epik_Metal_State_Penalty>
3.65115e-05

> <b_epik_Metal_Only>
0

> <s_lp_Force_Field>
OPLS_2005

> <r_lp_Energy>
17.2355

> <b_lp_Chiralities_Consistent>
1

> <s_lp_Variant>
AV-unprocessed.smi:2346-2

> <Gold.Version>
5.8.1

> <Gold.Id.Protein>
6NUR|6NUR_protein|mol2

> <Gold.PLP.Fitness>
47.1451

> <Gold.PLP.PLP>
-41.9793

> <Gold.PLP.part.hbond>
-2.9289

> <Gold.PLP.part.metal>
0.0000

> <Gold.PLP.part.buried>
-5.2753

> <Gold.PLP.part.nonpolar>
-33.7510

> <Gold.PLP.part.repulsive>
0.1270

> <Gold.PLP.ligand.clash>
0.0000

> <Gold.PLP.ligand.torsion>
0.5583

> <Gold.PLP.Chemscore.Hbond>
2.0395

> <Gold.PLP.Chemscore.CHOScore>
0.0000

> <Gold.PLP.Chemscore.Metal>
0.0000

> <Gold.Chemscore.Hbonds>
donor molecule, donor type, donor heavy atom, donor atom, acceptor molecule, acceptor atom, score
      P1  H  6896  6907       L1    11  0.19
      P1  H  6896  6908       L1     2  0.93
      P1  H  7989  7998       L1    18  1.00

> <Gold.PLP.Chemscore.Internal.Correction>
0.1639

> <Gold.Rescore>
     Score         DG    S(hbond)    S(metal)    S(lipo)     H(rot)  DE(clash)    DE(int)     intcor
     18.85     -19.60       1.99        0.00     119.95       2.57       0.00       0.75       ----

> <Gold.Chemscore.Fitness>
18.8494

> <Gold.Chemscore.DG>
-19.5998

> <Gold.Chemscore.ZeroCoef>
-5.4800

> <Gold.Chemscore.Hbond>
1.9939

> <Gold.Chemscore.Metal>
0.0000

> <Gold.Chemscore.Lipo>
119.9513

> <Gold.Chemscore.Internal_Hbond>
0.0000

> <Gold.Chemscore.DEClash>
0.0047

> <Gold.Chemscore.DEInternal>
0.7457

> <Gold.Chemscore.Rot>
2.5681

> <Gold.Chemscore.Internal.Correction>
   9.000000E+99

> <Gold.Chemscore.Hbonds>
donor molecule, donor type, donor heavy atom, donor atom, acceptor molecule, acceptor atom, score
      P1  H  6896  6907       L1    11  0.06
      P1  H  6896  6908       L1     2  0.24
      P1  H  7989  7998       L1    18  0.98

> <Gold.Chemscore.Hbond.Weighted>
-6.6598

> <Gold.Chemscore.Metal.Weighted>
-0.0000

> <Gold.Chemscore.Lipo.Weighted>
-14.0343

> <Gold.Chemscore.Internal_Hbond.Weighted>
0.0000

> <Gold.Chemscore.DEClash.Weighted>
0.0047

> <Gold.Chemscore.DEInternal.Weighted>
0.7457

> <Gold.Chemscore.Rot.Weighted>
6.5743

> <Gold.Chemscore.Internal.Correction.Weighted>
   9.000000E+99

> <Gold.Protein.RotatedTorsions>
[ 6907 6896 6895 6894 ] final  -15.67 input  -60.11 | X-H torsion
[ 7974 7965 7964 7962 ] final  -93.87 input  175.53 | X-H torsion
[ 8008 7997 7996 7995 ] final  158.21 input   59.86 | X-H torsion
[ 10167 10162 10161 10158 ] final -116.44 input  -65.29 | X-H torsion
[ 10718 10713 10712 10709 ] final  -45.51 input   66.30 | X-H torsion
[ 10763 10752 10751 10750 ] final  -74.10 input  -60.55 | X-H torsion
[ 11005 11000 10999 10996 ] final -127.33 input  -57.11 | X-H torsion

> <Gold.Protein.ActiveResidues>
 VAL166  LYS551  ARG553  GLY616  TRP617  ASP618  TYR619  PRO620  LYS621  CYS622 
 ASP623  PHE694  ASN695  SER759  ASP760  ASP761  ALA762  ILE779  LEU786  VAL792 
 PHE793  MET794  SER795  GLU796  ALA797  LYS798  CYS799  TRP800  GLU811  SER814 

> <Gold.Protein.RotatedAtoms>
  151.3203  135.0817  159.9303 H   0  0  0  0  0  0  0  0  0  0  0  0  # atno 6907 bound_to 6896
  152.5258  133.9645  159.7743 H   0  0  0  0  0  0  0  0  0  0  0  0  # atno 6908 bound_to 6896
  150.9965  133.6045  159.2731 H   0  0  0  0  0  0  0  0  0  0  0  0  # atno 6909 bound_to 6896
  145.3808  140.9517  143.2395 H   0  0  0  0  0  0  0  0  0  0  0  0  # atno 7974 bound_to 7965
  156.2316  140.1864  156.7226 H   0  0  0  0  0  0  0  0  0  0  0  0  # atno 8008 bound_to 7997
  154.6033  140.0632  156.9425 H   0  0  0  0  0  0  0  0  0  0  0  0  # atno 8009 bound_to 7997
  155.2137  140.3302  155.4327 H   0  0  0  0  0  0  0  0  0  0  0  0  # atno 8010 bound_to 7997
  140.0792  143.4804  152.1936 H   0  0  0  0  0  0  0  0  0  0  0  0  # atno 10167 bound_to 10162
  156.2277  130.4170  149.8914 H   0  0  0  0  0  0  0  0  0  0  0  0  # atno 10718 bound_to 10713
  154.4685  135.5875  153.6305 H   0  0  0  0  0  0  0  0  0  0  0  0  # atno 10763 bound_to 10752
  152.9831  135.6061  154.3397 H   0  0  0  0  0  0  0  0  0  0  0  0  # atno 10764 bound_to 10752
  154.3276  135.2843  155.2467 H   0  0  0  0  0  0  0  0  0  0  0  0  # atno 10765 bound_to 10752
  140.9608  134.0939  157.3970 H   0  0  0  0  0  0  0  0  0  0  0  0  # atno 11005 bound_to 11000
  144.8509  139.5323  143.6857 LP  0  0  0  0  0  0  0  0  0  0  0  0  # atno 17320 bound_to 7965
  146.2843  139.6961  142.9207 LP  0  0  0  0  0  0  0  0  0  0  0  0  # atno 17321 bound_to 7965
  139.5790  144.7501  151.3690 LP  0  0  0  0  0  0  0  0  0  0  0  0  # atno 17342 bound_to 10162
  140.7086  143.7448  150.7527 LP  0  0  0  0  0  0  0  0  0  0  0  0  # atno 17343 bound_to 10162
  156.6539  130.8754  151.3536 LP  0  0  0  0  0  0  0  0  0  0  0  0  # atno 17370 bound_to 10713
  157.7118  130.9449  150.1116 LP  0  0  0  0  0  0  0  0  0  0  0  0  # atno 17371 bound_to 10713
  139.8877  135.0092  156.6578 LP  0  0  0  0  0  0  0  0  0  0  0  0  # atno 17394 bound_to 11000
  140.7470  133.8929  155.8319 LP  0  0  0  0  0  0  0  0  0  0  0  0  # atno 17395 bound_to 11000

$$$$
