AV-unprocessed.smi:910|AV-procd|sdf|4129|dock6
  -GOLD-   22720 2 33D 1   1.00000     0.00000
 Structure written by MMmdl.
 47 48  0  0  0  0  0  0  0  0  2 V2000
  146.5502  133.4973  150.8672 C   0  0  0  0  0  0  0  0  0  0  0  0
  145.8517  134.7262  151.3576 C   0  0  0  0  0  0  0  0  0  0  0  0
  146.3753  135.9739  151.5982 N   0  3  0  0  0  0  0  0  0  0  0  0
  145.4132  136.7906  152.0294 C   0  0  0  0  0  0  0  0  0  0  0  0
  145.5459  138.1559  152.3874 N   0  0  0  0  0  0  0  0  0  0  0  0
  146.5430  138.7150  153.0927 C   0  0  0  0  0  0  0  0  0  0  0  0
  147.5194  138.1087  153.5352 O   0  0  0  0  0  0  0  0  0  0  0  0
  146.3433  140.0287  153.2695 N   0  0  0  0  0  0  0  0  0  0  0  0
  147.2073  140.9122  154.0462 C   0  0  0  0  0  0  0  0  0  0  0  0
  147.4294  140.3776  155.4686 C   0  0  0  0  0  0  0  0  0  0  0  0
  148.6180  139.6013  155.4766 O   0  0  0  0  0  0  0  0  0  0  0  0
  149.7551  140.2430  154.9105 C   0  0  1  0  0  0  0  0  0  0  0  0
  149.9142  141.6669  155.4834 C   0  0  0  0  0  0  0  0  0  0  0  0
  150.2138  141.6427  156.9912 C   0  0  0  0  0  0  0  0  0  0  0  0
  151.4487  140.7824  157.2994 C   0  0  0  0  0  0  0  0  0  0  0  0
  151.2966  139.3608  156.7347 C   0  0  0  0  0  0  0  0  0  0  0  0
  150.9992  139.3816  155.2217 C   0  0  1  0  0  0  0  0  0  0  0  0
  150.8757  137.9631  154.6423 C   0  0  0  0  0  0  0  0  0  0  0  0
  144.2274  136.1302  152.0916 O   0  0  0  0  0  0  0  0  0  0  0  0
  144.5161  134.8465  151.6729 C   0  0  0  0  0  0  0  0  0  0  0  0
  143.3881  133.8714  151.6368 C   0  0  0  0  0  0  0  0  0  0  0  0
  146.6346  132.7521  151.6582 H   0  0  0  0  0  0  0  0  0  0  0  0
  147.5579  133.7261  150.5196 H   0  0  0  0  0  0  0  0  0  0  0  0
  146.0108  133.0405  150.0373 H   0  0  0  0  0  0  0  0  0  0  0  0
  147.3519  136.2023  151.4576 H   0  0  0  0  0  0  0  0  0  0  0  0
  145.5146  140.4468  152.8719 H   0  0  0  0  0  0  0  0  0  0  0  0
  148.1629  141.0442  153.5366 H   0  0  0  0  0  0  0  0  0  0  0  0
  146.7391  141.8958  154.0907 H   0  0  0  0  0  0  0  0  0  0  0  0
  147.5090  141.2059  156.1741 H   0  0  0  0  0  0  0  0  0  0  0  0
  146.5753  139.7728  155.7728 H   0  0  0  0  0  0  0  0  0  0  0  0
  149.6449  140.3005  153.8262 H   0  0  0  0  0  0  0  0  0  0  0  0
  150.7316  142.1706  154.9657 H   0  0  0  0  0  0  0  0  0  0  0  0
  149.0248  142.2657  155.2896 H   0  0  0  0  0  0  0  0  0  0  0  0
  150.3698  142.6587  157.3547 H   0  0  0  0  0  0  0  0  0  0  0  0
  149.3505  141.2515  157.5307 H   0  0  0  0  0  0  0  0  0  0  0  0
  152.3358  141.2517  156.8720 H   0  0  0  0  0  0  0  0  0  0  0  0
  151.6113  140.7389  158.3767 H   0  0  0  0  0  0  0  0  0  0  0  0
  152.2081  138.7942  156.9273 H   0  0  0  0  0  0  0  0  0  0  0  0
  150.4957  138.8425  157.2636 H   0  0  0  0  0  0  0  0  0  0  0  0
  151.8517  139.8514  154.7290 H   0  0  0  0  0  0  0  0  0  0  0  0
  150.0548  137.4126  155.1030 H   0  0  0  0  0  0  0  0  0  0  0  0
  151.7902  137.3928  154.8066 H   0  0  0  0  0  0  0  0  0  0  0  0
  150.6948  137.9927  153.5675 H   0  0  0  0  0  0  0  0  0  0  0  0
  143.0298  133.7338  150.6166 H   0  0  0  0  0  0  0  0  0  0  0  0
  142.5519  134.2158  152.2456 H   0  0  0  0  0  0  0  0  0  0  0  0
  143.7034  132.9000  152.0181 H   0  0  0  0  0  0  0  0  0  0  0  0
  144.8005  138.7659  152.0854 H   0  0  0  0  0  0  0  0  0  0  0  0
  1 22  1  0  0  0  0
  1 23  1  0  0  0  0
  1 24  1  0  0  0  0
  1  2  1  0  0  0  0
  2  3  1  0  0  0  0
  2 20  2  0  0  0  0
  3 25  1  0  0  0  0
  3  4  2  0  0  0  0
  4 19  1  0  0  0  0
  4  5  1  0  0  0  0
  5  6  1  0  0  0  0
  5 47  1  0  0  0  0
  6  8  1  0  0  0  0
  6  7  2  0  0  0  0
  8  9  1  0  0  0  0
  8 26  1  0  0  0  0
  9 10  1  0  0  0  0
  9 27  1  0  0  0  0
  9 28  1  0  0  0  0
 10 11  1  0  0  0  0
 10 29  1  0  0  0  0
 10 30  1  0  0  0  0
 11 12  1  0  0  0  0
 12 17  1  0  0  0  0
 12 13  1  0  0  0  0
 12 31  1  0  0  0  0
 13 14  1  0  0  0  0
 13 32  1  0  0  0  0
 13 33  1  0  0  0  0
 14 15  1  0  0  0  0
 14 34  1  0  0  0  0
 14 35  1  0  0  0  0
 15 16  1  0  0  0  0
 15 36  1  0  0  0  0
 15 37  1  0  0  0  0
 16 17  1  0  0  0  0
 16 38  1  0  0  0  0
 16 39  1  0  0  0  0
 17 18  1  0  0  0  0
 17 40  1  0  0  0  0
 18 41  1  0  0  0  0
 18 42  1  0  0  0  0
 18 43  1  0  0  0  0
 19 20  1  0  0  0  0
 20 21  1  0  0  0  0
 21 44  1  0  0  0  0
 21 45  1  0  0  0  0
 21 46  1  0  0  0  0
M  CHG  1   3   1
M  END
> <s_m_source_file>
AV-unprocessed.smi

> <i_m_source_file_index>
910

> <i_lp_mmshare_version>
43012

> <i_f3d_flags>
0

> <s_epik_input>
W0NIM11jMW5jKG9jMVtDSDNdKVtOSF1DKD1PKVtOSF1bQ0gyXVtDSDJdT1tDQEBIXTJbQ0gyXVtDSDJdW0NIMl1bQ0gyXVtDQEhdMltDSDNd

> <s_epik_cmdline>
J2VwaWtfcHl0aG9uJywgJy1waCcsICc3LjAnLCAnLXRuJywgJzgnLCAnLW1hJywgJzIwMCcsICctbWV0YWxfYmluZGluZycsICctaW1hZScsICc8aW5maWxlLm1hZT4nLCAnLW9tYWUnLCAnPG91dGZpbGUubWFlPic=

> <r_epik_Ionization_Penalty>
7.32931

> <r_epik_Ionization_Penalty_Charging>
7.12214

> <r_epik_Ionization_Penalty_Neutral>
0.207166

> <r_epik_State_Penalty>
2.61278

> <r_epik_Charging_Adjusted_Penalty>
9.73492

> <i_epik_Tot_Q>
1

> <i_epik_Tot_abs_Q>
1

> <r_epik_Metal_State_Penalty>
2.64585

> <b_epik_Metal_Only>
0

> <s_lp_Force_Field>
OPLS_2005

> <r_lp_Energy>
17.2334

> <b_lp_Chiralities_Consistent>
1

> <s_lp_Variant>
AV-unprocessed.smi:910-14

> <Gold.Version>
5.8.1

> <Gold.Id.Protein>
6NUR|6NUR_protein|mol2

> <Gold.PLP.Fitness>
45.2567

> <Gold.PLP.PLP>
-34.4876

> <Gold.PLP.part.hbond>
-3.8559

> <Gold.PLP.part.metal>
0.0000

> <Gold.PLP.part.buried>
-3.2621

> <Gold.PLP.part.nonpolar>
-29.0020

> <Gold.PLP.part.repulsive>
2.3194

> <Gold.PLP.ligand.clash>
0.0000

> <Gold.PLP.ligand.torsion>
0.6504

> <Gold.PLP.Chemscore.Hbond>
3.9920

> <Gold.PLP.Chemscore.CHOScore>
0.0000

> <Gold.PLP.Chemscore.Metal>
0.0000

> <Gold.Chemscore.Hbonds>
donor molecule, donor type, donor heavy atom, donor atom, acceptor molecule, acceptor atom, score
      L1  H     3    25       P1  7948  2.00
      L1  H     5    47       P1 10175  0.90
      L1  H     8    26       P1 10175  1.00

> <Gold.PLP.Chemscore.Internal.Correction>
0.0939

> <Gold.Rescore>
     Score         DG    S(hbond)    S(metal)    S(lipo)     H(rot)  DE(clash)    DE(int)     intcor
     15.43     -19.68       2.83        0.00      77.71       1.69       1.14       3.11       ----

> <Gold.Chemscore.Fitness>
15.4319

> <Gold.Chemscore.DG>
-19.6782

> <Gold.Chemscore.ZeroCoef>
-5.4800

> <Gold.Chemscore.Hbond>
2.8277

> <Gold.Chemscore.Metal>
0.0000

> <Gold.Chemscore.Lipo>
77.7138

> <Gold.Chemscore.Internal_Hbond>
0.0000

> <Gold.Chemscore.DEClash>
1.1362

> <Gold.Chemscore.DEInternal>
3.1100

> <Gold.Chemscore.Rot>
1.6949

> <Gold.Chemscore.Internal.Correction>
   9.000000E+99

> <Gold.Chemscore.Hbonds>
donor molecule, donor type, donor heavy atom, donor atom, acceptor molecule, acceptor atom, score
      L1  H     3    25       P1  7948  0.97
      L1  H     5    47       P1 10175  0.83
      L1  H     8    26       P1 10175  0.83

> <Gold.Chemscore.Hbond.Weighted>
-9.4446

> <Gold.Chemscore.Metal.Weighted>
-0.0000

> <Gold.Chemscore.Lipo.Weighted>
-9.0925

> <Gold.Chemscore.Internal_Hbond.Weighted>
0.0000

> <Gold.Chemscore.DEClash.Weighted>
1.1362

> <Gold.Chemscore.DEInternal.Weighted>
3.1100

> <Gold.Chemscore.Rot.Weighted>
4.3390

> <Gold.Chemscore.Internal.Correction.Weighted>
   9.000000E+99

> <Gold.Protein.RotatedTorsions>
[ 6907 6896 6895 6894 ] final  144.11 input  -60.11 | X-H torsion
[ 7974 7965 7964 7962 ] final  -79.61 input  175.53 | X-H torsion
[ 8008 7997 7996 7995 ] final   55.72 input   59.86 | X-H torsion
[ 10167 10162 10161 10158 ] final  173.00 input  -65.29 | X-H torsion
[ 10718 10713 10712 10709 ] final   97.57 input   66.30 | X-H torsion
[ 10763 10752 10751 10750 ] final   27.83 input  -60.55 | X-H torsion
[ 11005 11000 10999 10996 ] final   60.89 input  -57.11 | X-H torsion

> <Gold.Protein.ActiveResidues>
 VAL166  LYS551  ARG553  GLY616  TRP617  ASP618  TYR619  PRO620  LYS621  CYS622 
 ASP623  PHE694  ASN695  SER759  ASP760  ASP761  ALA762  ILE779  LEU786  VAL792 
 PHE793  MET794  SER795  GLU796  ALA797  LYS798  CYS799  TRP800  GLU811  SER814 

> <Gold.Protein.RotatedAtoms>
  152.1978  133.4819  159.5042 H   0  0  0  0  0  0  0  0  0  0  0  0  # atno 6907 bound_to 6896
  150.6963  134.1629  159.4192 H   0  0  0  0  0  0  0  0  0  0  0  0  # atno 6908 bound_to 6896
  151.9546  135.0152  160.0594 H   0  0  0  0  0  0  0  0  0  0  0  0  # atno 6909 bound_to 6896
  145.5709  140.9466  143.1396 H   0  0  0  0  0  0  0  0  0  0  0  0  # atno 7974 bound_to 7965
  155.5057  140.3475  155.4379 H   0  0  0  0  0  0  0  0  0  0  0  0  # atno 8008 bound_to 7997
  156.0883  140.1404  156.9652 H   0  0  0  0  0  0  0  0  0  0  0  0  # atno 8009 bound_to 7997
  154.4620  140.0931  156.6895 H   0  0  0  0  0  0  0  0  0  0  0  0  # atno 8010 bound_to 7997
  139.5094  144.3310  152.0111 H   0  0  0  0  0  0  0  0  0  0  0  0  # atno 10167 bound_to 10162
  157.6910  131.0613  150.4664 H   0  0  0  0  0  0  0  0  0  0  0  0  # atno 10718 bound_to 10713
  153.0531  135.6528  154.0645 H   0  0  0  0  0  0  0  0  0  0  0  0  # atno 10763 bound_to 10752
  154.0329  135.2910  155.3367 H   0  0  0  0  0  0  0  0  0  0  0  0  # atno 10764 bound_to 10752
  154.6830  135.5312  153.8356 H   0  0  0  0  0  0  0  0  0  0  0  0  # atno 10765 bound_to 10752
  140.0199  134.6168  155.9654 H   0  0  0  0  0  0  0  0  0  0  0  0  # atno 11005 bound_to 11000
  144.7438  139.7376  143.7300 LP  0  0  0  0  0  0  0  0  0  0  0  0  # atno 17320 bound_to 7965
  146.1785  139.4966  142.9882 LP  0  0  0  0  0  0  0  0  0  0  0  0  # atno 17321 bound_to 7965
  140.2750  144.3923  150.6138 LP  0  0  0  0  0  0  0  0  0  0  0  0  # atno 17342 bound_to 10162
  140.6061  143.2168  151.6979 LP  0  0  0  0  0  0  0  0  0  0  0  0  # atno 17343 bound_to 10162
  156.5004  130.4116  149.6356 LP  0  0  0  0  0  0  0  0  0  0  0  0  # atno 17370 bound_to 10713
  156.3333  130.7343  151.2276 LP  0  0  0  0  0  0  0  0  0  0  0  0  # atno 17371 bound_to 10713
  141.1767  133.6541  156.4858 LP  0  0  0  0  0  0  0  0  0  0  0  0  # atno 17394 bound_to 11000
  140.4405  134.7020  157.4989 LP  0  0  0  0  0  0  0  0  0  0  0  0  # atno 17395 bound_to 11000

$$$$
