AV-unprocessed.smi:667|AV-procd|sdf|3258|dock10
  -GOLD-   22720 0213D 1   1.00000     0.00000
 Structure written by MMmdl.
 48 49  0  0  0  0  0  0  0  0  1 V2000
  151.8246  140.1167  158.3843 C   0  0  0  0  0  0  0  0  0  0  0  0
  151.8006  141.3266  159.2745 C   0  0  0  0  0  0  0  0  0  0  0  0
  151.1367  142.4043  158.8910 N   0  0  0  0  0  0  0  0  0  0  0  0
  151.3056  143.2882  159.8950 N   0  0  0  0  0  0  0  0  0  0  0  0
  150.6953  144.6000  159.7982 C   0  0  0  0  0  0  0  0  0  0  0  0
  152.0759  142.7670  160.9162 C   0  0  0  0  0  0  0  0  0  0  0  0
  152.4032  143.5482  162.1477 C   0  0  0  0  0  0  0  0  0  0  0  0
  152.4182  141.4931  160.5490 C   0  0  0  0  0  0  0  0  0  0  0  0
  153.2495  140.4830  161.3034 C   0  0  0  0  0  0  0  0  0  0  0  0
  154.4835  140.0581  160.4995 C   0  0  0  0  0  0  0  0  0  0  0  0
  154.3412  139.5529  159.3866 O   0  0  0  0  0  0  0  0  0  0  0  0
  155.6826  140.2300  161.0792 N   0  0  0  0  0  0  0  0  0  0  0  0
  156.9594  139.8024  160.5208 C   0  0  0  0  0  0  0  0  0  0  0  0
  158.1100  140.7429  160.9356 C   0  0  1  0  0  0  0  0  0  0  0  0
  158.5624  140.5203  162.3772 C   0  0  0  0  0  0  0  0  0  0  0  0
  159.9802  139.9753  162.2470 C   0  0  0  0  0  0  0  0  0  0  0  0
  160.4564  140.5950  161.0666 O   0  0  0  0  0  0  0  0  0  0  0  0
  159.4035  140.5404  160.1138 C   0  0  2  0  0  0  0  0  0  0  0  0
  159.6481  141.5474  158.9655 C   0  0  0  0  0  0  0  0  0  0  0  0
  158.5641  141.4189  157.8841 C   0  0  0  0  0  0  0  0  0  0  0  0
  161.0510  141.4333  158.3410 C   0  0  0  0  0  0  0  0  0  0  0  0
  151.5473  139.2202  158.9386 H   0  0  0  0  0  0  0  0  0  0  0  0
  152.8210  139.9565  157.9727 H   0  0  0  0  0  0  0  0  0  0  0  0
  151.1310  140.2137  157.5484 H   0  0  0  0  0  0  0  0  0  0  0  0
  151.4499  145.3698  159.9602 H   0  0  0  0  0  0  0  0  0  0  0  0
  149.9174  144.6980  160.5557 H   0  0  0  0  0  0  0  0  0  0  0  0
  150.2508  144.7461  158.8128 H   0  0  0  0  0  0  0  0  0  0  0  0
  152.9458  142.9379  162.8697 H   0  0  0  0  0  0  0  0  0  0  0  0
  151.4953  143.9078  162.6325 H   0  0  0  0  0  0  0  0  0  0  0  0
  153.0236  144.4110  161.9049 H   0  0  0  0  0  0  0  0  0  0  0  0
  153.5908  140.8851  162.2577 H   0  0  0  0  0  0  0  0  0  0  0  0
  152.6620  139.5968  161.5461 H   0  0  0  0  0  0  0  0  0  0  0  0
  155.7065  140.6611  161.9922 H   0  0  0  0  0  0  0  0  0  0  0  0
  157.1757  138.7778  160.8281 H   0  0  0  0  0  0  0  0  0  0  0  0
  156.8638  139.7824  159.4347 H   0  0  0  0  0  0  0  0  0  0  0  0
  157.7579  141.7708  160.8555 H   0  0  0  0  0  0  0  0  0  0  0  0
  158.5852  141.4755  162.9034 H   0  0  0  0  0  0  0  0  0  0  0  0
  157.9140  139.8494  162.9419 H   0  0  0  0  0  0  0  0  0  0  0  0
  160.6046  140.2126  163.1086 H   0  0  0  0  0  0  0  0  0  0  0  0
  159.9716  138.8921  162.1142 H   0  0  0  0  0  0  0  0  0  0  0  0
  159.4001  139.5281  159.7045 H   0  0  0  0  0  0  0  0  0  0  0  0
  159.5579  142.5519  159.3788 H   0  0  0  0  0  0  0  0  0  0  0  0
  158.5911  140.4368  157.4110 H   0  0  0  0  0  0  0  0  0  0  0  0
  158.6962  142.1684  157.1034 H   0  0  0  0  0  0  0  0  0  0  0  0
  157.5677  141.5579  158.3046 H   0  0  0  0  0  0  0  0  0  0  0  0
  161.2156  140.4466  157.9074 H   0  0  0  0  0  0  0  0  0  0  0  0
  161.8406  141.6117  159.0698 H   0  0  0  0  0  0  0  0  0  0  0  0
  161.1815  142.1666  157.5448 H   0  0  0  0  0  0  0  0  0  0  0  0
  1  2  1  0  0  0  0
  1 22  1  0  0  0  0
  1 23  1  0  0  0  0
  1 24  1  0  0  0  0
  2  8  1  0  0  0  0
  2  3  2  0  0  0  0
  3  4  1  0  0  0  0
  4  5  1  0  0  0  0
  4  6  1  0  0  0  0
  5 25  1  0  0  0  0
  5 26  1  0  0  0  0
  5 27  1  0  0  0  0
  6  7  1  0  0  0  0
  6  8  2  0  0  0  0
  7 28  1  0  0  0  0
  7 29  1  0  0  0  0
  7 30  1  0  0  0  0
  8  9  1  0  0  0  0
  9 10  1  0  0  0  0
  9 31  1  0  0  0  0
  9 32  1  0  0  0  0
 10 11  2  0  0  0  0
 10 12  1  0  0  0  0
 12 13  1  0  0  0  0
 12 33  1  0  0  0  0
 13 14  1  0  0  0  0
 13 34  1  0  0  0  0
 13 35  1  0  0  0  0
 14 18  1  0  0  0  0
 14 15  1  0  0  0  0
 14 36  1  0  0  0  0
 15 16  1  0  0  0  0
 15 37  1  0  0  0  0
 15 38  1  0  0  0  0
 16 17  1  0  0  0  0
 16 39  1  0  0  0  0
 16 40  1  0  0  0  0
 17 18  1  0  0  0  0
 18 19  1  0  0  0  0
 18 41  1  0  0  0  0
 19 20  1  0  0  0  0
 19 21  1  0  0  0  0
 19 42  1  0  0  0  0
 20 43  1  0  0  0  0
 20 44  1  0  0  0  0
 20 45  1  0  0  0  0
 21 46  1  0  0  0  0
 21 47  1  0  0  0  0
 21 48  1  0  0  0  0
M  END
> <s_m_source_file>
AV-unprocessed.smi

> <i_m_source_file_index>
667

> <i_lp_mmshare_version>
43012

> <i_f3d_flags>
0

> <s_epik_input>
W0NIM11jMW5uKFtDSDNdKWMoW0NIM10pYzFbQ0gyXUMoPU8pW05IXVtDSDJdW0NAQEhdMltDSDJdW0NIMl1PW0NASF0yW0NIXShbQ0gzXSlbQ0gzXQ==

> <s_epik_cmdline>
J2VwaWtfcHl0aG9uJywgJy1waCcsICc3LjAnLCAnLXRuJywgJzgnLCAnLW1hJywgJzIwMCcsICctbWV0YWxfYmluZGluZycsICctaW1hZScsICc8aW5maWxlLm1hZT4nLCAnLW9tYWUnLCAnPG91dGZpbGUubWFlPic=

> <r_lp_tautomer_probability>
1

> <r_epik_Ionization_Penalty>
0.00315488

> <r_epik_Ionization_Penalty_Charging>
0

> <r_epik_Ionization_Penalty_Neutral>
0.00315488

> <r_epik_State_Penalty>
0.00222269

> <r_epik_Charging_Adjusted_Penalty>
0.00222269

> <i_epik_Tot_Q>
0

> <i_epik_Tot_abs_Q>
0

> <r_epik_Metal_State_Penalty>
-0

> <b_epik_Metal_Only>
0

> <s_lp_Force_Field>
OPLS_2005

> <r_lp_Energy>
15.0171

> <b_lp_Chiralities_Consistent>
1

> <s_lp_Variant>
AV-unprocessed.smi:667-4

> <Gold.Version>
5.8.1

> <Gold.Id.Protein>
6NUR|6NUR_protein|mol2

> <Gold.PLP.Fitness>
44.1306

> <Gold.PLP.PLP>
-41.8135

> <Gold.PLP.part.hbond>
-2.0000

> <Gold.PLP.part.metal>
0.0000

> <Gold.PLP.part.buried>
-3.0760

> <Gold.PLP.part.nonpolar>
-36.2126

> <Gold.PLP.part.repulsive>
0.1006

> <Gold.PLP.ligand.clash>
0.0000

> <Gold.PLP.ligand.torsion>
0.3565

> <Gold.PLP.Chemscore.Hbond>
1.0000

> <Gold.PLP.Chemscore.CHOScore>
0.0000

> <Gold.PLP.Chemscore.Metal>
0.0000

> <Gold.Chemscore.Hbonds>
donor molecule, donor type, donor heavy atom, donor atom, acceptor molecule, acceptor atom, score
      P1  H  7997  8009       L1    11  0.46

> <Gold.PLP.Chemscore.Internal.Correction>
0.0301

> <Gold.Rescore>
     Score         DG    S(hbond)    S(metal)    S(lipo)     H(rot)  DE(clash)    DE(int)     intcor
     15.55     -17.33       0.72        0.00     114.04       1.52       0.09       1.69       ----

> <Gold.Chemscore.Fitness>
15.5528

> <Gold.Chemscore.DG>
-17.3295

> <Gold.Chemscore.ZeroCoef>
-5.4800

> <Gold.Chemscore.Hbond>
0.7190

> <Gold.Chemscore.Metal>
0.0000

> <Gold.Chemscore.Lipo>
114.0393

> <Gold.Chemscore.Internal_Hbond>
0.0000

> <Gold.Chemscore.DEClash>
0.0892

> <Gold.Chemscore.DEInternal>
1.6874

> <Gold.Chemscore.Rot>
1.5213

> <Gold.Chemscore.Internal.Correction>
   9.000000E+99

> <Gold.Chemscore.Hbonds>
donor molecule, donor type, donor heavy atom, donor atom, acceptor molecule, acceptor atom, score
      P1  H  7997  8009       L1    11  0.45

> <Gold.Chemscore.Hbond.Weighted>
-2.4014

> <Gold.Chemscore.Metal.Weighted>
-0.0000

> <Gold.Chemscore.Lipo.Weighted>
-13.3426

> <Gold.Chemscore.Internal_Hbond.Weighted>
0.0000

> <Gold.Chemscore.DEClash.Weighted>
0.0892

> <Gold.Chemscore.DEInternal.Weighted>
1.6874

> <Gold.Chemscore.Rot.Weighted>
3.8945

> <Gold.Chemscore.Internal.Correction.Weighted>
   9.000000E+99

> <Gold.Protein.RotatedTorsions>
[ 6907 6896 6895 6894 ] final -130.44 input  -60.11 | X-H torsion
[ 7974 7965 7964 7962 ] final  -91.29 input  175.53 | X-H torsion
[ 8008 7997 7996 7995 ] final  114.81 input   59.86 | X-H torsion
[ 10167 10162 10161 10158 ] final -115.24 input  -65.29 | X-H torsion
[ 10718 10713 10712 10709 ] final -119.83 input   66.30 | X-H torsion
[ 10763 10752 10751 10750 ] final  172.73 input  -60.55 | X-H torsion
[ 11005 11000 10999 10996 ] final  -75.91 input  -57.11 | X-H torsion

> <Gold.Protein.ActiveResidues>
 VAL166  LYS551  ARG553  GLY616  TRP617  ASP618  TYR619  PRO620  LYS621  CYS622 
 ASP623  PHE694  ASN695  SER759  ASP760  ASP761  ALA762  ILE779  LEU786  VAL792 
 PHE793  MET794  SER795  GLU796  ALA797  LYS798  CYS799  TRP800  GLU811  SER814 

> <Gold.Protein.RotatedAtoms>
  150.9398  133.6669  159.2792 H   0  0  0  0  0  0  0  0  0  0  0  0  # atno 6907 bound_to 6896
  151.4062  135.0977  159.9581 H   0  0  0  0  0  0  0  0  0  0  0  0  # atno 6908 bound_to 6896
  152.5064  133.8881  159.7435 H   0  0  0  0  0  0  0  0  0  0  0  0  # atno 6909 bound_to 6896
  145.4152  140.9547  143.2212 H   0  0  0  0  0  0  0  0  0  0  0  0  # atno 7974 bound_to 7965
  156.2344  140.2951  156.0272 H   0  0  0  0  0  0  0  0  0  0  0  0  # atno 8008 bound_to 7997
  155.2134  140.0413  157.2954 H   0  0  0  0  0  0  0  0  0  0  0  0  # atno 8009 bound_to 7997
  154.6052  140.2437  155.7748 H   0  0  0  0  0  0  0  0  0  0  0  0  # atno 8010 bound_to 7997
  140.0922  143.4689  152.1863 H   0  0  0  0  0  0  0  0  0  0  0  0  # atno 10167 bound_to 10162
  156.1211  130.6324  150.9465 H   0  0  0  0  0  0  0  0  0  0  0  0  # atno 10718 bound_to 10713
  154.4301  135.2759  155.1918 H   0  0  0  0  0  0  0  0  0  0  0  0  # atno 10763 bound_to 10752
  154.3827  135.6084  153.5803 H   0  0  0  0  0  0  0  0  0  0  0  0  # atno 10764 bound_to 10752
  152.9836  135.5884  154.4611 H   0  0  0  0  0  0  0  0  0  0  0  0  # atno 10765 bound_to 10752
  141.1649  133.6964  156.7589 H   0  0  0  0  0  0  0  0  0  0  0  0  # atno 11005 bound_to 11000
  144.8282  139.5673  143.6956 LP  0  0  0  0  0  0  0  0  0  0  0  0  # atno 17320 bound_to 7965
  146.2685  139.6577  142.9313 LP  0  0  0  0  0  0  0  0  0  0  0  0  # atno 17321 bound_to 7965
  139.5718  144.7467  151.3870 LP  0  0  0  0  0  0  0  0  0  0  0  0  # atno 17342 bound_to 10162
  140.7022  143.7602  150.7422 LP  0  0  0  0  0  0  0  0  0  0  0  0  # atno 17343 bound_to 10162
  157.6394  131.0912  150.8281 LP  0  0  0  0  0  0  0  0  0  0  0  0  # atno 17370 bound_to 10713
  156.8378  130.5037  149.5324 LP  0  0  0  0  0  0  0  0  0  0  0  0  # atno 17371 bound_to 10713
  140.2549  134.8512  157.3703 LP  0  0  0  0  0  0  0  0  0  0  0  0  # atno 17394 bound_to 11000
  140.1667  134.4660  155.7858 LP  0  0  0  0  0  0  0  0  0  0  0  0  # atno 17395 bound_to 11000

$$$$
