AV-unprocessed.smi:1946|AV-procd|sdf|7863|dock1
  -GOLD-   2272010 13D 1   1.00000     0.00000
 Structure written by MMmdl.
 39 41  0  0  0  0  0  0  0  0  2 V2000
  149.9443  132.5220  155.5790 C   0  0  0  0  0  0  0  0  0  0  0  0
  149.3720  133.5860  156.9649 S   0  0  0  0  0  0  0  0  0  0  0  0
  147.9123  133.7335  156.8541 O   0  0  0  0  0  0  0  0  0  0  0  0
  149.9585  133.0669  158.2104 O   0  0  0  0  0  0  0  0  0  0  0  0
  150.1192  135.1734  156.6155 C   0  0  0  0  0  0  0  0  0  0  0  0
  150.5734  135.9792  157.6780 C   0  0  0  0  0  0  0  0  0  0  0  0
  151.1351  137.2412  157.4040 C   0  0  0  0  0  0  0  0  0  0  0  0
  151.2376  137.7029  156.0725 C   0  0  0  0  0  0  0  0  0  0  0  0
  151.8426  139.0656  155.7733 C   0  0  2  0  0  0  0  0  0  0  0  0
  152.9951  138.9669  154.9595 O   0  0  0  0  0  0  0  0  0  0  0  0
  152.1707  139.8306  157.0717 C   0  0  0  0  0  0  0  0  0  0  0  0
  151.6040  141.1870  157.0986 N   0  0  0  0  0  0  0  0  0  0  0  0
  150.6286  141.7355  156.3247 C   0  0  0  0  0  0  0  0  0  0  0  0
  150.4530  143.0226  156.7336 N   0  3  0  0  0  0  0  0  0  0  0  0
  151.3290  143.3019  157.7845 C   0  0  0  0  0  0  0  0  0  0  0  0
  151.5224  144.4648  158.5238 C   0  0  0  0  0  0  0  0  0  0  0  0
  152.5065  144.4169  159.5327 C   0  0  0  0  0  0  0  0  0  0  0  0
  153.2542  143.2462  159.7746 C   0  0  0  0  0  0  0  0  0  0  0  0
  153.0493  142.0727  159.0192 C   0  0  0  0  0  0  0  0  0  0  0  0
  152.0731  142.1269  158.0245 C   0  0  0  0  0  0  0  0  0  0  0  0
  150.7615  136.8948  155.0167 C   0  0  0  0  0  0  0  0  0  0  0  0
  150.1980  135.6324  155.2859 C   0  0  0  0  0  0  0  0  0  0  0  0
  149.5350  131.5192  155.6994 H   0  0  0  0  0  0  0  0  0  0  0  0
  151.0330  132.4719  155.5834 H   0  0  0  0  0  0  0  0  0  0  0  0
  149.6035  132.9417  154.6327 H   0  0  0  0  0  0  0  0  0  0  0  0
  150.4941  135.6364  158.6992 H   0  0  0  0  0  0  0  0  0  0  0  0
  151.4850  137.8557  158.2206 H   0  0  0  0  0  0  0  0  0  0  0  0
  151.1138  139.6452  155.2049 H   0  0  0  0  0  0  0  0  0  0  0  0
  153.3787  138.1126  155.0873 H   0  0  0  0  0  0  0  0  0  0  0  0
  151.7583  139.2963  157.9287 H   0  0  0  0  0  0  0  0  0  0  0  0
  153.2465  139.8878  157.2393 H   0  0  0  0  0  0  0  0  0  0  0  0
  150.0904  141.2394  155.5300 H   0  0  0  0  0  0  0  0  0  0  0  0
  150.9525  145.3636  158.3394 H   0  0  0  0  0  0  0  0  0  0  0  0
  152.6929  145.2961  160.1323 H   0  0  0  0  0  0  0  0  0  0  0  0
  154.0021  143.2482  160.5542 H   0  0  0  0  0  0  0  0  0  0  0  0
  153.6328  141.1842  159.2091 H   0  0  0  0  0  0  0  0  0  0  0  0
  150.8246  137.2406  153.9954 H   0  0  0  0  0  0  0  0  0  0  0  0
  149.8310  135.0238  154.4729 H   0  0  0  0  0  0  0  0  0  0  0  0
  149.7836  143.6613  156.3235 H   0  0  0  0  0  0  0  0  0  0  0  0
  1  2  1  0  0  0  0
  1 23  1  0  0  0  0
  1 24  1  0  0  0  0
  1 25  1  0  0  0  0
  2  3  2  0  0  0  0
  2  4  2  0  0  0  0
  2  5  1  0  0  0  0
  5 22  1  0  0  0  0
  5  6  2  0  0  0  0
  6  7  1  0  0  0  0
  6 26  1  0  0  0  0
  7  8  2  0  0  0  0
  7 27  1  0  0  0  0
  8  9  1  0  0  0  0
  8 21  1  0  0  0  0
  9 10  1  0  0  0  0
  9 11  1  0  0  0  0
  9 28  1  0  0  0  0
 10 29  1  0  0  0  0
 11 12  1  0  0  0  0
 11 30  1  0  0  0  0
 11 31  1  0  0  0  0
 12 20  1  0  0  0  0
 12 13  1  0  0  0  0
 13 14  2  0  0  0  0
 13 32  1  0  0  0  0
 14 15  1  0  0  0  0
 14 39  1  0  0  0  0
 15 20  2  0  0  0  0
 15 16  1  0  0  0  0
 16 17  2  0  0  0  0
 16 33  1  0  0  0  0
 17 18  1  0  0  0  0
 17 34  1  0  0  0  0
 18 19  2  0  0  0  0
 18 35  1  0  0  0  0
 19 20  1  0  0  0  0
 19 36  1  0  0  0  0
 21 22  2  0  0  0  0
 21 37  1  0  0  0  0
 22 38  1  0  0  0  0
M  CHG  1  14   1
M  END
> <s_m_source_file>
AV-unprocessed.smi

> <i_m_source_file_index>
1946

> <i_lp_mmshare_version>
43012

> <i_f3d_flags>
0

> <s_epik_input>
W0NIM11TKD1PKSg9TyljMVtjSF1bY0hdYyhbY0hdW2NIXTEpW0NASF0oW09IXSlbQ0gyXW4oW2NIXW4yKWMoYzIzKVtjSF1bY0hdW2NIXVtjSF0z

> <s_epik_cmdline>
J2VwaWtfcHl0aG9uJywgJy1waCcsICc3LjAnLCAnLXRuJywgJzgnLCAnLW1hJywgJzIwMCcsICctbWV0YWxfYmluZGluZycsICctaW1hZScsICc8aW5maWxlLm1hZT4nLCAnLW9tYWUnLCAnPG91dGZpbGUubWFlPic=

> <r_epik_Ionization_Penalty>
1.3029

> <r_epik_Ionization_Penalty_Charging>
1.3029

> <r_epik_Ionization_Penalty_Neutral>
1.34362e-06

> <r_epik_State_Penalty>
1.377

> <r_epik_Charging_Adjusted_Penalty>
2.6799

> <i_epik_Tot_Q>
1

> <i_epik_Tot_abs_Q>
1

> <r_epik_Metal_State_Penalty>
5.40879

> <b_epik_Metal_Only>
0

> <s_lp_Force_Field>
OPLS_2005

> <r_lp_Energy>
15.3406

> <b_lp_Chiralities_Consistent>
1

> <s_lp_Variant>
AV-unprocessed.smi:1946-3

> <Gold.Version>
5.8.1

> <Gold.Id.Protein>
6NUR|6NUR_protein|mol2

> <Gold.PLP.Fitness>
51.3318

> <Gold.PLP.PLP>
-41.4204

> <Gold.PLP.part.hbond>
-3.0000

> <Gold.PLP.part.metal>
0.0000

> <Gold.PLP.part.buried>
-6.2514

> <Gold.PLP.part.nonpolar>
-33.4625

> <Gold.PLP.part.repulsive>
0.0506

> <Gold.PLP.ligand.clash>
0.0000

> <Gold.PLP.ligand.torsion>
2.0826

> <Gold.PLP.Chemscore.Hbond>
4.0000

> <Gold.PLP.Chemscore.CHOScore>
0.0000

> <Gold.PLP.Chemscore.Metal>
0.0000

> <Gold.Chemscore.Hbonds>
donor molecule, donor type, donor heavy atom, donor atom, acceptor molecule, acceptor atom, score
      L1  H    14    39       P1  8028  2.00
      P1  H  6896  6908       L1     4  0.94
      P1  H  7997  8010       L1    10  0.78

> <Gold.PLP.Chemscore.Internal.Correction>
2.0766

> <Gold.Rescore>
     Score         DG    S(hbond)    S(metal)    S(lipo)     H(rot)  DE(clash)    DE(int)     intcor
     20.56     -22.90       2.78        0.00     114.17       2.04       0.09       2.24       ----

> <Gold.Chemscore.Fitness>
20.5595

> <Gold.Chemscore.DG>
-22.8972

> <Gold.Chemscore.ZeroCoef>
-5.4800

> <Gold.Chemscore.Hbond>
2.7774

> <Gold.Chemscore.Metal>
0.0000

> <Gold.Chemscore.Lipo>
114.1745

> <Gold.Chemscore.Internal_Hbond>
0.0000

> <Gold.Chemscore.DEClash>
0.0928

> <Gold.Chemscore.DEInternal>
2.2450

> <Gold.Chemscore.Rot>
2.0382

> <Gold.Chemscore.Internal.Correction>
   9.000000E+99

> <Gold.Chemscore.Hbonds>
donor molecule, donor type, donor heavy atom, donor atom, acceptor molecule, acceptor atom, score
      L1  H    14    39       P1  8028  0.93
      P1  H  6896  6908       L1     4  0.90
      P1  H  7997  8010       L1    10  0.08

> <Gold.Chemscore.Hbond.Weighted>
-9.2765

> <Gold.Chemscore.Metal.Weighted>
-0.0000

> <Gold.Chemscore.Lipo.Weighted>
-13.3584

> <Gold.Chemscore.Internal_Hbond.Weighted>
0.0000

> <Gold.Chemscore.DEClash.Weighted>
0.0928

> <Gold.Chemscore.DEInternal.Weighted>
2.2450

> <Gold.Chemscore.Rot.Weighted>
5.2177

> <Gold.Chemscore.Internal.Correction.Weighted>
   9.000000E+99

> <Gold.Protein.RotatedTorsions>
[ 6907 6896 6895 6894 ] final  106.10 input  -60.11 | X-H torsion
[ 7974 7965 7964 7962 ] final  -66.37 input  175.53 | X-H torsion
[ 8008 7997 7996 7995 ] final   97.46 input   59.86 | X-H torsion
[ 10167 10162 10161 10158 ] final -169.09 input  -65.29 | X-H torsion
[ 10718 10713 10712 10709 ] final -126.25 input   66.30 | X-H torsion
[ 10763 10752 10751 10750 ] final  -18.51 input  -60.55 | X-H torsion
[ 11005 11000 10999 10996 ] final   40.80 input  -57.11 | X-H torsion

> <Gold.Protein.ActiveResidues>
 VAL166  LYS551  ARG553  GLY616  TRP617  ASP618  TYR619  PRO620  LYS621  CYS622 
 ASP623  PHE694  ASN695  SER759  ASP760  ASP761  ALA762  ILE779  LEU786  VAL792 
 PHE793  MET794  SER795  GLU796  ALA797  LYS798  CYS799  TRP800  GLU811  SER814 

> <Gold.Protein.RotatedAtoms>
  152.5206  133.9430  159.7635 H   0  0  0  0  0  0  0  0  0  0  0  0  # atno 6907 bound_to 6896
  150.9756  133.6290  159.2738 H   0  0  0  0  0  0  0  0  0  0  0  0  # atno 6908 bound_to 6896
  151.3486  135.0885  159.9448 H   0  0  0  0  0  0  0  0  0  0  0  0  # atno 6909 bound_to 6896
  145.7427  140.8946  143.0521 H   0  0  0  0  0  0  0  0  0  0  0  0  # atno 7974 bound_to 7965
  156.0904  140.3258  155.7808 H   0  0  0  0  0  0  0  0  0  0  0  0  # atno 8008 bound_to 7997
  155.5006  140.0569  157.2957 H   0  0  0  0  0  0  0  0  0  0  0  0  # atno 8009 bound_to 7997
  154.4634  140.1977  156.0199 H   0  0  0  0  0  0  0  0  0  0  0  0  # atno 8010 bound_to 7997
  139.5944  144.1144  152.1672 H   0  0  0  0  0  0  0  0  0  0  0  0  # atno 10167 bound_to 10162
  156.1748  130.6692  151.0228 H   0  0  0  0  0  0  0  0  0  0  0  0  # atno 10718 bound_to 10713
  153.5905  135.7002  153.5425 H   0  0  0  0  0  0  0  0  0  0  0  0  # atno 10763 bound_to 10752
  153.3183  135.4081  155.1394 H   0  0  0  0  0  0  0  0  0  0  0  0  # atno 10764 bound_to 10752
  154.8601  135.3689  154.5436 H   0  0  0  0  0  0  0  0  0  0  0  0  # atno 10765 bound_to 10752
  140.1896  134.4003  155.8154 H   0  0  0  0  0  0  0  0  0  0  0  0  # atno 11005 bound_to 11000
  144.6867  139.9482  143.7477 LP  0  0  0  0  0  0  0  0  0  0  0  0  # atno 17320 bound_to 7965
  146.0433  139.3442  143.0684 LP  0  0  0  0  0  0  0  0  0  0  0  0  # atno 17321 bound_to 7965
  140.0725  144.5767  150.7181 LP  0  0  0  0  0  0  0  0  0  0  0  0  # atno 17342 bound_to 10162
  140.7200  143.2579  151.4310 LP  0  0  0  0  0  0  0  0  0  0  0  0  # atno 17343 bound_to 10162
  157.6828  131.0833  150.7324 LP  0  0  0  0  0  0  0  0  0  0  0  0  # atno 17370 bound_to 10713
  156.7382  130.4731  149.5483 LP  0  0  0  0  0  0  0  0  0  0  0  0  # atno 17371 bound_to 10713
  141.2226  133.7040  156.8071 LP  0  0  0  0  0  0  0  0  0  0  0  0  # atno 17394 bound_to 11000
  140.2175  134.8782  157.3341 LP  0  0  0  0  0  0  0  0  0  0  0  0  # atno 17395 bound_to 11000

$$$$
