AV-unprocessed.smi:1014|AV-procd|sdf|4431|dock10
  -GOLD-   22720 2393D 1   1.00000     0.00000
 Structure written by MMmdl.
 34 34  0  0  0  0  0  0  0  0  2 V2000
  146.6007  142.4172  154.2753 C   0  0  0  0  0  0  0  0  0  0  0  0
  147.3424  141.0847  154.0840 C   0  0  0  0  0  0  0  0  0  0  0  0
  148.8773  141.1711  154.2352 C   0  0  1  0  0  0  0  0  0  0  0  0
  149.2032  141.7367  155.5652 N   0  3  0  0  0  0  0  0  0  0  0  0
  150.6405  141.9762  155.8162 C   0  0  0  0  0  0  0  0  0  0  0  0
  151.0885  141.2972  157.1186 C   0  0  0  0  0  0  0  0  0  0  0  0
  151.4971  142.2620  158.1213 N   0  0  0  0  0  0  0  0  0  0  0  0
  151.2981  143.6263  158.1328 C   0  0  0  0  0  0  0  0  0  0  0  0
  151.8442  144.1116  159.2873 C   0  0  0  0  0  0  0  0  0  0  0  0
  151.8932  145.5300  159.7774 C   0  0  0  0  0  0  0  0  0  0  0  0
  152.3568  142.9468  159.9262 C   0  0  0  0  0  0  0  0  0  0  0  0
  152.1458  141.8428  159.2283 N   0  0  0  0  0  0  0  0  0  0  0  0
  149.5374  139.7952  154.0455 C   0  0  0  0  0  0  0  0  0  0  0  0
  148.8068  138.8402  153.4642 N   0  0  0  0  0  0  0  0  0  0  0  0
  150.6891  139.5958  154.4273 O   0  0  0  0  0  0  0  0  0  0  0  0
  145.5220  142.2660  154.2291 H   0  0  0  0  0  0  0  0  0  0  0  0
  146.8594  143.1399  153.5014 H   0  0  0  0  0  0  0  0  0  0  0  0
  146.8307  142.8623  155.2436 H   0  0  0  0  0  0  0  0  0  0  0  0
  146.9560  140.3780  154.8198 H   0  0  0  0  0  0  0  0  0  0  0  0
  147.0856  140.6679  153.1088 H   0  0  0  0  0  0  0  0  0  0  0  0
  149.2557  141.8594  153.4772 H   0  0  0  0  0  0  0  0  0  0  0  0
  148.7277  142.6234  155.6500 H   0  0  0  0  0  0  0  0  0  0  0  0
  151.2249  141.5952  154.9777 H   0  0  0  0  0  0  0  0  0  0  0  0
  150.8233  143.0500  155.8756 H   0  0  0  0  0  0  0  0  0  0  0  0
  150.2785  140.6925  157.5288 H   0  0  0  0  0  0  0  0  0  0  0  0
  151.9250  140.6223  156.9308 H   0  0  0  0  0  0  0  0  0  0  0  0
  150.7887  144.1353  157.3277 H   0  0  0  0  0  0  0  0  0  0  0  0
  152.5073  145.6289  160.6728 H   0  0  0  0  0  0  0  0  0  0  0  0
  150.8998  145.9033  160.0271 H   0  0  0  0  0  0  0  0  0  0  0  0
  152.3105  146.2014  159.0269 H   0  0  0  0  0  0  0  0  0  0  0  0
  152.8718  142.8713  160.8727 H   0  0  0  0  0  0  0  0  0  0  0  0
  149.1982  137.9221  153.3105 H   0  0  0  0  0  0  0  0  0  0  0  0
  147.8614  139.0428  153.1713 H   0  0  0  0  0  0  0  0  0  0  0  0
  148.8453  141.1100  156.2722 H   0  0  0  0  0  0  0  0  0  0  0  0
  1  2  1  0  0  0  0
  1 16  1  0  0  0  0
  1 17  1  0  0  0  0
  1 18  1  0  0  0  0
  2  3  1  0  0  0  0
  2 19  1  0  0  0  0
  2 20  1  0  0  0  0
  3  4  1  0  0  0  0
  3 13  1  0  0  0  0
  3 21  1  0  0  0  0
  4  5  1  0  0  0  0
  4 22  1  0  0  0  0
  4 34  1  0  0  0  0
  5  6  1  0  0  0  0
  5 23  1  0  0  0  0
  5 24  1  0  0  0  0
  6  7  1  0  0  0  0
  6 25  1  0  0  0  0
  6 26  1  0  0  0  0
  7 12  1  0  0  0  0
  7  8  1  0  0  0  0
  8  9  2  0  0  0  0
  8 27  1  0  0  0  0
  9 10  1  0  0  0  0
  9 11  1  0  0  0  0
 10 28  1  0  0  0  0
 10 29  1  0  0  0  0
 10 30  1  0  0  0  0
 11 12  2  0  0  0  0
 11 31  1  0  0  0  0
 13 14  1  0  0  0  0
 13 15  2  0  0  0  0
 14 32  1  0  0  0  0
 14 33  1  0  0  0  0
M  CHG  1   4   1
M  END
> <s_m_source_file>
AV-unprocessed.smi

> <i_m_source_file_index>
1014

> <i_lp_mmshare_version>
43012

> <i_f3d_flags>
0

> <s_epik_input>
W0NIM11bQ0gyXVtDQEBIXShDKD1PKVtOSDJdKVtOSF1bQ0gyXVtDSDJdbjFbY0hdYyhbQ0gzXSlbY0hdbjE=

> <s_epik_cmdline>
J2VwaWtfcHl0aG9uJywgJy1waCcsICc3LjAnLCAnLXRuJywgJzgnLCAnLW1hJywgJzIwMCcsICctbWV0YWxfYmluZGluZycsICctaW1hZScsICc8aW5maWxlLm1hZT4nLCAnLW9tYWUnLCAnPG91dGZpbGUubWFlPic=

> <r_lp_tautomer_probability>
1

> <r_epik_Ionization_Penalty>
0.19042

> <r_epik_Ionization_Penalty_Charging>
0.190412

> <r_epik_Ionization_Penalty_Neutral>
7.5834e-06

> <r_epik_State_Penalty>
0.180404

> <r_epik_Charging_Adjusted_Penalty>
0.370816

> <i_epik_Tot_Q>
1

> <i_epik_Tot_abs_Q>
1

> <r_epik_Metal_State_Penalty>
0.180563

> <b_epik_Metal_Only>
0

> <s_lp_Force_Field>
OPLS_2005

> <r_lp_Energy>
2.60817

> <b_lp_Chiralities_Consistent>
1

> <s_lp_Variant>
AV-unprocessed.smi:1014-2

> <Gold.Version>
5.8.1

> <Gold.Id.Protein>
6NUR|6NUR_protein|mol2

> <Gold.PLP.Fitness>
47.8911

> <Gold.PLP.PLP>
-37.3660

> <Gold.PLP.part.hbond>
-3.8907

> <Gold.PLP.part.metal>
0.0000

> <Gold.PLP.part.buried>
-1.8471

> <Gold.PLP.part.nonpolar>
-31.5502

> <Gold.PLP.part.repulsive>
0.3301

> <Gold.PLP.ligand.clash>
0.0000

> <Gold.PLP.ligand.torsion>
1.3587

> <Gold.PLP.Chemscore.Hbond>
3.3949

> <Gold.PLP.Chemscore.CHOScore>
0.9943

> <Gold.PLP.Chemscore.Metal>
0.0000

> <Gold.Chemscore.Hbonds>
donor molecule, donor type, donor heavy atom, donor atom, acceptor molecule, acceptor atom, score
      L1  H     4    22       P1  8028  1.62
      L1  H    14    32       P1  7948  0.42
      P1  H  7989  7998       L1    15  1.00
      L1  C     8    27       P1  8028  0.90

> <Gold.PLP.Chemscore.Internal.Correction>
0.0746

> <Gold.Rescore>
     Score         DG    S(hbond)    S(metal)    S(lipo)     H(rot)  DE(clash)    DE(int)     intcor
     11.80     -14.85       1.92        0.00      81.80       2.59       0.52       2.52       ----

> <Gold.Chemscore.Fitness>
11.7997

> <Gold.Chemscore.DG>
-14.8471

> <Gold.Chemscore.ZeroCoef>
-5.4800

> <Gold.Chemscore.Hbond>
1.9225

> <Gold.Chemscore.Metal>
0.0000

> <Gold.Chemscore.Lipo>
81.8006

> <Gold.Chemscore.Internal_Hbond>
0.0000

> <Gold.Chemscore.DEClash>
0.5237

> <Gold.Chemscore.DEInternal>
2.5238

> <Gold.Chemscore.Rot>
2.5878

> <Gold.Chemscore.Internal.Correction>
   9.000000E+99

> <Gold.Chemscore.Hbonds>
donor molecule, donor type, donor heavy atom, donor atom, acceptor molecule, acceptor atom, score
      L1  H     4    22       P1  8028  0.76
      L1  H    14    32       P1  7948  0.41
      P1  H  7989  7998       L1    15  0.35

> <Gold.Chemscore.Hbond.Weighted>
-6.4212

> <Gold.Chemscore.Metal.Weighted>
-0.0000

> <Gold.Chemscore.Lipo.Weighted>
-9.5707

> <Gold.Chemscore.Internal_Hbond.Weighted>
0.0000

> <Gold.Chemscore.DEClash.Weighted>
0.5237

> <Gold.Chemscore.DEInternal.Weighted>
2.5238

> <Gold.Chemscore.Rot.Weighted>
6.6247

> <Gold.Chemscore.Internal.Correction.Weighted>
   9.000000E+99

> <Gold.Protein.RotatedTorsions>
[ 6907 6896 6895 6894 ] final  141.93 input  -60.11 | X-H torsion
[ 7974 7965 7964 7962 ] final   73.46 input  175.53 | X-H torsion
[ 8008 7997 7996 7995 ] final   67.26 input   59.86 | X-H torsion
[ 10167 10162 10161 10158 ] final  -81.42 input  -65.29 | X-H torsion
[ 10718 10713 10712 10709 ] final  -97.12 input   66.30 | X-H torsion
[ 10763 10752 10751 10750 ] final -160.38 input  -60.55 | X-H torsion
[ 11005 11000 10999 10996 ] final -119.08 input  -57.11 | X-H torsion

> <Gold.Protein.ActiveResidues>
 VAL166  LYS551  ARG553  GLY616  TRP617  ASP618  TYR619  PRO620  LYS621  CYS622 
 ASP623  PHE694  ASN695  SER759  ASP760  ASP761  ALA762  ILE779  LEU786  VAL792 
 PHE793  MET794  SER795  GLU796  ALA797  LYS798  CYS799  TRP800  GLU811  SER814 

> <Gold.Protein.RotatedAtoms>
  152.2250  133.5013  159.5183 H   0  0  0  0  0  0  0  0  0  0  0  0  # atno 6907 bound_to 6896
  150.7022  134.1292  159.4072 H   0  0  0  0  0  0  0  0  0  0  0  0  # atno 6908 bound_to 6896
  151.9213  135.0297  160.0573 H   0  0  0  0  0  0  0  0  0  0  0  0  # atno 6909 bound_to 6896
  145.7405  139.2719  143.1489 H   0  0  0  0  0  0  0  0  0  0  0  0  # atno 7974 bound_to 7965
  155.6901  140.3496  155.4890 H   0  0  0  0  0  0  0  0  0  0  0  0  # atno 8008 bound_to 7997
  155.9532  140.1123  157.0981 H   0  0  0  0  0  0  0  0  0  0  0  0  # atno 8009 bound_to 7997
  154.4126  140.1190  156.5066 H   0  0  0  0  0  0  0  0  0  0  0  0  # atno 8010 bound_to 7997
  140.4413  143.2514  151.8621 H   0  0  0  0  0  0  0  0  0  0  0  0  # atno 10167 bound_to 10162
  156.0076  130.5181  150.6328 H   0  0  0  0  0  0  0  0  0  0  0  0  # atno 10718 bound_to 10713
  154.7395  135.3065  154.8753 H   0  0  0  0  0  0  0  0  0  0  0  0  # atno 10763 bound_to 10752
  153.9572  135.6757  153.4749 H   0  0  0  0  0  0  0  0  0  0  0  0  # atno 10764 bound_to 10752
  153.0995  135.4919  154.8765 H   0  0  0  0  0  0  0  0  0  0  0  0  # atno 10765 bound_to 10752
  141.0241  134.0081  157.3241 H   0  0  0  0  0  0  0  0  0  0  0  0  # atno 11005 bound_to 11000
  146.0452  140.8125  142.9809 LP  0  0  0  0  0  0  0  0  0  0  0  0  # atno 17320 bound_to 7965
  144.6871  140.2970  143.7269 LP  0  0  0  0  0  0  0  0  0  0  0  0  # atno 17321 bound_to 7965
  139.4790  144.5225  151.8781 LP  0  0  0  0  0  0  0  0  0  0  0  0  # atno 17342 bound_to 10162
  140.4315  144.2109  150.5888 LP  0  0  0  0  0  0  0  0  0  0  0  0  # atno 17343 bound_to 10162
  157.4123  131.0825  151.1210 LP  0  0  0  0  0  0  0  0  0  0  0  0  # atno 17370 bound_to 10713
  157.1837  130.6321  149.5680 LP  0  0  0  0  0  0  0  0  0  0  0  0  # atno 17371 bound_to 10713
  139.9164  135.0197  156.7898 LP  0  0  0  0  0  0  0  0  0  0  0  0  # atno 17394 bound_to 11000
  140.6523  133.9720  155.7761 LP  0  0  0  0  0  0  0  0  0  0  0  0  # atno 17395 bound_to 11000

$$$$
