#       Name:                AV-unprocessed.smi:2775
#       Creating user name   scv26
#       Creation time:       Fri Mar 27 15:13:57 2020


#       File generated by GOLD software.
#

@<TRIPOS>MOLECULE
AV-unprocessed.smi:2775
    47    50     1
SMALL
NO_CHARGES


@<TRIPOS>ATOM
      1 ****        -5.5083   1.9202   0.3691 C.3            1 S1                 0.0000
      2 ****        -4.7307   0.6425   0.1176 C.ar           1 S1                 0.0000
      3 ****        -5.4326  -0.4708  -0.1905 N.pl3          1 S1                 1.0000
      4 ****        -4.8513  -1.6651  -0.4287 C.ar           1 S1                 0.0000
      5 ****        -3.4497  -1.7893  -0.3657 C.ar           1 S1                 0.0000
      6 ****        -2.6644  -0.6490  -0.0624 C.ar           1 S1                 0.0000
      7 ****        -1.2479  -0.6901   0.0385 N.am           1 S1                 0.0000
      8 ****        -0.3833  -1.4893  -0.6153 C.2            1 S1                 0.0000
      9 ****        -0.7082  -2.3920  -1.3835 O.2            1 S1                 0.0000
     10 ****         0.9072  -1.1828  -0.3970 N.am           1 S1                 0.0000
     11 ****         2.0866  -1.8538  -0.9550 C.3            1 S1                 0.0000
     12 ****         2.6534  -2.9908  -0.0634 C.3            1 S1                 0.0000
     13 ****         1.9349  -3.5469   1.1438 C.3            1 S1                 0.0000
     14 ****         2.6124  -2.8217   2.3093 C.3            1 S1                 0.0000
     15 ****         3.1842  -1.6534   1.7265 O.3            1 S1                 0.0000
     16 ****         3.7044  -2.0144   0.4511 C.3            1 S1                 0.0000
     17 ****         3.3706  -1.0485  -0.6933 C.3            1 S1                 0.0000
     18 ****         3.3938   0.4752  -0.4839 C.3            1 S1                 0.0000
     19 ****         4.7629   0.4972  -1.1688 C.3            1 S1                 0.0000
     20 ****         4.3991  -0.8423  -1.8158 C.3            1 S1                 0.0000
     21 ****        -3.3194   0.5803   0.1956 C.ar           1 S1                 0.0000
     22 ****        -2.4047   1.9973   0.5915 Cl             1 S1                 0.0000
     23 ****        -5.1822   2.7045  -0.3146 H              1 S1                 0.0000
     24 ****        -5.3493   2.2656   1.3911 H              1 S1                 0.0000
     25 ****        -6.5791   1.7704   0.2251 H              1 S1                 0.0000
     26 ****        -5.5211  -2.4822  -0.6549 H              1 S1                 0.0000
     27 ****        -3.0026  -2.7564  -0.5393 H              1 S1                 0.0000
     28 ****        -0.8308   0.0606   0.5698 H              1 S1                 0.0000
     29 ****         1.0926  -0.3598   0.1587 H              1 S1                 0.0000
     30 ****         1.9861  -2.1379  -2.0039 H              1 S1                 0.0000
     31 ****         3.1166  -3.7605  -0.6826 H              1 S1                 0.0000
     32 ****         0.8661  -3.3427   1.1266 H              1 S1                 0.0000
     33 ****         2.0539  -4.6271   1.2321 H              1 S1                 0.0000
     34 ****         1.9165  -2.5698   3.1096 H              1 S1                 0.0000
     35 ****         3.4108  -3.4350   2.7298 H              1 S1                 0.0000
     36 ****         4.7186  -2.4157   0.4749 H              1 S1                 0.0000
     37 ****         2.6302   0.9963  -1.0634 H              1 S1                 0.0000
     38 ****         3.4002   0.7990   0.5572 H              1 S1                 0.0000
     39 ****         4.9101   1.3193  -1.8696 H              1 S1                 0.0000
     40 ****         5.5897   0.4132  -0.4617 H              1 S1                 0.0000
     41 ****         5.2091  -1.5717  -1.8410 H              1 S1                 0.0000
     42 ****         3.9361  -0.7212  -2.7964 H              1 S1                 0.0000
     43 ****        -6.4498  -0.4063  -0.2403 H              1 S1                 0.0000
     44 ****        -1.6754  -2.5747  -1.5596 LP             1 S1                 0.0000
     45 ****        -0.0053  -2.9437  -1.8324 LP             1 S1                 0.0000
     46 ****         3.9201  -1.3079   2.3089 LP             1 S1                 0.0000
     47 ****         2.4835  -0.9478   1.6210 LP             1 S1                 0.0000
@<TRIPOS>BOND
    1    1    2 1     
    2    1   23 1     
    3    1   24 1     
    4    1   25 1     
    5    2   21 ar    
    6    2    3 ar    
    7    3    4 ar    
    8    3   43 1     
    9    4    5 ar    
   10    4   26 1     
   11    5    6 ar    
   12    5   27 1     
   13    6    7 1     
   14    6   21 ar    
   15    7    8 am    
   16    7   28 1     
   17    8    9 2     
   18    8   10 am    
   19   10   11 1     
   20   10   29 1     
   21   11   17 1     
   22   11   12 1     
   23   11   30 1     
   24   12   16 1     
   25   12   13 1     
   26   12   31 1     
   27   13   14 1     
   28   13   32 1     
   29   13   33 1     
   30   14   15 1     
   31   14   34 1     
   32   14   35 1     
   33   15   16 1     
   34   16   17 1     
   35   16   36 1     
   36   17   20 1     
   37   17   18 1     
   38   18   19 1     
   39   18   37 1     
   40   18   38 1     
   41   19   20 1     
   42   19   39 1     
   43   19   40 1     
   44   20   41 1     
   45   20   42 1     
   46   21   22 1     
   47    9   44 1     
   48    9   45 1     
   49   15   46 1     
   50   15   47 1     
@<TRIPOS>SUBSTRUCTURE
      1 S1             1
@<TRIPOS>SET
LONE_PAIRS      STATIC     ATOMS    <user>   **** ""
4 44 45 46 47
DONOR_HYDROGENS      STATIC     ATOMS    <user>   **** ""
3 43 28 29
ATOM$BLUE        STATIC     ATOMS    COLORGROUP SYSTEM
4 44 45 46 47
ATOM$RED        STATIC     ATOMS    COLORGROUP SYSTEM
3 43 28 29
