AV-unprocessed.smi:532|AV-procd|sdf|2848|dock3
  -GOLD-   2262023333D 1   1.00000     0.00000
 Structure written by MMmdl.
 49 51  0  0  0  0  0  0  0  0  1 V2000
  150.4795  138.5382  158.3389 C   0  0  0  0  0  0  0  0  0  0  0  0
  151.7694  137.9935  158.1231 O   0  0  0  0  0  0  0  0  0  0  0  0
  152.0934  137.8941  156.7470 C   0  0  0  0  0  0  0  0  0  0  0  0
  152.4920  139.2875  156.2341 C   0  0  0  0  0  0  0  0  0  0  0  0
  151.3343  140.1390  155.9766 N   0  0  0  0  0  0  0  0  0  0  0  0
  150.9625  141.3109  156.5728 C   0  0  0  0  0  0  0  0  0  0  0  0
  151.7019  141.9434  157.5833 N   0  0  0  0  0  0  0  0  0  0  0  0
  151.6896  143.3934  157.7918 C   0  0  0  0  0  0  0  0  0  0  0  0
  151.3713  143.7632  159.2541 C   0  0  2  0  0  0  0  0  0  0  0  0
  151.3073  145.2844  159.4464 C   0  0  0  0  0  0  0  0  0  0  0  0
  152.4027  143.1191  160.1951 C   0  0  0  0  0  0  0  0  0  0  0  0
  152.5046  141.6098  159.9233 C   0  0  2  0  0  0  0  0  0  0  0  0
  153.5892  140.9505  160.7854 C   0  0  0  0  0  0  0  0  0  0  0  0
  152.7579  141.3697  158.4212 C   0  0  0  0  0  0  0  0  0  0  0  0
  149.7991  141.8002  156.1296 N   0  0  0  0  0  0  0  0  0  0  0  0
  149.4036  140.8848  155.1694 C   0  0  0  0  0  0  0  0  0  0  0  0
  150.3055  139.8776  155.0677 C   0  0  0  0  0  0  0  0  0  0  0  0
  150.1199  138.7493  154.1434 C   0  0  0  0  0  0  0  0  0  0  0  0
  150.9101  137.8129  154.0464 O   0  0  0  0  0  0  0  0  0  0  0  0
  148.9854  138.8436  153.4085 N   0  0  0  0  0  0  0  0  0  0  0  0
  148.0435  139.8341  153.4564 C   0  0  0  0  0  0  0  0  0  0  0  0
  147.0605  139.7848  152.7173 O   0  0  0  0  0  0  0  0  0  0  0  0
  148.2424  140.8591  154.3454 N   0  0  0  0  0  0  0  0  0  0  0  0
  147.2646  141.9446  154.4429 C   0  0  0  0  0  0  0  0  0  0  0  0
  148.8140  138.0959  152.7521 H   0  0  0  0  0  0  0  0  0  0  0  0
  150.2793  138.5935  159.4089 H   0  0  0  0  0  0  0  0  0  0  0  0
  149.7077  137.9158  157.8841 H   0  0  0  0  0  0  0  0  0  0  0  0
  150.4030  139.5462  157.9291 H   0  0  0  0  0  0  0  0  0  0  0  0
  152.9042  137.1791  156.6070 H   0  0  0  0  0  0  0  0  0  0  0  0
  151.2370  137.5112  156.1916 H   0  0  0  0  0  0  0  0  0  0  0  0
  153.1348  139.7833  156.9611 H   0  0  0  0  0  0  0  0  0  0  0  0
  153.0986  139.2114  155.3358 H   0  0  0  0  0  0  0  0  0  0  0  0
  152.6540  143.8083  157.4948 H   0  0  0  0  0  0  0  0  0  0  0  0
  150.9459  143.8538  157.1407 H   0  0  0  0  0  0  0  0  0  0  0  0
  150.3876  143.3582  159.4976 H   0  0  0  0  0  0  0  0  0  0  0  0
  152.2639  145.7535  159.2142 H   0  0  0  0  0  0  0  0  0  0  0  0
  151.0520  145.5392  160.4752 H   0  0  0  0  0  0  0  0  0  0  0  0
  150.5520  145.7301  158.7987 H   0  0  0  0  0  0  0  0  0  0  0  0
  153.3776  143.5855  160.0458 H   0  0  0  0  0  0  0  0  0  0  0  0
  152.1270  143.2970  161.2352 H   0  0  0  0  0  0  0  0  0  0  0  0
  151.5506  141.1557  160.1928 H   0  0  0  0  0  0  0  0  0  0  0  0
  154.5755  141.3587  160.5625 H   0  0  0  0  0  0  0  0  0  0  0  0
  153.6263  139.8747  160.6112 H   0  0  0  0  0  0  0  0  0  0  0  0
  153.3958  141.1060  161.8471 H   0  0  0  0  0  0  0  0  0  0  0  0
  152.8734  140.3087  158.2240 H   0  0  0  0  0  0  0  0  0  0  0  0
  153.7102  141.8178  158.1336 H   0  0  0  0  0  0  0  0  0  0  0  0
  146.2628  141.5500  154.6179 H   0  0  0  0  0  0  0  0  0  0  0  0
  147.2463  142.5220  153.5178 H   0  0  0  0  0  0  0  0  0  0  0  0
  147.4851  142.6349  155.2568 H   0  0  0  0  0  0  0  0  0  0  0  0
  1  2  1  0  0  0  0
  1 26  1  0  0  0  0
  1 27  1  0  0  0  0
  1 28  1  0  0  0  0
  2  3  1  0  0  0  0
  3  4  1  0  0  0  0
  3 29  1  0  0  0  0
  3 30  1  0  0  0  0
  4  5  1  0  0  0  0
  4 31  1  0  0  0  0
  4 32  1  0  0  0  0
  5 17  1  0  0  0  0
  5  6  1  0  0  0  0
  6  7  1  0  0  0  0
  6 15  2  0  0  0  0
  7 14  1  0  0  0  0
  7  8  1  0  0  0  0
  8  9  1  0  0  0  0
  8 33  1  0  0  0  0
  8 34  1  0  0  0  0
  9 10  1  0  0  0  0
  9 11  1  0  0  0  0
  9 35  1  0  0  0  0
 10 36  1  0  0  0  0
 10 37  1  0  0  0  0
 10 38  1  0  0  0  0
 11 12  1  0  0  0  0
 11 39  1  0  0  0  0
 11 40  1  0  0  0  0
 12 13  1  0  0  0  0
 12 14  1  0  0  0  0
 12 41  1  0  0  0  0
 13 42  1  0  0  0  0
 13 43  1  0  0  0  0
 13 44  1  0  0  0  0
 14 45  1  0  0  0  0
 14 46  1  0  0  0  0
 15 16  1  0  0  0  0
 16 23  1  0  0  0  0
 16 17  2  0  0  0  0
 17 18  1  0  0  0  0
 18 19  2  0  0  0  0
 18 20  1  0  0  0  0
 20 25  1  0  0  0  0
 20 21  1  0  0  0  0
 21 22  2  0  0  0  0
 21 23  1  0  0  0  0
 23 24  1  0  0  0  0
 24 47  1  0  0  0  0
 24 48  1  0  0  0  0
 24 49  1  0  0  0  0
M  END
> <s_m_source_file>
AV-unprocessed.smi

> <i_m_source_file_index>
532

> <i_lp_mmshare_version>
43012

> <i_f3d_flags>
0

> <s_epik_input>
W0NIM11uMWMoPU8pW25IXWMoPU8pYyhjMTIpbihbQ0gyXVtDSDJdT1tDSDNdKWMobjIpTjNbQ0gyXVtDQEBIXShbQ0gzXSlbQ0gyXVtDQEBIXShbQ0gzXSlbQ0gyXTM=

> <s_epik_cmdline>
J2VwaWtfcHl0aG9uJywgJy1waCcsICc3LjAnLCAnLXRuJywgJzgnLCAnLW1hJywgJzIwMCcsICctbWV0YWxfYmluZGluZycsICctaW1hZScsICc8aW5maWxlLm1hZT4nLCAnLW9tYWUnLCAnPG91dGZpbGUubWFlPic=

> <r_lp_tautomer_probability>
1

> <r_epik_Ionization_Penalty>
0.000642525

> <r_epik_Ionization_Penalty_Charging>
0.000121571

> <r_epik_Ionization_Penalty_Neutral>
0.000520954

> <r_epik_State_Penalty>
-0

> <r_epik_Charging_Adjusted_Penalty>
0.000121571

> <i_epik_Tot_Q>
0

> <i_epik_Tot_abs_Q>
0

> <r_epik_Metal_State_Penalty>
0.0931709

> <b_epik_Metal_Only>
0

> <s_lp_Force_Field>
OPLS_2005

> <r_lp_Energy>
38.055

> <b_lp_Chiralities_Consistent>
1

> <s_lp_Variant>
AV-unprocessed.smi:532-1

> <Gold.Version>
5.8.1

> <Gold.Id.Protein>
6NUR|6NUR_protein|mol2

> <Gold.PLP.Fitness>
47.6670

> <Gold.PLP.PLP>
-45.4846

> <Gold.PLP.part.hbond>
-2.0000

> <Gold.PLP.part.metal>
0.0000

> <Gold.PLP.part.buried>
-5.1512

> <Gold.PLP.part.nonpolar>
-40.4193

> <Gold.PLP.part.repulsive>
1.6346

> <Gold.PLP.ligand.clash>
0.0000

> <Gold.PLP.ligand.torsion>
0.4195

> <Gold.PLP.Chemscore.Hbond>
0.9913

> <Gold.PLP.Chemscore.CHOScore>
0.0000

> <Gold.PLP.Chemscore.Metal>
0.0000

> <Gold.Chemscore.Hbonds>
donor molecule, donor type, donor heavy atom, donor atom, acceptor molecule, acceptor atom, score
      L1  H    20    25       P1  7948  0.98

> <Gold.PLP.Chemscore.Internal.Correction>
0.0477

> <Gold.Rescore>
     Score         DG    S(hbond)    S(metal)    S(lipo)     H(rot)  DE(clash)    DE(int)     intcor
     15.14     -16.73       1.00        0.00      99.02       1.43       0.09       1.50       ----

> <Gold.Chemscore.Fitness>
15.1400

> <Gold.Chemscore.DG>
-16.7269

> <Gold.Chemscore.ZeroCoef>
-5.4800

> <Gold.Chemscore.Hbond>
0.9967

> <Gold.Chemscore.Metal>
0.0000

> <Gold.Chemscore.Lipo>
99.0160

> <Gold.Chemscore.Internal_Hbond>
0.0000

> <Gold.Chemscore.DEClash>
0.0852

> <Gold.Chemscore.DEInternal>
1.5017

> <Gold.Chemscore.Rot>
1.4324

> <Gold.Chemscore.Internal.Correction>
   9.000000E+99

> <Gold.Chemscore.Hbonds>
donor molecule, donor type, donor heavy atom, donor atom, acceptor molecule, acceptor atom, score
      L1  H    20    25       P1  7948  0.91

> <Gold.Chemscore.Hbond.Weighted>
-3.3289

> <Gold.Chemscore.Metal.Weighted>
-0.0000

> <Gold.Chemscore.Lipo.Weighted>
-11.5849

> <Gold.Chemscore.Internal_Hbond.Weighted>
0.0000

> <Gold.Chemscore.DEClash.Weighted>
0.0852

> <Gold.Chemscore.DEInternal.Weighted>
1.5017

> <Gold.Chemscore.Rot.Weighted>
3.6669

> <Gold.Chemscore.Internal.Correction.Weighted>
   9.000000E+99

> <Gold.Protein.RotatedTorsions>
[ 6907 6896 6895 6894 ] final   65.04 input  -60.11 | X-H torsion
[ 7974 7965 7964 7962 ] final   86.22 input  175.53 | X-H torsion
[ 8008 7997 7996 7995 ] final   93.06 input   59.86 | X-H torsion
[ 10167 10162 10161 10158 ] final   79.27 input  -65.29 | X-H torsion
[ 10718 10713 10712 10709 ] final  -86.07 input   66.30 | X-H torsion
[ 10763 10752 10751 10750 ] final  -73.15 input  -60.55 | X-H torsion
[ 11005 11000 10999 10996 ] final  -52.11 input  -57.11 | X-H torsion

> <Gold.Protein.ActiveResidues>
 VAL166  LYS551  ARG553  GLY616  TRP617  ASP618  TYR619  PRO620  LYS621  CYS622 
 ASP623  PHE694  ASN695  SER759  ASP760  ASP761  ALA762  ILE779  LEU786  VAL792 
 PHE793  MET794  SER795  GLU796  ALA797  LYS798  CYS799  TRP800  GLU811  SER814 

> <Gold.Protein.RotatedAtoms>
  152.4377  134.5653  159.9905 H   0  0  0  0  0  0  0  0  0  0  0  0  # atno 6907 bound_to 6896
  151.5758  133.3378  159.3006 H   0  0  0  0  0  0  0  0  0  0  0  0  # atno 6908 bound_to 6896
  150.8278  134.7552  159.6892 H   0  0  0  0  0  0  0  0  0  0  0  0  # atno 6909 bound_to 6896
  145.5752  139.2318  143.2384 H   0  0  0  0  0  0  0  0  0  0  0  0  # atno 7974 bound_to 7965
  156.0424  140.3317  155.7259 H   0  0  0  0  0  0  0  0  0  0  0  0  # atno 8008 bound_to 7997
  155.5724  140.0629  157.2821 H   0  0  0  0  0  0  0  0  0  0  0  0  # atno 8009 bound_to 7997
  154.4399  140.1858  156.0881 H   0  0  0  0  0  0  0  0  0  0  0  0  # atno 8010 bound_to 7997
  139.9621  144.5954  150.8063 H   0  0  0  0  0  0  0  0  0  0  0  0  # atno 10167 bound_to 10162
  155.9992  130.4752  150.4659 H   0  0  0  0  0  0  0  0  0  0  0  0  # atno 10718 bound_to 10713
  154.4555  135.5907  153.6220 H   0  0  0  0  0  0  0  0  0  0  0  0  # atno 10763 bound_to 10752
  152.9818  135.6031  154.3551 H   0  0  0  0  0  0  0  0  0  0  0  0  # atno 10764 bound_to 10752
  154.3417  135.2841  155.2398 H   0  0  0  0  0  0  0  0  0  0  0  0  # atno 10765 bound_to 10752
  141.0907  133.6633  156.3975 H   0  0  0  0  0  0  0  0  0  0  0  0  # atno 11005 bound_to 11000
  146.1756  140.6578  142.9213 LP  0  0  0  0  0  0  0  0  0  0  0  0  # atno 17320 bound_to 7965
  144.7419  140.4965  143.6863 LP  0  0  0  0  0  0  0  0  0  0  0  0  # atno 17321 bound_to 7965
  140.7550  143.3037  151.3015 LP  0  0  0  0  0  0  0  0  0  0  0  0  # atno 17342 bound_to 10162
  139.6546  144.0299  152.2650 LP  0  0  0  0  0  0  0  0  0  0  0  0  # atno 17343 bound_to 10162
  157.2678  131.0581  151.2279 LP  0  0  0  0  0  0  0  0  0  0  0  0  # atno 17370 bound_to 10713
  157.3370  130.7014  149.6358 LP  0  0  0  0  0  0  0  0  0  0  0  0  # atno 17371 bound_to 10713
  140.5259  134.6259  157.5334 LP  0  0  0  0  0  0  0  0  0  0  0  0  # atno 17394 bound_to 11000
  139.9732  134.7258  156.0000 LP  0  0  0  0  0  0  0  0  0  0  0  0  # atno 17395 bound_to 11000

$$$$
