AV-unprocessed.smi:2159|AV-procd|sdf|8795|dock7
  -GOLD-   2272011573D 1   1.00000     0.00000
 Structure written by MMmdl.
 48 50  0  0  0  0  0  0  0  0  2 V2000
  147.2335  138.8670  156.8781 O   0  0  0  0  0  0  0  0  0  0  0  0
  148.0942  138.6067  157.7182 C   0  0  0  0  0  0  0  0  0  0  0  0
  147.7236  137.8403  158.9885 C   0  0  0  0  0  0  0  0  0  0  0  0
  148.7011  136.6795  159.2615 C   0  0  0  0  0  0  0  0  0  0  0  0
  148.1257  135.7006  160.1884 N   0  0  0  0  0  0  0  0  0  0  0  0
  148.0969  134.3809  159.9562 C   0  0  0  0  0  0  0  0  0  0  0  0
  148.5246  133.8116  158.9510 O   0  0  0  0  0  0  0  0  0  0  0  0
  147.4644  133.6306  161.1254 C   0  0  2  0  0  0  0  0  0  0  0  0
  146.2596  132.7719  160.6869 C   0  0  0  0  0  0  0  0  0  0  0  0
  145.4349  132.3121  161.9013 C   0  0  0  0  0  0  0  0  0  0  0  0
  145.0247  133.4683  162.8406 C   0  0  0  0  0  0  0  0  0  0  0  0
  145.5806  134.8384  162.4127 C   0  0  0  0  0  0  0  0  0  0  0  0
  147.0905  134.7672  162.1015 C   0  0  2  0  0  0  0  0  0  0  0  0
  147.5815  136.0155  161.3719 C   0  0  0  0  0  0  0  0  0  0  0  0
  147.4775  137.1471  161.8450 O   0  0  0  0  0  0  0  0  0  0  0  0
  149.3876  138.9334  157.5754 N   0  0  0  0  0  0  0  0  0  0  0  0
  149.9737  139.5548  156.3914 C   0  0  0  0  0  0  0  0  0  0  0  0
  149.7410  141.0799  156.3355 C   0  0  0  0  0  0  0  0  0  0  0  0
  150.6488  141.8697  157.2637 C   0  0  0  0  0  0  0  0  0  0  0  0
  151.5178  141.2369  158.1798 C   0  0  0  0  0  0  0  0  0  0  0  0
  152.3157  142.0269  159.0327 C   0  0  0  0  0  0  0  0  0  0  0  0
  152.2326  143.4320  158.9482 C   0  0  0  0  0  0  0  0  0  0  0  0
  151.3522  144.0117  158.0119 C   0  0  0  0  0  0  0  0  0  0  0  0
  150.6012  143.2206  157.2143 N   0  3  0  0  0  0  0  0  0  0  0  0
  147.7252  138.5349  159.8306 H   0  0  0  0  0  0  0  0  0  0  0  0
  146.7041  137.4636  158.9005 H   0  0  0  0  0  0  0  0  0  0  0  0
  148.9769  136.1976  158.3218 H   0  0  0  0  0  0  0  0  0  0  0  0
  149.6380  137.0557  159.6770 H   0  0  0  0  0  0  0  0  0  0  0  0
  148.2217  132.9920  161.5824 H   0  0  0  0  0  0  0  0  0  0  0  0
  145.6171  133.3354  160.0079 H   0  0  0  0  0  0  0  0  0  0  0  0
  146.6043  131.9022  160.1262 H   0  0  0  0  0  0  0  0  0  0  0  0
  144.5473  131.7785  161.5605 H   0  0  0  0  0  0  0  0  0  0  0  0
  146.0188  131.5867  162.4691 H   0  0  0  0  0  0  0  0  0  0  0  0
  143.9376  133.5242  162.9052 H   0  0  0  0  0  0  0  0  0  0  0  0
  145.3712  133.2426  163.8498 H   0  0  0  0  0  0  0  0  0  0  0  0
  145.0323  135.1880  161.5360 H   0  0  0  0  0  0  0  0  0  0  0  0
  145.3925  135.5720  163.1975 H   0  0  0  0  0  0  0  0  0  0  0  0
  147.6527  134.6556  163.0296 H   0  0  0  0  0  0  0  0  0  0  0  0
  150.0207  138.6897  158.3235 H   0  0  0  0  0  0  0  0  0  0  0  0
  151.0391  139.3272  156.3316 H   0  0  0  0  0  0  0  0  0  0  0  0
  149.5100  139.0874  155.5223 H   0  0  0  0  0  0  0  0  0  0  0  0
  149.8930  141.4358  155.3157 H   0  0  0  0  0  0  0  0  0  0  0  0
  148.7011  141.3030  156.5763 H   0  0  0  0  0  0  0  0  0  0  0  0
  151.5653  140.1591  158.2369 H   0  0  0  0  0  0  0  0  0  0  0  0
  152.9807  141.5599  159.7445 H   0  0  0  0  0  0  0  0  0  0  0  0
  152.8350  144.0550  159.5930 H   0  0  0  0  0  0  0  0  0  0  0  0
  151.2248  145.0764  157.8797 H   0  0  0  0  0  0  0  0  0  0  0  0
  149.9686  143.6623  156.5466 H   0  0  0  0  0  0  0  0  0  0  0  0
  1  2  2  0  0  0  0
  2  3  1  0  0  0  0
  2 16  1  0  0  0  0
  3  4  1  0  0  0  0
  3 25  1  0  0  0  0
  3 26  1  0  0  0  0
  4  5  1  0  0  0  0
  4 27  1  0  0  0  0
  4 28  1  0  0  0  0
  5 14  1  0  0  0  0
  5  6  1  0  0  0  0
  6  7  2  0  0  0  0
  6  8  1  0  0  0  0
  8 13  1  0  0  0  0
  8  9  1  0  0  0  0
  8 29  1  0  0  0  0
  9 10  1  0  0  0  0
  9 30  1  0  0  0  0
  9 31  1  0  0  0  0
 10 11  1  0  0  0  0
 10 32  1  0  0  0  0
 10 33  1  0  0  0  0
 11 12  1  0  0  0  0
 11 34  1  0  0  0  0
 11 35  1  0  0  0  0
 12 13  1  0  0  0  0
 12 36  1  0  0  0  0
 12 37  1  0  0  0  0
 13 14  1  0  0  0  0
 13 38  1  0  0  0  0
 14 15  2  0  0  0  0
 16 17  1  0  0  0  0
 16 39  1  0  0  0  0
 17 18  1  0  0  0  0
 17 40  1  0  0  0  0
 17 41  1  0  0  0  0
 18 19  1  0  0  0  0
 18 42  1  0  0  0  0
 18 43  1  0  0  0  0
 19 24  1  0  0  0  0
 19 20  2  0  0  0  0
 20 21  1  0  0  0  0
 20 44  1  0  0  0  0
 21 22  2  0  0  0  0
 21 45  1  0  0  0  0
 22 23  1  0  0  0  0
 22 46  1  0  0  0  0
 23 24  2  0  0  0  0
 23 47  1  0  0  0  0
 24 48  1  0  0  0  0
M  CHG  1  24   1
M  END
> <s_m_source_file>
AV-unprocessed.smi

> <i_m_source_file_index>
2159

> <i_lp_mmshare_version>
43012

> <i_f3d_flags>
0

> <s_epik_input>
bjFbY0hdW2NIXVtjSF1bY0hdYzFbQ0gyXVtDSDJdW05IXUMoPU8pW0NIMl1bQ0gyXU4oQzI9TylDKD1PKVtDQEhdKFtDQEBIXTIzKVtDSDJdW0NIMl1bQ0gyXVtDSDJdMw==

> <s_epik_cmdline>
J2VwaWtfcHl0aG9uJywgJy1waCcsICc3LjAnLCAnLXRuJywgJzgnLCAnLW1hJywgJzIwMCcsICctbWV0YWxfYmluZGluZycsICctaW1hZScsICc8aW5maWxlLm1hZT4nLCAnLW9tYWUnLCAnPG91dGZpbGUubWFlPic=

> <r_lp_tautomer_probability>
1

> <r_epik_Ionization_Penalty>
1.85146

> <r_epik_Ionization_Penalty_Charging>
1.85146

> <r_epik_Ionization_Penalty_Neutral>
2.95922e-08

> <r_epik_State_Penalty>
1.96899

> <r_epik_Charging_Adjusted_Penalty>
3.82044

> <i_epik_Tot_Q>
1

> <i_epik_Tot_abs_Q>
1

> <r_epik_Metal_State_Penalty>
1.99467

> <b_epik_Metal_Only>
0

> <s_lp_Force_Field>
OPLS_2005

> <r_lp_Energy>
31.2596

> <b_lp_Chiralities_Consistent>
1

> <s_lp_Variant>
AV-unprocessed.smi:2159-5

> <Gold.Version>
5.8.1

> <Gold.Id.Protein>
6NUR|6NUR_protein|mol2

> <Gold.PLP.Fitness>
55.2213

> <Gold.PLP.PLP>
-42.2996

> <Gold.PLP.part.hbond>
-4.0000

> <Gold.PLP.part.metal>
0.0000

> <Gold.PLP.part.buried>
-1.9360

> <Gold.PLP.part.nonpolar>
-36.5886

> <Gold.PLP.part.repulsive>
0.0761

> <Gold.PLP.ligand.clash>
0.0000

> <Gold.PLP.ligand.torsion>
0.5521

> <Gold.PLP.Chemscore.Hbond>
4.6320

> <Gold.PLP.Chemscore.CHOScore>
0.0000

> <Gold.PLP.Chemscore.Metal>
0.0000

> <Gold.Chemscore.Hbonds>
donor molecule, donor type, donor heavy atom, donor atom, acceptor molecule, acceptor atom, score
      L1  H    24    48       P1  8028  2.00
      P1  H  6896  6908       L1     7  0.51
      P1  H  6931  6943       L1    15  0.96
      P1  H  6934  6947       L1    15  0.62

> <Gold.PLP.Chemscore.Internal.Correction>
0.1299

> <Gold.Rescore>
     Score         DG    S(hbond)    S(metal)    S(lipo)     H(rot)  DE(clash)    DE(int)     intcor
     19.80     -22.09       2.99        0.00     102.35       2.10       0.31       1.98       ----

> <Gold.Chemscore.Fitness>
19.7997

> <Gold.Chemscore.DG>
-22.0908

> <Gold.Chemscore.ZeroCoef>
-5.4800

> <Gold.Chemscore.Hbond>
2.9944

> <Gold.Chemscore.Metal>
0.0000

> <Gold.Chemscore.Lipo>
102.3511

> <Gold.Chemscore.Internal_Hbond>
0.0000

> <Gold.Chemscore.DEClash>
0.3090

> <Gold.Chemscore.DEInternal>
1.9821

> <Gold.Chemscore.Rot>
2.0959

> <Gold.Chemscore.Internal.Correction>
   9.000000E+99

> <Gold.Chemscore.Hbonds>
donor molecule, donor type, donor heavy atom, donor atom, acceptor molecule, acceptor atom, score
      L1  H    24    48       P1  8028  1.00
      P1  H  6896  6908       L1     7  0.07
      P1  H  6931  6943       L1    15  0.89
      P1  H  6934  6947       L1    15  0.62

> <Gold.Chemscore.Hbond.Weighted>
-10.0012

> <Gold.Chemscore.Metal.Weighted>
-0.0000

> <Gold.Chemscore.Lipo.Weighted>
-11.9751

> <Gold.Chemscore.Internal_Hbond.Weighted>
0.0000

> <Gold.Chemscore.DEClash.Weighted>
0.3090

> <Gold.Chemscore.DEInternal.Weighted>
1.9821

> <Gold.Chemscore.Rot.Weighted>
5.3655

> <Gold.Chemscore.Internal.Correction.Weighted>
   9.000000E+99

> <Gold.Protein.RotatedTorsions>
[ 6907 6896 6895 6894 ] final  140.55 input  -60.11 | X-H torsion
[ 7974 7965 7964 7962 ] final -106.77 input  175.53 | X-H torsion
[ 8008 7997 7996 7995 ] final  -23.79 input   59.86 | X-H torsion
[ 10167 10162 10161 10158 ] final   -3.46 input  -65.29 | X-H torsion
[ 10718 10713 10712 10709 ] final   62.13 input   66.30 | X-H torsion
[ 10763 10752 10751 10750 ] final -149.55 input  -60.55 | X-H torsion
[ 11005 11000 10999 10996 ] final   39.42 input  -57.11 | X-H torsion

> <Gold.Protein.ActiveResidues>
 VAL166  LYS551  ARG553  GLY616  TRP617  ASP618  TYR619  PRO620  LYS621  CYS622 
 ASP623  PHE694  ASN695  SER759  ASP760  ASP761  ALA762  ILE779  LEU786  VAL792 
 PHE793  MET794  SER795  GLU796  ALA797  LYS798  CYS799  TRP800  GLU811  SER814 

> <Gold.Protein.RotatedAtoms>
  152.2416  133.5140  159.5273 H   0  0  0  0  0  0  0  0  0  0  0  0  # atno 6907 bound_to 6896
  150.7066  134.1081  159.3999 H   0  0  0  0  0  0  0  0  0  0  0  0  # atno 6908 bound_to 6896
  151.9001  135.0381  160.0556 H   0  0  0  0  0  0  0  0  0  0  0  0  # atno 6909 bound_to 6896
  145.2137  140.9106  143.3299 H   0  0  0  0  0  0  0  0  0  0  0  0  # atno 7974 bound_to 7965
  154.4565  140.1971  156.0365 H   0  0  0  0  0  0  0  0  0  0  0  0  # atno 8008 bound_to 7997
  156.0756  140.3278  155.7602 H   0  0  0  0  0  0  0  0  0  0  0  0  # atno 8009 bound_to 7997
  155.5193  140.0568  157.2900 H   0  0  0  0  0  0  0  0  0  0  0  0  # atno 8010 bound_to 7997
  140.6891  143.6537  150.8327 H   0  0  0  0  0  0  0  0  0  0  0  0  # atno 10167 bound_to 10162
  157.5878  130.9033  149.9549 H   0  0  0  0  0  0  0  0  0  0  0  0  # atno 10718 bound_to 10713
  154.8170  135.3306  154.7147 H   0  0  0  0  0  0  0  0  0  0  0  0  # atno 10763 bound_to 10752
  153.7786  135.6920  153.4897 H   0  0  0  0  0  0  0  0  0  0  0  0  # atno 10764 bound_to 10752
  153.1996  135.4521  155.0197 H   0  0  0  0  0  0  0  0  0  0  0  0  # atno 10765 bound_to 10752
  140.2030  134.3848  155.8087 H   0  0  0  0  0  0  0  0  0  0  0  0  # atno 11005 bound_to 11000
  144.9831  139.3763  143.6252 LP  0  0  0  0  0  0  0  0  0  0  0  0  # atno 17320 bound_to 7965
  146.3392  139.8981  142.8798 LP  0  0  0  0  0  0  0  0  0  0  0  0  # atno 17321 bound_to 7965
  140.0248  143.5505  152.2785 LP  0  0  0  0  0  0  0  0  0  0  0  0  # atno 17342 bound_to 10162
  139.6276  144.7639  151.2605 LP  0  0  0  0  0  0  0  0  0  0  0  0  # atno 17343 bound_to 10162
  156.0929  130.3662  150.0360 LP  0  0  0  0  0  0  0  0  0  0  0  0  # atno 17370 bound_to 10713
  156.8488  130.9451  151.3627 LP  0  0  0  0  0  0  0  0  0  0  0  0  # atno 17371 bound_to 10713
  141.2227  133.7103  156.8289 LP  0  0  0  0  0  0  0  0  0  0  0  0  # atno 17394 bound_to 11000
  140.2034  134.8880  157.3194 LP  0  0  0  0  0  0  0  0  0  0  0  0  # atno 17395 bound_to 11000

$$$$
