AV-unprocessed.smi:1830|AV-procd|sdf|7437|dock1
  -GOLD-   22720 9123D 1   1.00000     0.00000
 Structure written by MMmdl.
 53 56  0  0  0  0  0  0  0  0  2 V2000
  145.0129  137.3647  152.5617 O   0  0  0  0  0  0  0  0  0  0  0  0
  146.1743  137.1267  152.2296 C   0  0  0  0  0  0  0  0  0  0  0  0
  147.1565  138.0371  152.2822 N   0  0  0  0  0  0  0  0  0  0  0  0
  146.9949  139.4126  152.7416 C   0  0  0  0  0  0  0  0  0  0  0  0
  148.0537  139.7993  153.7896 C   0  0  1  0  0  0  0  0  0  0  0  0
  148.3008  141.3196  153.8200 C   0  0  0  0  0  0  0  0  0  0  0  0
  149.2230  141.7073  154.9129 N   0  3  2  0  0  0  0  0  0  0  0  0
  150.6679  141.5188  154.6549 C   0  0  0  0  0  0  0  0  0  0  0  0
  151.3139  141.2157  156.0161 C   0  0  0  0  0  0  0  0  0  0  0  0
  150.1801  141.3287  157.0405 C   0  0  0  0  0  0  0  0  0  0  0  0
  148.9099  141.0954  156.2208 C   0  0  2  0  0  0  0  0  0  0  0  0
  148.5749  139.5933  156.0764 C   0  0  0  0  0  0  0  0  0  0  0  0
  147.5873  139.4001  155.0735 O   0  0  0  0  0  0  0  0  0  0  0  0
  146.6303  135.9424  151.7892 N   0  0  0  0  0  0  0  0  0  0  0  0
  145.9092  134.7265  151.6125 C   0  0  0  0  0  0  0  0  0  0  0  0
  144.5417  134.7186  151.2413 C   0  0  0  0  0  0  0  0  0  0  0  0
  143.8711  133.4918  151.0994 C   0  0  0  0  0  0  0  0  0  0  0  0
  144.5932  132.3097  151.3306 C   0  0  0  0  0  0  0  0  0  0  0  0
  145.8989  132.2985  151.6641 N   0  0  0  0  0  0  0  0  0  0  0  0
  146.5644  133.4733  151.7899 C   0  0  0  0  0  0  0  0  0  0  0  0
  147.9372  133.3946  152.1206 N   0  0  0  0  0  0  0  0  0  0  0  0
  148.6050  132.1025  151.9935 C   0  0  0  0  0  0  0  0  0  0  0  0
  149.6144  132.0199  153.1438 C   0  0  0  0  0  0  0  0  0  0  0  0
  149.8314  133.4768  153.5405 C   0  0  0  0  0  0  0  0  0  0  0  0
  148.4553  134.0883  153.2952 C   0  0  0  0  0  0  0  0  0  0  0  0
  148.0829  137.7581  151.9933 H   0  0  0  0  0  0  0  0  0  0  0  0
  147.0459  140.0869  151.8850 H   0  0  0  0  0  0  0  0  0  0  0  0
  145.9939  139.5211  153.1603 H   0  0  0  0  0  0  0  0  0  0  0  0
  148.9873  139.2828  153.5610 H   0  0  0  0  0  0  0  0  0  0  0  0
  148.6890  141.6736  152.8641 H   0  0  0  0  0  0  0  0  0  0  0  0
  147.3544  141.8363  153.9839 H   0  0  0  0  0  0  0  0  0  0  0  0
  150.8432  140.6917  153.9659 H   0  0  0  0  0  0  0  0  0  0  0  0
  151.0810  142.4199  154.2012 H   0  0  0  0  0  0  0  0  0  0  0  0
  151.7186  140.2027  156.0149 H   0  0  0  0  0  0  0  0  0  0  0  0
  152.1352  141.8958  156.2441 H   0  0  0  0  0  0  0  0  0  0  0  0
  150.2887  140.6337  157.8740 H   0  0  0  0  0  0  0  0  0  0  0  0
  150.1651  142.3382  157.4539 H   0  0  0  0  0  0  0  0  0  0  0  0
  148.0570  141.6109  156.6643 H   0  0  0  0  0  0  0  0  0  0  0  0
  149.4616  139.0060  155.8318 H   0  0  0  0  0  0  0  0  0  0  0  0
  148.1970  139.2043  157.0222 H   0  0  0  0  0  0  0  0  0  0  0  0
  147.6282  135.8734  151.6537 H   0  0  0  0  0  0  0  0  0  0  0  0
  143.9971  135.6314  151.0555 H   0  0  0  0  0  0  0  0  0  0  0  0
  142.8278  133.4589  150.8225 H   0  0  0  0  0  0  0  0  0  0  0  0
  144.1131  131.3469  151.2376 H   0  0  0  0  0  0  0  0  0  0  0  0
  147.9005  131.2700  152.0214 H   0  0  0  0  0  0  0  0  0  0  0  0
  149.1299  132.0714  151.0387 H   0  0  0  0  0  0  0  0  0  0  0  0
  149.1734  131.4754  153.9798 H   0  0  0  0  0  0  0  0  0  0  0  0
  150.5375  131.5127  152.8620 H   0  0  0  0  0  0  0  0  0  0  0  0
  150.1721  133.5948  154.5695 H   0  0  0  0  0  0  0  0  0  0  0  0
  150.5686  133.9376  152.8816 H   0  0  0  0  0  0  0  0  0  0  0  0
  148.5135  135.1642  153.1288 H   0  0  0  0  0  0  0  0  0  0  0  0
  147.8203  133.9086  154.1634 H   0  0  0  0  0  0  0  0  0  0  0  0
  149.1130  142.7029  155.0436 H   0  0  0  0  0  0  0  0  0  0  0  0
  1  2  2  0  0  0  0
  2  3  1  0  0  0  0
  2 14  1  0  0  0  0
  3  4  1  0  0  0  0
  3 26  1  0  0  0  0
  4  5  1  0  0  0  0
  4 27  1  0  0  0  0
  4 28  1  0  0  0  0
  5 13  1  0  0  0  0
  5  6  1  0  0  0  0
  5 29  1  0  0  0  0
  6  7  1  0  0  0  0
  6 30  1  0  0  0  0
  6 31  1  0  0  0  0
  7 11  1  0  0  0  0
  7  8  1  0  0  0  0
  7 53  1  0  0  0  0
  8  9  1  0  0  0  0
  8 32  1  0  0  0  0
  8 33  1  0  0  0  0
  9 10  1  0  0  0  0
  9 34  1  0  0  0  0
  9 35  1  0  0  0  0
 10 11  1  0  0  0  0
 10 36  1  0  0  0  0
 10 37  1  0  0  0  0
 11 12  1  0  0  0  0
 11 38  1  0  0  0  0
 12 13  1  0  0  0  0
 12 39  1  0  0  0  0
 12 40  1  0  0  0  0
 14 15  1  0  0  0  0
 14 41  1  0  0  0  0
 15 20  1  0  0  0  0
 15 16  2  0  0  0  0
 16 17  1  0  0  0  0
 16 42  1  0  0  0  0
 17 18  2  0  0  0  0
 17 43  1  0  0  0  0
 18 19  1  0  0  0  0
 18 44  1  0  0  0  0
 19 20  2  0  0  0  0
 20 21  1  0  0  0  0
 21 25  1  0  0  0  0
 21 22  1  0  0  0  0
 22 23  1  0  0  0  0
 22 45  1  0  0  0  0
 22 46  1  0  0  0  0
 23 24  1  0  0  0  0
 23 47  1  0  0  0  0
 23 48  1  0  0  0  0
 24 25  1  0  0  0  0
 24 49  1  0  0  0  0
 24 50  1  0  0  0  0
 25 51  1  0  0  0  0
 25 52  1  0  0  0  0
M  CHG  1   7   1
M  END
> <s_m_source_file>
AV-unprocessed.smi

> <i_m_source_file_index>
1830

> <i_lp_mmshare_version>
43012

> <i_f3d_flags>
0

> <s_epik_input>
W0NIMl0xW0NIMl1bQ0gyXVtDQEhdKE4xMilbQ0gyXU9bQ0BASF0oW0NIMl0yKVtDSDJdW05IXUMoPU8pW05IXWMzW2NIXVtjSF1bY0hdbmMzTjRbQ0gyXVtDSDJdW0NIMl1bQ0gyXTQ=

> <s_epik_cmdline>
J2VwaWtfcHl0aG9uJywgJy1waCcsICc3LjAnLCAnLXRuJywgJzgnLCAnLW1hJywgJzIwMCcsICctbWV0YWxfYmluZGluZycsICctaW1hZScsICc8aW5maWxlLm1hZT4nLCAnLW9tYWUnLCAnPG91dGZpbGUubWFlPic=

> <r_lp_tautomer_probability>
1

> <r_epik_Ionization_Penalty>
0.193547

> <r_epik_Ionization_Penalty_Charging>
0.10673

> <r_epik_Ionization_Penalty_Neutral>
0.0868166

> <r_epik_State_Penalty>
0.173595

> <r_epik_Charging_Adjusted_Penalty>
0.280326

> <i_epik_Tot_Q>
1

> <i_epik_Tot_abs_Q>
1

> <r_epik_Metal_State_Penalty>
0.164683

> <b_epik_Metal_Only>
0

> <s_lp_Force_Field>
OPLS_2005

> <r_lp_Energy>
64.4771

> <b_lp_Chiralities_Consistent>
1

> <s_lp_Variant>
AV-unprocessed.smi:1830-6

> <Gold.Version>
5.8.1

> <Gold.Id.Protein>
6NUR|6NUR_protein|mol2

> <Gold.PLP.Fitness>
46.9920

> <Gold.PLP.PLP>
-36.6565

> <Gold.PLP.part.hbond>
-2.7975

> <Gold.PLP.part.metal>
0.0000

> <Gold.PLP.part.buried>
-4.1605

> <Gold.PLP.part.nonpolar>
-30.8439

> <Gold.PLP.part.repulsive>
1.4367

> <Gold.PLP.ligand.clash>
0.0000

> <Gold.PLP.ligand.torsion>
0.7246

> <Gold.PLP.Chemscore.Hbond>
3.8073

> <Gold.PLP.Chemscore.CHOScore>
0.0000

> <Gold.PLP.Chemscore.Metal>
0.0000

> <Gold.Chemscore.Hbonds>
donor molecule, donor type, donor heavy atom, donor atom, acceptor molecule, acceptor atom, score
      L1  H     3    26       P1  7948  0.74
      L1  H     7    53       P1  8028  1.59
      L1  H    14    41       P1  7948  0.55

> <Gold.PLP.Chemscore.Internal.Correction>
0.3628

> <Gold.Rescore>
     Score         DG    S(hbond)    S(metal)    S(lipo)     H(rot)  DE(clash)    DE(int)     intcor
     19.13     -21.40       2.90        0.00      84.18       1.41       0.38       1.89       ----

> <Gold.Chemscore.Fitness>
19.1339

> <Gold.Chemscore.DG>
-21.4001

> <Gold.Chemscore.ZeroCoef>
-5.4800

> <Gold.Chemscore.Hbond>
2.8959

> <Gold.Chemscore.Metal>
0.0000

> <Gold.Chemscore.Lipo>
84.1787

> <Gold.Chemscore.Internal_Hbond>
0.0000

> <Gold.Chemscore.DEClash>
0.3796

> <Gold.Chemscore.DEInternal>
1.8866

> <Gold.Chemscore.Rot>
1.4067

> <Gold.Chemscore.Internal.Correction>
   9.000000E+99

> <Gold.Chemscore.Hbonds>
donor molecule, donor type, donor heavy atom, donor atom, acceptor molecule, acceptor atom, score
      L1  H     3    26       P1  7948  0.74
      L1  H     7    53       P1  8028  0.79
      L1  H    14    41       P1  7948  0.53

> <Gold.Chemscore.Hbond.Weighted>
-9.6723

> <Gold.Chemscore.Metal.Weighted>
-0.0000

> <Gold.Chemscore.Lipo.Weighted>
-9.8489

> <Gold.Chemscore.Internal_Hbond.Weighted>
0.0000

> <Gold.Chemscore.DEClash.Weighted>
0.3796

> <Gold.Chemscore.DEInternal.Weighted>
1.8866

> <Gold.Chemscore.Rot.Weighted>
3.6011

> <Gold.Chemscore.Internal.Correction.Weighted>
   9.000000E+99

> <Gold.Protein.RotatedTorsions>
[ 6907 6896 6895 6894 ] final -170.86 input  -60.11 | X-H torsion
[ 7974 7965 7964 7962 ] final  164.84 input  175.53 | X-H torsion
[ 8008 7997 7996 7995 ] final   32.75 input   59.86 | X-H torsion
[ 10167 10162 10161 10158 ] final -101.01 input  -65.29 | X-H torsion
[ 10718 10713 10712 10709 ] final -143.17 input   66.30 | X-H torsion
[ 10763 10752 10751 10750 ] final  -95.20 input  -60.55 | X-H torsion
[ 11005 11000 10999 10996 ] final -107.28 input  -57.11 | X-H torsion

> <Gold.Protein.ActiveResidues>
 VAL166  LYS551  ARG553  GLY616  TRP617  ASP618  TYR619  PRO620  LYS621  CYS622 
 ASP623  PHE694  ASN695  SER759  ASP760  ASP761  ALA762  ILE779  LEU786  VAL792 
 PHE793  MET794  SER795  GLU796  ALA797  LYS798  CYS799  TRP800  GLU811  SER814 

> <Gold.Protein.RotatedAtoms>
  151.5145  133.3478  159.2890 H   0  0  0  0  0  0  0  0  0  0  0  0  # atno 6907 bound_to 6896
  150.8691  134.8063  159.7152 H   0  0  0  0  0  0  0  0  0  0  0  0  # atno 6908 bound_to 6896
  152.4685  134.5026  159.9781 H   0  0  0  0  0  0  0  0  0  0  0  0  # atno 6909 bound_to 6896
  144.7528  139.8384  143.6360 H   0  0  0  0  0  0  0  0  0  0  0  0  # atno 7974 bound_to 7965
  155.1275  140.3254  155.4482 H   0  0  0  0  0  0  0  0  0  0  0  0  # atno 8008 bound_to 7997
  156.2644  140.2016  156.6344 H   0  0  0  0  0  0  0  0  0  0  0  0  # atno 8009 bound_to 7997
  154.6637  140.0544  157.0077 H   0  0  0  0  0  0  0  0  0  0  0  0  # atno 8010 bound_to 7997
  140.2458  143.3506  152.0760 H   0  0  0  0  0  0  0  0  0  0  0  0  # atno 10167 bound_to 10162
  156.3547  130.7706  151.1865 H   0  0  0  0  0  0  0  0  0  0  0  0  # atno 10718 bound_to 10713
  154.7126  135.5129  153.8689 H   0  0  0  0  0  0  0  0  0  0  0  0  # atno 10763 bound_to 10752
  153.0793  135.6626  154.0087 H   0  0  0  0  0  0  0  0  0  0  0  0  # atno 10764 bound_to 10752
  153.9926  135.3018  155.3390 H   0  0  0  0  0  0  0  0  0  0  0  0  # atno 10765 bound_to 10752
  141.0962  133.8967  157.1957 H   0  0  0  0  0  0  0  0  0  0  0  0  # atno 11005 bound_to 11000
  146.1500  139.4580  143.0055 LP  0  0  0  0  0  0  0  0  0  0  0  0  # atno 17320 bound_to 7965
  145.6885  141.0171  143.1568 LP  0  0  0  0  0  0  0  0  0  0  0  0  # atno 17321 bound_to 7965
  139.5062  144.6809  151.6010 LP  0  0  0  0  0  0  0  0  0  0  0  0  # atno 17342 bound_to 10162
  140.6078  143.9492  150.6431 LP  0  0  0  0  0  0  0  0  0  0  0  0  # atno 17343 bound_to 10162
  157.7466  131.0417  150.4660 LP  0  0  0  0  0  0  0  0  0  0  0  0  # atno 17370 bound_to 10713
  156.4861  130.4085  149.6433 LP  0  0  0  0  0  0  0  0  0  0  0  0  # atno 17371 bound_to 10713
  139.9799  135.0101  156.9724 LP  0  0  0  0  0  0  0  0  0  0  0  0  # atno 17394 bound_to 11000
  140.5134  134.0979  155.7275 LP  0  0  0  0  0  0  0  0  0  0  0  0  # atno 17395 bound_to 11000

$$$$
