AV-unprocessed.smi:910|AV-procd|sdf|4120|dock6
  -GOLD-   22720 2 23D 1   1.00000     0.00000
 Structure written by MMmdl.
 46 47  0  0  0  0  0  0  0  0  1 V2000
  148.6794  132.3029  153.7358 C   0  0  0  0  0  0  0  0  0  0  0  0
  149.5318  133.4001  154.3351 C   0  0  0  0  0  0  0  0  0  0  0  0
  149.4085  134.7069  153.9481 N   0  0  0  0  0  0  0  0  0  0  0  0
  150.3135  135.4625  154.6777 C   0  0  0  0  0  0  0  0  0  0  0  0
  150.5125  136.7425  154.6092 N   0  0  0  0  0  0  0  0  0  0  0  0
  151.4591  137.3323  155.4339 C   0  0  0  0  0  0  0  0  0  0  0  0
  152.3218  136.7850  156.1282 O   0  0  0  0  0  0  0  0  0  0  0  0
  151.3456  138.6678  155.3815 N   0  0  0  0  0  0  0  0  0  0  0  0
  152.1985  139.6215  156.0837 C   0  0  0  0  0  0  0  0  0  0  0  0
  151.4662  140.2689  157.2678 C   0  0  0  0  0  0  0  0  0  0  0  0
  152.3860  141.0802  157.9837 O   0  0  0  0  0  0  0  0  0  0  0  0
  151.7868  142.0932  158.7816 C   0  0  2  0  0  0  0  0  0  0  0  0
  151.2646  143.2277  157.8752 C   0  0  0  0  0  0  0  0  0  0  0  0
  150.7370  144.4108  158.6999 C   0  0  0  0  0  0  0  0  0  0  0  0
  151.8101  144.9314  159.6664 C   0  0  0  0  0  0  0  0  0  0  0  0
  152.3241  143.8067  160.5776 C   0  0  0  0  0  0  0  0  0  0  0  0
  152.8610  142.6117  159.7643 C   0  0  1  0  0  0  0  0  0  0  0  0
  153.3595  141.4977  160.7001 C   0  0  0  0  0  0  0  0  0  0  0  0
  150.9786  134.5828  155.5008 O   0  0  0  0  0  0  0  0  0  0  0  0
  150.4788  133.3377  155.2682 C   0  0  0  0  0  0  0  0  0  0  0  0
  151.0376  132.1739  156.0555 C   0  0  0  0  0  0  0  0  0  0  0  0
  148.0967  131.8105  154.5146 H   0  0  0  0  0  0  0  0  0  0  0  0
  149.3099  131.5564  153.2525 H   0  0  0  0  0  0  0  0  0  0  0  0
  147.9902  132.7044  152.9926 H   0  0  0  0  0  0  0  0  0  0  0  0
  148.7527  135.0216  153.2478 H   0  0  0  0  0  0  0  0  0  0  0  0
  150.6249  139.0555  154.7900 H   0  0  0  0  0  0  0  0  0  0  0  0
  153.0846  139.0950  156.4385 H   0  0  0  0  0  0  0  0  0  0  0  0
  152.5499  140.3877  155.3908 H   0  0  0  0  0  0  0  0  0  0  0  0
  150.6359  140.8722  156.9009 H   0  0  0  0  0  0  0  0  0  0  0  0
  151.0461  139.4990  157.9167 H   0  0  0  0  0  0  0  0  0  0  0  0
  150.9610  141.6794  159.3638 H   0  0  0  0  0  0  0  0  0  0  0  0
  152.0675  143.5712  157.2214 H   0  0  0  0  0  0  0  0  0  0  0  0
  150.4714  142.8629  157.2232 H   0  0  0  0  0  0  0  0  0  0  0  0
  150.4137  145.2126  158.0355 H   0  0  0  0  0  0  0  0  0  0  0  0
  149.8562  144.1002  159.2631 H   0  0  0  0  0  0  0  0  0  0  0  0
  152.6417  145.3527  159.0997 H   0  0  0  0  0  0  0  0  0  0  0  0
  151.4040  145.7432  160.2704 H   0  0  0  0  0  0  0  0  0  0  0  0
  153.1073  144.1964  161.2287 H   0  0  0  0  0  0  0  0  0  0  0  0
  151.5173  143.4744  161.2323 H   0  0  0  0  0  0  0  0  0  0  0  0
  153.7141  142.9615  159.1806 H   0  0  0  0  0  0  0  0  0  0  0  0
  152.5466  141.0943  161.3048 H   0  0  0  0  0  0  0  0  0  0  0  0
  154.1264  141.8706  161.3794 H   0  0  0  0  0  0  0  0  0  0  0  0
  153.7963  140.6710  160.1387 H   0  0  0  0  0  0  0  0  0  0  0  0
  150.7800  131.2265  155.5817 H   0  0  0  0  0  0  0  0  0  0  0  0
  150.6342  132.1767  157.0681 H   0  0  0  0  0  0  0  0  0  0  0  0
  152.1237  132.2452  156.1154 H   0  0  0  0  0  0  0  0  0  0  0  0
  1 22  1  0  0  0  0
  1 23  1  0  0  0  0
  1 24  1  0  0  0  0
  1  2  1  0  0  0  0
  2  3  1  0  0  0  0
  2 20  2  0  0  0  0
  3 25  1  0  0  0  0
  3  4  1  0  0  0  0
  4 19  1  0  0  0  0
  4  5  2  0  0  0  0
  5  6  1  0  0  0  0
  6  8  1  0  0  0  0
  6  7  2  0  0  0  0
  8  9  1  0  0  0  0
  8 26  1  0  0  0  0
  9 10  1  0  0  0  0
  9 27  1  0  0  0  0
  9 28  1  0  0  0  0
 10 11  1  0  0  0  0
 10 29  1  0  0  0  0
 10 30  1  0  0  0  0
 11 12  1  0  0  0  0
 12 17  1  0  0  0  0
 12 13  1  0  0  0  0
 12 31  1  0  0  0  0
 13 14  1  0  0  0  0
 13 32  1  0  0  0  0
 13 33  1  0  0  0  0
 14 15  1  0  0  0  0
 14 34  1  0  0  0  0
 14 35  1  0  0  0  0
 15 16  1  0  0  0  0
 15 36  1  0  0  0  0
 15 37  1  0  0  0  0
 16 17  1  0  0  0  0
 16 38  1  0  0  0  0
 16 39  1  0  0  0  0
 17 18  1  0  0  0  0
 17 40  1  0  0  0  0
 18 41  1  0  0  0  0
 18 42  1  0  0  0  0
 18 43  1  0  0  0  0
 19 20  1  0  0  0  0
 20 21  1  0  0  0  0
 21 44  1  0  0  0  0
 21 45  1  0  0  0  0
 21 46  1  0  0  0  0
M  END
> <s_m_source_file>
AV-unprocessed.smi

> <i_m_source_file_index>
910

> <i_lp_mmshare_version>
43012

> <i_f3d_flags>
0

> <s_epik_input>
W0NIM11jMW5jKG9jMVtDSDNdKVtOSF1DKD1PKVtOSF1bQ0gyXVtDSDJdT1tDQEBIXTJbQ0gyXVtDSDJdW0NIMl1bQ0gyXVtDQEhdMltDSDNd

> <s_epik_cmdline>
J2VwaWtfcHl0aG9uJywgJy1waCcsICc3LjAnLCAnLXRuJywgJzgnLCAnLW1hJywgJzIwMCcsICctbWV0YWxfYmluZGluZycsICctaW1hZScsICc8aW5maWxlLm1hZT4nLCAnLW9tYWUnLCAnPG91dGZpbGUubWFlPic=

> <r_lp_tautomer_probability>
0.107061

> <r_epik_Ionization_Penalty>
0.727192

> <r_epik_Ionization_Penalty_Charging>
0.726719

> <r_epik_Ionization_Penalty_Neutral>
0.000473387

> <r_epik_State_Penalty>
2.53712

> <r_epik_Charging_Adjusted_Penalty>
3.26383

> <i_epik_Tot_Q>
0

> <i_epik_Tot_abs_Q>
0

> <r_epik_Metal_State_Penalty>
3.71015

> <b_epik_Metal_Only>
0

> <s_lp_Force_Field>
OPLS_2005

> <r_lp_Energy>
30.8071

> <b_lp_Chiralities_Consistent>
1

> <s_lp_Variant>
AV-unprocessed.smi:910-5

> <Gold.Version>
5.8.1

> <Gold.Id.Protein>
6NUR|6NUR_protein|mol2

> <Gold.PLP.Fitness>
46.6047

> <Gold.PLP.PLP>
-42.3890

> <Gold.PLP.part.hbond>
-2.3932

> <Gold.PLP.part.metal>
0.0000

> <Gold.PLP.part.buried>
-3.0485

> <Gold.PLP.part.nonpolar>
-36.7303

> <Gold.PLP.part.repulsive>
0.3676

> <Gold.PLP.ligand.clash>
0.0000

> <Gold.PLP.ligand.torsion>
0.3305

> <Gold.PLP.Chemscore.Hbond>
1.6080

> <Gold.PLP.Chemscore.CHOScore>
0.0000

> <Gold.PLP.Chemscore.Metal>
0.0000

> <Gold.Chemscore.Hbonds>
donor molecule, donor type, donor heavy atom, donor atom, acceptor molecule, acceptor atom, score
      L1  H     3    25       P1  7948  0.61
      P1  H 10752 10764       L1     7  0.98

> <Gold.PLP.Chemscore.Internal.Correction>
0.0527

> <Gold.Rescore>
     Score         DG    S(hbond)    S(metal)    S(lipo)     H(rot)  DE(clash)    DE(int)     intcor
     16.31     -18.54       1.29        0.00     111.02       1.66       0.37       1.86       ----

> <Gold.Chemscore.Fitness>
16.3075

> <Gold.Chemscore.DG>
-18.5398

> <Gold.Chemscore.ZeroCoef>
-5.4800

> <Gold.Chemscore.Hbond>
1.2918

> <Gold.Chemscore.Metal>
0.0000

> <Gold.Chemscore.Lipo>
111.0156

> <Gold.Chemscore.Internal_Hbond>
0.0000

> <Gold.Chemscore.DEClash>
0.3721

> <Gold.Chemscore.DEInternal>
1.8602

> <Gold.Chemscore.Rot>
1.6576

> <Gold.Chemscore.Internal.Correction>
   9.000000E+99

> <Gold.Chemscore.Hbonds>
donor molecule, donor type, donor heavy atom, donor atom, acceptor molecule, acceptor atom, score
      L1  H     3    25       P1  7948  0.30
      P1  H 10752 10764       L1     7  0.77

> <Gold.Chemscore.Hbond.Weighted>
-4.3145

> <Gold.Chemscore.Metal.Weighted>
-0.0000

> <Gold.Chemscore.Lipo.Weighted>
-12.9888

> <Gold.Chemscore.Internal_Hbond.Weighted>
0.0000

> <Gold.Chemscore.DEClash.Weighted>
0.3721

> <Gold.Chemscore.DEInternal.Weighted>
1.8602

> <Gold.Chemscore.Rot.Weighted>
4.2436

> <Gold.Chemscore.Internal.Correction.Weighted>
   9.000000E+99

> <Gold.Protein.RotatedTorsions>
[ 6907 6896 6895 6894 ] final   -5.28 input  -60.11 | X-H torsion
[ 7974 7965 7964 7962 ] final -122.16 input  175.53 | X-H torsion
[ 8008 7997 7996 7995 ] final   74.49 input   59.86 | X-H torsion
[ 10167 10162 10161 10158 ] final  128.64 input  -65.29 | X-H torsion
[ 10718 10713 10712 10709 ] final  146.02 input   66.30 | X-H torsion
[ 10763 10752 10751 10750 ] final  -19.59 input  -60.55 | X-H torsion
[ 11005 11000 10999 10996 ] final   -0.06 input  -57.11 | X-H torsion

> <Gold.Protein.ActiveResidues>
 VAL166  LYS551  ARG553  GLY616  TRP617  ASP618  TYR619  PRO620  LYS621  CYS622 
 ASP623  PHE694  ASN695  SER759  ASP760  ASP761  ALA762  ILE779  LEU786  VAL792 
 PHE793  MET794  SER795  GLU796  ALA797  LYS798  CYS799  TRP800  GLU811  SER814 

> <Gold.Protein.RotatedAtoms>
  151.4841  135.1054  159.9785 H   0  0  0  0  0  0  0  0  0  0  0  0  # atno 6907 bound_to 6896
  152.4767  133.8152  159.7035 H   0  0  0  0  0  0  0  0  0  0  0  0  # atno 6908 bound_to 6896
  150.8810  133.7310  159.2958 H   0  0  0  0  0  0  0  0  0  0  0  0  # atno 6909 bound_to 6896
  145.0325  140.8079  143.4315 H   0  0  0  0  0  0  0  0  0  0  0  0  # atno 7974 bound_to 7965
  155.7991  140.3477  155.5393 H   0  0  0  0  0  0  0  0  0  0  0  0  # atno 8008 bound_to 7997
  155.8556  140.0963  157.1667 H   0  0  0  0  0  0  0  0  0  0  0  0  # atno 8009 bound_to 7997
  154.4009  140.1368  156.3885 H   0  0  0  0  0  0  0  0  0  0  0  0  # atno 8010 bound_to 7997
  139.5517  144.6818  151.4304 H   0  0  0  0  0  0  0  0  0  0  0  0  # atno 10167 bound_to 10162
  157.3382  131.0931  151.1105 H   0  0  0  0  0  0  0  0  0  0  0  0  # atno 10718 bound_to 10713
  153.6072  135.6997  153.5361 H   0  0  0  0  0  0  0  0  0  0  0  0  # atno 10763 bound_to 10752
  153.3047  135.4118  155.1283 H   0  0  0  0  0  0  0  0  0  0  0  0  # atno 10764 bound_to 10752
  154.8571  135.3657  154.5609 H   0  0  0  0  0  0  0  0  0  0  0  0  # atno 10765 bound_to 10752
  140.6321  133.9566  155.8280 H   0  0  0  0  0  0  0  0  0  0  0  0  # atno 11005 bound_to 11000
  145.1752  139.2382  143.5321 LP  0  0  0  0  0  0  0  0  0  0  0  0  # atno 17320 bound_to 7965
  146.3500  140.1513  142.8592 LP  0  0  0  0  0  0  0  0  0  0  0  0  # atno 17321 bound_to 7965
  140.6781  143.8144  150.7084 LP  0  0  0  0  0  0  0  0  0  0  0  0  # atno 17342 bound_to 10162
  140.1589  143.4292  152.2080 LP  0  0  0  0  0  0  0  0  0  0  0  0  # atno 17343 bound_to 10162
  157.2327  130.6532  149.5856 LP  0  0  0  0  0  0  0  0  0  0  0  0  # atno 17370 bound_to 10713
  155.9704  130.4593  150.6033 LP  0  0  0  0  0  0  0  0  0  0  0  0  # atno 17371 bound_to 10713
  141.0668  134.0265  157.3583 LP  0  0  0  0  0  0  0  0  0  0  0  0  # atno 17394 bound_to 11000
  139.9112  135.0190  156.7699 LP  0  0  0  0  0  0  0  0  0  0  0  0  # atno 17395 bound_to 11000

$$$$
