#       Name:                AV-unprocessed.smi:1474
#       Creating user name   scv26
#       Creation time:       Fri Mar 27 06:06:23 2020


#       File generated by GOLD software.
#

@<TRIPOS>MOLECULE
AV-unprocessed.smi:1474
    52    53     1
SMALL
NO_CHARGES


@<TRIPOS>ATOM
      1 ****        -4.9625   5.7165   1.3595 C.3            1 S1                 0.0000
      2 ****        -4.3167   4.4715   1.5597 O.3            1 S1                 0.0000
      3 ****        -2.9108   4.5571   1.3984 C.3            1 S1                 0.0000
      4 ****        -2.2963   3.1740   1.6282 C.3            1 S1                 0.0000
      5 ****        -0.8887   3.2600   1.4278 O.3            1 S1                 0.0000
      6 ****        -0.1343   2.1116   1.5554 C.ar           1 S1                 0.0000
      7 ****         1.2512   2.1849   1.3045 C.ar           1 S1                 0.0000
      8 ****         2.0243   1.0138   1.4188 C.ar           1 S1                 0.0000
      9 ****         1.3874  -0.1889   1.7854 C.ar           1 S1                 0.0000
     10 ****         2.1717  -1.4839   1.8932 C.3            1 S1                 0.0000
     11 ****         2.5383  -2.0191   0.5876 N.am           1 S1                 0.0000
     12 ****         1.7029  -2.6755  -0.2329 C.2            1 S1                 0.0000
     13 ****         0.5405  -2.9446   0.0720 O.2            1 S1                 0.0000
     14 ****         2.2737  -3.0876  -1.6029 C.3            1 S1                 0.0000
     15 ****         1.8701  -2.1019  -2.7152 C.3            1 S1                 0.0000
     16 ****         0.3737  -2.1760  -3.0737 C.3            1 S1                 0.0000
     17 ****        -0.1640  -3.6108  -3.1812 C.2            1 S1                 0.0000
     18 ****        -1.2367  -3.8125  -3.7453 O.2            1 S1                 0.0000
     19 ****         0.5321  -4.6135  -2.6170 N.am           1 S1                 0.0000
     20 ****         1.8664  -4.5192  -2.0204 C.3            1 S1                 0.0000
     21 ****        -0.0028  -0.1612   2.0219 C.ar           1 S1                 0.0000
     22 ****        -0.7510   0.9569   1.9113 N.ar           1 S1                 0.0000
     23 ****        -6.0381   5.5962   1.4881 H              1 S1                 0.0000
     24 ****        -4.7846   6.0963   0.3527 H              1 S1                 0.0000
     25 ****        -4.6183   6.4594   2.0801 H              1 S1                 0.0000
     26 ****        -2.6713   4.9082   0.3933 H              1 S1                 0.0000
     27 ****        -2.4934   5.2737   2.1075 H              1 S1                 0.0000
     28 ****        -2.5173   2.8364   2.6420 H              1 S1                 0.0000
     29 ****        -2.7343   2.4591   0.9296 H              1 S1                 0.0000
     30 ****         1.7109   3.1207   1.0226 H              1 S1                 0.0000
     31 ****         3.0862   1.0387   1.2231 H              1 S1                 0.0000
     32 ****         3.0855  -1.2962   2.4577 H              1 S1                 0.0000
     33 ****         1.6056  -2.2237   2.4619 H              1 S1                 0.0000
     34 ****         3.4810  -1.8462   0.2696 H              1 S1                 0.0000
     35 ****         3.3612  -3.0705  -1.5120 H              1 S1                 0.0000
     36 ****         2.1256  -1.0817  -2.4252 H              1 S1                 0.0000
     37 ****         2.4606  -2.3127  -3.6077 H              1 S1                 0.0000
     38 ****        -0.2138  -1.6602  -2.3135 H              1 S1                 0.0000
     39 ****         0.1909  -1.6496  -4.0110 H              1 S1                 0.0000
     40 ****         0.1288  -5.5380  -2.6662 H              1 S1                 0.0000
     41 ****         2.5797  -4.8978  -2.7532 H              1 S1                 0.0000
     42 ****         1.9181  -5.1999  -1.1696 H              1 S1                 0.0000
     43 ****        -0.5323  -1.0618   2.2957 H              1 S1                 0.0000
     44 ****        -4.6760   3.8137   0.8977 LP             1 S1                 0.0000
     45 ****        -4.5143   4.1531   2.4868 LP             1 S1                 0.0000
     46 ****        -0.5359   3.9202   2.0908 LP             1 S1                 0.0000
     47 ****        -0.7430   3.6075   0.5015 LP             1 S1                 0.0000
     48 ****         0.1819  -2.6720   0.9647 LP             1 S1                 0.0000
     49 ****        -0.0447  -3.4358  -0.5732 LP             1 S1                 0.0000
     50 ****        -1.7515  -3.0461  -4.1295 LP             1 S1                 0.0000
     51 ****        -1.5950  -4.7431  -3.8203 LP             1 S1                 0.0000
     52 ****        -1.7351   0.9345   2.0873 LP             1 S1                 0.0000
@<TRIPOS>BOND
    1    1    2 1     
    2    1   23 1     
    3    1   24 1     
    4    1   25 1     
    5    2    3 1     
    6    3    4 1     
    7    3   26 1     
    8    3   27 1     
    9    4    5 1     
   10    4   28 1     
   11    4   29 1     
   12    5    6 1     
   13    6   22 ar    
   14    6    7 ar    
   15    7    8 ar    
   16    7   30 1     
   17    8    9 ar    
   18    8   31 1     
   19    9   10 1     
   20    9   21 ar    
   21   10   11 1     
   22   10   32 1     
   23   10   33 1     
   24   11   12 am    
   25   11   34 1     
   26   12   13 2     
   27   12   14 1     
   28   14   20 1     
   29   14   15 1     
   30   14   35 1     
   31   15   16 1     
   32   15   36 1     
   33   15   37 1     
   34   16   17 1     
   35   16   38 1     
   36   16   39 1     
   37   17   18 2     
   38   17   19 am    
   39   19   20 1     
   40   19   40 1     
   41   20   41 1     
   42   20   42 1     
   43   21   22 ar    
   44   21   43 1     
   45    2   44 1     
   46    2   45 1     
   47    5   46 1     
   48    5   47 1     
   49   13   48 1     
   50   13   49 1     
   51   18   50 1     
   52   18   51 1     
   53   22   52 1     
@<TRIPOS>SUBSTRUCTURE
      1 S1             1
@<TRIPOS>SET
LONE_PAIRS      STATIC     ATOMS    <user>   **** ""
9 44 45 46 47 48 49 50 51 52
DONOR_HYDROGENS      STATIC     ATOMS    <user>   **** ""
2 34 40
ATOM$BLUE        STATIC     ATOMS    COLORGROUP SYSTEM
9 44 45 46 47 48 49 50 51 52
ATOM$RED        STATIC     ATOMS    COLORGROUP SYSTEM
2 34 40
