AV-unprocessed.smi:2140|AV-procd|sdf|8717|dock2
  -GOLD-   2272011483D 1   1.00000     0.00000
 Structure written by MMmdl.
 40 41  0  0  0  0  0  0  0  0  2 V2000
  148.4522  139.9489  156.1314 C   0  0  0  0  0  0  0  0  0  0  0  0
  149.4672  139.8225  154.9691 C   0  0  1  0  0  0  0  0  0  0  0  0
  149.7809  141.2252  154.3814 C   0  0  0  0  0  0  0  0  0  0  0  0
  149.8024  142.2792  155.3921 N   0  0  0  0  0  0  0  0  0  0  0  0
  150.5494  142.2552  156.5051 C   0  0  0  0  0  0  0  0  0  0  0  0
  151.2961  141.3211  156.7966 O   0  0  0  0  0  0  0  0  0  0  0  0
  150.3595  143.3611  157.2444 N   0  0  0  0  0  0  0  0  0  0  0  0
  150.9911  143.7301  158.4631 C   0  0  0  0  0  0  0  0  0  0  0  0
  152.0456  143.0031  159.0678 C   0  0  0  0  0  0  0  0  0  0  0  0
  152.6030  143.4858  160.2675 C   0  0  0  0  0  0  0  0  0  0  0  0
  152.0923  144.6785  160.8151 C   0  0  0  0  0  0  0  0  0  0  0  0
  151.0972  145.3882  160.2430 N   0  0  0  0  0  0  0  0  0  0  0  0
  150.5680  144.9201  159.0925 C   0  0  0  0  0  0  0  0  0  0  0  0
  150.7364  139.1236  155.3571 N   0  3  0  0  0  0  0  0  0  0  0  0
  150.6051  137.6691  155.6509 C   0  0  0  0  0  0  0  0  0  0  0  0
  151.9572  137.0596  156.0609 C   0  0  0  0  0  0  0  0  0  0  0  0
  152.9198  137.2868  155.0427 O   0  0  0  0  0  0  0  0  0  0  0  0
  153.1358  138.6741  154.8317 C   0  0  0  0  0  0  0  0  0  0  0  0
  151.8267  139.3307  154.3644 C   0  0  0  0  0  0  0  0  0  0  0  0
  147.5535  140.4852  155.8271 H   0  0  0  0  0  0  0  0  0  0  0  0
  148.8807  140.4860  156.9781 H   0  0  0  0  0  0  0  0  0  0  0  0
  148.1071  138.9760  156.4809 H   0  0  0  0  0  0  0  0  0  0  0  0
  148.9857  139.2163  154.2000 H   0  0  0  0  0  0  0  0  0  0  0  0
  150.7568  141.2097  153.8951 H   0  0  0  0  0  0  0  0  0  0  0  0
  149.0677  141.5167  153.6118 H   0  0  0  0  0  0  0  0  0  0  0  0
  149.2097  143.0809  155.2312 H   0  0  0  0  0  0  0  0  0  0  0  0
  149.6463  143.9975  156.9193 H   0  0  0  0  0  0  0  0  0  0  0  0
  152.4463  142.1007  158.6333 H   0  0  0  0  0  0  0  0  0  0  0  0
  153.4078  142.9553  160.7548 H   0  0  0  0  0  0  0  0  0  0  0  0
  152.4984  145.0759  161.7333 H   0  0  0  0  0  0  0  0  0  0  0  0
  149.7760  145.5153  158.6618 H   0  0  0  0  0  0  0  0  0  0  0  0
  149.9099  137.4990  156.4722 H   0  0  0  0  0  0  0  0  0  0  0  0
  150.2120  137.1517  154.7743 H   0  0  0  0  0  0  0  0  0  0  0  0
  152.3034  137.4808  157.0064 H   0  0  0  0  0  0  0  0  0  0  0  0
  151.8530  135.9850  156.2126 H   0  0  0  0  0  0  0  0  0  0  0  0
  153.5066  139.1443  155.7440 H   0  0  0  0  0  0  0  0  0  0  0  0
  153.9086  138.7983  154.0729 H   0  0  0  0  0  0  0  0  0  0  0  0
  151.5281  138.9098  153.4029 H   0  0  0  0  0  0  0  0  0  0  0  0
  152.0147  140.3896  154.1980 H   0  0  0  0  0  0  0  0  0  0  0  0
  151.0406  139.5500  156.2209 H   0  0  0  0  0  0  0  0  0  0  0  0
  1  2  1  0  0  0  0
  1 20  1  0  0  0  0
  1 21  1  0  0  0  0
  1 22  1  0  0  0  0
  2  3  1  0  0  0  0
  2 14  1  0  0  0  0
  2 23  1  0  0  0  0
  3  4  1  0  0  0  0
  3 24  1  0  0  0  0
  3 25  1  0  0  0  0
  4  5  1  0  0  0  0
  4 26  1  0  0  0  0
  5  6  2  0  0  0  0
  5  7  1  0  0  0  0
  7  8  1  0  0  0  0
  7 27  1  0  0  0  0
  8 13  1  0  0  0  0
  8  9  2  0  0  0  0
  9 10  1  0  0  0  0
  9 28  1  0  0  0  0
 10 11  2  0  0  0  0
 10 29  1  0  0  0  0
 11 12  1  0  0  0  0
 11 30  1  0  0  0  0
 12 13  2  0  0  0  0
 13 31  1  0  0  0  0
 14 19  1  0  0  0  0
 14 15  1  0  0  0  0
 14 40  1  0  0  0  0
 15 16  1  0  0  0  0
 15 32  1  0  0  0  0
 15 33  1  0  0  0  0
 16 17  1  0  0  0  0
 16 34  1  0  0  0  0
 16 35  1  0  0  0  0
 17 18  1  0  0  0  0
 18 19  1  0  0  0  0
 18 36  1  0  0  0  0
 18 37  1  0  0  0  0
 19 38  1  0  0  0  0
 19 39  1  0  0  0  0
M  CHG  1  14   1
M  END
> <s_m_source_file>
AV-unprocessed.smi

> <i_m_source_file_index>
2140

> <i_lp_mmshare_version>
43012

> <i_f3d_flags>
0

> <s_epik_input>
W0NIMl0xW0NIMl1PW0NIMl1bQ0gyXU4xW0NASF0oW0NIM10pW0NIMl1bTkhdQyg9TylbTkhdYzJbY0hdW2NIXVtjSF1uW2NIXTI=

> <s_epik_cmdline>
J2VwaWtfcHl0aG9uJywgJy1waCcsICc3LjAnLCAnLXRuJywgJzgnLCAnLW1hJywgJzIwMCcsICctbWV0YWxfYmluZGluZycsICctaW1hZScsICc8aW5maWxlLm1hZT4nLCAnLW9tYWUnLCAnPG91dGZpbGUubWFlPic=

> <r_epik_Ionization_Penalty>
0.60672

> <r_epik_Ionization_Penalty_Charging>
0.602531

> <r_epik_Ionization_Penalty_Neutral>
0.00418997

> <r_epik_State_Penalty>
0.607459

> <r_epik_Charging_Adjusted_Penalty>
1.20999

> <i_epik_Tot_Q>
1

> <i_epik_Tot_abs_Q>
1

> <r_epik_Metal_State_Penalty>
0.604586

> <b_epik_Metal_Only>
0

> <s_lp_Force_Field>
OPLS_2005

> <r_lp_Energy>
23.4588

> <b_lp_Chiralities_Consistent>
1

> <s_lp_Variant>
AV-unprocessed.smi:2140-4

> <Gold.Version>
5.8.1

> <Gold.Id.Protein>
6NUR|6NUR_protein|mol2

> <Gold.PLP.Fitness>
43.8951

> <Gold.PLP.PLP>
-32.9434

> <Gold.PLP.part.hbond>
-3.0000

> <Gold.PLP.part.metal>
0.0000

> <Gold.PLP.part.buried>
-5.2578

> <Gold.PLP.part.nonpolar>
-25.4449

> <Gold.PLP.part.repulsive>
0.4858

> <Gold.PLP.ligand.clash>
0.0000

> <Gold.PLP.ligand.torsion>
0.5577

> <Gold.PLP.Chemscore.Hbond>
3.0000

> <Gold.PLP.Chemscore.CHOScore>
1.0000

> <Gold.PLP.Chemscore.Metal>
0.0000

> <Gold.Chemscore.Hbonds>
donor molecule, donor type, donor heavy atom, donor atom, acceptor molecule, acceptor atom, score
      L1  H     4    26       P1  8028  0.93
      L1  H     7    27       P1  8028  0.99
      P1  H 10752 10765       L1    17  0.18
      L1  C    13    31       P1  8029  1.00

> <Gold.PLP.Chemscore.Internal.Correction>
0.0671

> <Gold.Rescore>
     Score         DG    S(hbond)    S(metal)    S(lipo)     H(rot)  DE(clash)    DE(int)     intcor
     18.80     -21.35       2.67        0.00      92.53       1.52       0.74       1.81       ----

> <Gold.Chemscore.Fitness>
18.7959

> <Gold.Chemscore.DG>
-21.3521

> <Gold.Chemscore.ZeroCoef>
-5.4800

> <Gold.Chemscore.Hbond>
2.6742

> <Gold.Chemscore.Metal>
0.0000

> <Gold.Chemscore.Lipo>
92.5319

> <Gold.Chemscore.Internal_Hbond>
0.0000

> <Gold.Chemscore.DEClash>
0.7420

> <Gold.Chemscore.DEInternal>
1.8141

> <Gold.Chemscore.Rot>
1.5179

> <Gold.Chemscore.Internal.Correction>
   9.000000E+99

> <Gold.Chemscore.Hbonds>
donor molecule, donor type, donor heavy atom, donor atom, acceptor molecule, acceptor atom, score
      L1  H     4    26       P1  8028  0.91
      L1  H     7    27       P1  8028  0.80
      P1  H 10752 10765       L1    17  0.01

> <Gold.Chemscore.Hbond.Weighted>
-8.9317

> <Gold.Chemscore.Metal.Weighted>
-0.0000

> <Gold.Chemscore.Lipo.Weighted>
-10.8262

> <Gold.Chemscore.Internal_Hbond.Weighted>
0.0000

> <Gold.Chemscore.DEClash.Weighted>
0.7420

> <Gold.Chemscore.DEInternal.Weighted>
1.8141

> <Gold.Chemscore.Rot.Weighted>
3.8859

> <Gold.Chemscore.Internal.Correction.Weighted>
   9.000000E+99

> <Gold.Protein.RotatedTorsions>
[ 6907 6896 6895 6894 ] final  -20.82 input  -60.11 | X-H torsion
[ 7974 7965 7964 7962 ] final   53.63 input  175.53 | X-H torsion
[ 8008 7997 7996 7995 ] final   72.21 input   59.86 | X-H torsion
[ 10167 10162 10161 10158 ] final   86.68 input  -65.29 | X-H torsion
[ 10718 10713 10712 10709 ] final  -37.89 input   66.30 | X-H torsion
[ 10763 10752 10751 10750 ] final -169.00 input  -60.55 | X-H torsion
[ 11005 11000 10999 10996 ] final   16.53 input  -57.11 | X-H torsion

> <Gold.Protein.ActiveResidues>
 VAL166  LYS551  ARG553  GLY616  TRP617  ASP618  TYR619  PRO620  LYS621  CYS622 
 ASP623  PHE694  ASN695  SER759  ASP760  ASP761  ALA762  ILE779  LEU786  VAL792 
 PHE793  MET794  SER795  GLU796  ALA797  LYS798  CYS799  TRP800  GLU811  SER814 

> <Gold.Protein.RotatedAtoms>
  151.2425  135.0594  159.9030 H   0  0  0  0  0  0  0  0  0  0  0  0  # atno 6907 bound_to 6896
  152.5391  134.0419  159.8081 H   0  0  0  0  0  0  0  0  0  0  0  0  # atno 6908 bound_to 6896
  151.0615  133.5491  159.2665 H   0  0  0  0  0  0  0  0  0  0  0  0  # atno 6909 bound_to 6896
  145.9692  139.4132  143.0201 H   0  0  0  0  0  0  0  0  0  0  0  0  # atno 7974 bound_to 7965
  155.7655  140.3485  155.5220 H   0  0  0  0  0  0  0  0  0  0  0  0  # atno 8008 bound_to 7997
  155.8873  140.1012  157.1464 H   0  0  0  0  0  0  0  0  0  0  0  0  # atno 8009 bound_to 7997
  154.4030  140.1311  156.4258 H   0  0  0  0  0  0  0  0  0  0  0  0  # atno 8010 bound_to 7997
  139.8850  144.6418  150.8801 H   0  0  0  0  0  0  0  0  0  0  0  0  # atno 10167 bound_to 10162
  156.3100  130.4251  149.8060 H   0  0  0  0  0  0  0  0  0  0  0  0  # atno 10718 bound_to 10713
  154.6569  135.2919  154.9916 H   0  0  0  0  0  0  0  0  0  0  0  0  # atno 10763 bound_to 10752
  154.0989  135.6579  153.4869 H   0  0  0  0  0  0  0  0  0  0  0  0  # atno 10764 bound_to 10752
  153.0407  135.5238  154.7502 H   0  0  0  0  0  0  0  0  0  0  0  0  # atno 10765 bound_to 10752
  140.4460  134.1272  155.7696 H   0  0  0  0  0  0  0  0  0  0  0  0  # atno 11005 bound_to 11000
  145.7930  140.9805  143.1039 LP  0  0  0  0  0  0  0  0  0  0  0  0  # atno 17320 bound_to 7965
  144.6833  139.9707  143.7482 LP  0  0  0  0  0  0  0  0  0  0  0  0  # atno 17321 bound_to 7965
  140.7737  143.3555  151.1929 LP  0  0  0  0  0  0  0  0  0  0  0  0  # atno 17342 bound_to 10162
  139.7161  143.9298  152.2967 LP  0  0  0  0  0  0  0  0  0  0  0  0  # atno 17343 bound_to 10162
  156.5406  130.8298  151.3268 LP  0  0  0  0  0  0  0  0  0  0  0  0  # atno 17370 bound_to 10713
  157.7389  130.9821  150.2278 LP  0  0  0  0  0  0  0  0  0  0  0  0  # atno 17371 bound_to 10713
  141.1685  133.8656  157.1643 LP  0  0  0  0  0  0  0  0  0  0  0  0  # atno 17394 bound_to 11000
  140.0038  135.0017  157.0248 LP  0  0  0  0  0  0  0  0  0  0  0  0  # atno 17395 bound_to 11000

$$$$
