AV-unprocessed.smi:244|AV-procd|sdf|1872|dock2
  -GOLD-   2262020513D 1   1.00000     0.00000
 Structure written by MMmdl.
 56 60  0  0  0  0  0  0  0  0  1 V2000
  151.6590  144.7507  159.4289 C   0  0  0  0  0  0  0  0  0  0  0  0
  152.5298  143.6037  159.6441 N   0  0  0  0  0  0  0  0  0  0  0  0
  152.7709  143.4448  161.0797 C   0  0  0  0  0  0  0  0  0  0  0  0
  153.7129  142.2558  161.3377 C   0  0  0  0  0  0  0  0  0  0  0  0
  153.1138  140.9753  160.7486 C   0  0  2  0  0  0  0  0  0  0  0  0
  154.0066  139.8827  160.9298 O   0  0  0  0  0  0  0  0  0  0  0  0
  153.4351  138.6665  160.4602 C   0  0  0  0  0  0  0  0  0  0  0  0
  153.1419  138.7822  158.9554 C   0  0  0  0  0  0  0  0  0  0  0  0
  152.3060  139.9472  158.6740 N   0  0  0  0  0  0  0  0  0  0  0  0
  151.9325  139.9543  157.3712 C   0  0  0  0  0  0  0  0  0  0  0  0
  152.6411  139.2559  156.4441 N   0  0  0  0  0  0  0  0  0  0  0  0
  152.2491  139.2487  155.1663 C   0  0  0  0  0  0  0  0  0  0  0  0
  151.1938  139.8508  154.6131 N   0  0  0  0  0  0  0  0  0  0  0  0
  150.4742  140.5416  155.5436 C   0  0  0  0  0  0  0  0  0  0  0  0
  150.7705  140.6427  156.9314 C   0  0  0  0  0  0  0  0  0  0  0  0
  149.8157  141.4251  157.5680 N   0  0  0  0  0  0  0  0  0  0  0  0
  148.9986  141.7678  156.6095 C   0  0  0  0  0  0  0  0  0  0  0  0
  149.3215  141.2854  155.3608 N   0  0  0  0  0  0  0  0  0  0  0  0
  148.5879  141.5105  154.1250 C   0  0  0  0  0  0  0  0  0  0  0  0
  147.0532  141.3641  154.2703 C   0  0  0  0  0  0  0  0  0  0  0  0
  146.5469  140.8929  153.0328 O   0  0  0  0  0  0  0  0  0  0  0  0
  146.6536  140.3626  155.3761 C   0  0  0  0  0  0  0  0  0  0  0  0
  145.1394  140.3783  155.6508 C   0  0  0  0  0  0  0  0  0  0  0  0
  144.7124  141.6984  155.9646 O   0  0  0  0  0  0  0  0  0  0  0  0
  144.9082  142.6099  154.8902 C   0  0  0  0  0  0  0  0  0  0  0  0
  146.4085  142.7325  154.5699 C   0  0  0  0  0  0  0  0  0  0  0  0
  152.8441  141.1866  159.2451 C   0  0  1  0  0  0  0  0  0  0  0  0
  151.9006  142.4045  159.0852 C   0  0  0  0  0  0  0  0  0  0  0  0
  152.1147  145.6581  159.8264 H   0  0  0  0  0  0  0  0  0  0  0  0
  150.6917  144.6126  159.9147 H   0  0  0  0  0  0  0  0  0  0  0  0
  151.4869  144.9066  158.3635 H   0  0  0  0  0  0  0  0  0  0  0  0
  153.2183  144.3563  161.4781 H   0  0  0  0  0  0  0  0  0  0  0  0
  151.8256  143.2955  161.6040 H   0  0  0  0  0  0  0  0  0  0  0  0
  154.6899  142.4512  160.8936 H   0  0  0  0  0  0  0  0  0  0  0  0
  153.8746  142.1342  162.4089 H   0  0  0  0  0  0  0  0  0  0  0  0
  152.1781  140.7589  161.2691 H   0  0  0  0  0  0  0  0  0  0  0  0
  154.1340  137.8507  160.6449 H   0  0  0  0  0  0  0  0  0  0  0  0
  152.5249  138.4375  161.0170 H   0  0  0  0  0  0  0  0  0  0  0  0
  154.0787  138.8720  158.4035 H   0  0  0  0  0  0  0  0  0  0  0  0
  152.6541  137.8698  158.6098 H   0  0  0  0  0  0  0  0  0  0  0  0
  152.8682  138.6759  154.4917 H   0  0  0  0  0  0  0  0  0  0  0  0
  148.1331  142.3895  156.7867 H   0  0  0  0  0  0  0  0  0  0  0  0
  148.8352  142.5090  153.7624 H   0  0  0  0  0  0  0  0  0  0  0  0
  148.9654  140.8148  153.3741 H   0  0  0  0  0  0  0  0  0  0  0  0
  145.6053  140.8394  153.0944 H   0  0  0  0  0  0  0  0  0  0  0  0
  146.9682  139.3506  155.1185 H   0  0  0  0  0  0  0  0  0  0  0  0
  147.1752  140.6201  156.2988 H   0  0  0  0  0  0  0  0  0  0  0  0
  144.5803  139.9967  154.7950 H   0  0  0  0  0  0  0  0  0  0  0  0
  144.9080  139.7261  156.4931 H   0  0  0  0  0  0  0  0  0  0  0  0
  144.3429  142.2863  154.0148 H   0  0  0  0  0  0  0  0  0  0  0  0
  144.5098  143.5823  155.1801 H   0  0  0  0  0  0  0  0  0  0  0  0
  146.9068  143.1852  155.4282 H   0  0  0  0  0  0  0  0  0  0  0  0
  146.5577  143.4181  153.7345 H   0  0  0  0  0  0  0  0  0  0  0  0
  153.7915  141.4045  158.7483 H   0  0  0  0  0  0  0  0  0  0  0  0
  150.9450  142.2140  159.5772 H   0  0  0  0  0  0  0  0  0  0  0  0
  151.6851  142.5881  158.0328 H   0  0  0  0  0  0  0  0  0  0  0  0
  1  2  1  0  0  0  0
  1 29  1  0  0  0  0
  1 30  1  0  0  0  0
  1 31  1  0  0  0  0
  2 28  1  0  0  0  0
  2  3  1  0  0  0  0
  3  4  1  0  0  0  0
  3 32  1  0  0  0  0
  3 33  1  0  0  0  0
  4  5  1  0  0  0  0
  4 34  1  0  0  0  0
  4 35  1  0  0  0  0
  5 27  1  0  0  0  0
  5  6  1  0  0  0  0
  5 36  1  0  0  0  0
  6  7  1  0  0  0  0
  7  8  1  0  0  0  0
  7 37  1  0  0  0  0
  7 38  1  0  0  0  0
  8  9  1  0  0  0  0
  8 39  1  0  0  0  0
  8 40  1  0  0  0  0
  9 10  1  0  0  0  0
  9 27  1  0  0  0  0
 10 15  1  0  0  0  0
 10 11  2  0  0  0  0
 11 12  1  0  0  0  0
 12 13  2  0  0  0  0
 12 41  1  0  0  0  0
 13 14  1  0  0  0  0
 14 18  1  0  0  0  0
 14 15  2  0  0  0  0
 15 16  1  0  0  0  0
 16 17  2  0  0  0  0
 17 18  1  0  0  0  0
 17 42  1  0  0  0  0
 18 19  1  0  0  0  0
 19 20  1  0  0  0  0
 19 43  1  0  0  0  0
 19 44  1  0  0  0  0
 20 26  1  0  0  0  0
 20 21  1  0  0  0  0
 20 22  1  0  0  0  0
 21 45  1  0  0  0  0
 22 23  1  0  0  0  0
 22 46  1  0  0  0  0
 22 47  1  0  0  0  0
 23 24  1  0  0  0  0
 23 48  1  0  0  0  0
 23 49  1  0  0  0  0
 24 25  1  0  0  0  0
 25 26  1  0  0  0  0
 25 50  1  0  0  0  0
 25 51  1  0  0  0  0
 26 52  1  0  0  0  0
 26 53  1  0  0  0  0
 27 28  1  0  0  0  0
 27 54  1  0  0  0  0
 28 55  1  0  0  0  0
 28 56  1  0  0  0  0
M  END
> <s_m_source_file>
AV-unprocessed.smi

> <i_m_source_file_index>
244

> <i_lp_mmshare_version>
43012

> <i_f3d_flags>
0

> <s_epik_input>
W0NIMl0xW0NIMl1OKFtDSDNdKVtDSDJdW0NAQEhdKFtDQEhdMTIpTihbQ0gyXVtDSDJdTzIpYyhuW2NIXW4zKWMoYzM0KW5bY0hdbjRbQ0gyXUM1KFtPSF0pW0NIMl1bQ0gyXU9bQ0gyXVtDSDJdNQ==

> <s_epik_cmdline>
J2VwaWtfcHl0aG9uJywgJy1waCcsICc3LjAnLCAnLXRuJywgJzgnLCAnLW1hJywgJzIwMCcsICctbWV0YWxfYmluZGluZycsICctaW1hZScsICc8aW5maWxlLm1hZT4nLCAnLW9tYWUnLCAnPG91dGZpbGUubWFlPic=

> <r_lp_tautomer_probability>
1

> <r_epik_Ionization_Penalty>
2.27765

> <r_epik_Ionization_Penalty_Charging>
0

> <r_epik_Ionization_Penalty_Neutral>
2.27765

> <r_epik_State_Penalty>
2.4114

> <r_epik_Charging_Adjusted_Penalty>
2.4114

> <i_epik_Tot_Q>
0

> <i_epik_Tot_abs_Q>
0

> <r_epik_Metal_State_Penalty>
2.39769

> <b_epik_Metal_Only>
0

> <s_lp_Force_Field>
OPLS_2005

> <r_lp_Energy>
38.8348

> <b_lp_Chiralities_Consistent>
1

> <s_lp_Variant>
AV-unprocessed.smi:244-9

> <Gold.Version>
5.8.1

> <Gold.Id.Protein>
6NUR|6NUR_protein|mol2

> <Gold.PLP.Fitness>
55.0417

> <Gold.PLP.PLP>
-47.5761

> <Gold.PLP.part.hbond>
-3.0000

> <Gold.PLP.part.metal>
0.0000

> <Gold.PLP.part.buried>
-6.1010

> <Gold.PLP.part.nonpolar>
-39.4156

> <Gold.PLP.part.repulsive>
0.2351

> <Gold.PLP.ligand.clash>
0.0262

> <Gold.PLP.ligand.torsion>
1.2208

> <Gold.PLP.Chemscore.Hbond>
3.0000

> <Gold.PLP.Chemscore.CHOScore>
0.2598

> <Gold.PLP.Chemscore.Metal>
0.0000

> <Gold.Chemscore.Hbonds>
donor molecule, donor type, donor heavy atom, donor atom, acceptor molecule, acceptor atom, score
      L1  H    21    45       P1 10175  0.98
      P1  H  7989  7998       L1    13  1.00
      P1  H  7997  8010       L1    11  1.00
      L1  C    17    42       P1  8028  0.28

> <Gold.PLP.Chemscore.Internal.Correction>
0.1539

> <Gold.Rescore>
     Score         DG    S(hbond)    S(metal)    S(lipo)     H(rot)  DE(clash)    DE(int)     intcor
     15.30     -19.28       2.05        0.00     104.46       2.06       0.66       3.32       ----

> <Gold.Chemscore.Fitness>
15.2999

> <Gold.Chemscore.DG>
-19.2780

> <Gold.Chemscore.ZeroCoef>
-5.4800

> <Gold.Chemscore.Hbond>
2.0518

> <Gold.Chemscore.Metal>
0.0000

> <Gold.Chemscore.Lipo>
104.4584

> <Gold.Chemscore.Internal_Hbond>
0.0000

> <Gold.Chemscore.DEClash>
0.6614

> <Gold.Chemscore.DEInternal>
3.3168

> <Gold.Chemscore.Rot>
2.0611

> <Gold.Chemscore.Internal.Correction>
   9.000000E+99

> <Gold.Chemscore.Hbonds>
donor molecule, donor type, donor heavy atom, donor atom, acceptor molecule, acceptor atom, score
      L1  H    21    45       P1 10175  0.50
      P1  H  7989  7998       L1    13  0.50
      P1  H  7997  8010       L1    11  0.21

> <Gold.Chemscore.Hbond.Weighted>
-6.8529

> <Gold.Chemscore.Metal.Weighted>
-0.0000

> <Gold.Chemscore.Lipo.Weighted>
-12.2216

> <Gold.Chemscore.Internal_Hbond.Weighted>
0.0000

> <Gold.Chemscore.DEClash.Weighted>
0.6614

> <Gold.Chemscore.DEInternal.Weighted>
3.3168

> <Gold.Chemscore.Rot.Weighted>
5.2765

> <Gold.Chemscore.Internal.Correction.Weighted>
   9.000000E+99

> <Gold.Protein.RotatedTorsions>
[ 6907 6896 6895 6894 ] final  139.56 input  -60.11 | X-H torsion
[ 7974 7965 7964 7962 ] final   -2.49 input  175.53 | X-H torsion
[ 8008 7997 7996 7995 ] final   56.20 input   59.86 | X-H torsion
[ 10167 10162 10161 10158 ] final  -68.72 input  -65.29 | X-H torsion
[ 10718 10713 10712 10709 ] final -128.77 input   66.30 | X-H torsion
[ 10763 10752 10751 10750 ] final   32.00 input  -60.55 | X-H torsion
[ 11005 11000 10999 10996 ] final -149.73 input  -57.11 | X-H torsion

> <Gold.Protein.ActiveResidues>
 VAL166  LYS551  ARG553  GLY616  TRP617  ASP618  TYR619  PRO620  LYS621  CYS622 
 ASP623  PHE694  ASN695  SER759  ASP760  ASP761  ALA762  ILE779  LEU786  VAL792 
 PHE793  MET794  SER795  GLU796  ALA797  LYS798  CYS799  TRP800  GLU811  SER814 

> <Gold.Protein.RotatedAtoms>
  152.2535  133.5235  159.5339 H   0  0  0  0  0  0  0  0  0  0  0  0  # atno 6907 bound_to 6896
  150.7101  134.0927  159.3946 H   0  0  0  0  0  0  0  0  0  0  0  0  # atno 6908 bound_to 6896
  151.8846  135.0440  160.0543 H   0  0  0  0  0  0  0  0  0  0  0  0  # atno 6909 bound_to 6896
  146.2403  140.1579  142.8333 H   0  0  0  0  0  0  0  0  0  0  0  0  # atno 7974 bound_to 7965
  155.5136  140.3478  155.4393 H   0  0  0  0  0  0  0  0  0  0  0  0  # atno 8008 bound_to 7997
  156.0832  140.1392  156.9713 H   0  0  0  0  0  0  0  0  0  0  0  0  # atno 8009 bound_to 7997
  154.4592  140.0941  156.6821 H   0  0  0  0  0  0  0  0  0  0  0  0  # atno 8010 bound_to 7997
  140.5485  143.2312  151.6956 H   0  0  0  0  0  0  0  0  0  0  0  0  # atno 10167 bound_to 10162
  156.1982  130.6840  151.0507 H   0  0  0  0  0  0  0  0  0  0  0  0  # atno 10718 bound_to 10713
  153.0285  135.6424  154.1286 H   0  0  0  0  0  0  0  0  0  0  0  0  # atno 10763 bound_to 10752
  154.1012  135.2859  155.3253 H   0  0  0  0  0  0  0  0  0  0  0  0  # atno 10764 bound_to 10752
  154.6397  135.5464  153.7838 H   0  0  0  0  0  0  0  0  0  0  0  0  # atno 10765 bound_to 10752
  140.7477  134.3442  157.5133 H   0  0  0  0  0  0  0  0  0  0  0  0  # atno 11005 bound_to 11000
  145.0113  140.8716  143.5222 LP  0  0  0  0  0  0  0  0  0  0  0  0  # atno 17320 bound_to 7965
  145.1613  139.2457  143.5390 LP  0  0  0  0  0  0  0  0  0  0  0  0  # atno 17321 bound_to 7965
  139.5017  144.3855  152.0332 LP  0  0  0  0  0  0  0  0  0  0  0  0  # atno 17342 bound_to 10162
  140.2970  144.3689  150.6071 LP  0  0  0  0  0  0  0  0  0  0  0  0  # atno 17343 bound_to 10162
  157.6970  131.0790  150.6938 LP  0  0  0  0  0  0  0  0  0  0  0  0  # atno 17370 bound_to 10713
  156.6995  130.4619  149.5577 LP  0  0  0  0  0  0  0  0  0  0  0  0  # atno 17371 bound_to 10713
  139.8793  134.9122  156.3054 LP  0  0  0  0  0  0  0  0  0  0  0  0  # atno 17394 bound_to 11000
  140.9779  133.7286  156.0629 LP  0  0  0  0  0  0  0  0  0  0  0  0  # atno 17395 bound_to 11000

$$$$
