AV-unprocessed.smi:761|AV-procd|sdf|3630|dock1
  -GOLD-   22720 1 23D 1   1.00000     0.00000
 Structure written by MMmdl.
 34 35  0  0  0  0  0  0  0  0  2 V2000
  144.5641  136.4896  152.4487 O   0  0  0  0  0  0  0  0  0  0  0  0
  145.7636  136.3421  152.2144 C   0  0  0  0  0  0  0  0  0  0  0  0
  146.6976  137.2297  152.5857 N   0  0  0  0  0  0  0  0  0  0  0  0
  146.4259  138.4594  153.3208 C   0  0  0  0  0  0  0  0  0  0  0  0
  147.7261  139.1198  153.8155 C   0  0  0  0  0  0  0  0  0  0  0  0
  148.8330  138.1435  153.9376 N   0  3  0  0  0  0  0  0  0  0  0  0
  148.6515  137.1252  155.0123 C   0  0  0  0  0  0  0  0  0  0  0  0
  150.0325  136.9783  155.5857 C   0  0  0  0  0  0  0  0  0  0  0  0
  150.8678  137.8769  155.0770 C   0  0  0  0  0  0  0  0  0  0  0  0
  150.1779  138.7683  154.0837 C   0  0  0  0  0  0  0  0  0  0  0  0
  146.3085  135.3098  151.5478 N   0  0  0  0  0  0  0  0  0  0  0  0
  145.6666  134.1586  151.0152 C   0  0  0  0  0  0  0  0  0  0  0  0
  146.4723  133.0449  150.6998 C   0  0  0  0  0  0  0  0  0  0  0  0
  145.8579  131.8851  150.1868 C   0  0  0  0  0  0  0  0  0  0  0  0
  144.5276  131.7771  149.9872 N   0  0  0  0  0  0  0  0  0  0  0  0
  143.7561  132.8384  150.3035 C   0  0  0  0  0  0  0  0  0  0  0  0
  144.2687  134.0448  150.8214 C   0  0  0  0  0  0  0  0  0  0  0  0
  147.6607  137.0381  152.3503 H   0  0  0  0  0  0  0  0  0  0  0  0
  145.8530  139.1408  152.6896 H   0  0  0  0  0  0  0  0  0  0  0  0
  145.7871  138.2133  154.1695 H   0  0  0  0  0  0  0  0  0  0  0  0
  148.0202  139.8945  153.1058 H   0  0  0  0  0  0  0  0  0  0  0  0
  147.5749  139.6157  154.7757 H   0  0  0  0  0  0  0  0  0  0  0  0
  147.9678  137.4628  155.7927 H   0  0  0  0  0  0  0  0  0  0  0  0
  148.2876  136.1836  154.6004 H   0  0  0  0  0  0  0  0  0  0  0  0
  150.2799  136.2386  156.3331 H   0  0  0  0  0  0  0  0  0  0  0  0
  151.9091  137.9911  155.3406 H   0  0  0  0  0  0  0  0  0  0  0  0
  150.7045  138.7881  153.1292 H   0  0  0  0  0  0  0  0  0  0  0  0
  150.1215  139.7821  154.4832 H   0  0  0  0  0  0  0  0  0  0  0  0
  147.2980  135.3757  151.3596 H   0  0  0  0  0  0  0  0  0  0  0  0
  147.5428  133.0746  150.8421 H   0  0  0  0  0  0  0  0  0  0  0  0
  146.4522  131.0200  149.9322 H   0  0  0  0  0  0  0  0  0  0  0  0
  142.6942  132.7215  150.1453 H   0  0  0  0  0  0  0  0  0  0  0  0
  143.5847  134.8417  151.0680 H   0  0  0  0  0  0  0  0  0  0  0  0
  148.8695  137.6282  153.0697 H   0  0  0  0  0  0  0  0  0  0  0  0
  1  2  2  0  0  0  0
  2  3  1  0  0  0  0
  2 11  1  0  0  0  0
  3  4  1  0  0  0  0
  3 18  1  0  0  0  0
  4  5  1  0  0  0  0
  4 19  1  0  0  0  0
  4 20  1  0  0  0  0
  5  6  1  0  0  0  0
  5 21  1  0  0  0  0
  5 22  1  0  0  0  0
  6 10  1  0  0  0  0
  6  7  1  0  0  0  0
  6 34  1  0  0  0  0
  7  8  1  0  0  0  0
  7 23  1  0  0  0  0
  7 24  1  0  0  0  0
  8  9  2  0  0  0  0
  8 25  1  0  0  0  0
  9 10  1  0  0  0  0
  9 26  1  0  0  0  0
 10 27  1  0  0  0  0
 10 28  1  0  0  0  0
 11 12  1  0  0  0  0
 11 29  1  0  0  0  0
 12 17  1  0  0  0  0
 12 13  2  0  0  0  0
 13 14  1  0  0  0  0
 13 30  1  0  0  0  0
 14 15  2  0  0  0  0
 14 31  1  0  0  0  0
 15 16  1  0  0  0  0
 16 17  2  0  0  0  0
 16 32  1  0  0  0  0
 17 33  1  0  0  0  0
M  CHG  1   6   1
M  END
> <s_m_source_file>
AV-unprocessed.smi

> <i_m_source_file_index>
761

> <i_lp_mmshare_version>
43012

> <i_f3d_flags>
0

> <s_epik_input>
W2NIXTFbY0hdbltjSF1bY0hdYzFbTkhdQyg9TylbTkhdW0NIMl1bQ0gyXU4yW0NIMl1bQ0hdPVtDSF1bQ0gyXTI=

> <s_epik_cmdline>
J2VwaWtfcHl0aG9uJywgJy1waCcsICc3LjAnLCAnLXRuJywgJzgnLCAnLW1hJywgJzIwMCcsICctbWV0YWxfYmluZGluZycsICctaW1hZScsICc8aW5maWxlLm1hZT4nLCAnLW9tYWUnLCAnPG91dGZpbGUubWFlPic=

> <r_epik_Ionization_Penalty>
0.100973

> <r_epik_Ionization_Penalty_Charging>
0.00265978

> <r_epik_Ionization_Penalty_Neutral>
0.098313

> <r_epik_State_Penalty>
0.0959991

> <r_epik_Charging_Adjusted_Penalty>
0.0986589

> <i_epik_Tot_Q>
1

> <i_epik_Tot_abs_Q>
1

> <r_epik_Metal_State_Penalty>
0.0816347

> <b_epik_Metal_Only>
0

> <s_lp_Force_Field>
OPLS_2005

> <r_lp_Energy>
25.6578

> <b_lp_Chiralities_Consistent>
1

> <s_lp_Variant>
AV-unprocessed.smi:761-1

> <Gold.Version>
5.8.1

> <Gold.Id.Protein>
6NUR|6NUR_protein|mol2

> <Gold.PLP.Fitness>
45.5924

> <Gold.PLP.PLP>
-28.8641

> <Gold.PLP.part.hbond>
-3.6652

> <Gold.PLP.part.metal>
0.0000

> <Gold.PLP.part.buried>
-4.7803

> <Gold.PLP.part.nonpolar>
-21.4962

> <Gold.PLP.part.repulsive>
0.4363

> <Gold.PLP.ligand.clash>
0.0000

> <Gold.PLP.ligand.torsion>
0.4273

> <Gold.PLP.Chemscore.Hbond>
3.9526

> <Gold.PLP.Chemscore.CHOScore>
1.8984

> <Gold.PLP.Chemscore.Metal>
0.0000

> <Gold.Chemscore.Hbonds>
donor molecule, donor type, donor heavy atom, donor atom, acceptor molecule, acceptor atom, score
      L1  H     3    18       P1  7948  1.00
      L1  H     6    34       P1  7948  2.00
      L1  H    11    29       P1  7948  0.94
      L1  C    14    31       P1 10747  0.89
      L1  C    16    32       P1 10186  1.00

> <Gold.PLP.Chemscore.Internal.Correction>
0.0299

> <Gold.Rescore>
     Score         DG    S(hbond)    S(metal)    S(lipo)     H(rot)  DE(clash)    DE(int)     intcor
     17.86     -19.45       2.89        0.00      70.02       1.51       0.07       1.52       ----

> <Gold.Chemscore.Fitness>
17.8607

> <Gold.Chemscore.DG>
-19.4481

> <Gold.Chemscore.ZeroCoef>
-5.4800

> <Gold.Chemscore.Hbond>
2.8881

> <Gold.Chemscore.Metal>
0.0000

> <Gold.Chemscore.Lipo>
70.0176

> <Gold.Chemscore.Internal_Hbond>
0.0000

> <Gold.Chemscore.DEClash>
0.0681

> <Gold.Chemscore.DEInternal>
1.5192

> <Gold.Chemscore.Rot>
1.5117

> <Gold.Chemscore.Internal.Correction>
   9.000000E+99

> <Gold.Chemscore.Hbonds>
donor molecule, donor type, donor heavy atom, donor atom, acceptor molecule, acceptor atom, score
      L1  H     3    18       P1  7948  0.98
      L1  H     6    34       P1  7948  1.00
      L1  H    11    29       P1  7948  0.78
      P1  H 10785 10796       L1    15  0.03

> <Gold.Chemscore.Hbond.Weighted>
-9.6461

> <Gold.Chemscore.Metal.Weighted>
-0.0000

> <Gold.Chemscore.Lipo.Weighted>
-8.1921

> <Gold.Chemscore.Internal_Hbond.Weighted>
0.0000

> <Gold.Chemscore.DEClash.Weighted>
0.0681

> <Gold.Chemscore.DEInternal.Weighted>
1.5192

> <Gold.Chemscore.Rot.Weighted>
3.8700

> <Gold.Chemscore.Internal.Correction.Weighted>
   9.000000E+99

> <Gold.Protein.RotatedTorsions>
[ 6907 6896 6895 6894 ] final   11.31 input  -60.11 | X-H torsion
[ 7974 7965 7964 7962 ] final -146.64 input  175.53 | X-H torsion
[ 8008 7997 7996 7995 ] final   68.23 input   59.86 | X-H torsion
[ 10167 10162 10161 10158 ] final  100.64 input  -65.29 | X-H torsion
[ 10718 10713 10712 10709 ] final  130.81 input   66.30 | X-H torsion
[ 10763 10752 10751 10750 ] final -165.50 input  -60.55 | X-H torsion
[ 11005 11000 10999 10996 ] final -154.88 input  -57.11 | X-H torsion

> <Gold.Protein.ActiveResidues>
 VAL166  LYS551  ARG553  GLY616  TRP617  ASP618  TYR619  PRO620  LYS621  CYS622 
 ASP623  PHE694  ASN695  SER759  ASP760  ASP761  ALA762  ILE779  LEU786  VAL792 
 PHE793  MET794  SER795  GLU796  ALA797  LYS798  CYS799  TRP800  GLU811  SER814 

> <Gold.Protein.RotatedAtoms>
  151.7522  135.0830  160.0332 H   0  0  0  0  0  0  0  0  0  0  0  0  # atno 6907 bound_to 6896
  152.3409  133.6061  159.5884 H   0  0  0  0  0  0  0  0  0  0  0  0  # atno 6908 bound_to 6896
  150.7479  133.9640  159.3566 H   0  0  0  0  0  0  0  0  0  0  0  0  # atno 6909 bound_to 6896
  144.8146  140.5430  143.5619 H   0  0  0  0  0  0  0  0  0  0  0  0  # atno 7974 bound_to 7965
  155.7051  140.3495  155.4950 H   0  0  0  0  0  0  0  0  0  0  0  0  # atno 8008 bound_to 7997
  155.9405  140.1101  157.1081 H   0  0  0  0  0  0  0  0  0  0  0  0  # atno 8009 bound_to 7997
  154.4102  140.1213  156.4908 H   0  0  0  0  0  0  0  0  0  0  0  0  # atno 8010 bound_to 7997
  139.7509  144.6984  151.0434 H   0  0  0  0  0  0  0  0  0  0  0  0  # atno 10167 bound_to 10162
  157.5027  131.1094  150.9404 H   0  0  0  0  0  0  0  0  0  0  0  0  # atno 10718 bound_to 10713
  154.6926  135.2973  154.9458 H   0  0  0  0  0  0  0  0  0  0  0  0  # atno 10763 bound_to 10752
  154.0416  135.6656  153.4794 H   0  0  0  0  0  0  0  0  0  0  0  0  # atno 10764 bound_to 10752
  153.0623  135.5108  154.8026 H   0  0  0  0  0  0  0  0  0  0  0  0  # atno 10765 bound_to 10752
  140.6925  134.4026  157.5218 H   0  0  0  0  0  0  0  0  0  0  0  0  # atno 11005 bound_to 11000
  145.5244  139.1476  143.3534 LP  0  0  0  0  0  0  0  0  0  0  0  0  # atno 17320 bound_to 7965
  146.2448  140.5385  142.8918 LP  0  0  0  0  0  0  0  0  0  0  0  0  # atno 17321 bound_to 7965
  140.7797  143.4810  151.0018 LP  0  0  0  0  0  0  0  0  0  0  0  0  # atno 17342 bound_to 10162
  139.8498  143.7454  152.3178 LP  0  0  0  0  0  0  0  0  0  0  0  0  # atno 17343 bound_to 10162
  157.0070  130.5622  149.5317 LP  0  0  0  0  0  0  0  0  0  0  0  0  # atno 17370 bound_to 10713
  156.0239  130.5333  150.8353 LP  0  0  0  0  0  0  0  0  0  0  0  0  # atno 17371 bound_to 10713
  139.8919  134.8767  156.2295 LP  0  0  0  0  0  0  0  0  0  0  0  0  # atno 17394 bound_to 11000
  141.0230  133.7031  156.1300 LP  0  0  0  0  0  0  0  0  0  0  0  0  # atno 17395 bound_to 11000

$$$$
