#       Name:                AV-unprocessed.smi:1385
#       Creating user name   scv26
#       Creation time:       Fri Mar 27 05:25:07 2020


#       File generated by GOLD software.
#

@<TRIPOS>MOLECULE
AV-unprocessed.smi:1385
    45    46     1
SMALL
NO_CHARGES


@<TRIPOS>ATOM
      1 ****        -5.6441   4.9879   1.8755 C.3            1 S1                 0.0000
      2 ****        -4.7552   3.8880   1.4056 C.2            1 S1                 0.0000
      3 ****        -4.6362   3.5531   0.1185 N.2            1 S1                 0.0000
      4 ****        -3.7489   2.5034  -0.0684 N.2            1 S1                 0.0000
      5 ****        -3.2022   2.0671   1.0751 C.2            1 S1                 0.0000
      6 ****        -2.3194   1.0550   1.1093 N.pl3          1 S1                -1.0000
      7 ****        -0.9942   1.3164   1.1650 C.2            1 S1                 0.0000
      8 ****        -0.4678   2.4307   1.2049 O.2            1 S1                 0.0000
      9 ****        -0.2317   0.2140   1.1695 N.am           1 S1                 0.0000
     10 ****         1.2297   0.1714   1.2050 C.3            1 S1                 0.0000
     11 ****         1.8436   0.5015  -0.1703 C.3            1 S1                 0.0000
     12 ****         1.5753  -0.6113  -1.1983 C.3            1 S1                 0.0000
     13 ****         2.0713  -1.9246  -0.7067 N.4            1 S1                 1.0000
     14 ****         1.9567  -3.0062  -1.7189 C.3            1 S1                 0.0000
     15 ****         3.0504  -2.9436  -2.7903 C.2            1 S1                 0.0000
     16 ****         2.8061  -3.5792  -3.9387 N.am           1 S1                 0.0000
     17 ****         4.1062  -2.3483  -2.5828 O.2            1 S1                 0.0000
     18 ****         1.4511  -2.2946   0.5911 C.3            1 S1                 0.0000
     19 ****         1.7093  -1.2172   1.6608 C.3            1 S1                 0.0000
     20 ****        -3.7744   2.9305   2.5023 S.3            1 S1                 0.0000
     21 ****        -5.0914   5.9269   1.9001 H              1 S1                 0.0000
     22 ****        -6.0133   4.7710   2.8780 H              1 S1                 0.0000
     23 ****        -6.4980   5.0995   1.2067 H              1 S1                 0.0000
     24 ****        -0.7140  -0.6724   1.1446 H              1 S1                 0.0000
     25 ****         1.5725   0.9072   1.9344 H              1 S1                 0.0000
     26 ****         1.4637   1.4533  -0.5436 H              1 S1                 0.0000
     27 ****         2.9209   0.6316  -0.0595 H              1 S1                 0.0000
     28 ****         0.5073  -0.6787  -1.4120 H              1 S1                 0.0000
     29 ****         2.0660  -0.3530  -2.1368 H              1 S1                 0.0000
     30 ****         2.0563  -3.9771  -1.2318 H              1 S1                 0.0000
     31 ****         0.9666  -2.9866  -2.1776 H              1 S1                 0.0000
     32 ****         3.4911  -3.5691  -4.6809 H              1 S1                 0.0000
     33 ****         1.9314  -4.0690  -4.0636 H              1 S1                 0.0000
     34 ****         0.3795  -2.4473   0.4530 H              1 S1                 0.0000
     35 ****         1.8624  -3.2433   0.9377 H              1 S1                 0.0000
     36 ****         2.7783  -1.1749   1.8736 H              1 S1                 0.0000
     37 ****         1.2256  -1.4956   2.5980 H              1 S1                 0.0000
     38 ****         3.0592  -1.8150  -0.5261 H              1 S1                 0.0000
     39 ****        -5.1293   4.0062  -0.6242 LP             1 S1                 0.0000
     40 ****        -3.5386   2.1122  -0.9644 LP             1 S1                 0.0000
     41 ****        -2.6424   0.1087   1.0935 LP             1 S1                 0.0000
     42 ****        -1.0368   3.2530   1.1974 LP             1 S1                 0.0000
     43 ****         0.5281   2.5121   1.2447 LP             1 S1                 0.0000
     44 ****         4.2609  -1.8959  -1.7045 LP             1 S1                 0.0000
     45 ****         4.8101  -2.3166  -3.2924 LP             1 S1                 0.0000
@<TRIPOS>BOND
    1    1    2 1     
    2    1   21 1     
    3    1   22 1     
    4    1   23 1     
    5    2   20 1     
    6    2    3 2     
    7    3    4 1     
    8    4    5 2     
    9    5    6 1     
   10    5   20 1     
   11    6    7 1     
   12    7    8 2     
   13    7    9 am    
   14    9   10 1     
   15    9   24 1     
   16   10   19 1     
   17   10   11 1     
   18   10   25 1     
   19   11   12 1     
   20   11   26 1     
   21   11   27 1     
   22   12   13 1     
   23   12   28 1     
   24   12   29 1     
   25   13   14 1     
   26   13   18 1     
   27   13   38 1     
   28   14   15 1     
   29   14   30 1     
   30   14   31 1     
   31   15   16 am    
   32   15   17 2     
   33   16   32 1     
   34   16   33 1     
   35   18   19 1     
   36   18   34 1     
   37   18   35 1     
   38   19   36 1     
   39   19   37 1     
   40    3   39 1     
   41    4   40 1     
   42    6   41 1     
   43    8   42 1     
   44    8   43 1     
   45   17   44 1     
   46   17   45 1     
@<TRIPOS>SUBSTRUCTURE
      1 S1             1
@<TRIPOS>SET
LONE_PAIRS      STATIC     ATOMS    <user>   **** ""
7 39 40 41 42 43 44 45
DONOR_HYDROGENS      STATIC     ATOMS    <user>   **** ""
4 24 38 32 33
ATOM$BLUE        STATIC     ATOMS    COLORGROUP SYSTEM
7 39 40 41 42 43 44 45
ATOM$RED        STATIC     ATOMS    COLORGROUP SYSTEM
4 24 38 32 33
