AV-unprocessed.smi:2775|AV-procd|sdf|10691|dock8
  -GOLD-   2272015133D 1   1.00000     0.00000
 Structure written by MMmdl.
 42 45  0  0  0  0  0  0  0  0  1 V2000
  146.6217  132.7495  161.0607 C   0  0  0  0  0  0  0  0  0  0  0  0
  147.3562  134.0724  161.1728 C   0  0  0  0  0  0  0  0  0  0  0  0
  147.4360  134.5943  162.4165 N   0  0  0  0  0  0  0  0  0  0  0  0
  148.0863  135.7657  162.5735 C   0  0  0  0  0  0  0  0  0  0  0  0
  148.6792  136.4712  161.5091 C   0  0  0  0  0  0  0  0  0  0  0  0
  148.5821  135.9350  160.2034 C   0  0  0  0  0  0  0  0  0  0  0  0
  149.1602  136.5517  159.0614 N   0  0  0  0  0  0  0  0  0  0  0  0
  150.3527  137.1672  158.9485 C   0  0  0  0  0  0  0  0  0  0  0  0
  151.1905  137.2473  159.8442 O   0  0  0  0  0  0  0  0  0  0  0  0
  150.5509  137.7474  157.7521 N   0  0  0  0  0  0  0  0  0  0  0  0
  151.7334  138.4914  157.3107 C   0  0  1  0  0  0  0  0  0  0  0  0
  152.0212  138.3938  155.7933 C   0  0  1  0  0  0  0  0  0  0  0  0
  151.0374  137.8265  154.8016 C   0  0  0  0  0  0  0  0  0  0  0  0
  150.0871  138.9941  154.5582 C   0  0  0  0  0  0  0  0  0  0  0  0
  150.8923  140.1593  154.7355 O   0  0  0  0  0  0  0  0  0  0  0  0
  151.9176  139.9146  155.7020 C   0  0  1  0  0  0  0  0  0  0  0  0
  151.4789  140.0018  157.1756 C   0  0  0  0  0  0  0  0  0  0  0  0
  150.1604  140.6896  157.5885 C   0  0  0  0  0  0  0  0  0  0  0  0
  150.9843  141.9192  157.9771 C   0  0  0  0  0  0  0  0  0  0  0  0
  152.1935  140.9907  158.1102 C   0  0  0  0  0  0  0  0  0  0  0  0
  147.9145  134.6998  160.0345 C   0  0  0  0  0  0  0  0  0  0  0  0
  147.7752  133.9769  158.4662 Cl  0  0  0  0  0  0  0  0  0  0  0  0
  145.7590  132.8497  160.4017 H   0  0  0  0  0  0  0  0  0  0  0  0
  146.2649  132.4041  162.0322 H   0  0  0  0  0  0  0  0  0  0  0  0
  147.2813  131.9833  160.6530 H   0  0  0  0  0  0  0  0  0  0  0  0
  148.1418  136.1507  163.5809 H   0  0  0  0  0  0  0  0  0  0  0  0
  149.2009  137.3935  161.7137 H   0  0  0  0  0  0  0  0  0  0  0  0
  148.5464  136.6388  158.2648 H   0  0  0  0  0  0  0  0  0  0  0  0
  149.7814  137.7153  157.0989 H   0  0  0  0  0  0  0  0  0  0  0  0
  152.6264  138.2965  157.9077 H   0  0  0  0  0  0  0  0  0  0  0  0
  153.0409  138.0451  155.6248 H   0  0  0  0  0  0  0  0  0  0  0  0
  151.5505  137.5676  153.8749 H   0  0  0  0  0  0  0  0  0  0  0  0
  150.5216  136.9317  155.1485 H   0  0  0  0  0  0  0  0  0  0  0  0
  149.6327  138.9677  153.5678 H   0  0  0  0  0  0  0  0  0  0  0  0
  149.2854  138.9911  155.2972 H   0  0  0  0  0  0  0  0  0  0  0  0
  152.8619  140.4146  155.4830 H   0  0  0  0  0  0  0  0  0  0  0  0
  149.4438  140.8663  156.7869 H   0  0  0  0  0  0  0  0  0  0  0  0
  149.6837  140.2285  158.4549 H   0  0  0  0  0  0  0  0  0  0  0  0
  151.0876  142.6334  157.1584 H   0  0  0  0  0  0  0  0  0  0  0  0
  150.6750  142.4041  158.9033 H   0  0  0  0  0  0  0  0  0  0  0  0
  152.3134  140.6022  159.1230 H   0  0  0  0  0  0  0  0  0  0  0  0
  153.1276  141.4000  157.7248 H   0  0  0  0  0  0  0  0  0  0  0  0
  1  2  1  0  0  0  0
  1 23  1  0  0  0  0
  1 24  1  0  0  0  0
  1 25  1  0  0  0  0
  2 21  1  0  0  0  0
  2  3  2  0  0  0  0
  3  4  1  0  0  0  0
  4  5  2  0  0  0  0
  4 26  1  0  0  0  0
  5  6  1  0  0  0  0
  5 27  1  0  0  0  0
  6  7  1  0  0  0  0
  6 21  2  0  0  0  0
  7  8  1  0  0  0  0
  7 28  1  0  0  0  0
  8  9  2  0  0  0  0
  8 10  1  0  0  0  0
 10 11  1  0  0  0  0
 10 29  1  0  0  0  0
 11 17  1  0  0  0  0
 11 12  1  0  0  0  0
 11 30  1  0  0  0  0
 12 16  1  0  0  0  0
 12 13  1  0  0  0  0
 12 31  1  0  0  0  0
 13 14  1  0  0  0  0
 13 32  1  0  0  0  0
 13 33  1  0  0  0  0
 14 15  1  0  0  0  0
 14 34  1  0  0  0  0
 14 35  1  0  0  0  0
 15 16  1  0  0  0  0
 16 17  1  0  0  0  0
 16 36  1  0  0  0  0
 17 20  1  0  0  0  0
 17 18  1  0  0  0  0
 18 19  1  0  0  0  0
 18 37  1  0  0  0  0
 18 38  1  0  0  0  0
 19 20  1  0  0  0  0
 19 39  1  0  0  0  0
 19 40  1  0  0  0  0
 20 41  1  0  0  0  0
 20 42  1  0  0  0  0
 21 22  1  0  0  0  0
M  END
> <s_m_source_file>
AV-unprocessed.smi

> <i_m_source_file_index>
2775

> <i_lp_mmshare_version>
43012

> <i_f3d_flags>
0

> <s_epik_input>
W0NIM11jMW5bY0hdW2NIXWMoYzFDbClbTkhdQyg9TylbTkhdW0NAQEhdMltDQEhdKFtDSDJdW0NIMl1PMylbQ0BASF0zQzI0W0NIMl1bQ0gyXVtDSDJdNA==

> <s_epik_cmdline>
J2VwaWtfcHl0aG9uJywgJy1waCcsICc3LjAnLCAnLXRuJywgJzgnLCAnLW1hJywgJzIwMCcsICctbWV0YWxfYmluZGluZycsICctaW1hZScsICc8aW5maWxlLm1hZT4nLCAnLW9tYWUnLCAnPG91dGZpbGUubWFlPic=

> <r_epik_Ionization_Penalty>
0.01026

> <r_epik_Ionization_Penalty_Charging>
0

> <r_epik_Ionization_Penalty_Neutral>
0.01026

> <r_epik_State_Penalty>
0.00780685

> <r_epik_Charging_Adjusted_Penalty>
0.00780685

> <i_epik_Tot_Q>
0

> <i_epik_Tot_abs_Q>
0

> <r_epik_Metal_State_Penalty>
0.00767411

> <b_epik_Metal_Only>
0

> <s_lp_Force_Field>
OPLS_2005

> <r_lp_Energy>
57.8128

> <b_lp_Chiralities_Consistent>
1

> <s_lp_Variant>
AV-unprocessed.smi:2775-4

> <Gold.Version>
5.8.1

> <Gold.Id.Protein>
6NUR|6NUR_protein|mol2

> <Gold.PLP.Fitness>
39.0936

> <Gold.PLP.PLP>
-34.3315

> <Gold.PLP.part.hbond>
-1.8965

> <Gold.PLP.part.metal>
0.0000

> <Gold.PLP.part.buried>
-4.7495

> <Gold.PLP.part.nonpolar>
-27.8089

> <Gold.PLP.part.repulsive>
0.2818

> <Gold.PLP.ligand.clash>
0.0000

> <Gold.PLP.ligand.torsion>
0.5647

> <Gold.PLP.Chemscore.Hbond>
1.9100

> <Gold.PLP.Chemscore.CHOScore>
0.0000

> <Gold.PLP.Chemscore.Metal>
0.0000

> <Gold.Chemscore.Hbonds>
donor molecule, donor type, donor heavy atom, donor atom, acceptor molecule, acceptor atom, score
      P1  H  6896  6907       L1     9  0.46
      P1  H  7989  7998       L1    15  1.00

> <Gold.PLP.Chemscore.Internal.Correction>
0.1615

> <Gold.Rescore>
     Score         DG    S(hbond)    S(metal)    S(lipo)     H(rot)  DE(clash)    DE(int)     intcor
     18.64     -19.18       1.88        0.00      85.30       1.00       0.00       0.54       ----

> <Gold.Chemscore.Fitness>
18.6385

> <Gold.Chemscore.DG>
-19.1819

> <Gold.Chemscore.ZeroCoef>
-5.4800

> <Gold.Chemscore.Hbond>
1.8809

> <Gold.Chemscore.Metal>
0.0000

> <Gold.Chemscore.Lipo>
85.2966

> <Gold.Chemscore.Internal_Hbond>
0.0000

> <Gold.Chemscore.DEClash>
0.0000

> <Gold.Chemscore.DEInternal>
0.5434

> <Gold.Chemscore.Rot>
1.0000

> <Gold.Chemscore.Internal.Correction>
   9.000000E+99

> <Gold.Chemscore.Hbonds>
donor molecule, donor type, donor heavy atom, donor atom, acceptor molecule, acceptor atom, score
      P1  H  6896  6907       L1     9  0.03
      P1  H  7989  7998       L1    15  0.49

> <Gold.Chemscore.Hbond.Weighted>
-6.2822

> <Gold.Chemscore.Metal.Weighted>
-0.0000

> <Gold.Chemscore.Lipo.Weighted>
-9.9797

> <Gold.Chemscore.Internal_Hbond.Weighted>
0.0000

> <Gold.Chemscore.DEClash.Weighted>
0.0000

> <Gold.Chemscore.DEInternal.Weighted>
0.5434

> <Gold.Chemscore.Rot.Weighted>
2.5600

> <Gold.Chemscore.Internal.Correction.Weighted>
   9.000000E+99

> <Gold.Protein.RotatedTorsions>
[ 6907 6896 6895 6894 ] final  -13.11 input  -60.11 | X-H torsion
[ 7974 7965 7964 7962 ] final  -35.49 input  175.53 | X-H torsion
[ 8008 7997 7996 7995 ] final -164.43 input   59.86 | X-H torsion
[ 10167 10162 10161 10158 ] final  -77.00 input  -65.29 | X-H torsion
[ 10718 10713 10712 10709 ] final   69.65 input   66.30 | X-H torsion
[ 10763 10752 10751 10750 ] final   35.23 input  -60.55 | X-H torsion
[ 11005 11000 10999 10996 ] final -134.97 input  -57.11 | X-H torsion

> <Gold.Protein.ActiveResidues>
 VAL166  LYS551  ARG553  GLY616  TRP617  ASP618  TYR619  PRO620  LYS621  CYS622 
 ASP623  PHE694  ASN695  SER759  ASP760  ASP761  ALA762  ILE779  LEU786  VAL792 
 PHE793  MET794  SER795  GLU796  ALA797  LYS798  CYS799  TRP800  GLU811  SER814 

> <Gold.Protein.RotatedAtoms>
  151.3600  135.0902  159.9431 H   0  0  0  0  0  0  0  0  0  0  0  0  # atno 6907 bound_to 6896
  152.5164  133.9268  159.7571 H   0  0  0  0  0  0  0  0  0  0  0  0  # atno 6908 bound_to 6896
  150.9660  133.6340  159.2775 H   0  0  0  0  0  0  0  0  0  0  0  0  # atno 6909 bound_to 6896
  146.0742  140.6165  142.8938 H   0  0  0  0  0  0  0  0  0  0  0  0  # atno 7974 bound_to 7965
  155.8355  140.0940  157.1767 H   0  0  0  0  0  0  0  0  0  0  0  0  # atno 8008 bound_to 7997
  154.3980  140.1411  156.3726 H   0  0  0  0  0  0  0  0  0  0  0  0  # atno 8009 bound_to 7997
  155.8121  140.3449  155.5466 H   0  0  0  0  0  0  0  0  0  0  0  0  # atno 8010 bound_to 7997
  140.4808  143.2403  151.8061 H   0  0  0  0  0  0  0  0  0  0  0  0  # atno 10167 bound_to 10162
  157.6357  130.9437  150.0543 H   0  0  0  0  0  0  0  0  0  0  0  0  # atno 10718 bound_to 10713
  153.0128  135.6339  154.1794 H   0  0  0  0  0  0  0  0  0  0  0  0  # atno 10763 bound_to 10752
  154.1535  135.2827  155.3130 H   0  0  0  0  0  0  0  0  0  0  0  0  # atno 10764 bound_to 10752
  154.6036  135.5579  153.7460 H   0  0  0  0  0  0  0  0  0  0  0  0  # atno 10765 bound_to 10752
  140.8941  134.1774  157.4507 H   0  0  0  0  0  0  0  0  0  0  0  0  # atno 11005 bound_to 11000
  144.7251  140.4498  143.6979 LP  0  0  0  0  0  0  0  0  0  0  0  0  # atno 17320 bound_to 7965
  145.6337  139.1540  143.2955 LP  0  0  0  0  0  0  0  0  0  0  0  0  # atno 17321 bound_to 7965
  139.4833  144.4775  151.9349 LP  0  0  0  0  0  0  0  0  0  0  0  0  # atno 17342 bound_to 10162
  140.3860  144.2676  150.5904 LP  0  0  0  0  0  0  0  0  0  0  0  0  # atno 17343 bound_to 10162
  156.1595  130.3643  149.9320 LP  0  0  0  0  0  0  0  0  0  0  0  0  # atno 17370 bound_to 10713
  156.7321  130.9047  151.3626 LP  0  0  0  0  0  0  0  0  0  0  0  0  # atno 17371 bound_to 10713
  139.8733  134.9871  156.5353 LP  0  0  0  0  0  0  0  0  0  0  0  0  # atno 17394 bound_to 11000
  140.8311  133.8278  155.8984 LP  0  0  0  0  0  0  0  0  0  0  0  0  # atno 17395 bound_to 11000

$$$$
