AV-unprocessed.smi:649|AV-procd|sdf|3179|dock2
  -GOLD-   22720 0103D 1   1.00000     0.00000
 Structure written by MMmdl.
 35 36  0  0  0  0  0  0  0  0  1 V2000
  153.7320  139.6915  160.1215 C   0  0  0  0  0  0  0  0  0  0  0  0
  153.1510  141.0450  159.7689 C   0  0  0  0  0  0  0  0  0  0  0  0
  153.6154  142.2040  160.4181 C   0  0  0  0  0  0  0  0  0  0  0  0
  153.0662  143.4581  160.0960 C   0  0  0  0  0  0  0  0  0  0  0  0
  152.0516  143.5701  159.1214 C   0  0  0  0  0  0  0  0  0  0  0  0
  151.4806  144.9460  158.8227 C   0  0  0  0  0  0  0  0  0  0  0  0
  151.5864  142.4063  158.4531 C   0  0  0  0  0  0  0  0  0  0  0  0
  150.4833  142.4751  157.3966 C   0  0  1  0  0  0  0  0  0  0  0  0
  150.8698  143.2812  156.3001 O   0  0  0  0  0  0  0  0  0  0  0  0
  150.1275  141.0621  156.8820 C   0  0  0  0  0  0  0  0  0  0  0  0
  149.2392  141.0760  155.7438 N   0  0  0  0  0  0  0  0  0  0  0  0
  147.9951  141.6875  155.7840 C   0  0  0  0  0  0  0  0  0  0  0  0
  147.1537  141.7323  154.7231 C   0  0  0  0  0  0  0  0  0  0  0  0
  145.6192  142.5147  154.8539 Cl  0  0  0  0  0  0  0  0  0  0  0  0
  147.5430  141.1181  153.4545 C   0  0  0  0  0  0  0  0  0  0  0  0
  146.8591  141.0987  152.4331 O   0  0  0  0  0  0  0  0  0  0  0  0
  148.8066  140.5194  153.4576 N   0  0  0  0  0  0  0  0  0  0  0  0
  149.6797  140.4698  154.5448 C   0  0  0  0  0  0  0  0  0  0  0  0
  150.7739  139.9193  154.4259 O   0  0  0  0  0  0  0  0  0  0  0  0
  152.1382  141.1498  158.7953 C   0  0  0  0  0  0  0  0  0  0  0  0
  149.1140  140.0868  152.5986 H   0  0  0  0  0  0  0  0  0  0  0  0
  154.7848  139.7799  160.3911 H   0  0  0  0  0  0  0  0  0  0  0  0
  153.6562  139.0029  159.2794 H   0  0  0  0  0  0  0  0  0  0  0  0
  153.1954  139.2612  160.9673 H   0  0  0  0  0  0  0  0  0  0  0  0
  154.3898  142.1343  161.1682 H   0  0  0  0  0  0  0  0  0  0  0  0
  153.4283  144.3381  160.6070 H   0  0  0  0  0  0  0  0  0  0  0  0
  150.3942  144.9390  158.9090 H   0  0  0  0  0  0  0  0  0  0  0  0
  151.7497  145.2595  157.8137 H   0  0  0  0  0  0  0  0  0  0  0  0
  151.8622  145.6947  159.5175 H   0  0  0  0  0  0  0  0  0  0  0  0
  149.5984  142.9468  157.8215 H   0  0  0  0  0  0  0  0  0  0  0  0
  150.2732  144.0116  156.2394 H   0  0  0  0  0  0  0  0  0  0  0  0
  150.9962  140.4387  156.6578 H   0  0  0  0  0  0  0  0  0  0  0  0
  149.5713  140.5164  157.6467 H   0  0  0  0  0  0  0  0  0  0  0  0
  147.6765  142.1551  156.7048 H   0  0  0  0  0  0  0  0  0  0  0  0
  151.7805  140.2539  158.3090 H   0  0  0  0  0  0  0  0  0  0  0  0
  1  2  1  0  0  0  0
  1 22  1  0  0  0  0
  1 23  1  0  0  0  0
  1 24  1  0  0  0  0
  2 20  1  0  0  0  0
  2  3  2  0  0  0  0
  3  4  1  0  0  0  0
  3 25  1  0  0  0  0
  4  5  2  0  0  0  0
  4 26  1  0  0  0  0
  5  6  1  0  0  0  0
  5  7  1  0  0  0  0
  6 27  1  0  0  0  0
  6 28  1  0  0  0  0
  6 29  1  0  0  0  0
  7  8  1  0  0  0  0
  7 20  2  0  0  0  0
  8  9  1  0  0  0  0
  8 10  1  0  0  0  0
  8 30  1  0  0  0  0
  9 31  1  0  0  0  0
 10 11  1  0  0  0  0
 10 32  1  0  0  0  0
 10 33  1  0  0  0  0
 11 18  1  0  0  0  0
 11 12  1  0  0  0  0
 12 13  2  0  0  0  0
 12 34  1  0  0  0  0
 13 14  1  0  0  0  0
 13 15  1  0  0  0  0
 15 16  2  0  0  0  0
 15 17  1  0  0  0  0
 17 21  1  0  0  0  0
 17 18  1  0  0  0  0
 18 19  2  0  0  0  0
 20 35  1  0  0  0  0
M  END
> <s_m_source_file>
AV-unprocessed.smi

> <i_m_source_file_index>
649

> <i_lp_mmshare_version>
43012

> <i_f3d_flags>
0

> <s_epik_input>
W0NIM11jMVtjSF1bY0hdYyhbQ0gzXSljKFtjSF0xKVtDQEhdKFtPSF0pW0NIMl1uMltjSF1jKENsKWMoPU8pW25IXWMyPU8=

> <s_epik_cmdline>
J2VwaWtfcHl0aG9uJywgJy1waCcsICc3LjAnLCAnLXRuJywgJzgnLCAnLW1hJywgJzIwMCcsICctbWV0YWxfYmluZGluZycsICctaW1hZScsICc8aW5maWxlLm1hZT4nLCAnLW9tYWUnLCAnPG91dGZpbGUubWFlPic=

> <r_lp_tautomer_probability>
0.999537

> <r_epik_Ionization_Penalty>
0.0292058

> <r_epik_Ionization_Penalty_Charging>
0.0292057

> <r_epik_Ionization_Penalty_Neutral>
4.85868e-08

> <r_epik_State_Penalty>
0.0240115

> <r_epik_Charging_Adjusted_Penalty>
0.0532172

> <i_epik_Tot_Q>
0

> <i_epik_Tot_abs_Q>
0

> <r_epik_Metal_State_Penalty>
2.21956

> <b_epik_Metal_Only>
0

> <s_lp_Force_Field>
OPLS_2005

> <r_lp_Energy>
13.8297

> <b_lp_Chiralities_Consistent>
1

> <s_lp_Variant>
AV-unprocessed.smi:649-2

> <Gold.Version>
5.8.1

> <Gold.Id.Protein>
6NUR|6NUR_protein|mol2

> <Gold.PLP.Fitness>
50.7581

> <Gold.PLP.PLP>
-41.8676

> <Gold.PLP.part.hbond>
-3.0000

> <Gold.PLP.part.metal>
0.0000

> <Gold.PLP.part.buried>
-2.7260

> <Gold.PLP.part.nonpolar>
-36.2176

> <Gold.PLP.part.repulsive>
0.5009

> <Gold.PLP.ligand.clash>
0.0000

> <Gold.PLP.ligand.torsion>
0.0623

> <Gold.PLP.Chemscore.Hbond>
3.0000

> <Gold.PLP.Chemscore.CHOScore>
0.0000

> <Gold.PLP.Chemscore.Metal>
0.0000

> <Gold.Chemscore.Hbonds>
donor molecule, donor type, donor heavy atom, donor atom, acceptor molecule, acceptor atom, score
      L1  H     9    31       P1  8028  1.00
      L1  H    17    21       P1  7957  0.98
      P1  H  7989  7998       L1    19  1.00

> <Gold.PLP.Chemscore.Internal.Correction>
0.0151

> <Gold.Rescore>
     Score         DG    S(hbond)    S(metal)    S(lipo)     H(rot)  DE(clash)    DE(int)     intcor
     20.81     -21.51       2.67        0.00     107.63       2.14       0.61       0.09       ----

> <Gold.Chemscore.Fitness>
20.8133

> <Gold.Chemscore.DG>
-21.5097

> <Gold.Chemscore.ZeroCoef>
-5.4800

> <Gold.Chemscore.Hbond>
2.6656

> <Gold.Chemscore.Metal>
0.0000

> <Gold.Chemscore.Lipo>
107.6278

> <Gold.Chemscore.Internal_Hbond>
0.0000

> <Gold.Chemscore.DEClash>
0.6068

> <Gold.Chemscore.DEInternal>
0.0896

> <Gold.Chemscore.Rot>
2.1351

> <Gold.Chemscore.Internal.Correction>
   9.000000E+99

> <Gold.Chemscore.Hbonds>
donor molecule, donor type, donor heavy atom, donor atom, acceptor molecule, acceptor atom, score
      L1  H     9    31       P1  8028  0.97
      L1  H    17    21       P1  7957  0.91
      P1  H  7989  7998       L1    19  0.54

> <Gold.Chemscore.Hbond.Weighted>
-8.9033

> <Gold.Chemscore.Metal.Weighted>
-0.0000

> <Gold.Chemscore.Lipo.Weighted>
-12.5925

> <Gold.Chemscore.Internal_Hbond.Weighted>
0.0000

> <Gold.Chemscore.DEClash.Weighted>
0.6068

> <Gold.Chemscore.DEInternal.Weighted>
0.0896

> <Gold.Chemscore.Rot.Weighted>
5.4660

> <Gold.Chemscore.Internal.Correction.Weighted>
   9.000000E+99

> <Gold.Protein.RotatedTorsions>
[ 6907 6896 6895 6894 ] final  143.51 input  -60.11 | X-H torsion
[ 7974 7965 7964 7962 ] final  -97.26 input  175.53 | X-H torsion
[ 8008 7997 7996 7995 ] final   61.83 input   59.86 | X-H torsion
[ 10167 10162 10161 10158 ] final   82.43 input  -65.29 | X-H torsion
[ 10718 10713 10712 10709 ] final  165.92 input   66.30 | X-H torsion
[ 10763 10752 10751 10750 ] final -141.70 input  -60.55 | X-H torsion
[ 11005 11000 10999 10996 ] final   40.01 input  -57.11 | X-H torsion

> <Gold.Protein.ActiveResidues>
 VAL166  LYS551  ARG553  GLY616  TRP617  ASP618  TYR619  PRO620  LYS621  CYS622 
 ASP623  PHE694  ASN695  SER759  ASP760  ASP761  ALA762  ILE779  LEU786  VAL792 
 PHE793  MET794  SER795  GLU796  ALA797  LYS798  CYS799  TRP800  GLU811  SER814 

> <Gold.Protein.RotatedAtoms>
  152.2053  133.4871  159.5080 H   0  0  0  0  0  0  0  0  0  0  0  0  # atno 6907 bound_to 6896
  150.6978  134.1537  159.4159 H   0  0  0  0  0  0  0  0  0  0  0  0  # atno 6908 bound_to 6896
  151.9455  135.0193  160.0589 H   0  0  0  0  0  0  0  0  0  0  0  0  # atno 6909 bound_to 6896
  145.3360  140.9451  143.2635 H   0  0  0  0  0  0  0  0  0  0  0  0  # atno 7974 bound_to 7965
  155.6046  140.3494  155.4604 H   0  0  0  0  0  0  0  0  0  0  0  0  # atno 8008 bound_to 7997
  156.0201  140.1252  157.0390 H   0  0  0  0  0  0  0  0  0  0  0  0  # atno 8009 bound_to 7997
  154.4312  140.1064  156.5938 H   0  0  0  0  0  0  0  0  0  0  0  0  # atno 8010 bound_to 7997
  139.9288  144.6165  150.8365 H   0  0  0  0  0  0  0  0  0  0  0  0  # atno 10167 bound_to 10162
  157.0732  131.0372  151.2603 H   0  0  0  0  0  0  0  0  0  0  0  0  # atno 10718 bound_to 10713
  154.8536  135.3517  154.5910 H   0  0  0  0  0  0  0  0  0  0  0  0  # atno 10763 bound_to 10752
  153.6519  135.6993  153.5211 H   0  0  0  0  0  0  0  0  0  0  0  0  # atno 10764 bound_to 10752
  153.2887  135.4241  155.1104 H   0  0  0  0  0  0  0  0  0  0  0  0  # atno 10765 bound_to 10752
  140.1972  134.3914  155.8115 H   0  0  0  0  0  0  0  0  0  0  0  0  # atno 11005 bound_to 11000
  144.8827  139.4882  143.6715 LP  0  0  0  0  0  0  0  0  0  0  0  0  # atno 17320 bound_to 7965
  146.3026  139.7477  142.9080 LP  0  0  0  0  0  0  0  0  0  0  0  0  # atno 17321 bound_to 7965
  140.7643  143.3245  151.2548 LP  0  0  0  0  0  0  0  0  0  0  0  0  # atno 17342 bound_to 10162
  139.6799  143.9872  152.2803 LP  0  0  0  0  0  0  0  0  0  0  0  0  # atno 17343 bound_to 10162
  157.4861  130.7794  149.7461 LP  0  0  0  0  0  0  0  0  0  0  0  0  # atno 17370 bound_to 10713
  155.9944  130.3918  150.2859 LP  0  0  0  0  0  0  0  0  0  0  0  0  # atno 17371 bound_to 10713
  141.2227  133.7076  156.8197 LP  0  0  0  0  0  0  0  0  0  0  0  0  # atno 17394 bound_to 11000
  140.2094  134.8839  157.3257 LP  0  0  0  0  0  0  0  0  0  0  0  0  # atno 17395 bound_to 11000

$$$$
