AV-unprocessed.smi:773|AV-procd|sdf|3689|dock6
  -GOLD-   22720 1103D 1   1.00000     0.00000
 Structure written by MMmdl.
 39 40  0  0  0  0  0  0  0  0  1 V2000
  147.8639  137.7269  154.5503 C   0  0  0  0  0  0  0  0  0  0  0  0
  149.3625  137.6466  154.5948 C   0  0  0  0  0  0  0  0  0  0  0  0
  149.9439  136.4712  154.7637 N   0  0  0  0  0  0  0  0  0  0  0  0
  151.3191  136.7214  154.7707 O   0  0  0  0  0  0  0  0  0  0  0  0
  151.5144  138.0531  154.5988 C   0  0  0  0  0  0  0  0  0  0  0  0
  152.9304  138.5209  154.5983 C   0  0  0  0  0  0  0  0  0  0  0  0
  150.3146  138.6997  154.4752 C   0  0  0  0  0  0  0  0  0  0  0  0
  150.0483  140.1719  154.2763 C   0  0  0  0  0  0  0  0  0  0  0  0
  149.1148  140.7761  155.3481 C   0  0  2  0  0  0  0  0  0  0  0  0
  147.7533  141.1663  154.7566 C   0  0  0  0  0  0  0  0  0  0  0  0
  149.7188  141.9486  155.9820 N   0  0  0  0  0  0  0  0  0  0  0  0
  150.7091  141.9282  156.8870 C   0  0  0  0  0  0  0  0  0  0  0  0
  151.2334  140.9013  157.3191 O   0  0  0  0  0  0  0  0  0  0  0  0
  151.0722  143.1640  157.2530 N   0  0  0  0  0  0  0  0  0  0  0  0
  152.1408  143.4550  158.1998 C   0  0  0  0  0  0  0  0  0  0  0  0
  152.0878  142.5934  159.4698 C   0  0  0  0  0  0  0  0  0  0  0  0
  152.4453  143.8635  160.2525 C   0  0  0  0  0  0  0  0  0  0  0  0
  151.8370  144.6641  159.0935 C   0  0  0  0  0  0  0  0  0  0  0  0
  147.5101  138.6999  154.8906 H   0  0  0  0  0  0  0  0  0  0  0  0
  147.4053  136.9714  155.1890 H   0  0  0  0  0  0  0  0  0  0  0  0
  147.4955  137.5753  153.5356 H   0  0  0  0  0  0  0  0  0  0  0  0
  153.0099  139.5364  154.2111 H   0  0  0  0  0  0  0  0  0  0  0  0
  153.5527  137.8749  153.9791 H   0  0  0  0  0  0  0  0  0  0  0  0
  153.3356  138.5142  155.6102 H   0  0  0  0  0  0  0  0  0  0  0  0
  150.9871  140.7266  154.2702 H   0  0  0  0  0  0  0  0  0  0  0  0
  149.6117  140.3442  153.2921 H   0  0  0  0  0  0  0  0  0  0  0  0
  148.9299  140.0122  156.1050 H   0  0  0  0  0  0  0  0  0  0  0  0
  147.2593  140.3035  154.3086 H   0  0  0  0  0  0  0  0  0  0  0  0
  147.8583  141.9279  153.9831 H   0  0  0  0  0  0  0  0  0  0  0  0
  147.0891  141.5620  155.5255 H   0  0  0  0  0  0  0  0  0  0  0  0
  149.3629  142.8482  155.6941 H   0  0  0  0  0  0  0  0  0  0  0  0
  150.5887  143.9513  156.8463 H   0  0  0  0  0  0  0  0  0  0  0  0
  153.1407  143.5027  157.7619 H   0  0  0  0  0  0  0  0  0  0  0  0
  151.0890  142.2203  159.7053 H   0  0  0  0  0  0  0  0  0  0  0  0
  152.8368  141.8021  159.5156 H   0  0  0  0  0  0  0  0  0  0  0  0
  151.9291  143.9744  161.2065 H   0  0  0  0  0  0  0  0  0  0  0  0
  153.5220  144.0116  160.3532 H   0  0  0  0  0  0  0  0  0  0  0  0
  152.3803  145.5727  158.8322 H   0  0  0  0  0  0  0  0  0  0  0  0
  150.7700  144.8534  159.2278 H   0  0  0  0  0  0  0  0  0  0  0  0
  1  2  1  0  0  0  0
  1 19  1  0  0  0  0
  1 20  1  0  0  0  0
  1 21  1  0  0  0  0
  2  7  1  0  0  0  0
  2  3  2  0  0  0  0
  3  4  1  0  0  0  0
  4  5  1  0  0  0  0
  5  6  1  0  0  0  0
  5  7  2  0  0  0  0
  6 22  1  0  0  0  0
  6 23  1  0  0  0  0
  6 24  1  0  0  0  0
  7  8  1  0  0  0  0
  8  9  1  0  0  0  0
  8 25  1  0  0  0  0
  8 26  1  0  0  0  0
  9 10  1  0  0  0  0
  9 11  1  0  0  0  0
  9 27  1  0  0  0  0
 10 28  1  0  0  0  0
 10 29  1  0  0  0  0
 10 30  1  0  0  0  0
 11 12  1  0  0  0  0
 11 31  1  0  0  0  0
 12 13  2  0  0  0  0
 12 14  1  0  0  0  0
 14 15  1  0  0  0  0
 14 32  1  0  0  0  0
 15 18  1  0  0  0  0
 15 16  1  0  0  0  0
 15 33  1  0  0  0  0
 16 17  1  0  0  0  0
 16 34  1  0  0  0  0
 16 35  1  0  0  0  0
 17 18  1  0  0  0  0
 17 36  1  0  0  0  0
 17 37  1  0  0  0  0
 18 38  1  0  0  0  0
 18 39  1  0  0  0  0
M  END
> <s_m_source_file>
AV-unprocessed.smi

> <i_m_source_file_index>
773

> <i_lp_mmshare_version>
43012

> <i_f3d_flags>
0

> <s_epik_input>
W0NIM11jMW5vYyhbQ0gzXSljMVtDSDJdW0NASF0oW0NIM10pW05IXUMoPU8pW05IXVtDSF0yW0NIMl1bQ0gyXVtDSDJdMg==

> <s_epik_cmdline>
J2VwaWtfcHl0aG9uJywgJy1waCcsICc3LjAnLCAnLXRuJywgJzgnLCAnLW1hJywgJzIwMCcsICctbWV0YWxfYmluZGluZycsICctaW1hZScsICc8aW5maWxlLm1hZT4nLCAnLW9tYWUnLCAnPG91dGZpbGUubWFlPic=

> <r_lp_tautomer_probability>
1

> <r_epik_Ionization_Penalty>
6.63278e-05

> <r_epik_Ionization_Penalty_Charging>
0

> <r_epik_Ionization_Penalty_Neutral>
6.63278e-05

> <r_epik_State_Penalty>
-0

> <r_epik_Charging_Adjusted_Penalty>
0

> <i_epik_Tot_Q>
0

> <i_epik_Tot_abs_Q>
0

> <r_epik_Metal_State_Penalty>
-0

> <b_epik_Metal_Only>
0

> <s_lp_Force_Field>
OPLS_2005

> <r_lp_Energy>
7.52074

> <b_lp_Chiralities_Consistent>
1

> <s_lp_Variant>
AV-unprocessed.smi:773-1

> <Gold.Version>
5.8.1

> <Gold.Id.Protein>
6NUR|6NUR_protein|mol2

> <Gold.PLP.Fitness>
44.7128

> <Gold.PLP.PLP>
-37.9615

> <Gold.PLP.part.hbond>
-3.0000

> <Gold.PLP.part.metal>
0.0000

> <Gold.PLP.part.buried>
-3.8997

> <Gold.PLP.part.nonpolar>
-32.2643

> <Gold.PLP.part.repulsive>
0.4017

> <Gold.PLP.ligand.clash>
0.0000

> <Gold.PLP.ligand.torsion>
1.2134

> <Gold.PLP.Chemscore.Hbond>
2.9760

> <Gold.PLP.Chemscore.CHOScore>
0.0000

> <Gold.PLP.Chemscore.Metal>
0.0000

> <Gold.Chemscore.Hbonds>
donor molecule, donor type, donor heavy atom, donor atom, acceptor molecule, acceptor atom, score
      L1  H    11    31       P1  8028  1.00
      L1  H    14    32       P1  8028  0.60
      P1  H 10752 10763       L1     4  1.00

> <Gold.PLP.Chemscore.Internal.Correction>
0.2501

> <Gold.Rescore>
     Score         DG    S(hbond)    S(metal)    S(lipo)     H(rot)  DE(clash)    DE(int)     intcor
     21.46     -22.72       2.92        0.00      98.12       1.56       0.13       1.13       ----

> <Gold.Chemscore.Fitness>
21.4628

> <Gold.Chemscore.DG>
-22.7185

> <Gold.Chemscore.ZeroCoef>
-5.4800

> <Gold.Chemscore.Hbond>
2.9218

> <Gold.Chemscore.Metal>
0.0000

> <Gold.Chemscore.Lipo>
98.1175

> <Gold.Chemscore.Internal_Hbond>
0.0000

> <Gold.Chemscore.DEClash>
0.1284

> <Gold.Chemscore.DEInternal>
1.1274

> <Gold.Chemscore.Rot>
1.5625

> <Gold.Chemscore.Internal.Correction>
   9.000000E+99

> <Gold.Chemscore.Hbonds>
donor molecule, donor type, donor heavy atom, donor atom, acceptor molecule, acceptor atom, score
      L1  H    11    31       P1  8028  0.99
      L1  H    14    32       P1  8028  0.55
      P1  H 10752 10763       L1     4  0.89

> <Gold.Chemscore.Hbond.Weighted>
-9.7588

> <Gold.Chemscore.Metal.Weighted>
-0.0000

> <Gold.Chemscore.Lipo.Weighted>
-11.4798

> <Gold.Chemscore.Internal_Hbond.Weighted>
0.0000

> <Gold.Chemscore.DEClash.Weighted>
0.1284

> <Gold.Chemscore.DEInternal.Weighted>
1.1274

> <Gold.Chemscore.Rot.Weighted>
4.0000

> <Gold.Chemscore.Internal.Correction.Weighted>
   9.000000E+99

> <Gold.Protein.RotatedTorsions>
[ 6907 6896 6895 6894 ] final -169.40 input  -60.11 | X-H torsion
[ 7974 7965 7964 7962 ] final -141.23 input  175.53 | X-H torsion
[ 8008 7997 7996 7995 ] final  106.33 input   59.86 | X-H torsion
[ 10167 10162 10161 10158 ] final   98.49 input  -65.29 | X-H torsion
[ 10718 10713 10712 10709 ] final   19.97 input   66.30 | X-H torsion
[ 10763 10752 10751 10750 ] final   56.11 input  -60.55 | X-H torsion
[ 11005 11000 10999 10996 ] final  -22.14 input  -57.11 | X-H torsion

> <Gold.Protein.ActiveResidues>
 VAL166  LYS551  ARG553  GLY616  TRP617  ASP618  TYR619  PRO620  LYS621  CYS622 
 ASP623  PHE694  ASN695  SER759  ASP760  ASP761  ALA762  ILE779  LEU786  VAL792 
 PHE793  MET794  SER795  GLU796  ALA797  LYS798  CYS799  TRP800  GLU811  SER814 

> <Gold.Protein.RotatedAtoms>
  151.4910  133.3525  159.2853 H   0  0  0  0  0  0  0  0  0  0  0  0  # atno 6907 bound_to 6896
  150.8834  134.8231  159.7252 H   0  0  0  0  0  0  0  0  0  0  0  0  # atno 6908 bound_to 6896
  152.4777  134.4811  159.9717 H   0  0  0  0  0  0  0  0  0  0  0  0  # atno 6909 bound_to 6896
  144.8535  140.6105  143.5374 H   0  0  0  0  0  0  0  0  0  0  0  0  # atno 7974 bound_to 7965
  156.1734  140.3114  155.9015 H   0  0  0  0  0  0  0  0  0  0  0  0  # atno 8008 bound_to 7997
  155.3539  140.0472  157.3063 H   0  0  0  0  0  0  0  0  0  0  0  0  # atno 8009 bound_to 7997
  154.5265  140.2216  155.8892 H   0  0  0  0  0  0  0  0  0  0  0  0  # atno 8010 bound_to 7997
  139.7704  144.6924  151.0165 H   0  0  0  0  0  0  0  0  0  0  0  0  # atno 10167 bound_to 10162
  157.1179  130.6537  149.5915 H   0  0  0  0  0  0  0  0  0  0  0  0  # atno 10718 bound_to 10713
  152.9827  135.5687  154.5176 H   0  0  0  0  0  0  0  0  0  0  0  0  # atno 10763 bound_to 10752
  154.4669  135.2783  155.1673 H   0  0  0  0  0  0  0  0  0  0  0  0  # atno 10764 bound_to 10752
  154.3238  135.6263  153.5573 H   0  0  0  0  0  0  0  0  0  0  0  0  # atno 10765 bound_to 10752
  140.8628  133.7776  156.0094 H   0  0  0  0  0  0  0  0  0  0  0  0  # atno 11005 bound_to 11000
  145.4452  139.1530  143.3949 LP  0  0  0  0  0  0  0  0  0  0  0  0  # atno 17320 bound_to 7965
  146.2804  140.4575  142.8778 LP  0  0  0  0  0  0  0  0  0  0  0  0  # atno 17321 bound_to 7965
  140.7813  143.4595  151.0297 LP  0  0  0  0  0  0  0  0  0  0  0  0  # atno 17342 bound_to 10162
  139.8279  143.7731  152.3179 LP  0  0  0  0  0  0  0  0  0  0  0  0  # atno 17343 bound_to 10162
  155.9835  130.4855  150.6937 LP  0  0  0  0  0  0  0  0  0  0  0  0  # atno 17370 bound_to 10713
  157.4502  131.0871  151.0853 LP  0  0  0  0  0  0  0  0  0  0  0  0  # atno 17371 bound_to 10713
  140.8663  134.2780  157.5211 LP  0  0  0  0  0  0  0  0  0  0  0  0  # atno 17394 bound_to 11000
  139.8708  134.9544  156.4175 LP  0  0  0  0  0  0  0  0  0  0  0  0  # atno 17395 bound_to 11000

$$$$
