#       Name:                AV-unprocessed.smi:153
#       Creating user name   scv26
#       Creation time:       Thu Mar 26 18:47:52 2020


#       File generated by GOLD software.
#

@<TRIPOS>MOLECULE
AV-unprocessed.smi:153
    71    74     1
SMALL
NO_CHARGES


@<TRIPOS>ATOM
      1 ****        -3.0582  -3.6914   3.6595 C.3            1 S1                 0.0000
      2 ****        -3.3928  -2.2188   3.9550 C.3            1 S1                 0.0000
      3 ****        -4.5696  -2.2749   4.7635 O.3            1 S1                 0.0000
      4 ****        -5.7004  -1.7600   4.0677 C.3            1 S1                 0.0000
      5 ****        -5.2664  -1.6296   2.6114 C.3            1 S1                 0.0000
      6 ****        -3.7765  -1.3573   2.7293 C.3            1 S1                 0.0000
      7 ****        -3.6015   0.0022   3.0935 O.3            1 S1                 0.0000
      8 ****        -3.0038  -1.6112   1.4043 C.3            1 S1                 0.0000
      9 ****        -1.6191  -1.1506   1.4066 N.pl3          1 S1                 0.0000
     10 ****        -0.4885  -1.9001   1.6361 C.2            1 S1                 0.0000
     11 ****         0.6365  -1.2446   1.5667 N.2            1 S1                 0.0000
     12 ****         0.2673   0.0587   1.2514 C.ar           1 S1                 0.0000
     13 ****         0.9768   1.2779   1.0135 C.ar           1 S1                 0.0000
     14 ****         2.3331   1.4219   1.0648 N.pl3          1 S1                 0.0000
     15 ****         3.1612   0.3563   1.6159 C.3            1 S1                 0.0000
     16 ****         3.0012   2.4889   0.3132 C.3            1 S1                 0.0000
     17 ****         3.4137   2.0524  -1.1074 C.3            1 S1                 0.0000
     18 ****         4.2865   3.0448  -1.6094 O.3            1 S1                 0.0000
     19 ****         2.2153   1.9217  -2.0736 C.3            1 S1                 0.0000
     20 ****         2.5946   1.3590  -3.3936 N.4            1 S1                 1.0000
     21 ****         2.7972  -0.1115  -3.3733 C.3            1 S1                 0.0000
     22 ****         3.2146  -0.6169  -4.7649 C.3            1 S1                 0.0000
     23 ****         2.2338  -0.2423  -5.7239 O.3            1 S1                 0.0000
     24 ****         2.0928   1.1696  -5.8170 C.3            1 S1                 0.0000
     25 ****         1.6362   1.7327  -4.4608 C.3            1 S1                 0.0000
     26 ****         0.2276   2.3670   0.6941 N.ar           1 S1                 0.0000
     27 ****        -1.1020   2.2870   0.6092 C.ar           1 S1                 0.0000
     28 ****        -1.8846   1.2263   0.8001 N.ar           1 S1                 0.0000
     29 ****        -1.1522   0.1246   1.1292 C.ar           1 S1                 0.0000
     30 ****        -2.1379  -3.7977   3.0925 H              1 S1                 0.0000
     31 ****        -3.8553  -4.1806   3.0995 H              1 S1                 0.0000
     32 ****        -2.9237  -4.2460   4.5884 H              1 S1                 0.0000
     33 ****        -2.5704  -1.7737   4.5174 H              1 S1                 0.0000
     34 ****        -6.5700  -2.4066   4.1860 H              1 S1                 0.0000
     35 ****        -5.9482  -0.7821   4.4823 H              1 S1                 0.0000
     36 ****        -5.4359  -2.5746   2.0933 H              1 S1                 0.0000
     37 ****        -5.8123  -0.8539   2.0729 H              1 S1                 0.0000
     38 ****        -3.8772   0.5453   2.3709 H              1 S1                 0.0000
     39 ****        -3.0220  -2.6671   1.1336 H              1 S1                 0.0000
     40 ****        -3.5140  -1.0959   0.5896 H              1 S1                 0.0000
     41 ****        -0.5095  -2.9580   1.8450 H              1 S1                 0.0000
     42 ****         2.7978   0.0496   2.5972 H              1 S1                 0.0000
     43 ****         4.1922   0.6889   1.7390 H              1 S1                 0.0000
     44 ****         3.1681  -0.5092   0.9531 H              1 S1                 0.0000
     45 ****         2.4105   3.4044   0.2761 H              1 S1                 0.0000
     46 ****         3.8972   2.7594   0.8735 H              1 S1                 0.0000
     47 ****         3.9728   1.1196  -1.0420 H              1 S1                 0.0000
     48 ****         4.6772   2.7335  -2.4112 H              1 S1                 0.0000
     49 ****         1.4362   1.2887  -1.6505 H              1 S1                 0.0000
     50 ****         1.7646   2.9072  -2.2035 H              1 S1                 0.0000
     51 ****         3.5621  -0.3836  -2.6469 H              1 S1                 0.0000
     52 ****         1.8744  -0.6047  -3.0629 H              1 S1                 0.0000
     53 ****         4.1901  -0.2188  -5.0485 H              1 S1                 0.0000
     54 ****         3.3040  -1.7033  -4.7585 H              1 S1                 0.0000
     55 ****         3.0350   1.6223  -6.1299 H              1 S1                 0.0000
     56 ****         1.3568   1.4016  -6.5871 H              1 S1                 0.0000
     57 ****         0.6442   1.3524  -4.2118 H              1 S1                 0.0000
     58 ****         1.5575   2.8187  -4.5244 H              1 S1                 0.0000
     59 ****        -1.6108   3.2040   0.3508 H              1 S1                 0.0000
     60 ****         3.4765   1.7807  -3.6468 H              1 S1                 0.0000
     61 ****        -4.4223  -1.7336   5.5913 LP             1 S1                 0.0000
     62 ****        -4.7472  -3.2264   5.0147 LP             1 S1                 0.0000
     63 ****        -2.6378   0.1753   3.2967 LP             1 S1                 0.0000
     64 ****        -4.1547   0.2087   3.9006 LP             1 S1                 0.0000
     65 ****         1.5602  -1.6003   1.7088 LP             1 S1                 0.0000
     66 ****         5.0032   3.2318  -0.9376 LP             1 S1                 0.0000
     67 ****         3.7723   3.8831  -1.7903 LP             1 S1                 0.0000
     68 ****         1.3546  -0.6379  -5.4581 LP             1 S1                 0.0000
     69 ****         2.5034  -0.5997  -6.6181 LP             1 S1                 0.0000
     70 ****         0.6800   3.2416   0.5201 LP             1 S1                 0.0000
     71 ****        -2.8808   1.2367   0.7133 LP             1 S1                 0.0000
@<TRIPOS>BOND
    1    1    2 1     
    2    1   30 1     
    3    1   31 1     
    4    1   32 1     
    5    2    6 1     
    6    2    3 1     
    7    2   33 1     
    8    3    4 1     
    9    4    5 1     
   10    4   34 1     
   11    4   35 1     
   12    5    6 1     
   13    5   36 1     
   14    5   37 1     
   15    6    7 1     
   16    6    8 1     
   17    7   38 1     
   18    8    9 1     
   19    8   39 1     
   20    8   40 1     
   21    9   29 1     
   22    9   10 1     
   23   10   11 2     
   24   10   41 1     
   25   11   12 1     
   26   12   29 ar    
   27   12   13 ar    
   28   13   14 1     
   29   13   26 ar    
   30   14   15 1     
   31   14   16 1     
   32   15   42 1     
   33   15   43 1     
   34   15   44 1     
   35   16   17 1     
   36   16   45 1     
   37   16   46 1     
   38   17   18 1     
   39   17   19 1     
   40   17   47 1     
   41   18   48 1     
   42   19   20 1     
   43   19   49 1     
   44   19   50 1     
   45   20   25 1     
   46   20   21 1     
   47   20   60 1     
   48   21   22 1     
   49   21   51 1     
   50   21   52 1     
   51   22   23 1     
   52   22   53 1     
   53   22   54 1     
   54   23   24 1     
   55   24   25 1     
   56   24   55 1     
   57   24   56 1     
   58   25   57 1     
   59   25   58 1     
   60   26   27 ar    
   61   27   28 ar    
   62   27   59 1     
   63   28   29 ar    
   64    3   61 1     
   65    3   62 1     
   66    7   63 1     
   67    7   64 1     
   68   11   65 1     
   69   18   66 1     
   70   18   67 1     
   71   23   68 1     
   72   23   69 1     
   73   26   70 1     
   74   28   71 1     
@<TRIPOS>SUBSTRUCTURE
      1 S1             1
@<TRIPOS>SET
LONE_PAIRS      STATIC     ATOMS    <user>   **** ""
11 61 62 63 64 65 66 67 68 69 70 71
DONOR_HYDROGENS      STATIC     ATOMS    <user>   **** ""
3 38 48 60
ATOM$BLUE        STATIC     ATOMS    COLORGROUP SYSTEM
11 61 62 63 64 65 66 67 68 69 70 71
ATOM$RED        STATIC     ATOMS    COLORGROUP SYSTEM
3 38 48 60
