AV-unprocessed.smi:3331|AV-procd|sdf|12824|dock1
  -GOLD-   2272019203D 1   1.00000     0.00000
 Structure written by MMmdl.
 46 47  0  0  0  0  0  0  0  0  1 V2000
  153.3440  142.4398  163.2523 C   0  0  0  0  0  0  0  0  0  0  0  0
  152.7326  142.5961  161.8532 C   0  0  1  0  0  0  0  0  0  0  0  0
  152.4907  144.0817  161.5011 C   0  0  0  0  0  0  0  0  0  0  0  0
  151.9968  144.2719  160.0485 C   0  0  1  0  0  0  0  0  0  0  0  0
  151.8855  145.7571  159.6785 C   0  0  0  0  0  0  0  0  0  0  0  0
  152.9122  143.5083  159.0681 C   0  0  0  0  0  0  0  0  0  0  0  0
  152.9478  142.0971  159.4715 N   0  0  0  0  0  0  0  0  0  0  0  0
  152.3034  141.1272  158.7749 C   0  0  0  0  0  0  0  0  0  0  0  0
  152.2134  139.9734  159.2007 O   0  0  0  0  0  0  0  0  0  0  0  0
  151.6696  141.4461  157.3992 C   0  0  2  0  0  0  0  0  0  0  0  0
  150.5241  142.4558  157.5719 C   0  0  0  0  0  0  0  0  0  0  0  0
  151.1635  140.2442  156.7147 N   0  0  0  0  0  0  0  0  0  0  0  0
  150.4369  140.5422  155.4833 C   0  0  0  0  0  0  0  0  0  0  0  0
  149.7941  139.2603  154.9314 C   0  0  0  0  0  0  0  0  0  0  0  0
  148.6353  139.5528  154.1067 N   0  0  0  0  0  0  0  0  0  0  0  0
  147.8456  138.6759  153.3932 C   0  0  0  0  0  0  0  0  0  0  0  0
  146.8928  139.4159  152.7539 C   0  0  0  0  0  0  0  0  0  0  0  0
  147.1861  140.7528  153.1432 C   0  0  0  0  0  0  0  0  0  0  0  0
  148.2282  140.8316  153.9544 N   0  0  0  0  0  0  0  0  0  0  0  0
  153.6125  141.9395  160.7708 C   0  0  0  0  0  0  0  0  0  0  0  0
  154.3210  142.9201  163.3144 H   0  0  0  0  0  0  0  0  0  0  0  0
  153.4728  141.3877  163.5080 H   0  0  0  0  0  0  0  0  0  0  0  0
  152.7034  142.8876  164.0123 H   0  0  0  0  0  0  0  0  0  0  0  0
  151.7670  142.0876  161.8574 H   0  0  0  0  0  0  0  0  0  0  0  0
  151.7737  144.5175  162.1978 H   0  0  0  0  0  0  0  0  0  0  0  0
  153.4214  144.6351  161.6348 H   0  0  0  0  0  0  0  0  0  0  0  0
  150.9967  143.8409  159.9761 H   0  0  0  0  0  0  0  0  0  0  0  0
  152.8568  146.2507  159.7216 H   0  0  0  0  0  0  0  0  0  0  0  0
  151.2137  146.2817  160.3583 H   0  0  0  0  0  0  0  0  0  0  0  0
  151.4941  145.8803  158.6684 H   0  0  0  0  0  0  0  0  0  0  0  0
  152.5614  143.6458  158.0444 H   0  0  0  0  0  0  0  0  0  0  0  0
  153.9219  143.9211  159.0894 H   0  0  0  0  0  0  0  0  0  0  0  0
  152.4138  141.8829  156.7347 H   0  0  0  0  0  0  0  0  0  0  0  0
  150.8662  143.3729  158.0525 H   0  0  0  0  0  0  0  0  0  0  0  0
  149.7182  142.0441  158.1813 H   0  0  0  0  0  0  0  0  0  0  0  0
  150.0994  142.7341  156.6070 H   0  0  0  0  0  0  0  0  0  0  0  0
  150.5866  139.6783  157.3201 H   0  0  0  0  0  0  0  0  0  0  0  0
  149.6684  141.2837  155.7034 H   0  0  0  0  0  0  0  0  0  0  0  0
  151.0826  140.9769  154.7196 H   0  0  0  0  0  0  0  0  0  0  0  0
  150.5111  138.6824  154.3466 H   0  0  0  0  0  0  0  0  0  0  0  0
  149.4754  138.6201  155.7552 H   0  0  0  0  0  0  0  0  0  0  0  0
  148.0301  137.6119  153.3950 H   0  0  0  0  0  0  0  0  0  0  0  0
  146.1083  139.0576  152.1041 H   0  0  0  0  0  0  0  0  0  0  0  0
  146.6763  141.6624  152.8622 H   0  0  0  0  0  0  0  0  0  0  0  0
  154.5850  142.4331  160.7350 H   0  0  0  0  0  0  0  0  0  0  0  0
  153.8400  140.9056  161.0228 H   0  0  0  0  0  0  0  0  0  0  0  0
  1  2  1  0  0  0  0
  1 21  1  0  0  0  0
  1 22  1  0  0  0  0
  1 23  1  0  0  0  0
  2 20  1  0  0  0  0
  2  3  1  0  0  0  0
  2 24  1  0  0  0  0
  3  4  1  0  0  0  0
  3 25  1  0  0  0  0
  3 26  1  0  0  0  0
  4  5  1  0  0  0  0
  4  6  1  0  0  0  0
  4 27  1  0  0  0  0
  5 28  1  0  0  0  0
  5 29  1  0  0  0  0
  5 30  1  0  0  0  0
  6  7  1  0  0  0  0
  6 31  1  0  0  0  0
  6 32  1  0  0  0  0
  7  8  1  0  0  0  0
  7 20  1  0  0  0  0
  8  9  2  0  0  0  0
  8 10  1  0  0  0  0
 10 11  1  0  0  0  0
 10 12  1  0  0  0  0
 10 33  1  0  0  0  0
 11 34  1  0  0  0  0
 11 35  1  0  0  0  0
 11 36  1  0  0  0  0
 12 13  1  0  0  0  0
 12 37  1  0  0  0  0
 13 14  1  0  0  0  0
 13 38  1  0  0  0  0
 13 39  1  0  0  0  0
 14 15  1  0  0  0  0
 14 40  1  0  0  0  0
 14 41  1  0  0  0  0
 15 19  1  0  0  0  0
 15 16  1  0  0  0  0
 16 17  2  0  0  0  0
 16 42  1  0  0  0  0
 17 18  1  0  0  0  0
 17 43  1  0  0  0  0
 18 19  2  0  0  0  0
 18 44  1  0  0  0  0
 20 45  1  0  0  0  0
 20 46  1  0  0  0  0
M  END
> <s_m_source_file>
AV-unprocessed.smi

> <i_m_source_file_index>
3331

> <i_lp_mmshare_version>
43012

> <i_f3d_flags>
0

> <s_epik_input>
W0NIM11bQ0BASF0xW0NIMl1bQ0BASF0oW0NIM10pW0NIMl1OKFtDSDJdMSlDKD1PKVtDQEhdKFtDSDNdKVtOSF1bQ0gyXVtDSDJdbjJbY0hdW2NIXVtjSF1uMg==

> <s_epik_cmdline>
J2VwaWtfcHl0aG9uJywgJy1waCcsICc3LjAnLCAnLXRuJywgJzgnLCAnLW1hJywgJzIwMCcsICctbWV0YWxfYmluZGluZycsICctaW1hZScsICc8aW5maWxlLm1hZT4nLCAnLW9tYWUnLCAnPG91dGZpbGUubWFlPic=

> <r_lp_tautomer_probability>
1

> <r_epik_Ionization_Penalty>
0.767994

> <r_epik_Ionization_Penalty_Charging>
0

> <r_epik_Ionization_Penalty_Neutral>
0.767994

> <r_epik_State_Penalty>
0.795453

> <r_epik_Charging_Adjusted_Penalty>
0.795453

> <i_epik_Tot_Q>
0

> <i_epik_Tot_abs_Q>
0

> <r_epik_Metal_State_Penalty>
0.794784

> <b_epik_Metal_Only>
0

> <s_lp_Force_Field>
OPLS_2005

> <r_lp_Energy>
28.4276

> <b_lp_Chiralities_Consistent>
1

> <s_lp_Variant>
AV-unprocessed.smi:3331-8

> <Gold.Version>
5.8.1

> <Gold.Id.Protein>
6NUR|6NUR_protein|mol2

> <Gold.PLP.Fitness>
51.1657

> <Gold.PLP.PLP>
-48.5293

> <Gold.PLP.part.hbond>
0.0000

> <Gold.PLP.part.metal>
0.0000

> <Gold.PLP.part.buried>
-3.3012

> <Gold.PLP.part.nonpolar>
-44.6520

> <Gold.PLP.part.repulsive>
0.1405

> <Gold.PLP.ligand.clash>
0.0000

> <Gold.PLP.ligand.torsion>
0.2776

> <Gold.PLP.Chemscore.Hbond>
0.0000

> <Gold.PLP.Chemscore.CHOScore>
1.0000

> <Gold.PLP.Chemscore.Metal>
0.0000

> <Gold.Chemscore.Hbonds>
donor molecule, donor type, donor heavy atom, donor atom, acceptor molecule, acceptor atom, score
      L1  C    16    42       P1  7948  1.00

> <Gold.PLP.Chemscore.Internal.Correction>
0.1916

> <Gold.Rescore>
     Score         DG    S(hbond)    S(metal)    S(lipo)     H(rot)  DE(clash)    DE(int)     intcor
     15.57     -16.99       0.00        0.00     134.79       1.66       0.09       1.32       ----

> <Gold.Chemscore.Fitness>
15.5739

> <Gold.Chemscore.DG>
-16.9881

> <Gold.Chemscore.ZeroCoef>
-5.4800

> <Gold.Chemscore.Hbond>
0.0000

> <Gold.Chemscore.Metal>
0.0000

> <Gold.Chemscore.Lipo>
134.7876

> <Gold.Chemscore.Internal_Hbond>
0.0000

> <Gold.Chemscore.DEClash>
0.0945

> <Gold.Chemscore.DEInternal>
1.3197

> <Gold.Chemscore.Rot>
1.6649

> <Gold.Chemscore.Internal.Correction>
   9.000000E+99

> <Gold.Chemscore.Hbond.Weighted>
-0.0000

> <Gold.Chemscore.Metal.Weighted>
-0.0000

> <Gold.Chemscore.Lipo.Weighted>
-15.7701

> <Gold.Chemscore.Internal_Hbond.Weighted>
0.0000

> <Gold.Chemscore.DEClash.Weighted>
0.0945

> <Gold.Chemscore.DEInternal.Weighted>
1.3197

> <Gold.Chemscore.Rot.Weighted>
4.2621

> <Gold.Chemscore.Internal.Correction.Weighted>
   9.000000E+99

> <Gold.Protein.RotatedTorsions>
[ 6907 6896 6895 6894 ] final -155.64 input  -60.11 | X-H torsion
[ 7974 7965 7964 7962 ] final  104.70 input  175.53 | X-H torsion
[ 8008 7997 7996 7995 ] final   32.78 input   59.86 | X-H torsion
[ 10167 10162 10161 10158 ] final   53.89 input  -65.29 | X-H torsion
[ 10718 10713 10712 10709 ] final  116.72 input   66.30 | X-H torsion
[ 10763 10752 10751 10750 ] final  172.39 input  -60.55 | X-H torsion
[ 11005 11000 10999 10996 ] final -158.33 input  -57.11 | X-H torsion

> <Gold.Protein.ActiveResidues>
 VAL166  LYS551  ARG553  GLY616  TRP617  ASP618  TYR619  PRO620  LYS621  CYS622 
 ASP623  PHE694  ASN695  SER759  ASP760  ASP761  ALA762  ILE779  LEU786  VAL792 
 PHE793  MET794  SER795  GLU796  ALA797  LYS798  CYS799  TRP800  GLU811  SER814 

> <Gold.Protein.RotatedAtoms>
  151.2756  133.4234  159.2623 H   0  0  0  0  0  0  0  0  0  0  0  0  # atno 6907 bound_to 6896
  151.0406  134.9605  159.8170 H   0  0  0  0  0  0  0  0  0  0  0  0  # atno 6908 bound_to 6896
  152.5364  134.2714  159.9025 H   0  0  0  0  0  0  0  0  0  0  0  0  # atno 6909 bound_to 6896
  145.3293  139.2491  143.3669 H   0  0  0  0  0  0  0  0  0  0  0  0  # atno 7974 bound_to 7965
  155.1279  140.3254  155.4481 H   0  0  0  0  0  0  0  0  0  0  0  0  # atno 8008 bound_to 7997
  156.2643  140.2015  156.6348 H   0  0  0  0  0  0  0  0  0  0  0  0  # atno 8009 bound_to 7997
  154.6634  140.0544  157.0074 H   0  0  0  0  0  0  0  0  0  0  0  0  # atno 8010 bound_to 7997
  140.2360  144.3636  150.6397 H   0  0  0  0  0  0  0  0  0  0  0  0  # atno 10167 bound_to 10162
  157.6143  131.1029  150.7512 H   0  0  0  0  0  0  0  0  0  0  0  0  # atno 10718 bound_to 10713
  154.4254  135.2758  155.1948 H   0  0  0  0  0  0  0  0  0  0  0  0  # atno 10763 bound_to 10752
  154.3876  135.6073  153.5829 H   0  0  0  0  0  0  0  0  0  0  0  0  # atno 10764 bound_to 10752
  152.9834  135.5895  154.4557 H   0  0  0  0  0  0  0  0  0  0  0  0  # atno 10765 bound_to 10752
  140.6548  134.4412  157.5235 H   0  0  0  0  0  0  0  0  0  0  0  0  # atno 11005 bound_to 11000
  146.3052  140.3868  142.8690 LP  0  0  0  0  0  0  0  0  0  0  0  0  # atno 17320 bound_to 7965
  144.8876  140.7483  143.5947 LP  0  0  0  0  0  0  0  0  0  0  0  0  # atno 17321 bound_to 7965
  140.6150  143.2172  151.6810 LP  0  0  0  0  0  0  0  0  0  0  0  0  # atno 17342 bound_to 10162
  139.5094  144.3579  152.0590 LP  0  0  0  0  0  0  0  0  0  0  0  0  # atno 17343 bound_to 10162
  156.7883  130.4882  149.5389 LP  0  0  0  0  0  0  0  0  0  0  0  0  # atno 17370 bound_to 10713
  156.1258  130.6142  151.0261 LP  0  0  0  0  0  0  0  0  0  0  0  0  # atno 17371 bound_to 10713
  139.9033  134.8506  156.1806 LP  0  0  0  0  0  0  0  0  0  0  0  0  # atno 17394 bound_to 11000
  141.0509  133.6889  156.1771 LP  0  0  0  0  0  0  0  0  0  0  0  0  # atno 17395 bound_to 11000

$$$$
