#       Name:                AV-unprocessed.smi:3259
#       Creating user name   scv26
#       Creation time:       Fri Mar 27 18:37:29 2020


#       File generated by GOLD software.
#

@<TRIPOS>MOLECULE
AV-unprocessed.smi:3259
    44    45     1
SMALL
NO_CHARGES


@<TRIPOS>ATOM
      1 ****        -4.1777  -0.2541  -1.0295 C.3            1 S1                 0.0000
      2 ****        -3.2438  -0.1739   0.0403 O.3            1 S1                 0.0000
      3 ****        -2.1677  -1.1222   0.0479 C.3            1 S1                 0.0000
      4 ****        -2.7156  -2.5550   0.0414 C.3            1 S1                 0.0000
      5 ****        -1.0937  -0.7175  -0.9802 C.3            1 S1                 0.0000
      6 ****        -0.5386   0.2274   0.0837 C.3            1 S1                 0.0000
      7 ****         0.9187   0.2904   0.0737 N.am           1 S1                 0.0000
      8 ****         1.6485   1.1122   0.8431 C.2            1 S1                 0.0000
      9 ****         1.1557   1.8916   1.6580 O.2            1 S1                 0.0000
     10 ****         3.1670   1.0382   0.6744 C.3            1 S1                 0.0000
     11 ****         3.5947   1.6840  -0.5542 N.pl3          1 S1                 0.0000
     12 ****         3.7421   1.1290  -1.8087 C.2            1 S1                 0.0000
     13 ****         4.1591   2.1227  -2.6472 C.2            1 S1                 0.0000
     14 ****         4.2396   3.2653  -1.8032 C.2            1 S1                 0.0000
     15 ****         3.9024   2.9997  -0.5515 N.2            1 S1                 0.0000
     16 ****        -1.1500  -0.7059   1.1605 C.3            1 S1                 0.0000
     17 ****        -1.7328  -0.0130   2.3974 C.3            1 S1                 0.0000
     18 ****        -0.2415  -1.8271   1.6997 C.3            1 S1                 0.0000
     19 ****        -4.8382   0.6117  -0.9890 H              1 S1                 0.0000
     20 ****        -4.8057  -1.1410  -0.9494 H              1 S1                 0.0000
     21 ****        -3.6939  -0.2542  -2.0056 H              1 S1                 0.0000
     22 ****        -1.9231  -3.2931   0.1595 H              1 S1                 0.0000
     23 ****        -3.2153  -2.7968  -0.8964 H              1 S1                 0.0000
     24 ****        -3.4290  -2.7086   0.8513 H              1 S1                 0.0000
     25 ****        -0.4188  -1.5375  -1.2328 H              1 S1                 0.0000
     26 ****        -1.4509  -0.2165  -1.8792 H              1 S1                 0.0000
     27 ****        -1.0236   1.2057   0.0437 H              1 S1                 0.0000
     28 ****         1.4020  -0.3225  -0.5664 H              1 S1                 0.0000
     29 ****         3.6634   1.5124   1.5224 H              1 S1                 0.0000
     30 ****         3.4887  -0.0041   0.6572 H              1 S1                 0.0000
     31 ****         3.5386   0.0855  -1.9982 H              1 S1                 0.0000
     32 ****         4.3729   2.0453  -3.7028 H              1 S1                 0.0000
     33 ****         4.5311   4.2728  -2.0608 H              1 S1                 0.0000
     34 ****        -0.9488   0.3117   3.0824 H              1 S1                 0.0000
     35 ****        -2.3993  -0.6769   2.9488 H              1 S1                 0.0000
     36 ****        -2.3048   0.8774   2.1358 H              1 S1                 0.0000
     37 ****         0.5501  -1.4317   2.3372 H              1 S1                 0.0000
     38 ****         0.2446  -2.3847   0.8993 H              1 S1                 0.0000
     39 ****        -0.8049  -2.5456   2.2960 H              1 S1                 0.0000
     40 ****        -3.7532  -0.2910   0.8929 LP             1 S1                 0.0000
     41 ****        -2.8385   0.7399   0.0171 LP             1 S1                 0.0000
     42 ****         0.1631   1.9342   1.7721 LP             1 S1                 0.0000
     43 ****         1.7478   2.4823   2.2062 LP             1 S1                 0.0000
     44 ****         3.8802   3.6315   0.2233 LP             1 S1                 0.0000
@<TRIPOS>BOND
    1    1    2 1     
    2    1   19 1     
    3    1   20 1     
    4    1   21 1     
    5    2    3 1     
    6    3   16 1     
    7    3    4 1     
    8    3    5 1     
    9    4   22 1     
   10    4   23 1     
   11    4   24 1     
   12    5    6 1     
   13    5   25 1     
   14    5   26 1     
   15    6    7 1     
   16    6   16 1     
   17    6   27 1     
   18    7    8 am    
   19    7   28 1     
   20    8    9 2     
   21    8   10 1     
   22   10   11 1     
   23   10   29 1     
   24   10   30 1     
   25   11   15 1     
   26   11   12 1     
   27   12   13 2     
   28   12   31 1     
   29   13   14 1     
   30   13   32 1     
   31   14   15 2     
   32   14   33 1     
   33   16   17 1     
   34   16   18 1     
   35   17   34 1     
   36   17   35 1     
   37   17   36 1     
   38   18   37 1     
   39   18   38 1     
   40   18   39 1     
   41    2   40 1     
   42    2   41 1     
   43    9   42 1     
   44    9   43 1     
   45   15   44 1     
@<TRIPOS>SUBSTRUCTURE
      1 S1             1
@<TRIPOS>SET
LONE_PAIRS      STATIC     ATOMS    <user>   **** ""
5 40 41 42 43 44
DONOR_HYDROGENS      STATIC     ATOMS    <user>   **** ""
1 28
ATOM$BLUE        STATIC     ATOMS    COLORGROUP SYSTEM
5 40 41 42 43 44
ATOM$RED        STATIC     ATOMS    COLORGROUP SYSTEM
1 28
