AV-unprocessed.smi:846|AV-procd|sdf|3936|dock1
  -GOLD-   22720 1393D 1   1.00000     0.00000
 Structure written by MMmdl.
 37 38  0  0  0  0  0  0  0  0  1 V2000
  144.8047  134.5580  150.5073 C   0  0  0  0  0  0  0  0  0  0  0  0
  145.2867  133.2555  151.1513 C   0  0  0  0  0  0  0  0  0  0  0  0
  146.4049  133.5544  151.9785 O   0  0  0  0  0  0  0  0  0  0  0  0
  147.0587  132.5201  152.6202 C   0  0  0  0  0  0  0  0  0  0  0  0
  146.6297  131.2503  152.4124 N   0  0  0  0  0  0  0  0  0  0  0  0
  147.2744  130.2465  153.0431 C   0  0  0  0  0  0  0  0  0  0  0  0
  148.3648  130.4532  153.9090 C   0  0  0  0  0  0  0  0  0  0  0  0
  148.8104  131.7705  154.1259 C   0  0  0  0  0  0  0  0  0  0  0  0
  148.1516  132.8311  153.4603 C   0  0  0  0  0  0  0  0  0  0  0  0
  148.4967  134.1995  153.6129 N   0  0  0  0  0  0  0  0  0  0  0  0
  149.0206  134.8287  154.6811 C   0  0  0  0  0  0  0  0  0  0  0  0
  149.1810  134.3184  155.7875 O   0  0  0  0  0  0  0  0  0  0  0  0
  149.3794  136.1029  154.4381 N   0  0  0  0  0  0  0  0  0  0  0  0
  149.9754  137.0635  155.3703 C   0  0  1  0  0  0  0  0  0  0  0  0
  151.3356  136.5630  155.8907 C   0  0  0  0  0  0  0  0  0  0  0  0
  152.0633  137.7290  156.5742 C   0  0  0  0  0  0  0  0  0  0  0  0
  151.4860  139.2559  155.7381 S   0  0  0  0  0  0  0  0  0  0  0  0
  150.8334  140.1235  156.7305 O   0  0  0  0  0  0  0  0  0  0  0  0
  152.5461  139.7730  154.8597 O   0  0  0  0  0  0  0  0  0  0  0  0
  150.2062  138.4373  154.7180 C   0  0  0  0  0  0  0  0  0  0  0  0
  143.9452  134.3790  149.8610 H   0  0  0  0  0  0  0  0  0  0  0  0
  145.5910  135.0104  149.9021 H   0  0  0  0  0  0  0  0  0  0  0  0
  144.5085  135.2835  151.2656 H   0  0  0  0  0  0  0  0  0  0  0  0
  144.4817  132.8165  151.7427 H   0  0  0  0  0  0  0  0  0  0  0  0
  145.5655  132.5426  150.3739 H   0  0  0  0  0  0  0  0  0  0  0  0
  146.9062  129.2485  152.8563 H   0  0  0  0  0  0  0  0  0  0  0  0
  148.8453  129.6199  154.4002 H   0  0  0  0  0  0  0  0  0  0  0  0
  149.6322  131.9418  154.8038 H   0  0  0  0  0  0  0  0  0  0  0  0
  148.4695  134.7409  152.7612 H   0  0  0  0  0  0  0  0  0  0  0  0
  149.2218  136.4419  153.4998 H   0  0  0  0  0  0  0  0  0  0  0  0
  149.3229  137.1896  156.2361 H   0  0  0  0  0  0  0  0  0  0  0  0
  151.2245  135.7124  156.5638 H   0  0  0  0  0  0  0  0  0  0  0  0
  151.9392  136.2236  155.0475 H   0  0  0  0  0  0  0  0  0  0  0  0
  151.7848  137.7968  157.6261 H   0  0  0  0  0  0  0  0  0  0  0  0
  153.1482  137.6493  156.5060 H   0  0  0  0  0  0  0  0  0  0  0  0
  150.6023  138.3317  153.7074 H   0  0  0  0  0  0  0  0  0  0  0  0
  149.3104  139.0573  154.6782 H   0  0  0  0  0  0  0  0  0  0  0  0
  1  2  1  0  0  0  0
  1 21  1  0  0  0  0
  1 22  1  0  0  0  0
  1 23  1  0  0  0  0
  2  3  1  0  0  0  0
  2 24  1  0  0  0  0
  2 25  1  0  0  0  0
  3  4  1  0  0  0  0
  4  9  1  0  0  0  0
  4  5  2  0  0  0  0
  5  6  1  0  0  0  0
  6  7  2  0  0  0  0
  6 26  1  0  0  0  0
  7  8  1  0  0  0  0
  7 27  1  0  0  0  0
  8  9  2  0  0  0  0
  8 28  1  0  0  0  0
  9 10  1  0  0  0  0
 10 11  1  0  0  0  0
 10 29  1  0  0  0  0
 11 12  2  0  0  0  0
 11 13  1  0  0  0  0
 13 14  1  0  0  0  0
 13 30  1  0  0  0  0
 14 20  1  0  0  0  0
 14 15  1  0  0  0  0
 14 31  1  0  0  0  0
 15 16  1  0  0  0  0
 15 32  1  0  0  0  0
 15 33  1  0  0  0  0
 16 17  1  0  0  0  0
 16 34  1  0  0  0  0
 16 35  1  0  0  0  0
 17 18  2  0  0  0  0
 17 19  2  0  0  0  0
 17 20  1  0  0  0  0
 20 36  1  0  0  0  0
 20 37  1  0  0  0  0
M  END
> <s_m_source_file>
AV-unprocessed.smi

> <i_m_source_file_index>
846

> <i_lp_mmshare_version>
43012

> <i_f3d_flags>
0

> <s_epik_input>
W0NIM11bQ0gyXU9jMW5bY0hdW2NIXVtjSF1jMVtOSF1DKD1PKVtOSF1bQ0BASF0oW0NIMl0yKVtDSDJdW0NIMl1TMig9Tyk9Tw==

> <s_epik_cmdline>
J2VwaWtfcHl0aG9uJywgJy1waCcsICc3LjAnLCAnLXRuJywgJzgnLCAnLW1hJywgJzIwMCcsICctbWV0YWxfYmluZGluZycsICctaW1hZScsICc8aW5maWxlLm1hZT4nLCAnLW9tYWUnLCAnPG91dGZpbGUubWFlPic=

> <r_lp_tautomer_probability>
1

> <r_epik_Ionization_Penalty>
9.45557e-05

> <r_epik_Ionization_Penalty_Charging>
0

> <r_epik_Ionization_Penalty_Neutral>
9.45557e-05

> <r_epik_State_Penalty>
-0

> <r_epik_Charging_Adjusted_Penalty>
0

> <i_epik_Tot_Q>
0

> <i_epik_Tot_abs_Q>
0

> <r_epik_Metal_State_Penalty>
-0

> <b_epik_Metal_Only>
0

> <s_lp_Force_Field>
OPLS_2005

> <r_lp_Energy>
17.3952

> <b_lp_Chiralities_Consistent>
1

> <s_lp_Variant>
AV-unprocessed.smi:846-2

> <Gold.Version>
5.8.1

> <Gold.Id.Protein>
6NUR|6NUR_protein|mol2

> <Gold.PLP.Fitness>
35.2571

> <Gold.PLP.PLP>
-27.8509

> <Gold.PLP.part.hbond>
-3.5206

> <Gold.PLP.part.metal>
0.0000

> <Gold.PLP.part.buried>
-2.5611

> <Gold.PLP.part.nonpolar>
-21.9389

> <Gold.PLP.part.repulsive>
0.3659

> <Gold.PLP.ligand.clash>
0.0000

> <Gold.PLP.ligand.torsion>
0.2055

> <Gold.PLP.Chemscore.Hbond>
2.5920

> <Gold.PLP.Chemscore.CHOScore>
0.0000

> <Gold.PLP.Chemscore.Metal>
0.0000

> <Gold.Chemscore.Hbonds>
donor molecule, donor type, donor heavy atom, donor atom, acceptor molecule, acceptor atom, score
      L1  H    10    29       P1  7948  0.99
      L1  H    13    30       P1  7948  1.00
      P1  H  7989  7998       L1    19  0.59

> <Gold.PLP.Chemscore.Internal.Correction>
0.0412

> <Gold.Rescore>
     Score         DG    S(hbond)    S(metal)    S(lipo)     H(rot)  DE(clash)    DE(int)     intcor
     15.43     -15.72       2.50        0.00      49.17       1.50       0.00       0.29       ----

> <Gold.Chemscore.Fitness>
15.4335

> <Gold.Chemscore.DG>
-15.7206

> <Gold.Chemscore.ZeroCoef>
-5.4800

> <Gold.Chemscore.Hbond>
2.4959

> <Gold.Chemscore.Metal>
0.0000

> <Gold.Chemscore.Lipo>
49.1678

> <Gold.Chemscore.Internal_Hbond>
0.0000

> <Gold.Chemscore.DEClash>
0.0000

> <Gold.Chemscore.DEInternal>
0.2871

> <Gold.Chemscore.Rot>
1.5033

> <Gold.Chemscore.Internal.Correction>
   9.000000E+99

> <Gold.Chemscore.Hbonds>
donor molecule, donor type, donor heavy atom, donor atom, acceptor molecule, acceptor atom, score
      L1  H    10    29       P1  7948  0.28
      L1  H    13    30       P1  7948  0.91
      P1  H  7989  7998       L1    19  0.38

> <Gold.Chemscore.Hbond.Weighted>
-8.3364

> <Gold.Chemscore.Metal.Weighted>
-0.0000

> <Gold.Chemscore.Lipo.Weighted>
-5.7526

> <Gold.Chemscore.Internal_Hbond.Weighted>
0.0000

> <Gold.Chemscore.DEClash.Weighted>
0.0000

> <Gold.Chemscore.DEInternal.Weighted>
0.2871

> <Gold.Chemscore.Rot.Weighted>
3.8484

> <Gold.Chemscore.Internal.Correction.Weighted>
   9.000000E+99

> <Gold.Protein.RotatedTorsions>
[ 6907 6896 6895 6894 ] final -164.80 input  -60.11 | X-H torsion
[ 7974 7965 7964 7962 ] final   64.99 input  175.53 | X-H torsion
[ 8008 7997 7996 7995 ] final   28.32 input   59.86 | X-H torsion
[ 10167 10162 10161 10158 ] final -152.79 input  -65.29 | X-H torsion
[ 10718 10713 10712 10709 ] final  -79.54 input   66.30 | X-H torsion
[ 10763 10752 10751 10750 ] final    3.22 input  -60.55 | X-H torsion
[ 11005 11000 10999 10996 ] final  -71.58 input  -57.11 | X-H torsion

> <Gold.Protein.ActiveResidues>
 VAL166  LYS551  ARG553  GLY616  TRP617  ASP618  TYR619  PRO620  LYS621  CYS622 
 ASP623  PHE694  ASN695  SER759  ASP760  ASP761  ALA762  ILE779  LEU786  VAL792 
 PHE793  MET794  SER795  GLU796  ALA797  LYS798  CYS799  TRP800  GLU811  SER814 

> <Gold.Protein.RotatedAtoms>
  151.4176  133.3708  159.2751 H   0  0  0  0  0  0  0  0  0  0  0  0  # atno 6907 bound_to 6896
  150.9317  134.8733  159.7566 H   0  0  0  0  0  0  0  0  0  0  0  0  # atno 6908 bound_to 6896
  152.5031  134.4121  159.9504 H   0  0  0  0  0  0  0  0  0  0  0  0  # atno 6909 bound_to 6896
  145.8437  139.3211  143.0916 H   0  0  0  0  0  0  0  0  0  0  0  0  # atno 7974 bound_to 7965
  155.0568  140.3186  155.4673 H   0  0  0  0  0  0  0  0  0  0  0  0  # atno 8008 bound_to 7997
  156.2822  140.2136  156.5639 H   0  0  0  0  0  0  0  0  0  0  0  0  # atno 8009 bound_to 7997
  154.7165  140.0493  157.0587 H   0  0  0  0  0  0  0  0  0  0  0  0  # atno 8010 bound_to 7997
  139.7152  143.9045  152.2483 H   0  0  0  0  0  0  0  0  0  0  0  0  # atno 10167 bound_to 10162
  156.0090  130.4549  150.3664 H   0  0  0  0  0  0  0  0  0  0  0  0  # atno 10718 bound_to 10713
  153.2860  135.6944  153.7339 H   0  0  0  0  0  0  0  0  0  0  0  0  # atno 10763 bound_to 10752
  153.6308  135.3410  155.3042 H   0  0  0  0  0  0  0  0  0  0  0  0  # atno 10764 bound_to 10752
  154.8510  135.4408  154.1928 H   0  0  0  0  0  0  0  0  0  0  0  0  # atno 10765 bound_to 10752
  141.1594  133.6821  156.6928 H   0  0  0  0  0  0  0  0  0  0  0  0  # atno 11005 bound_to 11000
  145.9436  140.8961  143.0295 LP  0  0  0  0  0  0  0  0  0  0  0  0  # atno 17320 bound_to 7965
  144.6732  140.1583  143.7424 LP  0  0  0  0  0  0  0  0  0  0  0  0  # atno 17321 bound_to 7965
  139.8926  144.6957  150.8754 LP  0  0  0  0  0  0  0  0  0  0  0  0  # atno 17342 bound_to 10162
  140.7742  143.3575  151.1893 LP  0  0  0  0  0  0  0  0  0  0  0  0  # atno 17343 bound_to 10162
  157.1751  131.0378  151.2776 LP  0  0  0  0  0  0  0  0  0  0  0  0  # atno 17370 bound_to 10713
  157.4195  130.7430  149.6902 LP  0  0  0  0  0  0  0  0  0  0  0  0  # atno 17371 bound_to 10713
  140.3018  134.8158  157.4104 LP  0  0  0  0  0  0  0  0  0  0  0  0  # atno 17394 bound_to 11000
  140.1255  134.5163  155.8148 LP  0  0  0  0  0  0  0  0  0  0  0  0  # atno 17395 bound_to 11000

$$$$
