AV-unprocessed.smi:2276|AV-procd|sdf|9176|dock4
  -GOLD-   2272012393D 1   1.00000     0.00000
 Structure written by MMmdl.
 52 53  0  0  0  0  0  0  0  0  1 V2000
  151.9781  145.9434  160.2423 C   0  0  0  0  0  0  0  0  0  0  0  0
  152.0240  144.5836  159.5778 C   0  0  0  0  0  0  0  0  0  0  0  0
  152.8377  143.5550  160.0907 C   0  0  0  0  0  0  0  0  0  0  0  0
  152.8367  142.3130  159.4261 C   0  0  0  0  0  0  0  0  0  0  0  0
  153.6787  141.1593  159.9287 C   0  0  0  0  0  0  0  0  0  0  0  0
  152.0939  142.0672  158.3259 N   0  0  0  0  0  0  0  0  0  0  0  0
  151.3063  143.0498  157.8233 C   0  0  0  0  0  0  0  0  0  0  0  0
  150.4789  142.8873  156.6806 N   0  0  0  0  0  0  0  0  0  0  0  0
  150.0743  141.7410  156.1058 C   0  0  0  0  0  0  0  0  0  0  0  0
  150.4296  140.6109  156.4421 O   0  0  0  0  0  0  0  0  0  0  0  0
  149.2214  141.9783  155.0985 N   0  0  0  0  0  0  0  0  0  0  0  0
  148.5740  140.9537  154.2836 C   0  0  0  0  0  0  0  0  0  0  0  0
  147.0327  140.9796  154.3916 C   0  0  2  0  0  0  0  0  0  0  0  0
  146.5215  142.4254  154.2854 C   0  0  0  0  0  0  0  0  0  0  0  0
  146.5328  140.3049  155.6920 C   0  0  0  0  0  0  0  0  0  0  0  0
  146.0693  141.2133  156.7419 N   0  0  0  0  0  0  0  0  0  0  0  0
  147.1901  141.9618  157.3136 C   0  0  0  0  0  0  0  0  0  0  0  0
  146.7238  142.9388  158.4088 C   0  0  0  0  0  0  0  0  0  0  0  0
  146.0403  142.2351  159.4913 N   0  0  0  0  0  0  0  0  0  0  0  0
  145.6031  143.1507  160.5337 C   0  0  0  0  0  0  0  0  0  0  0  0
  144.9190  141.4838  158.9318 C   0  0  0  0  0  0  0  0  0  0  0  0
  145.3842  140.5105  157.8325 C   0  0  0  0  0  0  0  0  0  0  0  0
  151.2486  144.3248  158.4295 C   0  0  0  0  0  0  0  0  0  0  0  0
  152.5407  145.9472  161.1762 H   0  0  0  0  0  0  0  0  0  0  0  0
  150.9479  146.2231  160.4646 H   0  0  0  0  0  0  0  0  0  0  0  0
  152.4051  146.6988  159.5825 H   0  0  0  0  0  0  0  0  0  0  0  0
  153.4445  143.7124  160.9705 H   0  0  0  0  0  0  0  0  0  0  0  0
  154.4203  141.4983  160.6523 H   0  0  0  0  0  0  0  0  0  0  0  0
  154.2050  140.6794  159.1030 H   0  0  0  0  0  0  0  0  0  0  0  0
  153.0452  140.4145  160.4108 H   0  0  0  0  0  0  0  0  0  0  0  0
  150.1329  143.7421  156.2709 H   0  0  0  0  0  0  0  0  0  0  0  0
  148.9906  142.9379  154.8870 H   0  0  0  0  0  0  0  0  0  0  0  0
  148.8765  141.1091  153.2476 H   0  0  0  0  0  0  0  0  0  0  0  0
  148.9584  139.9735  154.5710 H   0  0  0  0  0  0  0  0  0  0  0  0
  146.6451  140.4366  153.5310 H   0  0  0  0  0  0  0  0  0  0  0  0
  146.8806  143.0351  155.1151 H   0  0  0  0  0  0  0  0  0  0  0  0
  145.4319  142.4628  154.2918 H   0  0  0  0  0  0  0  0  0  0  0  0
  146.8563  142.8928  153.3591 H   0  0  0  0  0  0  0  0  0  0  0  0
  145.7302  139.6032  155.4620 H   0  0  0  0  0  0  0  0  0  0  0  0
  147.3492  139.6959  156.0831 H   0  0  0  0  0  0  0  0  0  0  0  0
  147.9276  141.2723  157.7283 H   0  0  0  0  0  0  0  0  0  0  0  0
  147.6968  142.5232  156.5281 H   0  0  0  0  0  0  0  0  0  0  0  0
  147.5866  143.4752  158.8053 H   0  0  0  0  0  0  0  0  0  0  0  0
  146.0626  143.6895  157.9728 H   0  0  0  0  0  0  0  0  0  0  0  0
  145.1160  142.6081  161.3445 H   0  0  0  0  0  0  0  0  0  0  0  0
  144.8968  143.8847  160.1437 H   0  0  0  0  0  0  0  0  0  0  0  0
  146.4528  143.6871  160.9569 H   0  0  0  0  0  0  0  0  0  0  0  0
  144.4210  140.9225  159.7229 H   0  0  0  0  0  0  0  0  0  0  0  0
  144.1765  142.1699  158.5213 H   0  0  0  0  0  0  0  0  0  0  0  0
  144.5102  139.9816  157.4553 H   0  0  0  0  0  0  0  0  0  0  0  0
  146.0429  139.7556  158.2650 H   0  0  0  0  0  0  0  0  0  0  0  0
  150.6151  145.0990  158.0208 H   0  0  0  0  0  0  0  0  0  0  0  0
  1  2  1  0  0  0  0
  1 24  1  0  0  0  0
  1 25  1  0  0  0  0
  1 26  1  0  0  0  0
  2 23  1  0  0  0  0
  2  3  2  0  0  0  0
  3  4  1  0  0  0  0
  3 27  1  0  0  0  0
  4  5  1  0  0  0  0
  4  6  2  0  0  0  0
  5 28  1  0  0  0  0
  5 29  1  0  0  0  0
  5 30  1  0  0  0  0
  6  7  1  0  0  0  0
  7  8  1  0  0  0  0
  7 23  2  0  0  0  0
  8  9  1  0  0  0  0
  8 31  1  0  0  0  0
  9 10  2  0  0  0  0
  9 11  1  0  0  0  0
 11 12  1  0  0  0  0
 11 32  1  0  0  0  0
 12 13  1  0  0  0  0
 12 33  1  0  0  0  0
 12 34  1  0  0  0  0
 13 14  1  0  0  0  0
 13 15  1  0  0  0  0
 13 35  1  0  0  0  0
 14 36  1  0  0  0  0
 14 37  1  0  0  0  0
 14 38  1  0  0  0  0
 15 16  1  0  0  0  0
 15 39  1  0  0  0  0
 15 40  1  0  0  0  0
 16 22  1  0  0  0  0
 16 17  1  0  0  0  0
 17 18  1  0  0  0  0
 17 41  1  0  0  0  0
 17 42  1  0  0  0  0
 18 19  1  0  0  0  0
 18 43  1  0  0  0  0
 18 44  1  0  0  0  0
 19 20  1  0  0  0  0
 19 21  1  0  0  0  0
 20 45  1  0  0  0  0
 20 46  1  0  0  0  0
 20 47  1  0  0  0  0
 21 22  1  0  0  0  0
 21 48  1  0  0  0  0
 21 49  1  0  0  0  0
 22 50  1  0  0  0  0
 22 51  1  0  0  0  0
 23 52  1  0  0  0  0
M  END
> <s_m_source_file>
AV-unprocessed.smi

> <i_m_source_file_index>
2276

> <i_lp_mmshare_version>
43012

> <i_f3d_flags>
0

> <s_epik_input>
W0NIM11jMVtjSF1jKFtDSDNdKW5jKFtjSF0xKVtOSF1DKD1PKVtOSF1bQ0gyXVtDQEhdKFtDSDNdKVtDSDJdTjJbQ0gyXVtDSDJdTihbQ0gzXSlbQ0gyXVtDSDJdMg==

> <s_epik_cmdline>
J2VwaWtfcHl0aG9uJywgJy1waCcsICc3LjAnLCAnLXRuJywgJzgnLCAnLW1hJywgJzIwMCcsICctbWV0YWxfYmluZGluZycsICctaW1hZScsICc8aW5maWxlLm1hZT4nLCAnLW9tYWUnLCAnPG91dGZpbGUubWFlPic=

> <r_epik_Ionization_Penalty>
3.46991

> <r_epik_Ionization_Penalty_Charging>
0

> <r_epik_Ionization_Penalty_Neutral>
3.46991

> <r_epik_State_Penalty>
2.28006

> <r_epik_Charging_Adjusted_Penalty>
2.28006

> <i_epik_Tot_Q>
0

> <i_epik_Tot_abs_Q>
0

> <r_epik_Metal_State_Penalty>
2.28005

> <b_epik_Metal_Only>
0

> <s_lp_Force_Field>
OPLS_2005

> <r_lp_Energy>
36.9952

> <b_lp_Chiralities_Consistent>
1

> <s_lp_Variant>
AV-unprocessed.smi:2276-5

> <Gold.Version>
5.8.1

> <Gold.Id.Protein>
6NUR|6NUR_protein|mol2

> <Gold.PLP.Fitness>
51.5069

> <Gold.PLP.PLP>
-44.7537

> <Gold.PLP.part.hbond>
-3.0000

> <Gold.PLP.part.metal>
0.0000

> <Gold.PLP.part.buried>
-7.8216

> <Gold.PLP.part.nonpolar>
-35.5472

> <Gold.PLP.part.repulsive>
0.3059

> <Gold.PLP.ligand.clash>
0.0000

> <Gold.PLP.ligand.torsion>
0.8656

> <Gold.PLP.Chemscore.Hbond>
2.8120

> <Gold.PLP.Chemscore.CHOScore>
0.0000

> <Gold.PLP.Chemscore.Metal>
0.0000

> <Gold.Chemscore.Hbonds>
donor molecule, donor type, donor heavy atom, donor atom, acceptor molecule, acceptor atom, score
      L1  H     8    31       P1  8028  1.00
      L1  H    11    32       P1  8028  0.90
      P1  H  6934  6946       L1    19  0.84

> <Gold.PLP.Chemscore.Internal.Correction>
0.0484

> <Gold.Rescore>
     Score         DG    S(hbond)    S(metal)    S(lipo)     H(rot)  DE(clash)    DE(int)     intcor
     17.28     -19.49       2.01        0.00      96.73       1.57       0.00       2.21       ----

> <Gold.Chemscore.Fitness>
17.2759

> <Gold.Chemscore.DG>
-19.4926

> <Gold.Chemscore.ZeroCoef>
-5.4800

> <Gold.Chemscore.Hbond>
2.0115

> <Gold.Chemscore.Metal>
0.0000

> <Gold.Chemscore.Lipo>
96.7300

> <Gold.Chemscore.Internal_Hbond>
0.0000

> <Gold.Chemscore.DEClash>
0.0029

> <Gold.Chemscore.DEInternal>
2.2137

> <Gold.Chemscore.Rot>
1.5715

> <Gold.Chemscore.Internal.Correction>
   9.000000E+99

> <Gold.Chemscore.Hbonds>
donor molecule, donor type, donor heavy atom, donor atom, acceptor molecule, acceptor atom, score
      L1  H     8    31       P1  8028  0.97
      L1  H    11    32       P1  8028  0.86
      P1  H  6934  6946       L1    19  0.05

> <Gold.Chemscore.Hbond.Weighted>
-6.7183

> <Gold.Chemscore.Metal.Weighted>
-0.0000

> <Gold.Chemscore.Lipo.Weighted>
-11.3174

> <Gold.Chemscore.Internal_Hbond.Weighted>
0.0000

> <Gold.Chemscore.DEClash.Weighted>
0.0029

> <Gold.Chemscore.DEInternal.Weighted>
2.2137

> <Gold.Chemscore.Rot.Weighted>
4.0231

> <Gold.Chemscore.Internal.Correction.Weighted>
   9.000000E+99

> <Gold.Protein.RotatedTorsions>
[ 6907 6896 6895 6894 ] final -109.37 input  -60.11 | X-H torsion
[ 7974 7965 7964 7962 ] final   62.24 input  175.53 | X-H torsion
[ 8008 7997 7996 7995 ] final -107.91 input   59.86 | X-H torsion
[ 10167 10162 10161 10158 ] final   98.90 input  -65.29 | X-H torsion
[ 10718 10713 10712 10709 ] final  -49.87 input   66.30 | X-H torsion
[ 10763 10752 10751 10750 ] final -151.87 input  -60.55 | X-H torsion
[ 11005 11000 10999 10996 ] final   11.29 input  -57.11 | X-H torsion

> <Gold.Protein.ActiveResidues>
 VAL166  LYS551  ARG553  GLY616  TRP617  ASP618  TYR619  PRO620  LYS621  CYS622 
 ASP623  PHE694  ASN695  SER759  ASP760  ASP761  ALA762  ILE779  LEU786  VAL792 
 PHE793  MET794  SER795  GLU796  ALA797  LYS798  CYS799  TRP800  GLU811  SER814 

> <Gold.Protein.RotatedAtoms>
  150.7558  133.9539  159.3494 H   0  0  0  0  0  0  0  0  0  0  0  0  # atno 6907 bound_to 6896
  151.7459  135.0842  160.0332 H   0  0  0  0  0  0  0  0  0  0  0  0  # atno 6908 bound_to 6896
  152.3498  133.6129  159.5972 H   0  0  0  0  0  0  0  0  0  0  0  0  # atno 6909 bound_to 6896
  145.8756  139.3408  143.0736 H   0  0  0  0  0  0  0  0  0  0  0  0  # atno 7974 bound_to 7965
  154.9364  140.0404  157.2074 H   0  0  0  0  0  0  0  0  0  0  0  0  # atno 8008 bound_to 7997
  154.8111  140.2868  155.5831 H   0  0  0  0  0  0  0  0  0  0  0  0  # atno 8009 bound_to 7997
  156.2971  140.2537  156.3000 H   0  0  0  0  0  0  0  0  0  0  0  0  # atno 8010 bound_to 7997
  139.7666  144.6936  151.0216 H   0  0  0  0  0  0  0  0  0  0  0  0  # atno 10167 bound_to 10162
  156.1853  130.4151  149.9448 H   0  0  0  0  0  0  0  0  0  0  0  0  # atno 10718 bound_to 10713
  154.8031  135.3250  154.7501 H   0  0  0  0  0  0  0  0  0  0  0  0  # atno 10763 bound_to 10752
  153.8165  135.6891  153.4837 H   0  0  0  0  0  0  0  0  0  0  0  0  # atno 10764 bound_to 10752
  153.1759  135.4605  154.9908 H   0  0  0  0  0  0  0  0  0  0  0  0  # atno 10765 bound_to 10752
  140.5049  134.0709  155.7803 H   0  0  0  0  0  0  0  0  0  0  0  0  # atno 11005 bound_to 11000
  145.9085  140.9196  143.0466 LP  0  0  0  0  0  0  0  0  0  0  0  0  # atno 17320 bound_to 7965
  144.6726  140.1128  143.7454 LP  0  0  0  0  0  0  0  0  0  0  0  0  # atno 17321 bound_to 7965
  140.7811  143.4636  151.0244 LP  0  0  0  0  0  0  0  0  0  0  0  0  # atno 17342 bound_to 10162
  139.8321  143.7677  152.3180 LP  0  0  0  0  0  0  0  0  0  0  0  0  # atno 17343 bound_to 10162
  156.7206  130.9005  151.3618 LP  0  0  0  0  0  0  0  0  0  0  0  0  # atno 17370 bound_to 10713
  157.6895  130.9219  150.0475 LP  0  0  0  0  0  0  0  0  0  0  0  0  # atno 17371 bound_to 10713
  141.1416  133.9128  157.2312 LP  0  0  0  0  0  0  0  0  0  0  0  0  # atno 17394 bound_to 11000
  139.9692  135.0133  156.9467 LP  0  0  0  0  0  0  0  0  0  0  0  0  # atno 17395 bound_to 11000

$$$$
