AV-unprocessed.smi:527|AV-procd|sdf|2820|dock6
  -GOLD-   2262023303D 1   1.00000     0.00000
 Structure written by MMmdl.
 42 43  0  0  0  0  0  0  0  0  1 V2000
  150.4405  141.0568  155.7588 C   0  0  0  0  0  0  0  0  0  0  0  0
  149.0366  140.6172  155.3030 C   0  0  1  0  0  0  0  0  0  0  0  0
  148.5428  141.5559  154.1837 C   0  0  0  0  0  0  0  0  0  0  0  0
  147.1328  141.1873  153.7105 C   0  0  0  0  0  0  0  0  0  0  0  0
  147.0887  139.7344  153.2289 C   0  0  0  0  0  0  0  0  0  0  0  0
  147.5602  138.7640  154.3295 C   0  0  1  0  0  0  0  0  0  0  0  0
  147.5395  137.3967  153.8107 N   0  0  0  0  0  0  0  0  0  0  0  0
  146.5736  136.4937  154.0355 C   0  0  0  0  0  0  0  0  0  0  0  0
  145.6691  136.6597  154.8568 O   0  0  0  0  0  0  0  0  0  0  0  0
  146.7367  135.4086  153.2539 N   0  0  0  0  0  0  0  0  0  0  0  0
  145.9256  134.3354  153.1559 C   0  0  0  0  0  0  0  0  0  0  0  0
  144.8734  134.1874  153.7831 O   0  0  0  0  0  0  0  0  0  0  0  0
  146.4089  133.2545  152.1795 C   0  0  0  0  0  0  0  0  0  0  0  0
  145.3540  132.7549  151.3138 N   0  0  0  0  0  0  0  0  0  0  0  0
  144.0077  133.0969  151.3478 C   0  0  0  0  0  0  0  0  0  0  0  0
  143.3953  132.3820  150.3431 C   0  0  0  0  0  0  0  0  0  0  0  0
  144.3385  131.5976  149.6836 N   0  0  0  0  0  0  0  0  0  0  0  0
  145.4742  131.8729  150.3116 C   0  0  0  0  0  0  0  0  0  0  0  0
  148.9759  139.1287  154.8545 C   0  0  2  0  0  0  0  0  0  0  0  0
  149.4119  138.1674  155.9825 C   0  0  0  0  0  0  0  0  0  0  0  0
  151.1847  140.8799  154.9817 H   0  0  0  0  0  0  0  0  0  0  0  0
  150.7609  140.5319  156.6580 H   0  0  0  0  0  0  0  0  0  0  0  0
  150.4585  142.1209  155.9957 H   0  0  0  0  0  0  0  0  0  0  0  0
  148.3645  140.7401  156.1536 H   0  0  0  0  0  0  0  0  0  0  0  0
  148.5441  142.5885  154.5345 H   0  0  0  0  0  0  0  0  0  0  0  0
  149.2316  141.5180  153.3385 H   0  0  0  0  0  0  0  0  0  0  0  0
  146.4204  141.3293  154.5241 H   0  0  0  0  0  0  0  0  0  0  0  0
  146.8232  141.8548  152.9059 H   0  0  0  0  0  0  0  0  0  0  0  0
  146.0727  139.4883  152.9179 H   0  0  0  0  0  0  0  0  0  0  0  0
  147.7174  139.6255  152.3439 H   0  0  0  0  0  0  0  0  0  0  0  0
  146.8661  138.8332  155.1699 H   0  0  0  0  0  0  0  0  0  0  0  0
  148.3307  137.1162  153.2502 H   0  0  0  0  0  0  0  0  0  0  0  0
  147.5649  135.3940  152.6774 H   0  0  0  0  0  0  0  0  0  0  0  0
  147.2104  133.6555  151.5573 H   0  0  0  0  0  0  0  0  0  0  0  0
  146.8243  132.4175  152.7420 H   0  0  0  0  0  0  0  0  0  0  0  0
  143.6088  133.8036  152.0607 H   0  0  0  0  0  0  0  0  0  0  0  0
  142.3573  132.3731  150.0455 H   0  0  0  0  0  0  0  0  0  0  0  0
  146.4164  131.4225  150.0354 H   0  0  0  0  0  0  0  0  0  0  0  0
  149.6782  139.0034  154.0286 H   0  0  0  0  0  0  0  0  0  0  0  0
  148.7763  138.2774  156.8616 H   0  0  0  0  0  0  0  0  0  0  0  0
  150.4418  138.3425  156.2903 H   0  0  0  0  0  0  0  0  0  0  0  0
  149.3633  137.1244  155.6708 H   0  0  0  0  0  0  0  0  0  0  0  0
  1  2  1  0  0  0  0
  1 21  1  0  0  0  0
  1 22  1  0  0  0  0
  1 23  1  0  0  0  0
  2 19  1  0  0  0  0
  2  3  1  0  0  0  0
  2 24  1  0  0  0  0
  3  4  1  0  0  0  0
  3 25  1  0  0  0  0
  3 26  1  0  0  0  0
  4  5  1  0  0  0  0
  4 27  1  0  0  0  0
  4 28  1  0  0  0  0
  5  6  1  0  0  0  0
  5 29  1  0  0  0  0
  5 30  1  0  0  0  0
  6  7  1  0  0  0  0
  6 19  1  0  0  0  0
  6 31  1  0  0  0  0
  7  8  1  0  0  0  0
  7 32  1  0  0  0  0
  8  9  2  0  0  0  0
  8 10  1  0  0  0  0
 10 11  1  0  0  0  0
 10 33  1  0  0  0  0
 11 12  2  0  0  0  0
 11 13  1  0  0  0  0
 13 14  1  0  0  0  0
 13 34  1  0  0  0  0
 13 35  1  0  0  0  0
 14 18  1  0  0  0  0
 14 15  1  0  0  0  0
 15 16  2  0  0  0  0
 15 36  1  0  0  0  0
 16 17  1  0  0  0  0
 16 37  1  0  0  0  0
 17 18  2  0  0  0  0
 18 38  1  0  0  0  0
 19 20  1  0  0  0  0
 19 39  1  0  0  0  0
 20 40  1  0  0  0  0
 20 41  1  0  0  0  0
 20 42  1  0  0  0  0
M  END
> <s_m_source_file>
AV-unprocessed.smi

> <i_m_source_file_index>
527

> <i_lp_mmshare_version>
43012

> <i_f3d_flags>
0

> <s_epik_input>
W0NIM11bQ0BASF0xW0NIMl1bQ0gyXVtDSDJdW0NASF0oW0NASF0xW0NIM10pW05IXUMoPU8pW05IXUMoPU8pW0NIMl1uMltjSF1bY0hdbltjSF0y

> <s_epik_cmdline>
J2VwaWtfcHl0aG9uJywgJy1waCcsICc3LjAnLCAnLXRuJywgJzgnLCAnLW1hJywgJzIwMCcsICctbWV0YWxfYmluZGluZycsICctaW1hZScsICc8aW5maWxlLm1hZT4nLCAnLW9tYWUnLCAnPG91dGZpbGUubWFlPic=

> <r_lp_tautomer_probability>
1

> <r_epik_Ionization_Penalty>
0.172132

> <r_epik_Ionization_Penalty_Charging>
0.172105

> <r_epik_Ionization_Penalty_Neutral>
2.71747e-05

> <r_epik_State_Penalty>
0.161503

> <r_epik_Charging_Adjusted_Penalty>
0.333607

> <i_epik_Tot_Q>
0

> <i_epik_Tot_abs_Q>
0

> <r_epik_Metal_State_Penalty>
0.124763

> <b_epik_Metal_Only>
0

> <s_lp_Force_Field>
OPLS_2005

> <r_lp_Energy>
15.9673

> <b_lp_Chiralities_Consistent>
1

> <s_lp_Variant>
AV-unprocessed.smi:527-6

> <Gold.Version>
5.8.1

> <Gold.Id.Protein>
6NUR|6NUR_protein|mol2

> <Gold.PLP.Fitness>
45.2453

> <Gold.PLP.PLP>
-30.6634

> <Gold.PLP.part.hbond>
-3.0000

> <Gold.PLP.part.metal>
0.0000

> <Gold.PLP.part.buried>
-1.0103

> <Gold.PLP.part.nonpolar>
-26.6061

> <Gold.PLP.part.repulsive>
0.2746

> <Gold.PLP.ligand.clash>
0.0000

> <Gold.PLP.ligand.torsion>
0.4772

> <Gold.PLP.Chemscore.Hbond>
2.4662

> <Gold.PLP.Chemscore.CHOScore>
2.7053

> <Gold.PLP.Chemscore.Metal>
0.0000

> <Gold.Chemscore.Hbonds>
donor molecule, donor type, donor heavy atom, donor atom, acceptor molecule, acceptor atom, score
      L1  H     7    32       P1  7948  0.99
      L1  H    10    33       P1  7948  1.00
      P1  H 10785 10796       L1    17  0.50
      L1  C    16    37       P1 10186  0.91
      L1  C    16    37       P1 10952  0.88
      L1  C    18    38       P1 10747  0.78

> <Gold.PLP.Chemscore.Internal.Correction>
0.0216

> <Gold.Rescore>
     Score         DG    S(hbond)    S(metal)    S(lipo)     H(rot)  DE(clash)    DE(int)     intcor
     14.71     -18.18       2.76        0.00      66.09       1.66       0.38       3.10       ----

> <Gold.Chemscore.Fitness>
14.7055

> <Gold.Chemscore.DG>
-18.1811

> <Gold.Chemscore.ZeroCoef>
-5.4800

> <Gold.Chemscore.Hbond>
2.7622

> <Gold.Chemscore.Metal>
0.0000

> <Gold.Chemscore.Lipo>
66.0881

> <Gold.Chemscore.Internal_Hbond>
0.0000

> <Gold.Chemscore.DEClash>
0.3776

> <Gold.Chemscore.DEInternal>
3.0980

> <Gold.Chemscore.Rot>
1.6629

> <Gold.Chemscore.Internal.Correction>
   9.000000E+99

> <Gold.Chemscore.Hbonds>
donor molecule, donor type, donor heavy atom, donor atom, acceptor molecule, acceptor atom, score
      L1  H     7    32       P1  7948  0.93
      L1  H    10    33       P1  7948  0.97
      P1  H 10785 10796       L1    17  0.24

> <Gold.Chemscore.Hbond.Weighted>
-9.2257

> <Gold.Chemscore.Metal.Weighted>
-0.0000

> <Gold.Chemscore.Lipo.Weighted>
-7.7323

> <Gold.Chemscore.Internal_Hbond.Weighted>
0.0000

> <Gold.Chemscore.DEClash.Weighted>
0.3776

> <Gold.Chemscore.DEInternal.Weighted>
3.0980

> <Gold.Chemscore.Rot.Weighted>
4.2569

> <Gold.Chemscore.Internal.Correction.Weighted>
   9.000000E+99

> <Gold.Protein.RotatedTorsions>
[ 6907 6896 6895 6894 ] final  -99.09 input  -60.11 | X-H torsion
[ 7974 7965 7964 7962 ] final  172.14 input  175.53 | X-H torsion
[ 8008 7997 7996 7995 ] final    8.31 input   59.86 | X-H torsion
[ 10167 10162 10161 10158 ] final  -91.78 input  -65.29 | X-H torsion
[ 10718 10713 10712 10709 ] final   47.40 input   66.30 | X-H torsion
[ 10763 10752 10751 10750 ] final   77.61 input  -60.55 | X-H torsion
[ 11005 11000 10999 10996 ] final  -20.27 input  -57.11 | X-H torsion

> <Gold.Protein.ActiveResidues>
 VAL166  LYS551  ARG553  GLY616  TRP617  ASP618  TYR619  PRO620  LYS621  CYS622 
 ASP623  PHE694  ASN695  SER759  ASP760  ASP761  ALA762  ILE779  LEU786  VAL792 
 PHE793  MET794  SER795  GLU796  ALA797  LYS798  CYS799  TRP800  GLU811  SER814 

> <Gold.Protein.RotatedAtoms>
  150.7068  134.1095  159.3994 H   0  0  0  0  0  0  0  0  0  0  0  0  # atno 6907 bound_to 6896
  151.9081  135.0348  160.0521 H   0  0  0  0  0  0  0  0  0  0  0  0  # atno 6908 bound_to 6896
  152.2358  133.5060  159.5278 H   0  0  0  0  0  0  0  0  0  0  0  0  # atno 6909 bound_to 6896
  144.7276  139.9455  143.6430 H   0  0  0  0  0  0  0  0  0  0  0  0  # atno 7974 bound_to 7965
  154.7651  140.2792  155.6182 H   0  0  0  0  0  0  0  0  0  0  0  0  # atno 8008 bound_to 7997
  156.2923  140.2652  156.2367 H   0  0  0  0  0  0  0  0  0  0  0  0  # atno 8009 bound_to 7997
  154.9969  140.0373  157.2333 H   0  0  0  0  0  0  0  0  0  0  0  0  # atno 8010 bound_to 7997
  140.3414  143.2940  151.9831 H   0  0  0  0  0  0  0  0  0  0  0  0  # atno 10167 bound_to 10162
  157.4580  130.8179  149.7857 H   0  0  0  0  0  0  0  0  0  0  0  0  # atno 10718 bound_to 10713
  153.0811  135.4908  154.8505 H   0  0  0  0  0  0  0  0  0  0  0  0  # atno 10763 bound_to 10752
  154.7152  135.3028  154.9137 H   0  0  0  0  0  0  0  0  0  0  0  0  # atno 10764 bound_to 10752
  153.9818  135.6789  153.4803 H   0  0  0  0  0  0  0  0  0  0  0  0  # atno 10765 bound_to 10752
  140.8448  133.7900  155.9900 H   0  0  0  0  0  0  0  0  0  0  0  0  # atno 11005 bound_to 11000
  146.0752  139.3740  143.0498 LP  0  0  0  0  0  0  0  0  0  0  0  0  # atno 17320 bound_to 7965
  145.7915  140.9812  143.1046 LP  0  0  0  0  0  0  0  0  0  0  0  0  # atno 17321 bound_to 7965
  139.4840  144.6153  151.7357 LP  0  0  0  0  0  0  0  0  0  0  0  0  # atno 17342 bound_to 10162
  140.5305  144.0738  150.6052 LP  0  0  0  0  0  0  0  0  0  0  0  0  # atno 17343 bound_to 10162
  156.0016  130.3877  150.2585 LP  0  0  0  0  0  0  0  0  0  0  0  0  # atno 17370 bound_to 10713
  157.0761  131.0130  151.3173 LP  0  0  0  0  0  0  0  0  0  0  0  0  # atno 17371 bound_to 10713
  140.8855  134.2559  157.5122 LP  0  0  0  0  0  0  0  0  0  0  0  0  # atno 17394 bound_to 11000
  139.8703  134.9636  156.4467 LP  0  0  0  0  0  0  0  0  0  0  0  0  # atno 17395 bound_to 11000

$$$$
