AV-unprocessed.smi:2886|AV-procd|sdf|11088|dock4
  -GOLD-   2272015563D 1   1.00000     0.00000
 Structure written by MMmdl.
 28 30  0  0  0  0  0  0  0  0  1 V2000
  151.6052  137.2557  160.0142 O   0  0  0  0  0  0  0  0  0  0  0  0
  151.6657  137.9474  158.9996 C   0  0  0  0  0  0  0  0  0  0  0  0
  152.7571  138.6979  158.7199 N   0  0  0  0  0  0  0  0  0  0  0  0
  152.9325  139.5124  157.6278 N   0  0  0  0  0  0  0  0  0  0  0  0
  151.9837  139.5851  156.7581 C   0  0  0  0  0  0  0  0  0  0  0  0
  150.7375  138.8360  156.8819 C   0  0  0  0  0  0  0  0  0  0  0  0
  149.7158  138.9157  155.9445 N   0  0  0  0  0  0  0  0  0  0  0  0
  149.6625  139.7043  154.7209 C   0  0  1  0  0  0  0  0  0  0  0  0
  148.3313  139.5727  153.9800 C   0  0  0  0  0  0  0  0  0  0  0  0
  147.9180  141.0436  153.8241 C   0  0  1  0  0  0  0  0  0  0  0  0
  147.4118  141.6287  155.1488 C   0  0  0  0  0  0  0  0  0  0  0  0
  148.7082  141.7603  155.9461 C   0  0  0  0  0  0  0  0  0  0  0  0
  149.7503  141.2228  154.9506 C   0  0  2  0  0  0  0  0  0  0  0  0
  149.1848  141.6757  153.7318 O   0  0  0  0  0  0  0  0  0  0  0  0
  150.6048  138.0526  157.9882 C   0  0  0  0  0  0  0  0  0  0  0  0
  149.1606  137.1316  158.2449 Cl  0  0  0  0  0  0  0  0  0  0  0  0
  153.5393  138.6877  159.3587 H   0  0  0  0  0  0  0  0  0  0  0  0
  152.0747  140.2255  155.8816 H   0  0  0  0  0  0  0  0  0  0  0  0
  148.9650  138.2468  156.0431 H   0  0  0  0  0  0  0  0  0  0  0  0
  150.4560  139.3949  154.0407 H   0  0  0  0  0  0  0  0  0  0  0  0
  148.4834  139.1039  153.0074 H   0  0  0  0  0  0  0  0  0  0  0  0
  147.5822  138.9932  154.5217 H   0  0  0  0  0  0  0  0  0  0  0  0
  147.2575  141.2309  152.9770 H   0  0  0  0  0  0  0  0  0  0  0  0
  146.9583  142.6083  154.9931 H   0  0  0  0  0  0  0  0  0  0  0  0
  146.6778  140.9851  155.6348 H   0  0  0  0  0  0  0  0  0  0  0  0
  148.9048  142.8077  156.1770 H   0  0  0  0  0  0  0  0  0  0  0  0
  148.6886  141.2079  156.8858 H   0  0  0  0  0  0  0  0  0  0  0  0
  150.7633  141.5813  155.1357 H   0  0  0  0  0  0  0  0  0  0  0  0
  1  2  2  0  0  0  0
  2 15  1  0  0  0  0
  2  3  1  0  0  0  0
  3 17  1  0  0  0  0
  3  4  1  0  0  0  0
  4  5  2  0  0  0  0
  5  6  1  0  0  0  0
  5 18  1  0  0  0  0
  6  7  1  0  0  0  0
  6 15  2  0  0  0  0
  7  8  1  0  0  0  0
  7 19  1  0  0  0  0
  8 13  1  0  0  0  0
  8  9  1  0  0  0  0
  8 20  1  0  0  0  0
  9 10  1  0  0  0  0
  9 21  1  0  0  0  0
  9 22  1  0  0  0  0
 10 14  1  0  0  0  0
 10 11  1  0  0  0  0
 10 23  1  0  0  0  0
 11 12  1  0  0  0  0
 11 24  1  0  0  0  0
 11 25  1  0  0  0  0
 12 13  1  0  0  0  0
 12 26  1  0  0  0  0
 12 27  1  0  0  0  0
 13 14  1  0  0  0  0
 13 28  1  0  0  0  0
 15 16  1  0  0  0  0
M  END
> <s_m_source_file>
AV-unprocessed.smi

> <i_m_source_file_index>
2886

> <i_lp_mmshare_version>
43012

> <i_f3d_flags>
0

> <s_epik_input>
Tz1jMVtuSF1uW2NIXWMoYzFDbClbTkhdW0NASF0oW0NIMl1bQ0BASF0yMylbQ0BASF0oTzMpW0NIMl1bQ0gyXTI=

> <s_epik_cmdline>
J2VwaWtfcHl0aG9uJywgJy1waCcsICc3LjAnLCAnLXRuJywgJzgnLCAnLW1hJywgJzIwMCcsICctbWV0YWxfYmluZGluZycsICctaW1hZScsICc8aW5maWxlLm1hZT4nLCAnLW9tYWUnLCAnPG91dGZpbGUubWFlPic=

> <r_lp_tautomer_probability>
0.986175

> <r_epik_Ionization_Penalty>
0.000975594

> <r_epik_Ionization_Penalty_Charging>
0.000940184

> <r_epik_Ionization_Penalty_Neutral>
3.54099e-05

> <r_epik_State_Penalty>
0.00620319

> <r_epik_Charging_Adjusted_Penalty>
0.00714337

> <i_epik_Tot_Q>
0

> <i_epik_Tot_abs_Q>
0

> <r_epik_Metal_State_Penalty>
0.287699

> <b_epik_Metal_Only>
0

> <s_lp_Force_Field>
OPLS_2005

> <r_lp_Energy>
55.2825

> <b_lp_Chiralities_Consistent>
1

> <s_lp_Variant>
AV-unprocessed.smi:2886-2

> <Gold.Version>
5.8.1

> <Gold.Id.Protein>
6NUR|6NUR_protein|mol2

> <Gold.PLP.Fitness>
29.5809

> <Gold.PLP.PLP>
-21.6138

> <Gold.PLP.part.hbond>
-4.0000

> <Gold.PLP.part.metal>
0.0000

> <Gold.PLP.part.buried>
0.6015

> <Gold.PLP.part.nonpolar>
-16.6427

> <Gold.PLP.part.repulsive>
0.3202

> <Gold.PLP.ligand.clash>
0.0000

> <Gold.PLP.ligand.torsion>
0.0049

> <Gold.PLP.Chemscore.Hbond>
2.6560

> <Gold.PLP.Chemscore.CHOScore>
0.0000

> <Gold.PLP.Chemscore.Metal>
0.0000

> <Gold.Chemscore.Hbonds>
donor molecule, donor type, donor heavy atom, donor atom, acceptor molecule, acceptor atom, score
      P1  H  6896  6908       L1     1  0.80
      P1  H  7997  8008       L1     4  1.00
      P1  H  8011  8017       L1    14  0.67

> <Gold.PLP.Chemscore.Internal.Correction>
0.0090

> <Gold.Rescore>
     Score         DG    S(hbond)    S(metal)    S(lipo)     H(rot)  DE(clash)    DE(int)     intcor
     17.82     -18.02       2.68        0.00      52.48       1.00       0.19       0.01       ----

> <Gold.Chemscore.Fitness>
17.8180

> <Gold.Chemscore.DG>
-18.0158

> <Gold.Chemscore.ZeroCoef>
-5.4800

> <Gold.Chemscore.Hbond>
2.6814

> <Gold.Chemscore.Metal>
0.0000

> <Gold.Chemscore.Lipo>
52.4783

> <Gold.Chemscore.Internal_Hbond>
0.0000

> <Gold.Chemscore.DEClash>
0.1916

> <Gold.Chemscore.DEInternal>
0.0063

> <Gold.Chemscore.Rot>
1.0000

> <Gold.Chemscore.Internal.Correction>
   9.000000E+99

> <Gold.Chemscore.Hbonds>
donor molecule, donor type, donor heavy atom, donor atom, acceptor molecule, acceptor atom, score
      P1  H  6896  6908       L1     1  0.78
      P1  H  7997  8008       L1     4  0.90
      P1  H  8011  8017       L1    14  0.68

> <Gold.Chemscore.Hbond.Weighted>
-8.9558

> <Gold.Chemscore.Metal.Weighted>
-0.0000

> <Gold.Chemscore.Lipo.Weighted>
-6.1400

> <Gold.Chemscore.Internal_Hbond.Weighted>
0.0000

> <Gold.Chemscore.DEClash.Weighted>
0.1916

> <Gold.Chemscore.DEInternal.Weighted>
0.0063

> <Gold.Chemscore.Rot.Weighted>
2.5600

> <Gold.Chemscore.Internal.Correction.Weighted>
   9.000000E+99

> <Gold.Protein.RotatedTorsions>
[ 6907 6896 6895 6894 ] final -107.82 input  -60.11 | X-H torsion
[ 7974 7965 7964 7962 ] final -147.67 input  175.53 | X-H torsion
[ 8008 7997 7996 7995 ] final  -88.99 input   59.86 | X-H torsion
[ 10167 10162 10161 10158 ] final  141.56 input  -65.29 | X-H torsion
[ 10718 10713 10712 10709 ] final   91.62 input   66.30 | X-H torsion
[ 10763 10752 10751 10750 ] final   91.19 input  -60.55 | X-H torsion
[ 11005 11000 10999 10996 ] final  125.31 input  -57.11 | X-H torsion

> <Gold.Protein.ActiveResidues>
 VAL166  LYS551  ARG553  GLY616  TRP617  ASP618  TYR619  PRO620  LYS621  CYS622 
 ASP623  PHE694  ASN695  SER759  ASP760  ASP761  ALA762  ILE779  LEU786  VAL792 
 PHE793  MET794  SER795  GLU796  ALA797  LYS798  CYS799  TRP800  GLU811  SER814 

> <Gold.Protein.RotatedAtoms>
  150.7466  133.9770  159.3563 H   0  0  0  0  0  0  0  0  0  0  0  0  # atno 6907 bound_to 6896
  151.7708  135.0785  160.0369 H   0  0  0  0  0  0  0  0  0  0  0  0  # atno 6908 bound_to 6896
  152.3340  133.5954  159.5866 H   0  0  0  0  0  0  0  0  0  0  0  0  # atno 6909 bound_to 6896
  144.8078  140.5296  143.5663 H   0  0  0  0  0  0  0  0  0  0  0  0  # atno 7974 bound_to 7965
  154.6813  140.0547  157.0269 H   0  0  0  0  0  0  0  0  0  0  0  0  # atno 8008 bound_to 7997
  155.0947  140.3223  155.4545 H   0  0  0  0  0  0  0  0  0  0  0  0  # atno 8009 bound_to 7997
  156.2695  140.2042  156.6074 H   0  0  0  0  0  0  0  0  0  0  0  0  # atno 8010 bound_to 7997
  139.5017  144.6163  151.6155 H   0  0  0  0  0  0  0  0  0  0  0  0  # atno 10167 bound_to 10162
  157.6960  131.0414  150.3757 H   0  0  0  0  0  0  0  0  0  0  0  0  # atno 10718 bound_to 10713
  153.2056  135.4406  155.0319 H   0  0  0  0  0  0  0  0  0  0  0  0  # atno 10763 bound_to 10752
  154.8172  135.3320  154.7146 H   0  0  0  0  0  0  0  0  0  0  0  0  # atno 10764 bound_to 10752
  153.7588  135.6993  153.4985 H   0  0  0  0  0  0  0  0  0  0  0  0  # atno 10765 bound_to 10752
  139.9400  134.9636  156.8539 H   0  0  0  0  0  0  0  0  0  0  0  0  # atno 11005 bound_to 11000
  145.5396  139.1475  143.3454 LP  0  0  0  0  0  0  0  0  0  0  0  0  # atno 17320 bound_to 7965
  146.2372  140.5535  142.8949 LP  0  0  0  0  0  0  0  0  0  0  0  0  # atno 17321 bound_to 7965
  140.5852  143.9876  150.6291 LP  0  0  0  0  0  0  0  0  0  0  0  0  # atno 17342 bound_to 10162
  140.3038  143.3243  152.0946 LP  0  0  0  0  0  0  0  0  0  0  0  0  # atno 17343 bound_to 10162
  156.4177  130.3946  149.6847 LP  0  0  0  0  0  0  0  0  0  0  0  0  # atno 17370 bound_to 10713
  156.4109  130.7721  151.2734 LP  0  0  0  0  0  0  0  0  0  0  0  0  # atno 17371 bound_to 10713
  140.5976  134.0202  155.7524 LP  0  0  0  0  0  0  0  0  0  0  0  0  # atno 17394 bound_to 11000
  141.1031  133.9737  157.3045 LP  0  0  0  0  0  0  0  0  0  0  0  0  # atno 17395 bound_to 11000

$$$$
