#       Name:                AV-unprocessed.smi:2404
#       Creating user name   scv26
#       Creation time:       Fri Mar 27 13:14:05 2020


#       File generated by GOLD software.
#

@<TRIPOS>MOLECULE
AV-unprocessed.smi:2404
    49    49     1
SMALL
NO_CHARGES


@<TRIPOS>ATOM
      1 ****        -2.7204  -1.2893  -3.1400 C.3            1 S1                 0.0000
      2 ****        -1.2946  -0.7088  -3.1918 C.3            1 S1                 0.0000
      3 ****        -0.6938  -0.2285  -1.8362 C.3            1 S1                 0.0000
      4 ****        -0.6441  -1.3922  -0.7910 C.3            1 S1                 0.0000
      5 ****         0.1418  -2.6479  -1.2062 C.3            1 S1                 0.0000
      6 ****         0.7379   0.3286  -2.1113 C.3            1 S1                 0.0000
      7 ****         1.3492   0.9466  -0.9360 N.am           1 S1                 0.0000
      8 ****         2.3818   0.4590  -0.2316 C.2            1 S1                 0.0000
      9 ****         3.0556  -0.5089  -0.5834 O.2            1 S1                 0.0000
     10 ****         2.6783   1.1542   1.0988 C.3            1 S1                 0.0000
     11 ****         1.5087   1.1348   1.9659 N.pl3          1 S1                 0.0000
     12 ****         0.7464   2.2456   2.0664 N.2            1 S1                 0.0000
     13 ****        -0.2503   1.9025   2.8650 C.2            1 S1                 0.0000
     14 ****        -1.3231   2.9033   3.1762 C.3            1 S1                 0.0000
     15 ****        -0.1393   0.5585   3.3189 C.2            1 S1                 0.0000
     16 ****         0.9976   0.0933   2.7208 C.2            1 S1                 0.0000
     17 ****         1.6379  -1.2544   2.7857 C.3            1 S1                 0.0000
     18 ****        -1.5686   0.9344  -1.2793 C.2            1 S1                 0.0000
     19 ****        -2.0035   0.8585  -0.1077 O.co2          1 S1                 0.0000
     20 ****        -1.7772   1.9055  -2.0408 O.co2          1 S1                -1.0000
     21 ****        -3.0522  -1.5701  -4.1396 H              1 S1                 0.0000
     22 ****        -3.4406  -0.5694  -2.7508 H              1 S1                 0.0000
     23 ****        -2.7696  -2.1845  -2.5210 H              1 S1                 0.0000
     24 ****        -0.6358  -1.4530  -3.6392 H              1 S1                 0.0000
     25 ****        -1.2941   0.1176  -3.9043 H              1 S1                 0.0000
     26 ****        -0.2180  -1.0308   0.1453 H              1 S1                 0.0000
     27 ****        -1.6570  -1.7053  -0.5349 H              1 S1                 0.0000
     28 ****         0.1273  -3.3837  -0.4021 H              1 S1                 0.0000
     29 ****         1.1868  -2.4256  -1.4173 H              1 S1                 0.0000
     30 ****        -0.2892  -3.1245  -2.0858 H              1 S1                 0.0000
     31 ****         1.3813  -0.4462  -2.5288 H              1 S1                 0.0000
     32 ****         0.6937   1.0991  -2.8823 H              1 S1                 0.0000
     33 ****         0.8671   1.7497  -0.5564 H              1 S1                 0.0000
     34 ****         3.5060   0.6603   1.6090 H              1 S1                 0.0000
     35 ****         2.9831   2.1855   0.9144 H              1 S1                 0.0000
     36 ****        -2.0600   2.4895   3.8647 H              1 S1                 0.0000
     37 ****        -1.8494   3.2050   2.2701 H              1 S1                 0.0000
     38 ****        -0.9048   3.7991   3.6356 H              1 S1                 0.0000
     39 ****        -0.8034   0.0135   3.9729 H              1 S1                 0.0000
     40 ****         1.1203  -1.8967   3.4984 H              1 S1                 0.0000
     41 ****         2.6792  -1.1775   3.0986 H              1 S1                 0.0000
     42 ****         1.6104  -1.7448   1.8124 H              1 S1                 0.0000
     43 ****         2.8448  -0.9801  -1.4399 LP             1 S1                 0.0000
     44 ****         3.8138  -0.8243  -0.0128 LP             1 S1                 0.0000
     45 ****         0.9017   3.1328   1.6321 LP             1 S1                 0.0000
     46 ****        -2.5538   1.6029   0.2706 LP             1 S1                 0.0000
     47 ****        -1.8007   0.0534   0.4497 LP             1 S1                 0.0000
     48 ****        -2.3204   2.6825  -1.7229 LP             1 S1                 0.0000
     49 ****        -1.4007   1.9043  -2.9672 LP             1 S1                 0.0000
@<TRIPOS>BOND
    1    1    2 1     
    2    1   21 1     
    3    1   22 1     
    4    1   23 1     
    5    2    3 1     
    6    2   24 1     
    7    2   25 1     
    8    3    4 1     
    9    3    6 1     
   10    3   18 1     
   11    4    5 1     
   12    4   26 1     
   13    4   27 1     
   14    5   28 1     
   15    5   29 1     
   16    5   30 1     
   17    6    7 1     
   18    6   31 1     
   19    6   32 1     
   20    7    8 am    
   21    7   33 1     
   22    8    9 2     
   23    8   10 1     
   24   10   11 1     
   25   10   34 1     
   26   10   35 1     
   27   11   16 1     
   28   11   12 1     
   29   12   13 2     
   30   13   14 1     
   31   13   15 1     
   32   14   36 1     
   33   14   37 1     
   34   14   38 1     
   35   15   16 2     
   36   15   39 1     
   37   16   17 1     
   38   17   40 1     
   39   17   41 1     
   40   17   42 1     
   41   18   19 ar    
   42   18   20 ar    
   43    9   43 1     
   44    9   44 1     
   45   12   45 1     
   46   19   46 1     
   47   19   47 1     
   48   20   48 1     
   49   20   49 1     
@<TRIPOS>SUBSTRUCTURE
      1 S1             1
@<TRIPOS>SET
LONE_PAIRS      STATIC     ATOMS    <user>   **** ""
7 43 44 45 46 47 48 49
DONOR_HYDROGENS      STATIC     ATOMS    <user>   **** ""
1 33
ATOM$BLUE        STATIC     ATOMS    COLORGROUP SYSTEM
7 43 44 45 46 47 48 49
ATOM$RED        STATIC     ATOMS    COLORGROUP SYSTEM
1 33
