#       Name:                AV-unprocessed.smi:1493
#       Creating user name   scv26
#       Creation time:       Fri Mar 27 06:16:47 2020


#       File generated by GOLD software.
#

@<TRIPOS>MOLECULE
AV-unprocessed.smi:1493
    41    41     1
SMALL
NO_CHARGES


@<TRIPOS>ATOM
      1 ****        -3.2247  -2.0069  -2.9812 C.3            1 S1                 0.0000
      2 ****        -2.5175  -1.1959  -1.8902 C.3            1 S1                 0.0000
      3 ****        -2.6694  -1.8260  -0.4945 C.3            1 S1                 0.0000
      4 ****        -2.0061  -1.0066   0.6291 C.3            1 S1                 0.0000
      5 ****        -2.2935  -1.6022   2.0146 C.3            1 S1                 0.0000
      6 ****        -0.5606  -0.9403   0.4223 N.am           1 S1                 0.0000
      7 ****         0.1831   0.1765   0.3964 C.2            1 S1                 0.0000
      8 ****        -0.2850   1.3071   0.5384 O.2            1 S1                 0.0000
      9 ****         1.6852  -0.0292   0.1503 C.3            1 S1                 0.0000
     10 ****         2.5071   1.1276   0.5339 N.am           1 S1                 0.0000
     11 ****         2.8739   1.9392  -0.5289 N.2            1 S1                 0.0000
     12 ****         3.5865   2.9939  -0.3184 C.2            1 S1                 0.0000
     13 ****         3.9244   3.7709  -1.3990 O.3            1 S1                 0.0000
     14 ****         4.0194   3.3514   1.0146 C.2            1 S1                 0.0000
     15 ****         3.6604   2.5524   2.0432 C.2            1 S1                 0.0000
     16 ****         2.8524   1.3485   1.8398 C.2            1 S1                 0.0000
     17 ****         2.5123   0.6019   2.7573 O.2            1 S1                 0.0000
     18 ****         3.5270   3.3482  -2.1448 H              1 S1                 0.0000
     19 ****        -3.0994  -1.5374  -3.9571 H              1 S1                 0.0000
     20 ****        -4.2944  -2.0838  -2.7843 H              1 S1                 0.0000
     21 ****        -2.8210  -3.0177  -3.0440 H              1 S1                 0.0000
     22 ****        -1.4620  -1.1039  -2.1475 H              1 S1                 0.0000
     23 ****        -2.9205  -0.1825  -1.8787 H              1 S1                 0.0000
     24 ****        -3.7320  -1.9349  -0.2735 H              1 S1                 0.0000
     25 ****        -2.2576  -2.8363  -0.5036 H              1 S1                 0.0000
     26 ****        -2.4376  -0.0045   0.6064 H              1 S1                 0.0000
     27 ****        -3.3658  -1.6511   2.2061 H              1 S1                 0.0000
     28 ****        -1.8470  -0.9947   2.8027 H              1 S1                 0.0000
     29 ****        -1.8925  -2.6123   2.1046 H              1 S1                 0.0000
     30 ****        -0.0854  -1.8213   0.2898 H              1 S1                 0.0000
     31 ****         2.0226  -0.9187   0.6859 H              1 S1                 0.0000
     32 ****         1.8251  -0.2557  -0.9082 H              1 S1                 0.0000
     33 ****         4.6153   4.2381   1.1737 H              1 S1                 0.0000
     34 ****         3.9763   2.8074   3.0441 H              1 S1                 0.0000
     35 ****        -1.2673   1.4271   0.6820 LP             1 S1                 0.0000
     36 ****         0.3174   2.1048   0.5101 LP             1 S1                 0.0000
     37 ****         2.5863   1.7071  -1.4581 LP             1 S1                 0.0000
     38 ****         4.9180   3.8085  -1.5061 LP             1 S1                 0.0000
     39 ****         3.5656   4.6978  -1.2896 LP             1 S1                 0.0000
     40 ****         1.9589  -0.2082   2.5637 LP             1 S1                 0.0000
     41 ****         2.7895   0.8053   3.6964 LP             1 S1                 0.0000
@<TRIPOS>BOND
    1    1    2 1     
    2    1   19 1     
    3    1   20 1     
    4    1   21 1     
    5    2    3 1     
    6    2   22 1     
    7    2   23 1     
    8    3    4 1     
    9    3   24 1     
   10    3   25 1     
   11    4    5 1     
   12    4    6 1     
   13    4   26 1     
   14    5   27 1     
   15    5   28 1     
   16    5   29 1     
   17    6    7 am    
   18    6   30 1     
   19    7    8 2     
   20    7    9 1     
   21    9   31 1     
   22    9   32 1     
   23    9   10 1     
   24   10   11 1     
   25   10   16 am    
   26   11   12 2     
   27   12   13 1     
   28   12   14 1     
   29   13   18 1     
   30   14   33 1     
   31   14   15 2     
   32   15   34 1     
   33   15   16 1     
   34   16   17 2     
   35    8   35 1     
   36    8   36 1     
   37   11   37 1     
   38   13   38 1     
   39   13   39 1     
   40   17   40 1     
   41   17   41 1     
@<TRIPOS>SUBSTRUCTURE
      1 S1             1
@<TRIPOS>SET
LONE_PAIRS      STATIC     ATOMS    <user>   **** ""
7 35 36 37 38 39 40 41
DONOR_HYDROGENS      STATIC     ATOMS    <user>   **** ""
2 30 18
ATOM$BLUE        STATIC     ATOMS    COLORGROUP SYSTEM
7 35 36 37 38 39 40 41
ATOM$RED        STATIC     ATOMS    COLORGROUP SYSTEM
2 30 18
