AV-unprocessed.smi:18|AV-procd|sdf|107|dock9
  -GOLD-   2262015263D 1   1.00000     0.00000
 Structure written by MMmdl.
 47 50  0  0  0  0  0  0  0  0  1 V2000
  144.6794  139.3994  154.6754 O   0  0  0  0  0  0  0  0  0  0  0  0
  145.9112  140.0904  154.7247 C   0  0  0  0  0  0  0  0  0  0  0  0
  146.9889  139.3817  153.8854 C   0  0  0  0  0  0  0  0  0  0  0  0
  148.1904  140.3159  153.6305 C   0  0  0  0  0  0  0  0  0  0  0  0
  148.7802  140.8688  154.8403 N   0  0  0  0  0  0  0  0  0  0  0  0
  148.2096  141.7972  155.6834 C   0  0  0  0  0  0  0  0  0  0  0  0
  148.9347  142.1350  156.7148 N   0  0  0  0  0  0  0  0  0  0  0  0
  150.0998  141.3953  156.5618 C   0  0  0  0  0  0  0  0  0  0  0  0
  151.2967  141.2755  157.3165 C   0  0  0  0  0  0  0  0  0  0  0  0
  151.4977  141.9833  158.4540 N   0  0  0  0  0  0  0  0  0  0  0  0
  151.1868  143.3904  158.2231 C   0  0  0  0  0  0  0  0  0  0  0  0
  151.2376  144.1757  159.5394 C   0  0  0  0  0  0  0  0  0  0  0  0
  152.5203  144.0042  160.1249 O   0  0  0  0  0  0  0  0  0  0  0  0
  152.7739  142.6432  160.4513 C   0  0  0  0  0  0  0  0  0  0  0  0
  152.7560  141.7592  159.1817 C   0  0  1  0  0  0  0  0  0  0  0  0
  152.9590  140.2665  159.5522 C   0  0  0  0  0  0  0  0  0  0  0  0
  154.0853  140.0136  160.5662 C   0  0  0  0  0  0  0  0  0  0  0  0
  154.1932  138.7062  160.8007 F   0  0  0  0  0  0  0  0  0  0  0  0
  155.2480  140.4675  160.0993 F   0  0  0  0  0  0  0  0  0  0  0  0
  152.2638  140.4446  156.8434 N   0  0  0  0  0  0  0  0  0  0  0  0
  152.0627  139.7600  155.7134 C   0  0  0  0  0  0  0  0  0  0  0  0
  150.9926  139.7619  154.9156 N   0  0  0  0  0  0  0  0  0  0  0  0
  150.0248  140.6012  155.3835 C   0  0  0  0  0  0  0  0  0  0  0  0
  147.3286  137.9631  154.3652 C   0  0  0  0  0  0  0  0  0  0  0  0
  146.4991  137.3622  153.3487 O   0  0  0  0  0  0  0  0  0  0  0  0
  146.4558  138.6289  152.6586 C   0  0  0  0  0  0  0  0  0  0  0  0
  144.2387  139.6279  153.8712 H   0  0  0  0  0  0  0  0  0  0  0  0
  145.7590  141.1200  154.4009 H   0  0  0  0  0  0  0  0  0  0  0  0
  146.2176  140.1479  155.7697 H   0  0  0  0  0  0  0  0  0  0  0  0
  148.9759  139.7881  153.0883 H   0  0  0  0  0  0  0  0  0  0  0  0
  147.9000  141.1448  152.9840 H   0  0  0  0  0  0  0  0  0  0  0  0
  147.2262  142.2109  155.5134 H   0  0  0  0  0  0  0  0  0  0  0  0
  151.9028  143.8095  157.5144 H   0  0  0  0  0  0  0  0  0  0  0  0
  150.1964  143.4915  157.7767 H   0  0  0  0  0  0  0  0  0  0  0  0
  151.0702  145.2364  159.3518 H   0  0  0  0  0  0  0  0  0  0  0  0
  150.4572  143.8438  160.2262 H   0  0  0  0  0  0  0  0  0  0  0  0
  153.7477  142.5996  160.9370 H   0  0  0  0  0  0  0  0  0  0  0  0
  152.0397  142.2963  161.1805 H   0  0  0  0  0  0  0  0  0  0  0  0
  153.5772  142.0778  158.5378 H   0  0  0  0  0  0  0  0  0  0  0  0
  152.0247  139.8613  159.9431 H   0  0  0  0  0  0  0  0  0  0  0  0
  153.1873  139.6778  158.6642 H   0  0  0  0  0  0  0  0  0  0  0  0
  153.9016  140.4898  161.5286 H   0  0  0  0  0  0  0  0  0  0  0  0
  152.8752  139.1189  155.4047 H   0  0  0  0  0  0  0  0  0  0  0  0
  148.3754  137.6847  154.2382 H   0  0  0  0  0  0  0  0  0  0  0  0
  146.9864  137.7401  155.3765 H   0  0  0  0  0  0  0  0  0  0  0  0
  145.4450  138.9130  152.3641 H   0  0  0  0  0  0  0  0  0  0  0  0
  147.1304  138.6454  151.8011 H   0  0  0  0  0  0  0  0  0  0  0  0
  1  2  1  0  0  0  0
  1 27  1  0  0  0  0
  2  3  1  0  0  0  0
  2 28  1  0  0  0  0
  2 29  1  0  0  0  0
  3 26  1  0  0  0  0
  3  4  1  0  0  0  0
  3 24  1  0  0  0  0
  4  5  1  0  0  0  0
  4 30  1  0  0  0  0
  4 31  1  0  0  0  0
  5 23  1  0  0  0  0
  5  6  1  0  0  0  0
  6  7  2  0  0  0  0
  6 32  1  0  0  0  0
  7  8  1  0  0  0  0
  8 23  2  0  0  0  0
  8  9  1  0  0  0  0
  9 10  1  0  0  0  0
  9 20  2  0  0  0  0
 10 15  1  0  0  0  0
 10 11  1  0  0  0  0
 11 12  1  0  0  0  0
 11 33  1  0  0  0  0
 11 34  1  0  0  0  0
 12 13  1  0  0  0  0
 12 35  1  0  0  0  0
 12 36  1  0  0  0  0
 13 14  1  0  0  0  0
 14 15  1  0  0  0  0
 14 37  1  0  0  0  0
 14 38  1  0  0  0  0
 15 16  1  0  0  0  0
 15 39  1  0  0  0  0
 16 17  1  0  0  0  0
 16 40  1  0  0  0  0
 16 41  1  0  0  0  0
 17 18  1  0  0  0  0
 17 19  1  0  0  0  0
 17 42  1  0  0  0  0
 20 21  1  0  0  0  0
 21 22  2  0  0  0  0
 21 43  1  0  0  0  0
 22 23  1  0  0  0  0
 24 25  1  0  0  0  0
 24 44  1  0  0  0  0
 24 45  1  0  0  0  0
 25 26  1  0  0  0  0
 26 46  1  0  0  0  0
 26 47  1  0  0  0  0
M  END
> <s_m_source_file>
AV-unprocessed.smi

> <i_m_source_file_index>
18

> <i_lp_mmshare_version>
43012

> <i_f3d_flags>
0

> <s_epik_input>
W0NIMl0xT1tDSDJdQzEoW0NIMl1bT0hdKVtDSDJdbihbY0hdbjIpYyhjMjMpbltjSF1uYzNONFtDSDJdW0NIMl1PW0NIMl1bQ0BIXTRbQ0gyXVtDSF0oRilG

> <s_epik_cmdline>
J2VwaWtfcHl0aG9uJywgJy1waCcsICc3LjAnLCAnLXRuJywgJzgnLCAnLW1hJywgJzIwMCcsICctbWV0YWxfYmluZGluZycsICctaW1hZScsICc8aW5maWxlLm1hZT4nLCAnLW9tYWUnLCAnPG91dGZpbGUubWFlPic=

> <r_lp_tautomer_probability>
1

> <r_epik_Ionization_Penalty>
6.63711e-05

> <r_epik_Ionization_Penalty_Charging>
0

> <r_epik_Ionization_Penalty_Neutral>
6.63711e-05

> <r_epik_State_Penalty>
-0

> <r_epik_Charging_Adjusted_Penalty>
0

> <i_epik_Tot_Q>
0

> <i_epik_Tot_abs_Q>
0

> <r_epik_Metal_State_Penalty>
-0

> <b_epik_Metal_Only>
0

> <s_lp_Force_Field>
OPLS_2005

> <r_lp_Energy>
38.6486

> <b_lp_Chiralities_Consistent>
1

> <s_lp_Variant>
AV-unprocessed.smi:18-1

> <Gold.Version>
5.8.1

> <Gold.Id.Protein>
6NUR|6NUR_protein|mol2

> <Gold.PLP.Fitness>
44.9229

> <Gold.PLP.PLP>
-38.8420

> <Gold.PLP.part.hbond>
-3.0000

> <Gold.PLP.part.metal>
0.0000

> <Gold.PLP.part.buried>
-2.0070

> <Gold.PLP.part.nonpolar>
-37.3193

> <Gold.PLP.part.repulsive>
2.8140

> <Gold.PLP.ligand.clash>
0.0000

> <Gold.PLP.ligand.torsion>
0.5977

> <Gold.PLP.Chemscore.Hbond>
2.2448

> <Gold.PLP.Chemscore.CHOScore>
0.0000

> <Gold.PLP.Chemscore.Metal>
0.0000

> <Gold.Chemscore.Hbonds>
donor molecule, donor type, donor heavy atom, donor atom, acceptor molecule, acceptor atom, score
      L1  H     1    27       P1 10175  1.00
      P1  H  7989  7998       L1    22  0.90
      P1  H  7997  8010       L1    20  0.29

> <Gold.PLP.Chemscore.Internal.Correction>
0.5418

> <Gold.Rescore>
     Score         DG    S(hbond)    S(metal)    S(lipo)     H(rot)  DE(clash)    DE(int)     intcor
      6.82     -10.92       1.11        0.00      79.58       2.96       0.24       3.86       ----

> <Gold.Chemscore.Fitness>
6.8206

> <Gold.Chemscore.DG>
-10.9172

> <Gold.Chemscore.ZeroCoef>
-5.4800

> <Gold.Chemscore.Hbond>
1.1124

> <Gold.Chemscore.Metal>
0.0000

> <Gold.Chemscore.Lipo>
79.5770

> <Gold.Chemscore.Internal_Hbond>
0.0000

> <Gold.Chemscore.DEClash>
0.2395

> <Gold.Chemscore.DEInternal>
3.8570

> <Gold.Chemscore.Rot>
2.9643

> <Gold.Chemscore.Internal.Correction>
   9.000000E+99

> <Gold.Chemscore.Hbonds>
donor molecule, donor type, donor heavy atom, donor atom, acceptor molecule, acceptor atom, score
      L1  H     1    27       P1 10175  1.00
      P1  H  7989  7998       L1    22  0.05
      P1  H  7997  8010       L1    20  0.01

> <Gold.Chemscore.Hbond.Weighted>
-3.7153

> <Gold.Chemscore.Metal.Weighted>
-0.0000

> <Gold.Chemscore.Lipo.Weighted>
-9.3105

> <Gold.Chemscore.Internal_Hbond.Weighted>
0.0000

> <Gold.Chemscore.DEClash.Weighted>
0.2395

> <Gold.Chemscore.DEInternal.Weighted>
3.8570

> <Gold.Chemscore.Rot.Weighted>
7.5886

> <Gold.Chemscore.Internal.Correction.Weighted>
   9.000000E+99

> <Gold.Protein.RotatedTorsions>
[ 6907 6896 6895 6894 ] final  -14.48 input  -60.11 | X-H torsion
[ 7974 7965 7964 7962 ] final  -96.94 input  175.53 | X-H torsion
[ 8008 7997 7996 7995 ] final   59.65 input   59.86 | X-H torsion
[ 10167 10162 10161 10158 ] final  106.55 input  -65.29 | X-H torsion
[ 10718 10713 10712 10709 ] final   98.71 input   66.30 | X-H torsion
[ 10763 10752 10751 10750 ] final -144.20 input  -60.55 | X-H torsion
[ 11005 11000 10999 10996 ] final   68.52 input  -57.11 | X-H torsion

> <Gold.Protein.ActiveResidues>
 VAL166  LYS551  ARG553  GLY616  TRP617  ASP618  TYR619  PRO620  LYS621  CYS622 
 ASP623  PHE694  ASN695  SER759  ASP760  ASP761  ALA762  ILE779  LEU786  VAL792 
 PHE793  MET794  SER795  GLU796  ALA797  LYS798  CYS799  TRP800  GLU811  SER814 

> <Gold.Protein.RotatedAtoms>
  151.3388  135.0859  159.9363 H   0  0  0  0  0  0  0  0  0  0  0  0  # atno 6907 bound_to 6896
  152.5216  133.9469  159.7663 H   0  0  0  0  0  0  0  0  0  0  0  0  # atno 6908 bound_to 6896
  150.9821  133.6181  159.2751 H   0  0  0  0  0  0  0  0  0  0  0  0  # atno 6909 bound_to 6896
  145.3403  140.9458  143.2612 H   0  0  0  0  0  0  0  0  0  0  0  0  # atno 7974 bound_to 7965
  155.5697  140.3489  155.4512 H   0  0  0  0  0  0  0  0  0  0  0  0  # atno 8008 bound_to 7997
  156.0453  140.1305  157.0136 H   0  0  0  0  0  0  0  0  0  0  0  0  # atno 8009 bound_to 7997
  154.4410  140.1015  156.6282 H   0  0  0  0  0  0  0  0  0  0  0  0  # atno 8010 bound_to 7997
  139.7000  144.7096  151.1202 H   0  0  0  0  0  0  0  0  0  0  0  0  # atno 10167 bound_to 10162
  157.6890  131.0648  150.4837 H   0  0  0  0  0  0  0  0  0  0  0  0  # atno 10718 bound_to 10713
  154.8438  135.3447  154.6309 H   0  0  0  0  0  0  0  0  0  0  0  0  # atno 10763 bound_to 10752
  153.6919  135.6974  153.5092 H   0  0  0  0  0  0  0  0  0  0  0  0  # atno 10764 bound_to 10752
  153.2589  135.4329  155.0829 H   0  0  0  0  0  0  0  0  0  0  0  0  # atno 10765 bound_to 10752
  139.9707  134.6906  156.0454 H   0  0  0  0  0  0  0  0  0  0  0  0  # atno 11005 bound_to 11000
  144.8796  139.4923  143.6729 LP  0  0  0  0  0  0  0  0  0  0  0  0  # atno 17320 bound_to 7965
  146.3010  139.7427  142.9091 LP  0  0  0  0  0  0  0  0  0  0  0  0  # atno 17321 bound_to 7965
  140.7707  143.5438  150.9282 LP  0  0  0  0  0  0  0  0  0  0  0  0  # atno 17342 bound_to 10162
  139.9119  143.6710  152.3113 LP  0  0  0  0  0  0  0  0  0  0  0  0  # atno 17343 bound_to 10162
  156.5167  130.4152  149.6272 LP  0  0  0  0  0  0  0  0  0  0  0  0  # atno 17370 bound_to 10713
  156.3191  130.7270  151.2179 LP  0  0  0  0  0  0  0  0  0  0  0  0  # atno 17371 bound_to 10713
  141.1386  133.6569  156.3665 LP  0  0  0  0  0  0  0  0  0  0  0  0  # atno 17394 bound_to 11000
  140.5300  134.6221  157.5347 LP  0  0  0  0  0  0  0  0  0  0  0  0  # atno 17395 bound_to 11000

$$$$
