AV-unprocessed.smi:1285|AV-procd|sdf|5369|dock2
  -GOLD-   22720 4513D 1   1.00000     0.00000
 Structure written by MMmdl.
 46 47  0  0  0  0  0  0  0  0  1 V2000
  152.1773  137.6282  155.1771 C   0  0  0  0  0  0  0  0  0  0  0  0
  150.8620  137.1800  154.5142 C   0  0  0  0  0  0  0  0  0  0  0  0
  149.5585  137.4877  155.3180 C   0  0  1  0  0  0  0  0  0  0  0  0
  148.4657  136.5375  154.7572 C   0  0  0  0  0  0  0  0  0  0  0  0
  149.7961  137.1232  156.8198 C   0  0  0  0  0  0  0  0  0  0  0  0
  148.5645  136.9947  157.5991 N   0  0  0  0  0  0  0  0  0  0  0  0
  148.4843  136.6244  158.8876 C   0  0  0  0  0  0  0  0  0  0  0  0
  149.4699  136.3522  159.5738 O   0  0  0  0  0  0  0  0  0  0  0  0
  147.0708  136.5405  159.4833 C   0  0  1  0  0  0  0  0  0  0  0  0
  146.1544  135.5883  158.6881 C   0  0  0  0  0  0  0  0  0  0  0  0
  147.1410  136.1937  160.8975 N   0  0  0  0  0  0  0  0  0  0  0  0
  146.7293  135.0928  161.5306 C   0  0  0  0  0  0  0  0  0  0  0  0
  146.9070  135.1273  162.8437 N   0  0  0  0  0  0  0  0  0  0  0  0
  147.4590  136.3708  162.9661 C   0  0  0  0  0  0  0  0  0  0  0  0
  147.6109  137.0562  161.8332 N   0  0  0  0  0  0  0  0  0  0  0  0
  149.1521  138.9114  155.1460 N   0  0  0  0  0  0  0  0  0  0  0  0
  150.2221  139.8981  155.3344 C   0  0  0  0  0  0  0  0  0  0  0  0
  149.6889  141.3405  155.2888 C   0  0  0  0  0  0  0  0  0  0  0  0
  149.0123  141.5639  154.0574 O   0  0  0  0  0  0  0  0  0  0  0  0
  147.9309  140.6608  153.8603 C   0  0  0  0  0  0  0  0  0  0  0  0
  148.4535  139.2147  153.8909 C   0  0  0  0  0  0  0  0  0  0  0  0
  153.0283  137.3604  154.5506 H   0  0  0  0  0  0  0  0  0  0  0  0
  152.3277  137.1535  156.1465 H   0  0  0  0  0  0  0  0  0  0  0  0
  152.2101  138.7075  155.3223 H   0  0  0  0  0  0  0  0  0  0  0  0
  150.8182  137.6590  153.5360 H   0  0  0  0  0  0  0  0  0  0  0  0
  150.9253  136.1150  154.2914 H   0  0  0  0  0  0  0  0  0  0  0  0
  148.8258  135.5130  154.6560 H   0  0  0  0  0  0  0  0  0  0  0  0
  148.1230  136.8549  153.7721 H   0  0  0  0  0  0  0  0  0  0  0  0
  147.5912  136.4920  155.4063 H   0  0  0  0  0  0  0  0  0  0  0  0
  150.3856  136.2108  156.9114 H   0  0  0  0  0  0  0  0  0  0  0  0
  150.3802  137.8998  157.3122 H   0  0  0  0  0  0  0  0  0  0  0  0
  147.7026  137.1936  157.1126 H   0  0  0  0  0  0  0  0  0  0  0  0
  146.6272  137.5359  159.4215 H   0  0  0  0  0  0  0  0  0  0  0  0
  146.0772  135.8994  157.6458 H   0  0  0  0  0  0  0  0  0  0  0  0
  145.1459  135.5832  159.1023 H   0  0  0  0  0  0  0  0  0  0  0  0
  146.5204  134.5608  158.6976 H   0  0  0  0  0  0  0  0  0  0  0  0
  146.2873  134.2493  161.0206 H   0  0  0  0  0  0  0  0  0  0  0  0
  147.7524  136.7855  163.9191 H   0  0  0  0  0  0  0  0  0  0  0  0
  150.7177  139.7587  156.2935 H   0  0  0  0  0  0  0  0  0  0  0  0
  150.9834  139.7834  154.5631 H   0  0  0  0  0  0  0  0  0  0  0  0
  149.0117  141.5282  156.1237 H   0  0  0  0  0  0  0  0  0  0  0  0
  150.5106  142.0513  155.3772 H   0  0  0  0  0  0  0  0  0  0  0  0
  147.1728  140.8136  154.6301 H   0  0  0  0  0  0  0  0  0  0  0  0
  147.4601  140.8732  152.9003 H   0  0  0  0  0  0  0  0  0  0  0  0
  149.1206  139.0687  153.0416 H   0  0  0  0  0  0  0  0  0  0  0  0
  147.6042  138.5504  153.7437 H   0  0  0  0  0  0  0  0  0  0  0  0
  1  2  1  0  0  0  0
  1 22  1  0  0  0  0
  1 23  1  0  0  0  0
  1 24  1  0  0  0  0
  2  3  1  0  0  0  0
  2 25  1  0  0  0  0
  2 26  1  0  0  0  0
  3  4  1  0  0  0  0
  3  5  1  0  0  0  0
  3 16  1  0  0  0  0
  4 27  1  0  0  0  0
  4 28  1  0  0  0  0
  4 29  1  0  0  0  0
  5  6  1  0  0  0  0
  5 30  1  0  0  0  0
  5 31  1  0  0  0  0
  6  7  1  0  0  0  0
  6 32  1  0  0  0  0
  7  8  2  0  0  0  0
  7  9  1  0  0  0  0
  9 10  1  0  0  0  0
  9 11  1  0  0  0  0
  9 33  1  0  0  0  0
 10 34  1  0  0  0  0
 10 35  1  0  0  0  0
 10 36  1  0  0  0  0
 11 15  1  0  0  0  0
 11 12  1  0  0  0  0
 12 13  2  0  0  0  0
 12 37  1  0  0  0  0
 13 14  1  0  0  0  0
 14 15  2  0  0  0  0
 14 38  1  0  0  0  0
 16 21  1  0  0  0  0
 16 17  1  0  0  0  0
 17 18  1  0  0  0  0
 17 39  1  0  0  0  0
 17 40  1  0  0  0  0
 18 19  1  0  0  0  0
 18 41  1  0  0  0  0
 18 42  1  0  0  0  0
 19 20  1  0  0  0  0
 20 21  1  0  0  0  0
 20 43  1  0  0  0  0
 20 44  1  0  0  0  0
 21 45  1  0  0  0  0
 21 46  1  0  0  0  0
M  END
> <s_m_source_file>
AV-unprocessed.smi

> <i_m_source_file_index>
1285

> <i_lp_mmshare_version>
43012

> <i_f3d_flags>
0

> <s_epik_input>
W0NIMl0xW0NIMl1PW0NIMl1bQ0gyXU4xW0NAQF0oW0NIM10pKFtDSDJdW0NIM10pW0NIMl1bTkhdQyg9TylbQ0BIXShbQ0gzXSluMltjSF1uW2NIXW4y

> <s_epik_cmdline>
J2VwaWtfcHl0aG9uJywgJy1waCcsICc3LjAnLCAnLXRuJywgJzgnLCAnLW1hJywgJzIwMCcsICctbWV0YWxfYmluZGluZycsICctaW1hZScsICc8aW5maWxlLm1hZT4nLCAnLW9tYWUnLCAnPG91dGZpbGUubWFlPic=

> <r_lp_tautomer_probability>
1

> <r_epik_Ionization_Penalty>
0.285697

> <r_epik_Ionization_Penalty_Charging>
0

> <r_epik_Ionization_Penalty_Neutral>
0.285697

> <r_epik_State_Penalty>
0.278478

> <r_epik_Charging_Adjusted_Penalty>
0.278478

> <i_epik_Tot_Q>
0

> <i_epik_Tot_abs_Q>
0

> <r_epik_Metal_State_Penalty>
0.278477

> <b_epik_Metal_Only>
0

> <s_lp_Force_Field>
OPLS_2005

> <r_lp_Energy>
48.702

> <b_lp_Chiralities_Consistent>
1

> <s_lp_Variant>
AV-unprocessed.smi:1285-3

> <Gold.Version>
5.8.1

> <Gold.Id.Protein>
6NUR|6NUR_protein|mol2

> <Gold.PLP.Fitness>
39.5634

> <Gold.PLP.PLP>
-32.4454

> <Gold.PLP.part.hbond>
-4.3010

> <Gold.PLP.part.metal>
0.0000

> <Gold.PLP.part.buried>
-2.2568

> <Gold.PLP.part.nonpolar>
-26.7837

> <Gold.PLP.part.repulsive>
0.3127

> <Gold.PLP.ligand.clash>
0.0000

> <Gold.PLP.ligand.torsion>
1.0906

> <Gold.PLP.Chemscore.Hbond>
3.0169

> <Gold.PLP.Chemscore.CHOScore>
0.0000

> <Gold.PLP.Chemscore.Metal>
0.0000

> <Gold.Chemscore.Hbonds>
donor molecule, donor type, donor heavy atom, donor atom, acceptor molecule, acceptor atom, score
      P1  H  6896  6909       L1     8  1.00
      P1  H  6931  6943       L1    15  1.00
      P1  H  6934  6947       L1    15  0.43
      P1  H  8011  8017       L1    19  0.57

> <Gold.PLP.Chemscore.Internal.Correction>
0.2486

> <Gold.Rescore>
     Score         DG    S(hbond)    S(metal)    S(lipo)     H(rot)  DE(clash)    DE(int)     intcor
     11.12     -13.67       2.63        0.00      53.75       2.68       0.47       2.08       ----

> <Gold.Chemscore.Fitness>
11.1233

> <Gold.Chemscore.DG>
-13.6735

> <Gold.Chemscore.ZeroCoef>
-5.4800

> <Gold.Chemscore.Hbond>
2.6261

> <Gold.Chemscore.Metal>
0.0000

> <Gold.Chemscore.Lipo>
53.7462

> <Gold.Chemscore.Internal_Hbond>
0.0000

> <Gold.Chemscore.DEClash>
0.4747

> <Gold.Chemscore.DEInternal>
2.0755

> <Gold.Chemscore.Rot>
2.6821

> <Gold.Chemscore.Internal.Correction>
   9.000000E+99

> <Gold.Chemscore.Hbonds>
donor molecule, donor type, donor heavy atom, donor atom, acceptor molecule, acceptor atom, score
      P1  H  6896  6909       L1     8  0.93
      P1  H  6931  6943       L1    15  0.80
      P1  H  6934  6947       L1    15  0.17
      P1  H  8011  8017       L1    19  0.52

> <Gold.Chemscore.Hbond.Weighted>
-8.7713

> <Gold.Chemscore.Metal.Weighted>
-0.0000

> <Gold.Chemscore.Lipo.Weighted>
-6.2883

> <Gold.Chemscore.Internal_Hbond.Weighted>
0.0000

> <Gold.Chemscore.DEClash.Weighted>
0.4747

> <Gold.Chemscore.DEInternal.Weighted>
2.0755

> <Gold.Chemscore.Rot.Weighted>
6.8661

> <Gold.Chemscore.Internal.Correction.Weighted>
   9.000000E+99

> <Gold.Protein.RotatedTorsions>
[ 6907 6896 6895 6894 ] final   79.99 input  -60.11 | X-H torsion
[ 7974 7965 7964 7962 ] final   15.75 input  175.53 | X-H torsion
[ 8008 7997 7996 7995 ] final   90.47 input   59.86 | X-H torsion
[ 10167 10162 10161 10158 ] final  138.78 input  -65.29 | X-H torsion
[ 10718 10713 10712 10709 ] final   20.95 input   66.30 | X-H torsion
[ 10763 10752 10751 10750 ] final  -31.51 input  -60.55 | X-H torsion
[ 11005 11000 10999 10996 ] final -123.79 input  -57.11 | X-H torsion

> <Gold.Protein.ActiveResidues>
 VAL166  LYS551  ARG553  GLY616  TRP617  ASP618  TYR619  PRO620  LYS621  CYS622 
 ASP623  PHE694  ASN695  SER759  ASP760  ASP761  ALA762  ILE779  LEU786  VAL792 
 PHE793  MET794  SER795  GLU796  ALA797  LYS798  CYS799  TRP800  GLU811  SER814 

> <Gold.Protein.RotatedAtoms>
  152.5219  134.3426  159.9222 H   0  0  0  0  0  0  0  0  0  0  0  0  # atno 6907 bound_to 6896
  151.3376  133.3969  159.2676 H   0  0  0  0  0  0  0  0  0  0  0  0  # atno 6908 bound_to 6896
  150.9829  134.9199  159.7913 H   0  0  0  0  0  0  0  0  0  0  0  0  # atno 6909 bound_to 6896
  146.2269  139.8848  142.8564 H   0  0  0  0  0  0  0  0  0  0  0  0  # atno 7974 bound_to 7965
  156.0123  140.3349  155.6953 H   0  0  0  0  0  0  0  0  0  0  0  0  # atno 8008 bound_to 7997
  155.6140  140.0668  157.2715 H   0  0  0  0  0  0  0  0  0  0  0  0  # atno 8009 bound_to 7997
  154.4286  140.1788  156.1289 H   0  0  0  0  0  0  0  0  0  0  0  0  # atno 8010 bound_to 7997
  139.5099  144.6333  151.5761 H   0  0  0  0  0  0  0  0  0  0  0  0  # atno 10167 bound_to 10162
  157.1317  130.6594  149.5954 H   0  0  0  0  0  0  0  0  0  0  0  0  # atno 10718 bound_to 10713
  153.7985  135.6892  153.4859 H   0  0  0  0  0  0  0  0  0  0  0  0  # atno 10763 bound_to 10752
  153.1703  135.4545  154.9892 H   0  0  0  0  0  0  0  0  0  0  0  0  # atno 10764 bound_to 10752
  154.8016  135.3340  154.7476 H   0  0  0  0  0  0  0  0  0  0  0  0  # atno 10765 bound_to 10752
  140.9892  134.0563  157.3675 H   0  0  0  0  0  0  0  0  0  0  0  0  # atno 11005 bound_to 11000
  145.2476  141.0032  143.3900 LP  0  0  0  0  0  0  0  0  0  0  0  0  # atno 17320 bound_to 7965
  144.9401  139.4199  143.6453 LP  0  0  0  0  0  0  0  0  0  0  0  0  # atno 17321 bound_to 7965
  140.6073  143.9500  150.6428 LP  0  0  0  0  0  0  0  0  0  0  0  0  # atno 17342 bound_to 10162
  140.2731  143.3441  152.1219 LP  0  0  0  0  0  0  0  0  0  0  0  0  # atno 17343 bound_to 10162
  155.9806  130.4809  150.6784 LP  0  0  0  0  0  0  0  0  0  0  0  0  # atno 17370 bound_to 10713
  157.4387  131.0858  151.0966 LP  0  0  0  0  0  0  0  0  0  0  0  0  # atno 17371 bound_to 10713
  139.8984  135.0154  156.7148 LP  0  0  0  0  0  0  0  0  0  0  0  0  # atno 17394 bound_to 11000
  140.7067  133.9259  155.8058 LP  0  0  0  0  0  0  0  0  0  0  0  0  # atno 17395 bound_to 11000

$$$$
