AV-unprocessed.smi:2361|AV-procd|sdf|9412|dock7
  -GOLD-   2272013 53D 1   1.00000     0.00000
 Structure written by MMmdl.
 26 27  0  0  0  0  0  0  0  0  1 V2000
  150.2821  141.9907  156.8328 O   0  0  0  0  0  0  0  0  0  0  0  0
  151.3047  141.3245  156.9941 C   0  0  0  0  0  0  0  0  0  0  0  0
  152.1450  141.4563  158.0365 N   0  0  0  0  0  0  0  0  0  0  0  0
  152.0650  142.3565  159.1359 C   0  0  0  0  0  0  0  0  0  0  0  0
  151.3813  143.5966  159.0820 C   0  0  0  0  0  0  0  0  0  0  0  0
  151.3225  144.4617  160.1164 N   0  0  0  0  0  0  0  0  0  0  0  0
  151.9558  144.1266  161.2591 C   0  0  0  0  0  0  0  0  0  0  0  0
  152.6787  142.9291  161.4205 C   0  0  0  0  0  0  0  0  0  0  0  0
  153.4675  142.5923  162.9204 Cl  0  0  0  0  0  0  0  0  0  0  0  0
  152.7384  142.0277  160.3356 C   0  0  0  0  0  0  0  0  0  0  0  0
  153.6184  140.5429  160.4779 Cl  0  0  0  0  0  0  0  0  0  0  0  0
  151.6881  140.2505  155.9688 C   0  0  1  0  0  0  0  0  0  0  0  0
  151.6994  138.8147  156.5275 C   0  0  0  0  0  0  0  0  0  0  0  0
  150.5050  138.1609  155.8608 C   0  0  0  0  0  0  0  0  0  0  0  0
  150.4270  138.9225  154.5458 C   0  0  0  0  0  0  0  0  0  0  0  0
  150.7072  140.2582  154.9332 O   0  0  0  0  0  0  0  0  0  0  0  0
  152.8983  140.7851  158.0814 H   0  0  0  0  0  0  0  0  0  0  0  0
  150.8807  143.9338  158.1880 H   0  0  0  0  0  0  0  0  0  0  0  0
  151.8888  144.8395  162.0677 H   0  0  0  0  0  0  0  0  0  0  0  0
  152.6632  140.4784  155.5346 H   0  0  0  0  0  0  0  0  0  0  0  0
  152.6167  138.3104  156.2217 H   0  0  0  0  0  0  0  0  0  0  0  0
  151.6449  138.7545  157.6152 H   0  0  0  0  0  0  0  0  0  0  0  0
  150.6240  137.0855  155.7266 H   0  0  0  0  0  0  0  0  0  0  0  0
  149.6034  138.3374  156.4488 H   0  0  0  0  0  0  0  0  0  0  0  0
  151.1904  138.5760  153.8475 H   0  0  0  0  0  0  0  0  0  0  0  0
  149.4523  138.8393  154.0648 H   0  0  0  0  0  0  0  0  0  0  0  0
  1  2  2  0  0  0  0
  2  3  1  0  0  0  0
  2 12  1  0  0  0  0
  3  4  1  0  0  0  0
  3 17  1  0  0  0  0
  4 10  1  0  0  0  0
  4  5  2  0  0  0  0
  5  6  1  0  0  0  0
  5 18  1  0  0  0  0
  6  7  2  0  0  0  0
  7  8  1  0  0  0  0
  7 19  1  0  0  0  0
  8  9  1  0  0  0  0
  8 10  2  0  0  0  0
 10 11  1  0  0  0  0
 12 16  1  0  0  0  0
 12 13  1  0  0  0  0
 12 20  1  0  0  0  0
 13 14  1  0  0  0  0
 13 21  1  0  0  0  0
 13 22  1  0  0  0  0
 14 15  1  0  0  0  0
 14 23  1  0  0  0  0
 14 24  1  0  0  0  0
 15 16  1  0  0  0  0
 15 25  1  0  0  0  0
 15 26  1  0  0  0  0
M  END
> <s_m_source_file>
AV-unprocessed.smi

> <i_m_source_file_index>
2361

> <i_lp_mmshare_version>
43012

> <i_f3d_flags>
0

> <s_epik_input>
TzFbQ0gyXVtDSDJdW0NIMl1bQ0BIXTFDKD1PKVtOSF1jMltjSF1uW2NIXWMoQ2wpYzJDbA==

> <s_epik_cmdline>
J2VwaWtfcHl0aG9uJywgJy1waCcsICc3LjAnLCAnLXRuJywgJzgnLCAnLW1hJywgJzIwMCcsICctbWV0YWxfYmluZGluZycsICctaW1hZScsICc8aW5maWxlLm1hZT4nLCAnLW9tYWUnLCAnPG91dGZpbGUubWFlPic=

> <r_lp_tautomer_probability>
1

> <r_epik_Ionization_Penalty>
7.18707e-06

> <r_epik_Ionization_Penalty_Charging>
0

> <r_epik_Ionization_Penalty_Neutral>
7.18707e-06

> <r_epik_State_Penalty>
-0

> <r_epik_Charging_Adjusted_Penalty>
0

> <i_epik_Tot_Q>
0

> <i_epik_Tot_abs_Q>
0

> <r_epik_Metal_State_Penalty>
-0

> <b_epik_Metal_Only>
0

> <s_lp_Force_Field>
OPLS_2005

> <r_lp_Energy>
24.5043

> <b_lp_Chiralities_Consistent>
1

> <s_lp_Variant>
AV-unprocessed.smi:2361-2

> <Gold.Version>
5.8.1

> <Gold.Id.Protein>
6NUR|6NUR_protein|mol2

> <Gold.PLP.Fitness>
39.2180

> <Gold.PLP.PLP>
-36.4828

> <Gold.PLP.part.hbond>
-1.0000

> <Gold.PLP.part.metal>
0.0000

> <Gold.PLP.part.buried>
-5.1974

> <Gold.PLP.part.nonpolar>
-30.0981

> <Gold.PLP.part.repulsive>
0.3493

> <Gold.PLP.ligand.clash>
0.0000

> <Gold.PLP.ligand.torsion>
0.1358

> <Gold.PLP.Chemscore.Hbond>
1.0000

> <Gold.PLP.Chemscore.CHOScore>
0.0000

> <Gold.PLP.Chemscore.Metal>
0.0000

> <Gold.Chemscore.Hbonds>
donor molecule, donor type, donor heavy atom, donor atom, acceptor molecule, acceptor atom, score
      P1  H  7989  7998       L1    16  1.00

> <Gold.PLP.Chemscore.Internal.Correction>
0.0069

> <Gold.Rescore>
     Score         DG    S(hbond)    S(metal)    S(lipo)     H(rot)  DE(clash)    DE(int)     intcor
     16.20     -17.52       0.88        0.00      99.72       1.00       0.07       1.24       ----

> <Gold.Chemscore.Fitness>
16.2025

> <Gold.Chemscore.DG>
-17.5179

> <Gold.Chemscore.ZeroCoef>
-5.4800

> <Gold.Chemscore.Hbond>
0.8773

> <Gold.Chemscore.Metal>
0.0000

> <Gold.Chemscore.Lipo>
99.7238

> <Gold.Chemscore.Internal_Hbond>
0.0000

> <Gold.Chemscore.DEClash>
0.0711

> <Gold.Chemscore.DEInternal>
1.2443

> <Gold.Chemscore.Rot>
1.0000

> <Gold.Chemscore.Internal.Correction>
   9.000000E+99

> <Gold.Chemscore.Hbonds>
donor molecule, donor type, donor heavy atom, donor atom, acceptor molecule, acceptor atom, score
      P1  H  7989  7998       L1    16  0.14

> <Gold.Chemscore.Hbond.Weighted>
-2.9303

> <Gold.Chemscore.Metal.Weighted>
-0.0000

> <Gold.Chemscore.Lipo.Weighted>
-11.6677

> <Gold.Chemscore.Internal_Hbond.Weighted>
0.0000

> <Gold.Chemscore.DEClash.Weighted>
0.0711

> <Gold.Chemscore.DEInternal.Weighted>
1.2443

> <Gold.Chemscore.Rot.Weighted>
2.5600

> <Gold.Chemscore.Internal.Correction.Weighted>
   9.000000E+99

> <Gold.Protein.RotatedTorsions>
[ 6907 6896 6895 6894 ] final  -39.96 input  -60.11 | X-H torsion
[ 7974 7965 7964 7962 ] final  168.62 input  175.53 | X-H torsion
[ 8008 7997 7996 7995 ] final   -1.07 input   59.86 | X-H torsion
[ 10167 10162 10161 10158 ] final   33.92 input  -65.29 | X-H torsion
[ 10718 10713 10712 10709 ] final    1.39 input   66.30 | X-H torsion
[ 10763 10752 10751 10750 ] final  108.29 input  -60.55 | X-H torsion
[ 11005 11000 10999 10996 ] final   76.89 input  -57.11 | X-H torsion

> <Gold.Protein.ActiveResidues>
 VAL166  LYS551  ARG553  GLY616  TRP617  ASP618  TYR619  PRO620  LYS621  CYS622 
 ASP623  PHE694  ASN695  SER759  ASP760  ASP761  ALA762  ILE779  LEU786  VAL792 
 PHE793  MET794  SER795  GLU796  ALA797  LYS798  CYS799  TRP800  GLU811  SER814 

> <Gold.Protein.RotatedAtoms>
  150.9841  134.9190  159.7861 H   0  0  0  0  0  0  0  0  0  0  0  0  # atno 6907 bound_to 6896
  152.5231  134.3370  159.9213 H   0  0  0  0  0  0  0  0  0  0  0  0  # atno 6908 bound_to 6896
  151.3376  133.3934  159.2703 H   0  0  0  0  0  0  0  0  0  0  0  0  # atno 6909 bound_to 6896
  144.7382  139.8934  143.6404 H   0  0  0  0  0  0  0  0  0  0  0  0  # atno 7974 bound_to 7965
  154.6509  140.2568  155.7215 H   0  0  0  0  0  0  0  0  0  0  0  0  # atno 8008 bound_to 7997
  156.2574  140.2868  156.0863 H   0  0  0  0  0  0  0  0  0  0  0  0  # atno 8009 bound_to 7997
  155.1452  140.0381  157.2798 H   0  0  0  0  0  0  0  0  0  0  0  0  # atno 8010 bound_to 7997
  140.4363  144.1253  150.6167 H   0  0  0  0  0  0  0  0  0  0  0  0  # atno 10167 bound_to 10162
  156.8474  130.5542  149.5672 H   0  0  0  0  0  0  0  0  0  0  0  0  # atno 10718 bound_to 10713
  153.4186  135.3817  155.2097 H   0  0  0  0  0  0  0  0  0  0  0  0  # atno 10763 bound_to 10752
  154.8743  135.3811  154.4412 H   0  0  0  0  0  0  0  0  0  0  0  0  # atno 10764 bound_to 10752
  153.4929  135.7088  153.5936 H   0  0  0  0  0  0  0  0  0  0  0  0  # atno 10765 bound_to 10752
  139.9278  134.7638  156.1453 H   0  0  0  0  0  0  0  0  0  0  0  0  # atno 11005 bound_to 11000
  146.1125  139.4132  143.0279 LP  0  0  0  0  0  0  0  0  0  0  0  0  # atno 17320 bound_to 7965
  145.7422  141.0004  143.1295 LP  0  0  0  0  0  0  0  0  0  0  0  0  # atno 17321 bound_to 7965
  140.4370  143.2543  151.9522 LP  0  0  0  0  0  0  0  0  0  0  0  0  # atno 17342 bound_to 10162
  139.4787  144.5690  151.8118 LP  0  0  0  0  0  0  0  0  0  0  0  0  # atno 17343 bound_to 10162
  156.0847  130.5848  150.9626 LP  0  0  0  0  0  0  0  0  0  0  0  0  # atno 17370 bound_to 10713
  157.6322  131.0920  150.8419 LP  0  0  0  0  0  0  0  0  0  0  0  0  # atno 17371 bound_to 10713
  141.0847  133.6739  156.2411 LP  0  0  0  0  0  0  0  0  0  0  0  0  # atno 17394 bound_to 11000
  140.6287  134.5287  157.5557 LP  0  0  0  0  0  0  0  0  0  0  0  0  # atno 17395 bound_to 11000

$$$$
