#       Name:                AV-unprocessed.smi:40
#       Creating user name   scv26
#       Creation time:       Thu Mar 26 16:23:18 2020


#       File generated by GOLD software.
#

@<TRIPOS>MOLECULE
AV-unprocessed.smi:40
    58    59     1
SMALL
NO_CHARGES


@<TRIPOS>ATOM
      1 ****        -3.3998   2.1061   0.7065 C.3            1 S1                 0.0000
      2 ****        -3.9363   0.8375   0.0341 C.3            1 S1                 0.0000
      3 ****        -3.4543  -0.4435   0.7288 C.3            1 S1                 0.0000
      4 ****        -3.9262  -1.7213   0.0144 C.3            1 S1                 0.0000
      5 ****        -3.4146  -3.0078   0.6783 C.3            1 S1                 0.0000
      6 ****        -1.9990  -3.0229   0.6124 O.3            1 S1                 0.0000
      7 ****        -1.2966  -4.1075   0.9760 C.2            1 S1                 0.0000
      8 ****        -1.8097  -5.1729   1.3175 O.2            1 S1                 0.0000
      9 ****         0.1402  -3.8685   0.9209 N.am           1 S1                 0.0000
     10 ****         1.1832  -4.6922   1.2051 C.2            1 S1                 0.0000
     11 ****         1.0392  -5.9308   1.6495 N.2            1 S1                 0.0000
     12 ****         2.0746  -6.7798   1.9276 C.2            1 S1                 0.0000
     13 ****         1.8529  -7.9272   2.3067 O.2            1 S1                 0.0000
     14 ****         3.3882  -6.2811   1.7499 N.am           1 S1                 0.0000
     15 ****         4.5963  -7.1659   1.9834 C.3            1 S1                 0.0000
     16 ****         4.4477  -8.3383   1.2443 O.3            1 S1                 0.0000
     17 ****         5.0971  -9.3969   1.9360 C.3            1 S1                 0.0000
     18 ****         4.6148 -10.7658   1.4336 C.3            1 S1                 0.0000
     19 ****         4.8621  -9.0893   3.4239 C.3            1 S1                 0.0000
     20 ****         3.6477  -9.6519   3.8879 O.3            1 S1                 0.0000
     21 ****         4.8660  -7.5599   3.4558 C.3            1 S1                 0.0000
     22 ****         4.0027  -6.9915   4.4266 O.3            1 S1                 0.0000
     23 ****         3.5653  -4.9921   1.2714 C.2            1 S1                 0.0000
     24 ****         2.5213  -4.1794   0.9984 C.2            1 S1                 0.0000
     25 ****         2.7257  -2.9313   0.5421 F              1 S1                 0.0000
     26 ****         5.4410  -6.6168   1.5654 H              1 S1                 0.0000
     27 ****         6.1653  -9.3045   1.7318 H              1 S1                 0.0000
     28 ****         5.6637  -9.4963   4.0411 H              1 S1                 0.0000
     29 ****         5.8766  -7.2195   3.6847 H              1 S1                 0.0000
     30 ****        -3.7568   2.9988   0.1929 H              1 S1                 0.0000
     31 ****        -2.3094   2.1279   0.6908 H              1 S1                 0.0000
     32 ****        -3.7224   2.1679   1.7461 H              1 S1                 0.0000
     33 ****        -5.0264   0.8637   0.0267 H              1 S1                 0.0000
     34 ****        -3.6195   0.8284  -1.0096 H              1 S1                 0.0000
     35 ****        -2.3648  -0.4292   0.7722 H              1 S1                 0.0000
     36 ****        -3.8023  -0.4535   1.7623 H              1 S1                 0.0000
     37 ****        -5.0162  -1.7417  -0.0053 H              1 S1                 0.0000
     38 ****        -3.6009  -1.7016  -1.0265 H              1 S1                 0.0000
     39 ****        -3.7386  -3.0589   1.7186 H              1 S1                 0.0000
     40 ****        -3.8216  -3.8781   0.1616 H              1 S1                 0.0000
     41 ****         0.3830  -2.9448   0.5931 H              1 S1                 0.0000
     42 ****         5.0840 -11.5759   1.9921 H              1 S1                 0.0000
     43 ****         4.8628 -10.8996   0.3805 H              1 S1                 0.0000
     44 ****         3.5337 -10.8706   1.5297 H              1 S1                 0.0000
     45 ****         3.4625  -9.2968   4.7439 H              1 S1                 0.0000
     46 ****         4.0123  -6.0524   4.3235 H              1 S1                 0.0000
     47 ****         4.5631  -4.6094   1.1115 H              1 S1                 0.0000
     48 ****        -2.8053  -5.2655   1.3348 LP             1 S1                 0.0000
     49 ****        -1.2310  -5.9458   1.5777 LP             1 S1                 0.0000
     50 ****         0.1090  -6.2690   1.7916 LP             1 S1                 0.0000
     51 ****         0.9108  -8.2452   2.4135 LP             1 S1                 0.0000
     52 ****         2.6144  -8.5431   2.5085 LP             1 S1                 0.0000
     53 ****         4.8618  -8.2220   0.3415 LP             1 S1                 0.0000
     54 ****         3.4759  -8.5501   1.1406 LP             1 S1                 0.0000
     55 ****         3.7368 -10.6462   3.9468 LP             1 S1                 0.0000
     56 ****         2.9060  -9.4204   3.2585 LP             1 S1                 0.0000
     57 ****         4.3203  -7.2335   5.3434 LP             1 S1                 0.0000
     58 ****         3.0732  -7.3358   4.2942 LP             1 S1                 0.0000
@<TRIPOS>BOND
    1    1    2 1     
    2    1   30 1     
    3    1   31 1     
    4    1   32 1     
    5    2    3 1     
    6    2   33 1     
    7    2   34 1     
    8    3    4 1     
    9    3   35 1     
   10    3   36 1     
   11    4    5 1     
   12    4   37 1     
   13    4   38 1     
   14    5    6 1     
   15    5   39 1     
   16    5   40 1     
   17    6    7 1     
   18    7    8 2     
   19    7    9 am    
   20    9   10 1     
   21    9   41 1     
   22   10   24 1     
   23   10   11 2     
   24   11   12 1     
   25   12   13 2     
   26   12   14 am    
   27   14   15 1     
   28   14   23 1     
   29   15   26 1     
   30   15   21 1     
   31   15   16 1     
   32   16   17 1     
   33   17   27 1     
   34   17   18 1     
   35   17   19 1     
   36   18   42 1     
   37   18   43 1     
   38   18   44 1     
   39   19   28 1     
   40   19   20 1     
   41   19   21 1     
   42   20   45 1     
   43   21   29 1     
   44   21   22 1     
   45   22   46 1     
   46   23   24 2     
   47   23   47 1     
   48   24   25 1     
   49    8   48 1     
   50    8   49 1     
   51   11   50 1     
   52   13   51 1     
   53   13   52 1     
   54   16   53 1     
   55   16   54 1     
   56   20   55 1     
   57   20   56 1     
   58   22   57 1     
   59   22   58 1     
@<TRIPOS>SUBSTRUCTURE
      1 S1             1
@<TRIPOS>SET
LONE_PAIRS      STATIC     ATOMS    <user>   **** ""
11 48 49 50 51 52 53 54 55 56 57 58
DONOR_HYDROGENS      STATIC     ATOMS    <user>   **** ""
3 41 45 46
ATOM$BLUE        STATIC     ATOMS    COLORGROUP SYSTEM
11 48 49 50 51 52 53 54 55 56 57 58
ATOM$RED        STATIC     ATOMS    COLORGROUP SYSTEM
3 41 45 46
