AV-unprocessed.smi:3112|AV-procd|sdf|11849|dock1
  -GOLD-   2272017233D 1   1.00000     0.00000
 Structure written by MMmdl.
 36 36  0  0  0  0  0  0  0  0  1 V2000
  146.6225  142.5263  153.9367 C   0  0  0  0  0  0  0  0  0  0  0  0
  147.0009  141.0599  153.6896 C   0  0  0  0  0  0  0  0  0  0  0  0
  148.3534  140.6659  154.3157 C   0  0  1  0  0  0  0  0  0  0  0  0
  149.4136  140.8795  153.4049 O   0  0  0  0  0  0  0  0  0  0  0  0
  148.6698  141.3853  155.6406 C   0  0  0  0  0  0  0  0  0  0  0  0
  149.9366  142.1159  155.5820 N   0  0  0  0  0  0  0  0  0  0  0  0
  151.0730  141.5295  156.3073 C   0  0  2  0  0  0  0  0  0  0  0  0
  151.2632  140.0880  155.8066 C   0  0  0  0  0  0  0  0  0  0  0  0
  150.9561  141.5753  157.8626 C   0  0  1  0  0  0  0  0  0  0  0  0
  151.4779  140.3117  158.5780 C   0  0  0  0  0  0  0  0  0  0  0  0
  151.4480  142.8192  158.4529 N   0  0  0  0  0  0  0  0  0  0  0  0
  151.2847  144.1050  157.9772 C   0  0  0  0  0  0  0  0  0  0  0  0
  151.9414  144.9472  158.8277 C   0  0  0  0  0  0  0  0  0  0  0  0
  152.4929  144.0747  159.8059 C   0  0  0  0  0  0  0  0  0  0  0  0
  152.1969  142.8059  159.5801 N   0  0  0  0  0  0  0  0  0  0  0  0
  145.6782  142.7700  153.4498 H   0  0  0  0  0  0  0  0  0  0  0  0
  147.3820  143.2015  153.5420 H   0  0  0  0  0  0  0  0  0  0  0  0
  146.5080  142.7338  155.0007 H   0  0  0  0  0  0  0  0  0  0  0  0
  146.2065  140.4145  154.0656 H   0  0  0  0  0  0  0  0  0  0  0  0
  147.0459  140.8927  152.6129 H   0  0  0  0  0  0  0  0  0  0  0  0
  148.3354  139.5959  154.5256 H   0  0  0  0  0  0  0  0  0  0  0  0
  149.3892  140.1981  152.7509 H   0  0  0  0  0  0  0  0  0  0  0  0
  147.8598  142.0804  155.8636 H   0  0  0  0  0  0  0  0  0  0  0  0
  148.6812  140.6493  156.4410 H   0  0  0  0  0  0  0  0  0  0  0  0
  149.7891  143.0691  155.8974 H   0  0  0  0  0  0  0  0  0  0  0  0
  151.9788  142.0671  156.0251 H   0  0  0  0  0  0  0  0  0  0  0  0
  152.1298  139.6171  156.2709 H   0  0  0  0  0  0  0  0  0  0  0  0
  151.4233  140.0665  154.7281 H   0  0  0  0  0  0  0  0  0  0  0  0
  150.3917  139.4688  156.0206 H   0  0  0  0  0  0  0  0  0  0  0  0
  149.8876  141.5622  158.0836 H   0  0  0  0  0  0  0  0  0  0  0  0
  151.0044  139.4159  158.1760 H   0  0  0  0  0  0  0  0  0  0  0  0
  151.2457  140.3495  159.6428 H   0  0  0  0  0  0  0  0  0  0  0  0
  152.5536  140.1792  158.4891 H   0  0  0  0  0  0  0  0  0  0  0  0
  150.7211  144.3116  157.0794 H   0  0  0  0  0  0  0  0  0  0  0  0
  152.0208  146.0219  158.7581 H   0  0  0  0  0  0  0  0  0  0  0  0
  153.0967  144.3234  160.6661 H   0  0  0  0  0  0  0  0  0  0  0  0
  1  2  1  0  0  0  0
  1 16  1  0  0  0  0
  1 17  1  0  0  0  0
  1 18  1  0  0  0  0
  2  3  1  0  0  0  0
  2 19  1  0  0  0  0
  2 20  1  0  0  0  0
  3  4  1  0  0  0  0
  3  5  1  0  0  0  0
  3 21  1  0  0  0  0
  4 22  1  0  0  0  0
  5  6  1  0  0  0  0
  5 23  1  0  0  0  0
  5 24  1  0  0  0  0
  6  7  1  0  0  0  0
  6 25  1  0  0  0  0
  7  8  1  0  0  0  0
  7  9  1  0  0  0  0
  7 26  1  0  0  0  0
  8 27  1  0  0  0  0
  8 28  1  0  0  0  0
  8 29  1  0  0  0  0
  9 10  1  0  0  0  0
  9 11  1  0  0  0  0
  9 30  1  0  0  0  0
 10 31  1  0  0  0  0
 10 32  1  0  0  0  0
 10 33  1  0  0  0  0
 11 15  1  0  0  0  0
 11 12  1  0  0  0  0
 12 13  2  0  0  0  0
 12 34  1  0  0  0  0
 13 14  1  0  0  0  0
 13 35  1  0  0  0  0
 14 15  2  0  0  0  0
 14 36  1  0  0  0  0
M  END
> <s_m_source_file>
AV-unprocessed.smi

> <i_m_source_file_index>
3112

> <i_lp_mmshare_version>
43012

> <i_f3d_flags>
0

> <s_epik_input>
W0NIM11bQ0gyXVtDQEhdKFtPSF0pW0NIMl1bTkhdW0NASF0oW0NIM10pW0NASF0oW0NIM10pbjFbY0hdW2NIXVtjSF1uMQ==

> <s_epik_cmdline>
J2VwaWtfcHl0aG9uJywgJy1waCcsICc3LjAnLCAnLXRuJywgJzgnLCAnLW1hJywgJzIwMCcsICctbWV0YWxfYmluZGluZycsICctaW1hZScsICc8aW5maWxlLm1hZT4nLCAnLW9tYWUnLCAnPG91dGZpbGUubWFlPic=

> <r_lp_tautomer_probability>
1

> <r_epik_Ionization_Penalty>
2.16876

> <r_epik_Ionization_Penalty_Charging>
0

> <r_epik_Ionization_Penalty_Neutral>
2.16876

> <r_epik_State_Penalty>
2.30854

> <r_epik_Charging_Adjusted_Penalty>
2.30854

> <i_epik_Tot_Q>
0

> <i_epik_Tot_abs_Q>
0

> <r_epik_Metal_State_Penalty>
2.3073

> <b_epik_Metal_Only>
0

> <s_lp_Force_Field>
OPLS_2005

> <r_lp_Energy>
23.5049

> <b_lp_Chiralities_Consistent>
1

> <s_lp_Variant>
AV-unprocessed.smi:3112-14

> <Gold.Version>
5.8.1

> <Gold.Id.Protein>
6NUR|6NUR_protein|mol2

> <Gold.PLP.Fitness>
46.5703

> <Gold.PLP.PLP>
-39.4510

> <Gold.PLP.part.hbond>
-3.4233

> <Gold.PLP.part.metal>
0.0000

> <Gold.PLP.part.buried>
-5.5327

> <Gold.PLP.part.nonpolar>
-30.2504

> <Gold.PLP.part.repulsive>
0.0000

> <Gold.PLP.ligand.clash>
0.0000

> <Gold.PLP.ligand.torsion>
2.6491

> <Gold.PLP.Chemscore.Hbond>
2.9234

> <Gold.PLP.Chemscore.CHOScore>
1.0000

> <Gold.PLP.Chemscore.Metal>
0.0000

> <Gold.Chemscore.Hbonds>
donor molecule, donor type, donor heavy atom, donor atom, acceptor molecule, acceptor atom, score
      L1  H     4    22       P1  7957  0.77
      L1  H     6    25       P1  8028  0.96
      P1  H  7989  7998       L1     4  0.11
      P1  H  8011  8017       L1     4  1.00
      L1  C    12    34       P1  8028  1.00

> <Gold.PLP.Chemscore.Internal.Correction>
0.6473

> <Gold.Rescore>
     Score         DG    S(hbond)    S(metal)    S(lipo)     H(rot)  DE(clash)    DE(int)     intcor
     14.66     -17.17       2.09        0.00      90.68       2.31       0.10       2.40       ----

> <Gold.Chemscore.Fitness>
14.6645

> <Gold.Chemscore.DG>
-17.1654

> <Gold.Chemscore.ZeroCoef>
-5.4800

> <Gold.Chemscore.Hbond>
2.0931

> <Gold.Chemscore.Metal>
0.0000

> <Gold.Chemscore.Lipo>
90.6837

> <Gold.Chemscore.Internal_Hbond>
0.0000

> <Gold.Chemscore.DEClash>
0.1027

> <Gold.Chemscore.DEInternal>
2.3981

> <Gold.Chemscore.Rot>
2.3108

> <Gold.Chemscore.Internal.Correction>
   9.000000E+99

> <Gold.Chemscore.Hbonds>
donor molecule, donor type, donor heavy atom, donor atom, acceptor molecule, acceptor atom, score
      L1  H     4    22       P1  7957  0.75
      L1  H     6    25       P1  8028  0.92
      P1  H  7989  7998       L1     4  0.01
      P1  H  8011  8017       L1     4  0.30

> <Gold.Chemscore.Hbond.Weighted>
-6.9911

> <Gold.Chemscore.Metal.Weighted>
-0.0000

> <Gold.Chemscore.Lipo.Weighted>
-10.6100

> <Gold.Chemscore.Internal_Hbond.Weighted>
0.0000

> <Gold.Chemscore.DEClash.Weighted>
0.1027

> <Gold.Chemscore.DEInternal.Weighted>
2.3981

> <Gold.Chemscore.Rot.Weighted>
5.9157

> <Gold.Chemscore.Internal.Correction.Weighted>
   9.000000E+99

> <Gold.Protein.RotatedTorsions>
[ 6907 6896 6895 6894 ] final  -89.05 input  -60.11 | X-H torsion
[ 7974 7965 7964 7962 ] final   23.46 input  175.53 | X-H torsion
[ 8008 7997 7996 7995 ] final   37.01 input   59.86 | X-H torsion
[ 10167 10162 10161 10158 ] final  178.72 input  -65.29 | X-H torsion
[ 10718 10713 10712 10709 ] final   97.75 input   66.30 | X-H torsion
[ 10763 10752 10751 10750 ] final  135.48 input  -60.55 | X-H torsion
[ 11005 11000 10999 10996 ] final   17.05 input  -57.11 | X-H torsion

> <Gold.Protein.ActiveResidues>
 VAL166  LYS551  ARG553  GLY616  TRP617  ASP618  TYR619  PRO620  LYS621  CYS622 
 ASP623  PHE694  ASN695  SER759  ASP760  ASP761  ALA762  ILE779  LEU786  VAL792 
 PHE793  MET794  SER795  GLU796  ALA797  LYS798  CYS799  TRP800  GLU811  SER814 

> <Gold.Protein.RotatedAtoms>
  150.6871  134.2646  159.4563 H   0  0  0  0  0  0  0  0  0  0  0  0  # atno 6907 bound_to 6896
  152.0574  134.9613  160.0584 H   0  0  0  0  0  0  0  0  0  0  0  0  # atno 6908 bound_to 6896
  152.1054  133.4237  159.4643 H   0  0  0  0  0  0  0  0  0  0  0  0  # atno 6909 bound_to 6896
  146.1983  139.7741  142.8780 H   0  0  0  0  0  0  0  0  0  0  0  0  # atno 7974 bound_to 7965
  155.1967  140.3312  155.4350 H   0  0  0  0  0  0  0  0  0  0  0  0  # atno 8008 bound_to 7997
  156.2422  140.1901  156.7006 H   0  0  0  0  0  0  0  0  0  0  0  0  # atno 8009 bound_to 7997
  154.6169  140.0601  156.9551 H   0  0  0  0  0  0  0  0  0  0  0  0  # atno 8010 bound_to 7997
  139.5306  144.2646  152.0679 H   0  0  0  0  0  0  0  0  0  0  0  0  # atno 10167 bound_to 10162
  157.6907  131.0619  150.4691 H   0  0  0  0  0  0  0  0  0  0  0  0  # atno 10718 bound_to 10713
  153.8407  135.3092  155.3426 H   0  0  0  0  0  0  0  0  0  0  0  0  # atno 10763 bound_to 10752
  154.7934  135.4769  154.0107 H   0  0  0  0  0  0  0  0  0  0  0  0  # atno 10764 bound_to 10752
  153.1577  135.6855  153.8879 H   0  0  0  0  0  0  0  0  0  0  0  0  # atno 10765 bound_to 10752
  140.4403  134.1328  155.7690 H   0  0  0  0  0  0  0  0  0  0  0  0  # atno 11005 bound_to 11000
  145.3569  141.0318  143.3306 LP  0  0  0  0  0  0  0  0  0  0  0  0  # atno 17320 bound_to 7965
  144.8628  139.5152  143.6804 LP  0  0  0  0  0  0  0  0  0  0  0  0  # atno 17321 bound_to 7965
  140.2109  144.4564  150.6386 LP  0  0  0  0  0  0  0  0  0  0  0  0  # atno 17342 bound_to 10162
  140.6481  143.2218  151.6140 LP  0  0  0  0  0  0  0  0  0  0  0  0  # atno 17343 bound_to 10162
  156.5030  130.4121  149.6342 LP  0  0  0  0  0  0  0  0  0  0  0  0  # atno 17370 bound_to 10713
  156.3310  130.7331  151.2261 LP  0  0  0  0  0  0  0  0  0  0  0  0  # atno 17371 bound_to 10713
  141.1708  133.8612  157.1576 LP  0  0  0  0  0  0  0  0  0  0  0  0  # atno 17394 bound_to 11000
  140.0074  135.0002  157.0322 LP  0  0  0  0  0  0  0  0  0  0  0  0  # atno 17395 bound_to 11000

$$$$
