#       Name:                AV-unprocessed.smi:750
#       Creating user name   scv26
#       Creation time:       Fri Mar 27 00:58:40 2020


#       File generated by GOLD software.
#

@<TRIPOS>MOLECULE
AV-unprocessed.smi:750
    28    29     1
SMALL
NO_CHARGES


@<TRIPOS>ATOM
      1 ****        -2.0484  -0.4608   0.7894 C.3            1 S1                 0.0000
      2 ****        -0.5078  -0.4653   0.6842 C.3            1 S1                 0.0000
      3 ****        -0.0211   0.2659  -0.5818 C.ar           1 S1                 0.0000
      4 ****         0.8616  -0.3305  -1.5164 C.ar           1 S1                 0.0000
      5 ****         1.2656   0.4003  -2.6501 C.ar           1 S1                 0.0000
      6 ****         0.7724   1.7075  -2.8164 C.ar           1 S1                 0.0000
      7 ****        -0.0680   2.2965  -1.9418 N.ar           1 S1                 0.0000
      8 ****        -0.4486   1.5880  -0.8570 C.ar           1 S1                 0.0000
      9 ****        -0.0362  -1.8410   0.7964 N.pl3          1 S1                -1.0000
     10 ****         0.7623  -1.9476   1.8843 C.2            1 S1                 0.0000
     11 ****         1.3520  -2.9463   2.2904 O.2            1 S1                 0.0000
     12 ****         0.8492  -0.7760   2.5196 N.am           1 S1                 0.0000
     13 ****         0.1267   0.1646   1.9196 C.2            1 S1                 0.0000
     14 ****        -0.0186   1.3311   2.2846 O.2            1 S1                 0.0000
     15 ****        -2.4553   0.5492   0.8376 H              1 S1                 0.0000
     16 ****        -2.3925  -0.9844   1.6829 H              1 S1                 0.0000
     17 ****        -2.5002  -0.9550  -0.0714 H              1 S1                 0.0000
     18 ****         1.2374  -1.3339  -1.3840 H              1 S1                 0.0000
     19 ****         1.9387  -0.0330  -3.3747 H              1 S1                 0.0000
     20 ****         1.0617   2.2960  -3.6745 H              1 S1                 0.0000
     21 ****        -1.1158   2.1039  -0.1830 H              1 S1                 0.0000
     22 ****         1.3840  -0.6286   3.3624 H              1 S1                 0.0000
     23 ****        -0.3988   3.2282  -2.0917 LP             1 S1                 0.0000
     24 ****        -0.2659  -2.5860   0.1701 LP             1 S1                 0.0000
     25 ****         1.2678  -3.8120   1.7969 LP             1 S1                 0.0000
     26 ****         1.9162  -2.8934   3.1144 LP             1 S1                 0.0000
     27 ****        -0.5942   1.9531   1.7538 LP             1 S1                 0.0000
     28 ****         0.4390   1.6568   3.1120 LP             1 S1                 0.0000
@<TRIPOS>BOND
    1    1    2 1     
    2    1   15 1     
    3    1   16 1     
    4    1   17 1     
    5    2   13 1     
    6    2    3 1     
    7    2    9 1     
    8    3    8 ar    
    9    3    4 ar    
   10    4    5 ar    
   11    4   18 1     
   12    5    6 ar    
   13    5   19 1     
   14    6    7 ar    
   15    6   20 1     
   16    7    8 ar    
   17    8   21 1     
   18    9   10 1     
   19   10   11 2     
   20   10   12 am    
   21   12   13 am    
   22   12   22 1     
   23   13   14 2     
   24    7   23 1     
   25    9   24 1     
   26   11   25 1     
   27   11   26 1     
   28   14   27 1     
   29   14   28 1     
@<TRIPOS>SUBSTRUCTURE
      1 S1             1
@<TRIPOS>SET
LONE_PAIRS      STATIC     ATOMS    <user>   **** ""
6 23 24 25 26 27 28
DONOR_HYDROGENS      STATIC     ATOMS    <user>   **** ""
1 22
ATOM$BLUE        STATIC     ATOMS    COLORGROUP SYSTEM
6 23 24 25 26 27 28
ATOM$RED        STATIC     ATOMS    COLORGROUP SYSTEM
1 22
