AV-unprocessed.smi:3253|AV-procd|sdf|12448|dock6
  -GOLD-   2272018343D 1   1.00000     0.00000
 Structure written by MMmdl.
 37 38  0  0  0  0  0  0  0  0  2 V2000
  149.2991  141.5185  154.6785 C   0  0  0  0  0  0  0  0  0  0  0  0
  150.1845  141.1349  155.8717 C   0  0  1  0  0  0  0  0  0  0  0  0
  151.4543  140.3868  155.4084 C   0  0  0  0  0  0  0  0  0  0  0  0
  151.2250  138.9597  155.1567 N   0  0  0  0  0  0  0  0  0  0  0  0
  151.8066  137.8974  155.8008 C   0  0  0  0  0  0  0  0  0  0  0  0
  151.2729  136.7635  155.2444 C   0  0  0  0  0  0  0  0  0  0  0  0
  150.3963  137.1810  154.2789 N   0  3  0  0  0  0  0  0  0  0  0  0
  150.3724  138.5165  154.2235 C   0  0  0  0  0  0  0  0  0  0  0  0
  150.5291  142.3464  156.6154 N   0  0  0  0  0  0  0  0  0  0  0  0
  151.3692  142.4096  157.6609 C   0  0  0  0  0  0  0  0  0  0  0  0
  151.9400  141.4237  158.1294 O   0  0  0  0  0  0  0  0  0  0  0  0
  151.6295  143.8043  158.2498 C   0  0  1  0  0  0  0  0  0  0  0  0
  150.3451  144.4271  158.8350 C   0  0  0  0  0  0  0  0  0  0  0  0
  150.5896  144.4267  160.3354 C   0  0  0  0  0  0  0  0  0  0  0  0
  149.7288  144.7467  161.1534 O   0  0  0  0  0  0  0  0  0  0  0  0
  151.8327  144.0262  160.6166 N   0  0  0  0  0  0  0  0  0  0  0  0
  152.4015  143.8837  161.9498 C   0  0  0  0  0  0  0  0  0  0  0  0
  152.6242  143.7536  159.4297 C   0  0  0  0  0  0  0  0  0  0  0  0
  148.9989  140.6363  154.1126 H   0  0  0  0  0  0  0  0  0  0  0  0
  149.8203  142.1901  153.9952 H   0  0  0  0  0  0  0  0  0  0  0  0
  148.3892  142.0201  155.0098 H   0  0  0  0  0  0  0  0  0  0  0  0
  149.5953  140.4705  156.5064 H   0  0  0  0  0  0  0  0  0  0  0  0
  151.8359  140.8221  154.4837 H   0  0  0  0  0  0  0  0  0  0  0  0
  152.2490  140.4766  156.1507 H   0  0  0  0  0  0  0  0  0  0  0  0
  152.5302  138.0236  156.5931 H   0  0  0  0  0  0  0  0  0  0  0  0
  151.4460  135.7187  155.4578 H   0  0  0  0  0  0  0  0  0  0  0  0
  149.7719  139.1181  153.5646 H   0  0  0  0  0  0  0  0  0  0  0  0
  150.1039  143.2070  156.3012 H   0  0  0  0  0  0  0  0  0  0  0  0
  152.0268  144.4521  157.4663 H   0  0  0  0  0  0  0  0  0  0  0  0
  150.2141  145.4530  158.4901 H   0  0  0  0  0  0  0  0  0  0  0  0
  149.4364  143.8731  158.5939 H   0  0  0  0  0  0  0  0  0  0  0  0
  152.3270  144.8214  162.5017 H   0  0  0  0  0  0  0  0  0  0  0  0
  153.4540  143.6037  161.9008 H   0  0  0  0  0  0  0  0  0  0  0  0
  151.8709  143.1123  162.5090 H   0  0  0  0  0  0  0  0  0  0  0  0
  153.1327  142.7916  159.5203 H   0  0  0  0  0  0  0  0  0  0  0  0
  153.3908  144.5226  159.3232 H   0  0  0  0  0  0  0  0  0  0  0  0
  149.8423  136.5695  153.6923 H   0  0  0  0  0  0  0  0  0  0  0  0
  1  2  1  0  0  0  0
  1 19  1  0  0  0  0
  1 20  1  0  0  0  0
  1 21  1  0  0  0  0
  2  3  1  0  0  0  0
  2  9  1  0  0  0  0
  2 22  1  0  0  0  0
  3  4  1  0  0  0  0
  3 23  1  0  0  0  0
  3 24  1  0  0  0  0
  4  8  1  0  0  0  0
  4  5  1  0  0  0  0
  5  6  2  0  0  0  0
  5 25  1  0  0  0  0
  6  7  1  0  0  0  0
  6 26  1  0  0  0  0
  7  8  2  0  0  0  0
  7 37  1  0  0  0  0
  8 27  1  0  0  0  0
  9 10  1  0  0  0  0
  9 28  1  0  0  0  0
 10 11  2  0  0  0  0
 10 12  1  0  0  0  0
 12 18  1  0  0  0  0
 12 13  1  0  0  0  0
 12 29  1  0  0  0  0
 13 14  1  0  0  0  0
 13 30  1  0  0  0  0
 13 31  1  0  0  0  0
 14 15  2  0  0  0  0
 14 16  1  0  0  0  0
 16 17  1  0  0  0  0
 16 18  1  0  0  0  0
 17 32  1  0  0  0  0
 17 33  1  0  0  0  0
 17 34  1  0  0  0  0
 18 35  1  0  0  0  0
 18 36  1  0  0  0  0
M  CHG  1   7   1
M  END
> <s_m_source_file>
AV-unprocessed.smi

> <i_m_source_file_index>
3253

> <i_lp_mmshare_version>
43012

> <i_f3d_flags>
0

> <s_epik_input>
W2NIXTFuW2NIXVtjSF1uMVtDSDJdW0NAQEhdKFtDSDNdKVtOSF1DKD1PKVtDQEBIXTJbQ0gyXUMoPU8pTihbQ0gzXSlbQ0gyXTI=

> <s_epik_cmdline>
J2VwaWtfcHl0aG9uJywgJy1waCcsICc3LjAnLCAnLXRuJywgJzgnLCAnLW1hJywgJzIwMCcsICctbWV0YWxfYmluZGluZycsICctaW1hZScsICc8aW5maWxlLm1hZT4nLCAnLW9tYWUnLCAnPG91dGZpbGUubWFlPic=

> <r_lp_tautomer_probability>
1

> <r_epik_Ionization_Penalty>
0.251561

> <r_epik_Ionization_Penalty_Charging>
0

> <r_epik_Ionization_Penalty_Neutral>
0.251561

> <r_epik_State_Penalty>
0.242926

> <r_epik_Charging_Adjusted_Penalty>
0.242926

> <i_epik_Tot_Q>
1

> <i_epik_Tot_abs_Q>
1

> <r_epik_Metal_State_Penalty>
0.533885

> <b_epik_Metal_Only>
0

> <s_lp_Force_Field>
OPLS_2005

> <r_lp_Energy>
13.8895

> <b_lp_Chiralities_Consistent>
1

> <s_lp_Variant>
AV-unprocessed.smi:3253-4

> <Gold.Version>
5.8.1

> <Gold.Id.Protein>
6NUR|6NUR_protein|mol2

> <Gold.PLP.Fitness>
51.1778

> <Gold.PLP.PLP>
-39.7349

> <Gold.PLP.part.hbond>
-3.1142

> <Gold.PLP.part.metal>
0.0000

> <Gold.PLP.part.buried>
-1.4961

> <Gold.PLP.part.nonpolar>
-36.0154

> <Gold.PLP.part.repulsive>
1.9118

> <Gold.PLP.ligand.clash>
0.0000

> <Gold.PLP.ligand.torsion>
0.2890

> <Gold.PLP.Chemscore.Hbond>
3.0000

> <Gold.PLP.Chemscore.CHOScore>
1.0000

> <Gold.PLP.Chemscore.Metal>
0.0000

> <Gold.Chemscore.Hbonds>
donor molecule, donor type, donor heavy atom, donor atom, acceptor molecule, acceptor atom, score
      L1  H     7    37       P1  7948  1.89
      L1  H     9    28       P1  8028  0.98
      L1  C     8    27       P1  7957  0.89

> <Gold.PLP.Chemscore.Internal.Correction>
0.0210

> <Gold.Rescore>
     Score         DG    S(hbond)    S(metal)    S(lipo)     H(rot)  DE(clash)    DE(int)     intcor
     12.39     -15.54       1.79        0.00      79.33       2.03       1.58       1.57       ----

> <Gold.Chemscore.Fitness>
12.3933

> <Gold.Chemscore.DG>
-15.5427

> <Gold.Chemscore.ZeroCoef>
-5.4800

> <Gold.Chemscore.Hbond>
1.7929

> <Gold.Chemscore.Metal>
0.0000

> <Gold.Chemscore.Lipo>
79.3311

> <Gold.Chemscore.Internal_Hbond>
0.0000

> <Gold.Chemscore.DEClash>
1.5770

> <Gold.Chemscore.DEInternal>
1.5725

> <Gold.Chemscore.Rot>
2.0341

> <Gold.Chemscore.Internal.Correction>
   9.000000E+99

> <Gold.Chemscore.Hbonds>
donor molecule, donor type, donor heavy atom, donor atom, acceptor molecule, acceptor atom, score
      L1  H     7    37       P1  7948  0.30
      L1  H     9    28       P1  8028  0.91

> <Gold.Chemscore.Hbond.Weighted>
-5.9882

> <Gold.Chemscore.Metal.Weighted>
-0.0000

> <Gold.Chemscore.Lipo.Weighted>
-9.2817

> <Gold.Chemscore.Internal_Hbond.Weighted>
0.0000

> <Gold.Chemscore.DEClash.Weighted>
1.5770

> <Gold.Chemscore.DEInternal.Weighted>
1.5725

> <Gold.Chemscore.Rot.Weighted>
5.2072

> <Gold.Chemscore.Internal.Correction.Weighted>
   9.000000E+99

> <Gold.Protein.RotatedTorsions>
[ 6907 6896 6895 6894 ] final -103.10 input  -60.11 | X-H torsion
[ 7974 7965 7964 7962 ] final  -55.60 input  175.53 | X-H torsion
[ 8008 7997 7996 7995 ] final  173.61 input   59.86 | X-H torsion
[ 10167 10162 10161 10158 ] final   36.11 input  -65.29 | X-H torsion
[ 10718 10713 10712 10709 ] final  176.22 input   66.30 | X-H torsion
[ 10763 10752 10751 10750 ] final -139.12 input  -60.55 | X-H torsion
[ 11005 11000 10999 10996 ] final  -94.90 input  -57.11 | X-H torsion

> <Gold.Protein.ActiveResidues>
 VAL166  LYS551  ARG553  GLY616  TRP617  ASP618  TYR619  PRO620  LYS621  CYS622 
 ASP623  PHE694  ASN695  SER759  ASP760  ASP761  ALA762  ILE779  LEU786  VAL792 
 PHE793  MET794  SER795  GLU796  ALA797  LYS798  CYS799  TRP800  GLU811  SER814 

> <Gold.Protein.RotatedAtoms>
  150.7225  134.0481  159.3788 H   0  0  0  0  0  0  0  0  0  0  0  0  # atno 6907 bound_to 6896
  151.8456  135.0573  160.0462 H   0  0  0  0  0  0  0  0  0  0  0  0  # atno 6908 bound_to 6896
  152.2829  133.5451  159.5545 H   0  0  0  0  0  0  0  0  0  0  0  0  # atno 6909 bound_to 6896
  145.8723  140.8207  142.9882 H   0  0  0  0  0  0  0  0  0  0  0  0  # atno 7974 bound_to 7965
  156.1058  140.1455  156.9406 H   0  0  0  0  0  0  0  0  0  0  0  0  # atno 8008 bound_to 7997
  154.4733  140.0903  156.7242 H   0  0  0  0  0  0  0  0  0  0  0  0  # atno 8009 bound_to 7997
  155.4682  140.3441  155.4324 H   0  0  0  0  0  0  0  0  0  0  0  0  # atno 8010 bound_to 7997
  140.4158  144.1529  150.6143 H   0  0  0  0  0  0  0  0  0  0  0  0  # atno 10167 bound_to 10162
  156.9233  130.9947  151.3000 H   0  0  0  0  0  0  0  0  0  0  0  0  # atno 10718 bound_to 10713
  154.8618  135.3592  154.5494 H   0  0  0  0  0  0  0  0  0  0  0  0  # atno 10763 bound_to 10752
  153.6113  135.7009  153.5350 H   0  0  0  0  0  0  0  0  0  0  0  0  # atno 10764 bound_to 10752
  153.3207  135.4152  155.1375 H   0  0  0  0  0  0  0  0  0  0  0  0  # atno 10765 bound_to 10752
  141.1457  133.7988  157.0362 H   0  0  0  0  0  0  0  0  0  0  0  0  # atno 11005 bound_to 11000
  144.6726  140.1258  143.7447 LP  0  0  0  0  0  0  0  0  0  0  0  0  # atno 17320 bound_to 7965
  145.9122  139.2494  143.1431 LP  0  0  0  0  0  0  0  0  0  0  0  0  # atno 17321 bound_to 7965
  140.4588  143.2457  151.9248 LP  0  0  0  0  0  0  0  0  0  0  0  0  # atno 17342 bound_to 10162
  139.4782  144.5488  151.8417 LP  0  0  0  0  0  0  0  0  0  0  0  0  # atno 17343 bound_to 10162
  157.5894  130.8433  149.8637 LP  0  0  0  0  0  0  0  0  0  0  0  0  # atno 17370 bound_to 10713
  156.0481  130.3723  150.1268 LP  0  0  0  0  0  0  0  0  0  0  0  0  # atno 17371 bound_to 10713
  140.0722  134.9696  157.1486 LP  0  0  0  0  0  0  0  0  0  0  0  0  # atno 17394 bound_to 11000
  140.3694  134.2406  155.7179 LP  0  0  0  0  0  0  0  0  0  0  0  0  # atno 17395 bound_to 11000

$$$$
