AV-unprocessed.smi:297|AV-procd|sdf|2260|dock4
  -GOLD-   2262022143D 1   1.00000     0.00000
 Structure written by MMmdl.
 29 30  0  0  0  0  0  0  0  0  1 V2000
  155.0888  139.7018  160.9319 N   0  0  0  0  0  0  0  0  0  0  0  0
  154.2031  140.2313  160.4077 C   0  0  0  0  0  0  0  0  0  0  0  0
  153.0895  140.8971  159.7488 C   0  0  0  0  0  0  0  0  0  0  0  0
  152.6630  140.3573  158.5855 N   0  0  0  0  0  0  0  0  0  0  0  0
  151.6269  140.9267  157.9218 C   0  0  0  0  0  0  0  0  0  0  0  0
  151.2030  140.3377  156.7107 N   0  0  0  0  0  0  0  0  0  0  0  0
  152.2666  139.9337  155.7956 C   0  0  0  0  0  0  0  0  0  0  0  0
  151.7008  139.0296  154.6891 C   0  0  0  0  0  0  0  0  0  0  0  0
  150.6304  139.6943  154.0276 O   0  0  0  0  0  0  0  0  0  0  0  0
  149.5442  139.9831  154.9085 C   0  0  2  0  0  0  0  0  0  0  0  0
  148.3987  140.6065  154.0974 C   0  0  0  0  0  0  0  0  0  0  0  0
  147.8166  139.8401  153.1706 N   0  0  0  0  0  0  0  0  0  0  0  0
  148.0258  141.7586  154.3117 O   0  0  0  0  0  0  0  0  0  0  0  0
  150.0417  140.9158  156.0358 C   0  0  0  0  0  0  0  0  0  0  0  0
  150.9826  142.0851  158.4144 C   0  0  0  0  0  0  0  0  0  0  0  0
  151.4233  142.6509  159.6250 C   0  0  0  0  0  0  0  0  0  0  0  0
  152.4948  142.0511  160.3125 C   0  0  0  0  0  0  0  0  0  0  0  0
  153.0415  142.7426  161.8019 Cl  0  0  0  0  0  0  0  0  0  0  0  0
  152.7108  140.8278  155.3559 H   0  0  0  0  0  0  0  0  0  0  0  0
  153.0662  139.4038  156.3111 H   0  0  0  0  0  0  0  0  0  0  0  0
  152.4778  138.7981  153.9606 H   0  0  0  0  0  0  0  0  0  0  0  0
  151.3563  138.0793  155.1002 H   0  0  0  0  0  0  0  0  0  0  0  0
  149.1730  139.0506  155.3374 H   0  0  0  0  0  0  0  0  0  0  0  0
  147.0548  140.2103  152.6206 H   0  0  0  0  0  0  0  0  0  0  0  0
  148.1354  138.8927  153.0286 H   0  0  0  0  0  0  0  0  0  0  0  0
  149.2388  141.0736  156.7576 H   0  0  0  0  0  0  0  0  0  0  0  0
  150.3124  141.8919  155.6295 H   0  0  0  0  0  0  0  0  0  0  0  0
  150.1716  142.5518  157.8755 H   0  0  0  0  0  0  0  0  0  0  0  0
  150.9458  143.5363  160.0182 H   0  0  0  0  0  0  0  0  0  0  0  0
  1  2  3  0  0  0  0
  2  3  1  0  0  0  0
  3 17  1  0  0  0  0
  3  4  2  0  0  0  0
  4  5  1  0  0  0  0
  5  6  1  0  0  0  0
  5 15  2  0  0  0  0
  6 14  1  0  0  0  0
  6  7  1  0  0  0  0
  7  8  1  0  0  0  0
  7 19  1  0  0  0  0
  7 20  1  0  0  0  0
  8  9  1  0  0  0  0
  8 21  1  0  0  0  0
  8 22  1  0  0  0  0
  9 10  1  0  0  0  0
 10 11  1  0  0  0  0
 10 14  1  0  0  0  0
 10 23  1  0  0  0  0
 11 12  1  0  0  0  0
 11 13  2  0  0  0  0
 12 24  1  0  0  0  0
 12 25  1  0  0  0  0
 14 26  1  0  0  0  0
 14 27  1  0  0  0  0
 15 16  1  0  0  0  0
 15 28  1  0  0  0  0
 16 17  2  0  0  0  0
 16 29  1  0  0  0  0
 17 18  1  0  0  0  0
M  END
> <s_m_source_file>
AV-unprocessed.smi

> <i_m_source_file_index>
297

> <i_lp_mmshare_version>
43012

> <i_f3d_flags>
0

> <s_epik_input>
TiNDYzFuYyhbY0hdW2NIXWMxQ2wpTjJbQ0gyXVtDSDJdT1tDQEhdKFtDSDJdMilDKD1PKVtOSDJd

> <s_epik_cmdline>
J2VwaWtfcHl0aG9uJywgJy1waCcsICc3LjAnLCAnLXRuJywgJzgnLCAnLW1hJywgJzIwMCcsICctbWV0YWxfYmluZGluZycsICctaW1hZScsICc8aW5maWxlLm1hZT4nLCAnLW9tYWUnLCAnPG91dGZpbGUubWFlPic=

> <r_lp_tautomer_probability>
1

> <r_epik_Ionization_Penalty>
8.82403e-08

> <r_epik_Ionization_Penalty_Charging>
0

> <r_epik_Ionization_Penalty_Neutral>
8.82403e-08

> <r_epik_State_Penalty>
-0

> <r_epik_Charging_Adjusted_Penalty>
0

> <i_epik_Tot_Q>
0

> <i_epik_Tot_abs_Q>
0

> <r_epik_Metal_State_Penalty>
-0

> <b_epik_Metal_Only>
0

> <s_lp_Force_Field>
OPLS_2005

> <r_lp_Energy>
18.7144

> <b_lp_Chiralities_Consistent>
1

> <s_lp_Variant>
AV-unprocessed.smi:297-2

> <Gold.Version>
5.8.1

> <Gold.Id.Protein>
6NUR|6NUR_protein|mol2

> <Gold.PLP.Fitness>
38.8740

> <Gold.PLP.PLP>
-35.7163

> <Gold.PLP.part.hbond>
-3.0000

> <Gold.PLP.part.metal>
0.0000

> <Gold.PLP.part.buried>
-4.4488

> <Gold.PLP.part.nonpolar>
-28.6325

> <Gold.PLP.part.repulsive>
0.5207

> <Gold.PLP.ligand.clash>
0.0000

> <Gold.PLP.ligand.torsion>
0.2602

> <Gold.PLP.Chemscore.Hbond>
1.1086

> <Gold.PLP.Chemscore.CHOScore>
0.0000

> <Gold.PLP.Chemscore.Metal>
0.0000

> <Gold.Chemscore.Hbonds>
donor molecule, donor type, donor heavy atom, donor atom, acceptor molecule, acceptor atom, score
      P1  H  7989  7998       L1     9  0.60

> <Gold.PLP.Chemscore.Internal.Correction>
0.3525

> <Gold.Rescore>
     Score         DG    S(hbond)    S(metal)    S(lipo)     H(rot)  DE(clash)    DE(int)     intcor
     11.15     -12.38       0.52        0.00      76.87       1.50       0.96       0.27       ----

> <Gold.Chemscore.Fitness>
11.1509

> <Gold.Chemscore.DG>
-12.3778

> <Gold.Chemscore.ZeroCoef>
-5.4800

> <Gold.Chemscore.Hbond>
0.5227

> <Gold.Chemscore.Metal>
0.0000

> <Gold.Chemscore.Lipo>
76.8697

> <Gold.Chemscore.Internal_Hbond>
0.0000

> <Gold.Chemscore.DEClash>
0.9558

> <Gold.Chemscore.DEInternal>
0.2711

> <Gold.Chemscore.Rot>
1.5006

> <Gold.Chemscore.Internal.Correction>
   9.000000E+99

> <Gold.Chemscore.Hbonds>
donor molecule, donor type, donor heavy atom, donor atom, acceptor molecule, acceptor atom, score
      P1  H  7989  7998       L1     9  0.04

> <Gold.Chemscore.Hbond.Weighted>
-1.7457

> <Gold.Chemscore.Metal.Weighted>
-0.0000

> <Gold.Chemscore.Lipo.Weighted>
-8.9938

> <Gold.Chemscore.Internal_Hbond.Weighted>
0.0000

> <Gold.Chemscore.DEClash.Weighted>
0.9558

> <Gold.Chemscore.DEInternal.Weighted>
0.2711

> <Gold.Chemscore.Rot.Weighted>
3.8416

> <Gold.Chemscore.Internal.Correction.Weighted>
   9.000000E+99

> <Gold.Protein.RotatedTorsions>
[ 6907 6896 6895 6894 ] final  115.56 input  -60.11 | X-H torsion
[ 7974 7965 7964 7962 ] final  -45.75 input  175.53 | X-H torsion
[ 8008 7997 7996 7995 ] final   19.54 input   59.86 | X-H torsion
[ 10167 10162 10161 10158 ] final -158.32 input  -65.29 | X-H torsion
[ 10718 10713 10712 10709 ] final  -40.57 input   66.30 | X-H torsion
[ 10763 10752 10751 10750 ] final  150.30 input  -60.55 | X-H torsion
[ 11005 11000 10999 10996 ] final -139.21 input  -57.11 | X-H torsion

> <Gold.Protein.ActiveResidues>
 VAL166  LYS551  ARG553  GLY616  TRP617  ASP618  TYR619  PRO620  LYS621  CYS622 
 ASP623  PHE694  ASN695  SER759  ASP760  ASP761  ALA762  ILE779  LEU786  VAL792 
 PHE793  MET794  SER795  GLU796  ALA797  LYS798  CYS799  TRP800  GLU811  SER814 

> <Gold.Protein.RotatedAtoms>
  152.4733  133.8081  159.6988 H   0  0  0  0  0  0  0  0  0  0  0  0  # atno 6907 bound_to 6896
  150.8735  133.7462  159.2960 H   0  0  0  0  0  0  0  0  0  0  0  0  # atno 6908 bound_to 6896
  151.4989  135.1064  159.9875 H   0  0  0  0  0  0  0  0  0  0  0  0  # atno 6909 bound_to 6896
  145.9789  140.7305  142.9373 H   0  0  0  0  0  0  0  0  0  0  0  0  # atno 7974 bound_to 7965
  154.9223  140.3029  155.5210 H   0  0  0  0  0  0  0  0  0  0  0  0  # atno 8008 bound_to 7997
  156.3009  140.2369  156.4210 H   0  0  0  0  0  0  0  0  0  0  0  0  # atno 8009 bound_to 7997
  154.8319  140.0418  157.1471 H   0  0  0  0  0  0  0  0  0  0  0  0  # atno 8010 bound_to 7997
  139.6701  143.9759  152.2279 H   0  0  0  0  0  0  0  0  0  0  0  0  # atno 10167 bound_to 10162
  156.2798  130.4216  149.8349 H   0  0  0  0  0  0  0  0  0  0  0  0  # atno 10718 bound_to 10713
  154.0852  135.2856  155.3282 H   0  0  0  0  0  0  0  0  0  0  0  0  # atno 10763 bound_to 10752
  154.6657  135.5318  153.8077 H   0  0  0  0  0  0  0  0  0  0  0  0  # atno 10764 bound_to 10752
  153.0434  135.6545  154.1024 H   0  0  0  0  0  0  0  0  0  0  0  0  # atno 10765 bound_to 10752
  140.8541  134.2249  157.4744 H   0  0  0  0  0  0  0  0  0  0  0  0  # atno 11005 bound_to 11000
  144.6856  140.2874  143.7283 LP  0  0  0  0  0  0  0  0  0  0  0  0  # atno 17320 bound_to 7965
  145.7799  139.1887  143.2164 LP  0  0  0  0  0  0  0  0  0  0  0  0  # atno 17321 bound_to 7965
  139.9522  144.6613  150.8161 LP  0  0  0  0  0  0  0  0  0  0  0  0  # atno 17342 bound_to 10162
  140.7615  143.3175  151.2698 LP  0  0  0  0  0  0  0  0  0  0  0  0  # atno 17343 bound_to 10162
  156.5800  130.8461  151.3380 LP  0  0  0  0  0  0  0  0  0  0  0  0  # atno 17370 bound_to 10713
  157.7311  130.9695  150.1863 LP  0  0  0  0  0  0  0  0  0  0  0  0  # atno 17371 bound_to 10713
  139.8705  134.9698  156.4678 LP  0  0  0  0  0  0  0  0  0  0  0  0  # atno 17394 bound_to 11000
  140.8757  133.7955  155.9412 LP  0  0  0  0  0  0  0  0  0  0  0  0  # atno 17395 bound_to 11000

$$$$
