AV-unprocessed.smi:2691|AV-procd|sdf|10393|dock3
  -GOLD-   2272014423D 1   1.00000     0.00000
 Structure written by MMmdl.
 50 52  0  0  0  0  0  0  0  0  2 V2000
  152.3126  144.4834  161.0694 C   0  0  0  0  0  0  0  0  0  0  0  0
  152.1598  143.4674  159.9500 C   0  0  0  0  0  0  0  0  0  0  0  0
  151.3545  143.8048  158.8385 C   0  0  0  0  0  0  0  0  0  0  0  0
  151.2316  142.8539  157.8324 C   0  0  0  0  0  0  0  0  0  0  0  0
  150.5210  142.8790  156.6300 N   0  3  0  0  0  0  0  0  0  0  0  0
  150.7022  141.7012  155.9706 C   0  0  0  0  0  0  0  0  0  0  0  0
  151.5198  140.9264  156.7336 N   0  0  0  0  0  0  0  0  0  0  0  0
  152.0194  139.5664  156.4977 C   0  0  0  0  0  0  0  0  0  0  0  0
  151.7650  139.0843  155.0522 C   0  0  1  0  0  0  0  0  0  0  0  0
  152.8282  138.2645  154.6080 O   0  0  0  0  0  0  0  0  0  0  0  0
  150.4110  138.3724  154.7991 C   0  0  0  0  0  0  0  0  0  0  0  0
  149.2222  139.2124  155.0374 N   0  0  0  0  0  0  0  0  0  0  0  0
  148.9308  140.1978  154.0725 C   0  0  0  0  0  0  0  0  0  0  0  0
  147.9058  140.9811  154.1845 N   0  0  0  0  0  0  0  0  0  0  0  0
  147.0489  140.8527  155.2830 C   0  0  0  0  0  0  0  0  0  0  0  0
  145.8628  141.8057  155.3519 C   0  0  0  0  0  0  0  0  0  0  0  0
  145.8269  142.7592  154.1466 C   0  0  0  0  0  0  0  0  0  0  0  0
  145.8365  142.5730  156.6831 C   0  0  0  0  0  0  0  0  0  0  0  0
  147.2848  139.9178  156.2350 C   0  0  0  0  0  0  0  0  0  0  0  0
  148.4349  139.0197  156.1357 C   0  0  0  0  0  0  0  0  0  0  0  0
  148.6732  138.1546  156.9782 O   0  0  0  0  0  0  0  0  0  0  0  0
  151.8766  141.6040  157.9037 C   0  0  0  0  0  0  0  0  0  0  0  0
  152.6752  141.2557  158.9900 C   0  0  0  0  0  0  0  0  0  0  0  0
  152.8133  142.2096  160.0237 C   0  0  0  0  0  0  0  0  0  0  0  0
  153.6787  141.8587  161.2221 C   0  0  0  0  0  0  0  0  0  0  0  0
  151.7165  145.3770  160.8813 H   0  0  0  0  0  0  0  0  0  0  0  0
  153.3539  144.7915  161.1666 H   0  0  0  0  0  0  0  0  0  0  0  0
  151.9857  144.0610  162.0198 H   0  0  0  0  0  0  0  0  0  0  0  0
  150.8545  144.7603  158.7753 H   0  0  0  0  0  0  0  0  0  0  0  0
  150.2697  141.4270  155.0189 H   0  0  0  0  0  0  0  0  0  0  0  0
  153.0874  139.5766  156.7189 H   0  0  0  0  0  0  0  0  0  0  0  0
  151.5554  138.8971  157.2230 H   0  0  0  0  0  0  0  0  0  0  0  0
  151.7898  139.9550  154.3960 H   0  0  0  0  0  0  0  0  0  0  0  0
  153.3974  138.7802  154.0571 H   0  0  0  0  0  0  0  0  0  0  0  0
  150.4062  138.0219  153.7652 H   0  0  0  0  0  0  0  0  0  0  0  0
  150.3494  137.4512  155.3818 H   0  0  0  0  0  0  0  0  0  0  0  0
  149.6278  140.2573  153.2351 H   0  0  0  0  0  0  0  0  0  0  0  0
  144.9544  141.2026  155.3094 H   0  0  0  0  0  0  0  0  0  0  0  0
  145.8286  142.2046  153.2079 H   0  0  0  0  0  0  0  0  0  0  0  0
  146.6849  143.4321  154.1379 H   0  0  0  0  0  0  0  0  0  0  0  0
  144.9270  143.3745  154.1624 H   0  0  0  0  0  0  0  0  0  0  0  0
  145.8264  141.8865  157.5303 H   0  0  0  0  0  0  0  0  0  0  0  0
  144.9464  143.1983  156.7569 H   0  0  0  0  0  0  0  0  0  0  0  0
  146.7061  143.2219  156.7907 H   0  0  0  0  0  0  0  0  0  0  0  0
  146.6182  139.8244  157.0798 H   0  0  0  0  0  0  0  0  0  0  0  0
  153.1693  140.2971  159.0461 H   0  0  0  0  0  0  0  0  0  0  0  0
  154.1448  140.8798  161.1049 H   0  0  0  0  0  0  0  0  0  0  0  0
  153.0796  141.8363  162.1328 H   0  0  0  0  0  0  0  0  0  0  0  0
  154.4754  142.5921  161.3489 H   0  0  0  0  0  0  0  0  0  0  0  0
  149.9507  143.6399  156.2840 H   0  0  0  0  0  0  0  0  0  0  0  0
  1  2  1  0  0  0  0
  1 26  1  0  0  0  0
  1 27  1  0  0  0  0
  1 28  1  0  0  0  0
  2 24  1  0  0  0  0
  2  3  2  0  0  0  0
  3  4  1  0  0  0  0
  3 29  1  0  0  0  0
  4 22  2  0  0  0  0
  4  5  1  0  0  0  0
  5  6  2  0  0  0  0
  5 50  1  0  0  0  0
  6  7  1  0  0  0  0
  6 30  1  0  0  0  0
  7  8  1  0  0  0  0
  7 22  1  0  0  0  0
  8  9  1  0  0  0  0
  8 31  1  0  0  0  0
  8 32  1  0  0  0  0
  9 10  1  0  0  0  0
  9 11  1  0  0  0  0
  9 33  1  0  0  0  0
 10 34  1  0  0  0  0
 11 12  1  0  0  0  0
 11 35  1  0  0  0  0
 11 36  1  0  0  0  0
 12 20  1  0  0  0  0
 12 13  1  0  0  0  0
 13 14  2  0  0  0  0
 13 37  1  0  0  0  0
 14 15  1  0  0  0  0
 15 16  1  0  0  0  0
 15 19  2  0  0  0  0
 16 17  1  0  0  0  0
 16 18  1  0  0  0  0
 16 38  1  0  0  0  0
 17 39  1  0  0  0  0
 17 40  1  0  0  0  0
 17 41  1  0  0  0  0
 18 42  1  0  0  0  0
 18 43  1  0  0  0  0
 18 44  1  0  0  0  0
 19 20  1  0  0  0  0
 19 45  1  0  0  0  0
 20 21  2  0  0  0  0
 22 23  1  0  0  0  0
 23 24  2  0  0  0  0
 23 46  1  0  0  0  0
 24 25  1  0  0  0  0
 25 47  1  0  0  0  0
 25 48  1  0  0  0  0
 25 49  1  0  0  0  0
M  CHG  1   5   1
M  END
> <s_m_source_file>
AV-unprocessed.smi

> <i_m_source_file_index>
2691

> <i_lp_mmshare_version>
43012

> <i_f3d_flags>
0

> <s_epik_input>
W0NIM11jKFtjSF0xKWMoW0NIM10pW2NIXWMoYzEyKW4oW2NIXW4yKVtDSDJdW0NASF0oW09IXSlbQ0gyXW4zW2NIXW5jKFtDSF0oW0NIM10pW0NIM10pW2NIXWMzPU8=

> <s_epik_cmdline>
J2VwaWtfcHl0aG9uJywgJy1waCcsICc3LjAnLCAnLXRuJywgJzgnLCAnLW1hJywgJzIwMCcsICctbWV0YWxfYmluZGluZycsICctaW1hZScsICc8aW5maWxlLm1hZT4nLCAnLW9tYWUnLCAnPG91dGZpbGUubWFlPic=

> <r_lp_tautomer_probability>
1

> <r_epik_Ionization_Penalty>
1.0357

> <r_epik_Ionization_Penalty_Charging>
1.03568

> <r_epik_Ionization_Penalty_Neutral>
1.29543e-05

> <r_epik_State_Penalty>
1.08724

> <r_epik_Charging_Adjusted_Penalty>
2.12292

> <i_epik_Tot_Q>
1

> <i_epik_Tot_abs_Q>
1

> <r_epik_Metal_State_Penalty>
1.18376

> <b_epik_Metal_Only>
0

> <s_lp_Force_Field>
OPLS_2005

> <r_lp_Energy>
24.9035

> <b_lp_Chiralities_Consistent>
1

> <s_lp_Variant>
AV-unprocessed.smi:2691-4

> <Gold.Version>
5.8.1

> <Gold.Id.Protein>
6NUR|6NUR_protein|mol2

> <Gold.PLP.Fitness>
57.5807

> <Gold.PLP.PLP>
-49.9994

> <Gold.PLP.part.hbond>
-1.6164

> <Gold.PLP.part.metal>
0.0000

> <Gold.PLP.part.buried>
-6.7882

> <Gold.PLP.part.nonpolar>
-42.4992

> <Gold.PLP.part.repulsive>
0.2106

> <Gold.PLP.ligand.clash>
0.0000

> <Gold.PLP.ligand.torsion>
0.7531

> <Gold.PLP.Chemscore.Hbond>
2.0000

> <Gold.PLP.Chemscore.CHOScore>
0.9820

> <Gold.PLP.Chemscore.Metal>
0.0000

> <Gold.Chemscore.Hbonds>
donor molecule, donor type, donor heavy atom, donor atom, acceptor molecule, acceptor atom, score
      L1  H     5    50       P1  8028  2.00
      L1  C    13    37       P1  7957  1.00

> <Gold.PLP.Chemscore.Internal.Correction>
0.1416

> <Gold.Rescore>
     Score         DG    S(hbond)    S(metal)    S(lipo)     H(rot)  DE(clash)    DE(int)     intcor
     14.15     -16.09       1.00        0.00     117.26       2.52       0.34       1.61       ----

> <Gold.Chemscore.Fitness>
14.1471

> <Gold.Chemscore.DG>
-16.0888

> <Gold.Chemscore.ZeroCoef>
-5.4800

> <Gold.Chemscore.Hbond>
1.0003

> <Gold.Chemscore.Metal>
0.0000

> <Gold.Chemscore.Lipo>
117.2618

> <Gold.Chemscore.Internal_Hbond>
0.0000

> <Gold.Chemscore.DEClash>
0.3363

> <Gold.Chemscore.DEInternal>
1.6055

> <Gold.Chemscore.Rot>
2.5202

> <Gold.Chemscore.Internal.Correction>
   9.000000E+99

> <Gold.Chemscore.Hbonds>
donor molecule, donor type, donor heavy atom, donor atom, acceptor molecule, acceptor atom, score
      L1  H     5    50       P1  8028  1.00

> <Gold.Chemscore.Hbond.Weighted>
-3.3409

> <Gold.Chemscore.Metal.Weighted>
-0.0000

> <Gold.Chemscore.Lipo.Weighted>
-13.7196

> <Gold.Chemscore.Internal_Hbond.Weighted>
0.0000

> <Gold.Chemscore.DEClash.Weighted>
0.3363

> <Gold.Chemscore.DEInternal.Weighted>
1.6055

> <Gold.Chemscore.Rot.Weighted>
6.4517

> <Gold.Chemscore.Internal.Correction.Weighted>
   9.000000E+99

> <Gold.Protein.RotatedTorsions>
[ 6907 6896 6895 6894 ] final   30.05 input  -60.11 | X-H torsion
[ 7974 7965 7964 7962 ] final  112.97 input  175.53 | X-H torsion
[ 8008 7997 7996 7995 ] final    3.90 input   59.86 | X-H torsion
[ 10167 10162 10161 10158 ] final  -86.26 input  -65.29 | X-H torsion
[ 10718 10713 10712 10709 ] final  -10.03 input   66.30 | X-H torsion
[ 10763 10752 10751 10750 ] final  172.64 input  -60.55 | X-H torsion
[ 11005 11000 10999 10996 ] final  131.84 input  -57.11 | X-H torsion

> <Gold.Protein.ActiveResidues>
 VAL166  LYS551  ARG553  GLY616  TRP617  ASP618  TYR619  PRO620  LYS621  CYS622 
 ASP623  PHE694  ASN695  SER759  ASP760  ASP761  ALA762  ILE779  LEU786  VAL792 
 PHE793  MET794  SER795  GLU796  ALA797  LYS798  CYS799  TRP800  GLU811  SER814 

> <Gold.Protein.RotatedAtoms>
  152.0403  134.9715  160.0573 H   0  0  0  0  0  0  0  0  0  0  0  0  # atno 6907 bound_to 6896
  152.1156  133.4320  159.4660 H   0  0  0  0  0  0  0  0  0  0  0  0  # atno 6908 bound_to 6896
  150.6846  134.2515  159.4556 H   0  0  0  0  0  0  0  0  0  0  0  0  # atno 6909 bound_to 6896
  145.2229  139.2854  143.4209 H   0  0  0  0  0  0  0  0  0  0  0  0  # atno 7974 bound_to 7965
  154.7093  140.2689  155.6644 H   0  0  0  0  0  0  0  0  0  0  0  0  # atno 8008 bound_to 7997
  156.2790  140.2756  156.1653 H   0  0  0  0  0  0  0  0  0  0  0  0  # atno 8009 bound_to 7997
  155.0657  140.0371  157.2581 H   0  0  0  0  0  0  0  0  0  0  0  0  # atno 8010 bound_to 7997
  140.3959  143.2684  151.9205 H   0  0  0  0  0  0  0  0  0  0  0  0  # atno 10167 bound_to 10162
  156.6794  130.5032  149.5976 H   0  0  0  0  0  0  0  0  0  0  0  0  # atno 10718 bound_to 10713
  154.4289  135.2759  155.1926 H   0  0  0  0  0  0  0  0  0  0  0  0  # atno 10763 bound_to 10752
  154.3840  135.6081  153.5810 H   0  0  0  0  0  0  0  0  0  0  0  0  # atno 10764 bound_to 10752
  152.9835  135.5887  154.4597 H   0  0  0  0  0  0  0  0  0  0  0  0  # atno 10765 bound_to 10752
  139.9754  134.9565  156.9496 H   0  0  0  0  0  0  0  0  0  0  0  0  # atno 11005 bound_to 11000
  146.3372  140.2540  142.8599 LP  0  0  0  0  0  0  0  0  0  0  0  0  # atno 17320 bound_to 7965
  144.9749  140.8404  143.5433 LP  0  0  0  0  0  0  0  0  0  0  0  0  # atno 17321 bound_to 7965
  139.4787  144.5682  151.8131 LP  0  0  0  0  0  0  0  0  0  0  0  0  # atno 17342 bound_to 10162
  140.4791  144.1475  150.5929 LP  0  0  0  0  0  0  0  0  0  0  0  0  # atno 17343 bound_to 10162
  156.1879  130.6541  151.1027 LP  0  0  0  0  0  0  0  0  0  0  0  0  # atno 17370 bound_to 10713
  157.7049  131.0760  150.6700 LP  0  0  0  0  0  0  0  0  0  0  0  0  # atno 17371 bound_to 10713
  140.5205  134.0912  155.7291 LP  0  0  0  0  0  0  0  0  0  0  0  0  # atno 17394 bound_to 11000
  141.1431  133.9102  157.2278 LP  0  0  0  0  0  0  0  0  0  0  0  0  # atno 17395 bound_to 11000

$$$$
