#       Name:                AV-unprocessed.smi:2871
#       Creating user name   scv26
#       Creation time:       Fri Mar 27 15:49:52 2020


#       File generated by GOLD software.
#

@<TRIPOS>MOLECULE
AV-unprocessed.smi:2871
    42    44     1
SMALL
NO_CHARGES


@<TRIPOS>ATOM
      1 ****        -3.1388  -0.3602  -3.3077 C.3            1 S1                 0.0000
      2 ****        -2.4244  -0.1198  -2.0605 N.pl3          1 S1                 0.0000
      3 ****        -3.1609   0.0282  -0.8096 C.3            1 S1                 0.0000
      4 ****        -1.0128  -0.0707  -2.0512 C.ar           1 S1                 0.0000
      5 ****        -0.2468  -0.2349  -3.2312 C.ar           1 S1                 0.0000
      6 ****         1.1586  -0.1686  -3.0983 C.ar           1 S1                 0.0000
      7 ****         2.0917  -0.3298  -4.2889 C.3            1 S1                 0.0000
      8 ****         1.4150  -0.5235  -5.4217 F              1 S1                 0.0000
      9 ****         2.8389   0.7657  -4.4258 F              1 S1                 0.0000
     10 ****         2.8941  -1.3761  -4.0924 F              1 S1                 0.0000
     11 ****         1.7459   0.0404  -1.8988 N.ar           1 S1                 0.0000
     12 ****         0.9411   0.1827  -0.8465 C.ar           1 S1                 0.0000
     13 ****         1.5747   0.3896   0.3649 N.pl3          1 S1                 0.0000
     14 ****         0.8912   0.4891   1.6486 C.3            1 S1                 0.0000
     15 ****         0.3590  -0.8580   2.1534 C.3            1 S1                 0.0000
     16 ****         1.0155  -0.9589   3.5357 C.3            1 S1                 0.0000
     17 ****         0.4497   0.0682   4.5261 C.3            1 S1                 0.0000
     18 ****         1.0686   1.3690   4.0151 C.3            1 S1                 0.0000
     19 ****         1.8484   0.8862   2.7848 C.3            1 S1                 0.0000
     20 ****         2.2781  -0.3827   3.2519 O.3            1 S1                 0.0000
     21 ****        -0.3947   0.1402  -0.8641 N.ar           1 S1                 0.0000
     22 ****        -2.9112   0.4185  -4.0365 H              1 S1                 0.0000
     23 ****        -4.2176  -0.3646  -3.1527 H              1 S1                 0.0000
     24 ****        -2.8587  -1.3260  -3.7297 H              1 S1                 0.0000
     25 ****        -2.9629   1.0028  -0.3625 H              1 S1                 0.0000
     26 ****        -2.8681  -0.7447  -0.0982 H              1 S1                 0.0000
     27 ****        -4.2361  -0.0548  -0.9683 H              1 S1                 0.0000
     28 ****        -0.7015  -0.4044  -4.1951 H              1 S1                 0.0000
     29 ****         2.5843   0.4004   0.3622 H              1 S1                 0.0000
     30 ****         0.0905   1.2250   1.5624 H              1 S1                 0.0000
     31 ****        -0.7299  -0.8860   2.2043 H              1 S1                 0.0000
     32 ****         0.6881  -1.6840   1.5209 H              1 S1                 0.0000
     33 ****         1.0634  -1.9747   3.9288 H              1 S1                 0.0000
     34 ****        -0.6407   0.0873   4.5236 H              1 S1                 0.0000
     35 ****         0.7867  -0.1423   5.5416 H              1 S1                 0.0000
     36 ****         0.3233   2.1256   3.7677 H              1 S1                 0.0000
     37 ****         1.7455   1.7882   4.7605 H              1 S1                 0.0000
     38 ****         2.6533   1.5594   2.4871 H              1 S1                 0.0000
     39 ****         2.7405   0.0861  -1.8054 LP             1 S1                 0.0000
     40 ****         2.7725  -0.8928   2.5481 LP             1 S1                 0.0000
     41 ****         2.8474  -0.3070   4.0705 LP             1 S1                 0.0000
     42 ****        -0.9235   0.2607  -0.0240 LP             1 S1                 0.0000
@<TRIPOS>BOND
    1    1    2 1     
    2    1   22 1     
    3    1   23 1     
    4    1   24 1     
    5    2    3 1     
    6    2    4 1     
    7    3   25 1     
    8    3   26 1     
    9    3   27 1     
   10    4   21 ar    
   11    4    5 ar    
   12    5    6 ar    
   13    5   28 1     
   14    6    7 1     
   15    6   11 ar    
   16    7    8 1     
   17    7    9 1     
   18    7   10 1     
   19   11   12 ar    
   20   12   13 1     
   21   12   21 ar    
   22   13   14 1     
   23   13   29 1     
   24   14   19 1     
   25   14   15 1     
   26   14   30 1     
   27   15   16 1     
   28   15   31 1     
   29   15   32 1     
   30   16   20 1     
   31   16   17 1     
   32   16   33 1     
   33   17   18 1     
   34   17   34 1     
   35   17   35 1     
   36   18   19 1     
   37   18   36 1     
   38   18   37 1     
   39   19   20 1     
   40   19   38 1     
   41   11   39 1     
   42   20   40 1     
   43   20   41 1     
   44   21   42 1     
@<TRIPOS>SUBSTRUCTURE
      1 S1             1
@<TRIPOS>SET
LONE_PAIRS      STATIC     ATOMS    <user>   **** ""
4 39 40 41 42
DONOR_HYDROGENS      STATIC     ATOMS    <user>   **** ""
1 29
ATOM$BLUE        STATIC     ATOMS    COLORGROUP SYSTEM
4 39 40 41 42
ATOM$RED        STATIC     ATOMS    COLORGROUP SYSTEM
1 29
