AV-unprocessed.smi:99|AV-procd|sdf|892|dock5
  -GOLD-   2262017383D 1   1.00000     0.00000
 Structure written by MMmdl.
 52 55  0  0  0  0  0  0  0  0  2 V2000
  143.0089  134.8104  153.5859 O   0  0  0  0  0  0  0  0  0  0  0  0
  144.1749  134.5643  153.2709 C   0  0  0  0  0  0  0  0  0  0  0  0
  145.2438  135.0714  153.9134 O   0  0  0  0  0  0  0  0  0  0  0  0
  145.0634  135.9350  155.0255 C   0  0  0  0  0  0  0  0  0  0  0  0
  146.4180  136.2637  155.6680 C   0  0  1  0  0  0  0  0  0  0  0  0
  147.1895  137.0442  154.7646 O   0  0  0  0  0  0  0  0  0  0  0  0
  147.4958  138.2942  155.2991 C   0  0  2  0  0  0  0  0  0  0  0  0
  148.9953  138.4947  155.2034 N   0  0  0  0  0  0  0  0  0  0  0  0
  149.8309  137.5395  155.7551 C   0  0  0  0  0  0  0  0  0  0  0  0
  151.1729  137.6744  155.7289 C   0  0  0  0  0  0  0  0  0  0  0  0
  151.7616  138.8597  155.1135 C   0  0  0  0  0  0  0  0  0  0  0  0
  152.9858  138.9677  155.0787 O   0  0  0  0  0  0  0  0  0  0  0  0
  150.9188  139.8023  154.6023 N   0  5  0  0  0  0  0  0  0  0  0  0
  149.5602  139.6732  154.6357 C   0  0  0  0  0  0  0  0  0  0  0  0
  148.8011  140.5352  154.1974 O   0  0  0  0  0  0  0  0  0  0  0  0
  146.9734  138.3767  156.7460 C   0  0  1  0  0  0  0  0  0  0  0  0
  146.0133  139.4013  156.9038 O   0  0  0  0  0  0  0  0  0  0  0  0
  146.3070  137.0251  156.9959 C   0  0  2  0  0  0  0  0  0  0  0  0
  146.9821  136.3063  158.0211 O   0  0  0  0  0  0  0  0  0  0  0  0
  147.0553  136.7907  159.2779 C   0  0  0  0  0  0  0  0  0  0  0  0
  147.0332  137.9929  159.5503 O   0  0  0  0  0  0  0  0  0  0  0  0
  147.1685  135.7153  160.3043 C   0  0  0  0  0  0  0  0  0  0  0  0
  147.1821  136.0628  161.6753 C   0  0  0  0  0  0  0  0  0  0  0  0
  147.2901  135.0676  162.6663 C   0  0  0  0  0  0  0  0  0  0  0  0
  147.3885  133.7132  162.2979 C   0  0  0  0  0  0  0  0  0  0  0  0
  147.3790  133.3549  160.9372 C   0  0  0  0  0  0  0  0  0  0  0  0
  147.2695  134.3484  159.9448 C   0  0  0  0  0  0  0  0  0  0  0  0
  144.5503  133.6760  152.1333 C   0  0  0  0  0  0  0  0  0  0  0  0
  143.5406  132.9539  151.4551 C   0  0  0  0  0  0  0  0  0  0  0  0
  143.8648  132.1093  150.3756 C   0  0  0  0  0  0  0  0  0  0  0  0
  145.2028  131.9744  149.9629 C   0  0  0  0  0  0  0  0  0  0  0  0
  146.2166  132.6861  150.6305 C   0  0  0  0  0  0  0  0  0  0  0  0
  145.8943  133.5324  151.7091 C   0  0  0  0  0  0  0  0  0  0  0  0
  144.5833  136.8583  154.6976 H   0  0  0  0  0  0  0  0  0  0  0  0
  144.4030  135.4648  155.7552 H   0  0  0  0  0  0  0  0  0  0  0  0
  146.9560  135.3264  155.8169 H   0  0  0  0  0  0  0  0  0  0  0  0
  147.0554  139.0587  154.6573 H   0  0  0  0  0  0  0  0  0  0  0  0
  149.4085  136.6593  156.2166 H   0  0  0  0  0  0  0  0  0  0  0  0
  151.8071  136.9151  156.1622 H   0  0  0  0  0  0  0  0  0  0  0  0
  147.7918  138.5707  157.4407 H   0  0  0  0  0  0  0  0  0  0  0  0
  145.7665  139.7114  156.0457 H   0  0  0  0  0  0  0  0  0  0  0  0
  145.2557  137.1431  157.2659 H   0  0  0  0  0  0  0  0  0  0  0  0
  147.1088  137.0963  161.9817 H   0  0  0  0  0  0  0  0  0  0  0  0
  147.2982  135.3447  163.7102 H   0  0  0  0  0  0  0  0  0  0  0  0
  147.4728  132.9503  163.0579 H   0  0  0  0  0  0  0  0  0  0  0  0
  147.4577  132.3162  160.6519 H   0  0  0  0  0  0  0  0  0  0  0  0
  147.2699  134.0392  158.9094 H   0  0  0  0  0  0  0  0  0  0  0  0
  142.5061  133.0411  151.7542 H   0  0  0  0  0  0  0  0  0  0  0  0
  143.0851  131.5648  149.8638 H   0  0  0  0  0  0  0  0  0  0  0  0
  145.4509  131.3261  149.1353 H   0  0  0  0  0  0  0  0  0  0  0  0
  147.2444  132.5840  150.3148 H   0  0  0  0  0  0  0  0  0  0  0  0
  146.6966  134.0630  152.2007 H   0  0  0  0  0  0  0  0  0  0  0  0
  1  2  2  0  0  0  0
  2  3  1  0  0  0  0
  2 28  1  0  0  0  0
  3  4  1  0  0  0  0
  4  5  1  0  0  0  0
  4 34  1  0  0  0  0
  4 35  1  0  0  0  0
  5 18  1  0  0  0  0
  5  6  1  0  0  0  0
  5 36  1  0  0  0  0
  6  7  1  0  0  0  0
  7  8  1  0  0  0  0
  7 16  1  0  0  0  0
  7 37  1  0  0  0  0
  8 14  1  0  0  0  0
  8  9  1  0  0  0  0
  9 10  2  0  0  0  0
  9 38  1  0  0  0  0
 10 11  1  0  0  0  0
 10 39  1  0  0  0  0
 11 12  2  0  0  0  0
 11 13  1  0  0  0  0
 13 14  1  0  0  0  0
 14 15  2  0  0  0  0
 16 17  1  0  0  0  0
 16 18  1  0  0  0  0
 16 40  1  0  0  0  0
 17 41  1  0  0  0  0
 18 19  1  0  0  0  0
 18 42  1  0  0  0  0
 19 20  1  0  0  0  0
 20 21  2  0  0  0  0
 20 22  1  0  0  0  0
 22 27  1  0  0  0  0
 22 23  2  0  0  0  0
 23 24  1  0  0  0  0
 23 43  1  0  0  0  0
 24 25  2  0  0  0  0
 24 44  1  0  0  0  0
 25 26  1  0  0  0  0
 25 45  1  0  0  0  0
 26 27  2  0  0  0  0
 26 46  1  0  0  0  0
 27 47  1  0  0  0  0
 28 33  1  0  0  0  0
 28 29  2  0  0  0  0
 29 30  1  0  0  0  0
 29 48  1  0  0  0  0
 30 31  2  0  0  0  0
 30 49  1  0  0  0  0
 31 32  1  0  0  0  0
 31 50  1  0  0  0  0
 32 33  2  0  0  0  0
 32 51  1  0  0  0  0
 33 52  1  0  0  0  0
M  CHG  1  13  -1
M  END
> <s_m_source_file>
AV-unprocessed.smi

> <i_m_source_file_index>
99

> <i_lp_mmshare_version>
43012

> <i_f3d_flags>
0

> <s_epik_input>
W2NIXTFbY0hdW2NIXVtjSF1bY0hdYzFDKD1PKU9bQ0gyXVtDQEBIXTJPW0NAQEhdKG4zW2NIXVtjSF1jKD1PKVtuSF1jMz1PKVtDQEBIXShbT0hdKVtDQEhdMk9DKD1PKWM0W2NIXVtjSF1bY0hdW2NIXVtjSF00

> <s_epik_cmdline>
J2VwaWtfcHl0aG9uJywgJy1waCcsICc3LjAnLCAnLXRuJywgJzgnLCAnLW1hJywgJzIwMCcsICctbWV0YWxfYmluZGluZycsICctaW1hZScsICc8aW5maWxlLm1hZT4nLCAnLW9tYWUnLCAnPG91dGZpbGUubWFlPic=

> <r_lp_tautomer_probability>
1

> <r_epik_Ionization_Penalty>
2.89159

> <r_epik_Ionization_Penalty_Charging>
2.1077e-08

> <r_epik_Ionization_Penalty_Neutral>
2.89159

> <r_epik_State_Penalty>
2.88671

> <r_epik_Charging_Adjusted_Penalty>
2.88671

> <i_epik_Tot_Q>
-1

> <i_epik_Tot_abs_Q>
1

> <r_epik_Metal_State_Penalty>
0.0727308

> <b_epik_Metal_Only>
1

> <s_epik_Chemistry_Notes>
This compound has an ester and may undergo hydrolysis at high or low pH. This compound contains an acetal/aminal-like group ( X-CH(R)-Y where X, Y are N, S, or O) that may be acid/base labile, releasing an aldehyde.

> <s_lp_Force_Field>
OPLS_2005

> <r_lp_Energy>
36.8261

> <b_lp_Chiralities_Consistent>
1

> <s_lp_Variant>
AV-unprocessed.smi:99-28

> <Gold.Version>
5.8.1

> <Gold.Id.Protein>
6NUR|6NUR_protein|mol2

> <Gold.PLP.Fitness>
54.4099

> <Gold.PLP.PLP>
-47.4813

> <Gold.PLP.part.hbond>
-2.8143

> <Gold.PLP.part.metal>
0.0000

> <Gold.PLP.part.buried>
-10.1637

> <Gold.PLP.part.nonpolar>
-36.1027

> <Gold.PLP.part.repulsive>
0.7674

> <Gold.PLP.ligand.clash>
0.0000

> <Gold.PLP.ligand.torsion>
0.5689

> <Gold.PLP.Chemscore.Hbond>
2.6080

> <Gold.PLP.Chemscore.CHOScore>
0.0000

> <Gold.PLP.Chemscore.Metal>
0.0000

> <Gold.Chemscore.Hbonds>
donor molecule, donor type, donor heavy atom, donor atom, acceptor molecule, acceptor atom, score
      P1  H  6934  6947       L1    21  0.70
      P1  H  7989  7998       L1    13  1.00
      P1  H  7997  8009       L1    12  0.84

> <Gold.PLP.Chemscore.Internal.Correction>
0.2424

> <Gold.Rescore>
     Score         DG    S(hbond)    S(metal)    S(lipo)     H(rot)  DE(clash)    DE(int)     intcor
     17.26     -17.73       2.85        0.00      92.01       3.13       0.01       0.46       ----

> <Gold.Chemscore.Fitness>
17.2605

> <Gold.Chemscore.DG>
-17.7287

> <Gold.Chemscore.ZeroCoef>
-5.4800

> <Gold.Chemscore.Hbond>
2.8467

> <Gold.Chemscore.Metal>
0.0000

> <Gold.Chemscore.Lipo>
92.0098

> <Gold.Chemscore.Internal_Hbond>
0.0000

> <Gold.Chemscore.DEClash>
0.0095

> <Gold.Chemscore.DEInternal>
0.4588

> <Gold.Chemscore.Rot>
3.1346

> <Gold.Chemscore.Internal.Correction>
   9.000000E+99

> <Gold.Chemscore.Hbonds>
donor molecule, donor type, donor heavy atom, donor atom, acceptor molecule, acceptor atom, score
      P1  H  6934  6947       L1    21  0.70
      P1  H  7989  7998       L1    13  0.89
      P1  H  7997  8009       L1    12  0.81

> <Gold.Chemscore.Hbond.Weighted>
-9.5081

> <Gold.Chemscore.Metal.Weighted>
-0.0000

> <Gold.Chemscore.Lipo.Weighted>
-10.7651

> <Gold.Chemscore.Internal_Hbond.Weighted>
0.0000

> <Gold.Chemscore.DEClash.Weighted>
0.0095

> <Gold.Chemscore.DEInternal.Weighted>
0.4588

> <Gold.Chemscore.Rot.Weighted>
8.0246

> <Gold.Chemscore.Internal.Correction.Weighted>
   9.000000E+99

> <Gold.Protein.RotatedTorsions>
[ 6907 6896 6895 6894 ] final  -34.11 input  -60.11 | X-H torsion
[ 7974 7965 7964 7962 ] final  -28.78 input  175.53 | X-H torsion
[ 8008 7997 7996 7995 ] final -128.09 input   59.86 | X-H torsion
[ 10167 10162 10161 10158 ] final  154.51 input  -65.29 | X-H torsion
[ 10718 10713 10712 10709 ] final   42.43 input   66.30 | X-H torsion
[ 10763 10752 10751 10750 ] final  -22.66 input  -60.55 | X-H torsion
[ 11005 11000 10999 10996 ] final   87.50 input  -57.11 | X-H torsion

> <Gold.Protein.ActiveResidues>
 VAL166  LYS551  ARG553  GLY616  TRP617  ASP618  TYR619  PRO620  LYS621  CYS622 
 ASP623  PHE694  ASN695  SER759  ASP760  ASP761  ALA762  ILE779  LEU786  VAL792 
 PHE793  MET794  SER795  GLU796  ALA797  LYS798  CYS799  TRP800  GLU811  SER814 

> <Gold.Protein.RotatedAtoms>
  151.0568  134.9710  159.8239 H   0  0  0  0  0  0  0  0  0  0  0  0  # atno 6907 bound_to 6896
  152.5389  134.2468  159.8893 H   0  0  0  0  0  0  0  0  0  0  0  0  # atno 6908 bound_to 6896
  151.2486  133.4319  159.2644 H   0  0  0  0  0  0  0  0  0  0  0  0  # atno 6909 bound_to 6896
  146.1264  140.5327  142.8713 H   0  0  0  0  0  0  0  0  0  0  0  0  # atno 7974 bound_to 7965
  155.2570  140.0434  157.2993 H   0  0  0  0  0  0  0  0  0  0  0  0  # atno 8008 bound_to 7997
  154.5734  140.2380  155.8128 H   0  0  0  0  0  0  0  0  0  0  0  0  # atno 8009 bound_to 7997
  156.2140  140.2990  155.9804 H   0  0  0  0  0  0  0  0  0  0  0  0  # atno 8010 bound_to 7997
  139.4823  144.5180  151.7921 H   0  0  0  0  0  0  0  0  0  0  0  0  # atno 10167 bound_to 10162
  157.4047  130.7880  149.7378 H   0  0  0  0  0  0  0  0  0  0  0  0  # atno 10718 bound_to 10713
  153.6554  135.6979  153.5195 H   0  0  0  0  0  0  0  0  0  0  0  0  # atno 10763 bound_to 10752
  153.2673  135.4226  155.0953 H   0  0  0  0  0  0  0  0  0  0  0  0  # atno 10764 bound_to 10752
  154.8465  135.3570  154.6099 H   0  0  0  0  0  0  0  0  0  0  0  0  # atno 10765 bound_to 10752
  139.8918  134.8426  156.2868 H   0  0  0  0  0  0  0  0  0  0  0  0  # atno 11005 bound_to 11000
  144.7646  140.5501  143.6712 LP  0  0  0  0  0  0  0  0  0  0  0  0  # atno 17320 bound_to 7965
  145.5357  139.1475  143.3475 LP  0  0  0  0  0  0  0  0  0  0  0  0  # atno 17321 bound_to 7965
  140.4691  144.1613  150.5915 LP  0  0  0  0  0  0  0  0  0  0  0  0  # atno 17342 bound_to 10162
  140.4402  143.2530  151.9483 LP  0  0  0  0  0  0  0  0  0  0  0  0  # atno 17343 bound_to 10162
  155.9833  130.4002  150.3371 LP  0  0  0  0  0  0  0  0  0  0  0  0  # atno 17370 bound_to 10713
  157.1502  131.0319  151.2888 LP  0  0  0  0  0  0  0  0  0  0  0  0  # atno 17371 bound_to 10713
  141.0002  133.7156  156.0949 LP  0  0  0  0  0  0  0  0  0  0  0  0  # atno 17394 bound_to 11000
  140.7508  134.4047  157.5541 LP  0  0  0  0  0  0  0  0  0  0  0  0  # atno 17395 bound_to 11000

$$$$
