#       Name:                AV-unprocessed.smi:1484
#       Creating user name   scv26
#       Creation time:       Fri Mar 27 06:09:22 2020


#       File generated by GOLD software.
#

@<TRIPOS>MOLECULE
AV-unprocessed.smi:1484
    45    46     1
SMALL
NO_CHARGES


@<TRIPOS>ATOM
      1 ****        -3.5542  -1.5118  -1.5702 C.3            1 S1                 0.0000
      2 ****        -3.0548  -0.8004  -0.3048 C.3            1 S1                 0.0000
      3 ****        -3.1072  -1.7307   0.9220 C.3            1 S1                 0.0000
      4 ****        -2.6078  -1.0192   2.1891 C.3            1 S1                 0.0000
      5 ****        -1.1908  -0.4592   1.9930 C.3            1 S1                 0.0000
      6 ****        -1.1205   0.4739   0.7676 C.3            1 S1                 0.0000
      7 ****         0.2483   0.9252   0.5457 N.am           1 S1                 0.0000
      8 ****         0.8504   1.9504   1.1723 C.2            1 S1                 0.0000
      9 ****         0.2878   2.6306   2.0297 O.2            1 S1                 0.0000
     10 ****         2.3072   2.2755   0.7971 C.3            1 S1                 0.0000
     11 ****         2.8623   1.4615  -0.2970 N.am           1 S1                 0.0000
     12 ****         3.5704   0.3482   0.1300 N.2            1 S1                 0.0000
     13 ****         4.0922  -0.4548  -0.7344 C.2            1 S1                 0.0000
     14 ****         4.7820  -1.5464  -0.2674 O.3            1 S1                 0.0000
     15 ****         3.9569  -0.2165  -2.1545 C.2            1 S1                 0.0000
     16 ****         3.2672   0.8716  -2.5612 C.2            1 S1                 0.0000
     17 ****         2.6598   1.8015  -1.6074 C.2            1 S1                 0.0000
     18 ****         2.0165   2.7932  -1.9495 O.2            1 S1                 0.0000
     19 ****        -1.6311  -0.2429  -0.4966 C.3            1 S1                 0.0000
     20 ****         4.7355  -1.4883   0.6746 H              1 S1                 0.0000
     21 ****        -2.9309  -2.3730  -1.8136 H              1 S1                 0.0000
     22 ****        -3.5438  -0.8398  -2.4288 H              1 S1                 0.0000
     23 ****        -4.5774  -1.8665  -1.4430 H              1 S1                 0.0000
     24 ****        -3.7225   0.0421  -0.1175 H              1 S1                 0.0000
     25 ****        -4.1267  -2.0841   1.0801 H              1 S1                 0.0000
     26 ****        -2.4981  -2.6172   0.7398 H              1 S1                 0.0000
     27 ****        -3.2892  -0.2069   2.4450 H              1 S1                 0.0000
     28 ****        -2.6200  -1.7102   3.0324 H              1 S1                 0.0000
     29 ****        -0.8822   0.0746   2.8926 H              1 S1                 0.0000
     30 ****        -0.4899  -1.2860   1.8689 H              1 S1                 0.0000
     31 ****        -1.7576   1.3424   0.9462 H              1 S1                 0.0000
     32 ****         0.7843   0.4206  -0.1455 H              1 S1                 0.0000
     33 ****         2.3752   3.3367   0.5517 H              1 S1                 0.0000
     34 ****         2.9176   2.1505   1.6933 H              1 S1                 0.0000
     35 ****         4.4012  -0.8978  -2.8651 H              1 S1                 0.0000
     36 ****         3.1586   1.0616  -3.6190 H              1 S1                 0.0000
     37 ****        -0.9532  -1.0578  -0.7560 H              1 S1                 0.0000
     38 ****        -1.6173   0.4487  -1.3403 H              1 S1                 0.0000
     39 ****        -0.6575   2.4296   2.2866 LP             1 S1                 0.0000
     40 ****         0.7760   3.3844   2.4696 LP             1 S1                 0.0000
     41 ****         3.6766   0.1679   1.1079 LP             1 S1                 0.0000
     42 ****         5.7336  -1.5161  -0.5733 LP             1 S1                 0.0000
     43 ****         4.3559  -2.3926  -0.5872 LP             1 S1                 0.0000
     44 ****         1.6146   3.3919  -1.2567 LP             1 S1                 0.0000
     45 ****         1.8958   3.0004  -2.9203 LP             1 S1                 0.0000
@<TRIPOS>BOND
    1    1    2 1     
    2    1   21 1     
    3    1   22 1     
    4    1   23 1     
    5    2   19 1     
    6    2    3 1     
    7    2   24 1     
    8    3    4 1     
    9    3   25 1     
   10    3   26 1     
   11    4    5 1     
   12    4   27 1     
   13    4   28 1     
   14    5    6 1     
   15    5   29 1     
   16    5   30 1     
   17    6    7 1     
   18    6   19 1     
   19    6   31 1     
   20    7    8 am    
   21    7   32 1     
   22    8    9 2     
   23    8   10 1     
   24   10   33 1     
   25   10   34 1     
   26   10   11 1     
   27   11   12 1     
   28   11   17 am    
   29   12   13 2     
   30   13   14 1     
   31   13   15 1     
   32   14   20 1     
   33   15   35 1     
   34   15   16 2     
   35   16   36 1     
   36   16   17 1     
   37   17   18 2     
   38   19   37 1     
   39   19   38 1     
   40    9   39 1     
   41    9   40 1     
   42   12   41 1     
   43   14   42 1     
   44   14   43 1     
   45   18   44 1     
   46   18   45 1     
@<TRIPOS>SUBSTRUCTURE
      1 S1             1
@<TRIPOS>SET
LONE_PAIRS      STATIC     ATOMS    <user>   **** ""
7 39 40 41 42 43 44 45
DONOR_HYDROGENS      STATIC     ATOMS    <user>   **** ""
2 32 20
ATOM$BLUE        STATIC     ATOMS    COLORGROUP SYSTEM
7 39 40 41 42 43 44 45
ATOM$RED        STATIC     ATOMS    COLORGROUP SYSTEM
2 32 20
