AV-unprocessed.smi:1535|AV-procd|sdf|6175|dock5
  -GOLD-   22720 6333D 1   1.00000     0.00000
 Structure written by MMmdl.
 47 48  0  0  0  0  0  0  0  0  2 V2000
  152.6585  143.9966  159.7032 C   0  0  0  0  0  0  0  0  0  0  0  0
  152.2011  142.9358  158.7164 C   0  0  0  0  0  0  0  0  0  0  0  0
  151.2256  143.2849  157.7553 C   0  0  0  0  0  0  0  0  0  0  0  0
  150.8254  142.2927  156.8681 C   0  0  0  0  0  0  0  0  0  0  0  0
  149.8978  142.3179  155.8245 N   0  3  0  0  0  0  0  0  0  0  0  0
  149.8441  141.0915  155.2346 C   0  0  0  0  0  0  0  0  0  0  0  0
  150.7240  140.2838  155.8870 N   0  0  0  0  0  0  0  0  0  0  0  0
  151.0545  138.8698  155.6626 C   0  0  0  0  0  0  0  0  0  0  0  0
  149.9785  138.1219  154.8501 C   0  0  1  0  0  0  0  0  0  0  0  0
  150.0769  138.5025  153.4912 O   0  0  0  0  0  0  0  0  0  0  0  0
  150.1587  136.5926  154.9443 C   0  0  0  0  0  0  0  0  0  0  0  0
  149.4720  135.9437  156.0670 N   0  0  0  0  0  0  0  0  0  0  0  0
  150.2839  135.9820  157.2803 C   0  0  0  0  0  0  0  0  0  0  0  0
  149.1110  134.5573  155.7611 C   0  0  0  0  0  0  0  0  0  0  0  0
  150.2640  133.6575  155.2717 C   0  0  2  0  0  0  0  0  0  0  0  0
  149.7761  132.5509  154.3255 C   0  0  0  0  0  0  0  0  0  0  0  0
  150.9775  133.0720  156.4178 C   0  0  0  0  0  0  0  0  0  0  0  0
  151.5384  132.6117  157.3189 N   0  0  0  0  0  0  0  0  0  0  0  0
  151.3614  140.9911  156.9120 C   0  0  0  0  0  0  0  0  0  0  0  0
  152.3258  140.6309  157.8498 C   0  0  0  0  0  0  0  0  0  0  0  0
  152.7447  141.6256  158.7623 C   0  0  0  0  0  0  0  0  0  0  0  0
  153.7935  141.2619  159.7995 C   0  0  0  0  0  0  0  0  0  0  0  0
  152.1219  144.9347  159.5581 H   0  0  0  0  0  0  0  0  0  0  0  0
  153.7227  144.1989  159.5809 H   0  0  0  0  0  0  0  0  0  0  0  0
  152.4828  143.6698  160.7281 H   0  0  0  0  0  0  0  0  0  0  0  0
  150.8081  144.2803  157.7132 H   0  0  0  0  0  0  0  0  0  0  0  0
  149.2141  140.8098  154.4034 H   0  0  0  0  0  0  0  0  0  0  0  0
  152.0138  138.8366  155.1438 H   0  0  0  0  0  0  0  0  0  0  0  0
  151.2097  138.3966  156.6330 H   0  0  0  0  0  0  0  0  0  0  0  0
  148.9993  138.4246  155.2165 H   0  0  0  0  0  0  0  0  0  0  0  0
  149.6343  137.8545  152.9650 H   0  0  0  0  0  0  0  0  0  0  0  0
  149.8228  136.1699  153.9991 H   0  0  0  0  0  0  0  0  0  0  0  0
  151.2231  136.3596  155.0023 H   0  0  0  0  0  0  0  0  0  0  0  0
  149.7711  135.4845  158.1040 H   0  0  0  0  0  0  0  0  0  0  0  0
  150.4777  137.0031  157.6044 H   0  0  0  0  0  0  0  0  0  0  0  0
  151.2422  135.4829  157.1306 H   0  0  0  0  0  0  0  0  0  0  0  0
  148.6469  134.1030  156.6381 H   0  0  0  0  0  0  0  0  0  0  0  0
  148.3441  134.5496  154.9850 H   0  0  0  0  0  0  0  0  0  0  0  0
  151.0138  134.2526  154.7535 H   0  0  0  0  0  0  0  0  0  0  0  0
  150.6052  131.9206  154.0029 H   0  0  0  0  0  0  0  0  0  0  0  0
  149.3147  132.9687  153.4304 H   0  0  0  0  0  0  0  0  0  0  0  0
  149.0410  131.9102  154.8133 H   0  0  0  0  0  0  0  0  0  0  0  0
  152.7376  139.6331  157.8848 H   0  0  0  0  0  0  0  0  0  0  0  0
  154.1107  140.2234  159.6998 H   0  0  0  0  0  0  0  0  0  0  0  0
  153.3978  141.3934  160.8067 H   0  0  0  0  0  0  0  0  0  0  0  0
  154.6766  141.8916  159.6885 H   0  0  0  0  0  0  0  0  0  0  0  0
  149.3391  143.1107  155.5358 H   0  0  0  0  0  0  0  0  0  0  0  0
  1  2  1  0  0  0  0
  1 23  1  0  0  0  0
  1 24  1  0  0  0  0
  1 25  1  0  0  0  0
  2 21  1  0  0  0  0
  2  3  2  0  0  0  0
  3  4  1  0  0  0  0
  3 26  1  0  0  0  0
  4 19  2  0  0  0  0
  4  5  1  0  0  0  0
  5  6  2  0  0  0  0
  5 47  1  0  0  0  0
  6  7  1  0  0  0  0
  6 27  1  0  0  0  0
  7  8  1  0  0  0  0
  7 19  1  0  0  0  0
  8  9  1  0  0  0  0
  8 28  1  0  0  0  0
  8 29  1  0  0  0  0
  9 10  1  0  0  0  0
  9 11  1  0  0  0  0
  9 30  1  0  0  0  0
 10 31  1  0  0  0  0
 11 12  1  0  0  0  0
 11 32  1  0  0  0  0
 11 33  1  0  0  0  0
 12 13  1  0  0  0  0
 12 14  1  0  0  0  0
 13 34  1  0  0  0  0
 13 35  1  0  0  0  0
 13 36  1  0  0  0  0
 14 15  1  0  0  0  0
 14 37  1  0  0  0  0
 14 38  1  0  0  0  0
 15 16  1  0  0  0  0
 15 17  1  0  0  0  0
 15 39  1  0  0  0  0
 16 40  1  0  0  0  0
 16 41  1  0  0  0  0
 16 42  1  0  0  0  0
 17 18  3  0  0  0  0
 19 20  1  0  0  0  0
 20 21  2  0  0  0  0
 20 43  1  0  0  0  0
 21 22  1  0  0  0  0
 22 44  1  0  0  0  0
 22 45  1  0  0  0  0
 22 46  1  0  0  0  0
M  CHG  1   5   1
M  END
> <s_m_source_file>
AV-unprocessed.smi

> <i_m_source_file_index>
1535

> <i_lp_mmshare_version>
43012

> <i_f3d_flags>
0

> <s_epik_input>
W0NIM11jKFtjSF0xKWMoW0NIM10pW2NIXWMoYzEyKW4oW2NIXW4yKVtDSDJdW0NASF0oW09IXSlbQ0gyXU4oW0NIM10pW0NIMl1bQ0BIXShbQ0gzXSlDI04=

> <s_epik_cmdline>
J2VwaWtfcHl0aG9uJywgJy1waCcsICc3LjAnLCAnLXRuJywgJzgnLCAnLW1hJywgJzIwMCcsICctbWV0YWxfYmluZGluZycsICctaW1hZScsICc8aW5maWxlLm1hZT4nLCAnLW9tYWUnLCAnPG91dGZpbGUubWFlPic=

> <r_epik_Ionization_Penalty>
1.22846

> <r_epik_Ionization_Penalty_Charging>
1.21333

> <r_epik_Ionization_Penalty_Neutral>
0.0151341

> <r_epik_State_Penalty>
1.27012

> <r_epik_Charging_Adjusted_Penalty>
2.48344

> <i_epik_Tot_Q>
1

> <i_epik_Tot_abs_Q>
1

> <r_epik_Metal_State_Penalty>
5.28751

> <b_epik_Metal_Only>
0

> <s_lp_Force_Field>
OPLS_2005

> <r_lp_Energy>
30.2724

> <b_lp_Chiralities_Consistent>
1

> <s_lp_Variant>
AV-unprocessed.smi:1535-6

> <Gold.Version>
5.8.1

> <Gold.Id.Protein>
6NUR|6NUR_protein|mol2

> <Gold.PLP.Fitness>
52.1269

> <Gold.PLP.PLP>
-42.8028

> <Gold.PLP.part.hbond>
-4.0314

> <Gold.PLP.part.metal>
0.0000

> <Gold.PLP.part.buried>
-4.7034

> <Gold.PLP.part.nonpolar>
-35.7341

> <Gold.PLP.part.repulsive>
0.1993

> <Gold.PLP.ligand.clash>
0.0000

> <Gold.PLP.ligand.torsion>
1.4119

> <Gold.PLP.Chemscore.Hbond>
3.9913

> <Gold.PLP.Chemscore.CHOScore>
0.0000

> <Gold.PLP.Chemscore.Metal>
0.0000

> <Gold.Chemscore.Hbonds>
donor molecule, donor type, donor heavy atom, donor atom, acceptor molecule, acceptor atom, score
      L1  H     5    47       P1  8028  2.00
      L1  H    10    31       P1  7948  0.99
      P1  H  6896  6908       L1    18  0.98

> <Gold.PLP.Chemscore.Internal.Correction>
0.1742

> <Gold.Rescore>
     Score         DG    S(hbond)    S(metal)    S(lipo)     H(rot)  DE(clash)    DE(int)     intcor
     19.39     -20.75       2.84        0.00     106.24       2.59       0.02       1.34       ----

> <Gold.Chemscore.Fitness>
19.3935

> <Gold.Chemscore.DG>
-20.7539

> <Gold.Chemscore.ZeroCoef>
-5.4800

> <Gold.Chemscore.Hbond>
2.8382

> <Gold.Chemscore.Metal>
0.0000

> <Gold.Chemscore.Lipo>
106.2354

> <Gold.Chemscore.Internal_Hbond>
0.0000

> <Gold.Chemscore.DEClash>
0.0189

> <Gold.Chemscore.DEInternal>
1.3416

> <Gold.Chemscore.Rot>
2.5918

> <Gold.Chemscore.Internal.Correction>
   9.000000E+99

> <Gold.Chemscore.Hbonds>
donor molecule, donor type, donor heavy atom, donor atom, acceptor molecule, acceptor atom, score
      L1  H     5    47       P1  8028  0.96
      L1  H    10    31       P1  7948  0.65
      P1  H  6896  6908       L1    18  0.86

> <Gold.Chemscore.Hbond.Weighted>
-9.4795

> <Gold.Chemscore.Metal.Weighted>
-0.0000

> <Gold.Chemscore.Lipo.Weighted>
-12.4295

> <Gold.Chemscore.Internal_Hbond.Weighted>
0.0000

> <Gold.Chemscore.DEClash.Weighted>
0.0189

> <Gold.Chemscore.DEInternal.Weighted>
1.3416

> <Gold.Chemscore.Rot.Weighted>
6.6351

> <Gold.Chemscore.Internal.Correction.Weighted>
   9.000000E+99

> <Gold.Protein.RotatedTorsions>
[ 6907 6896 6895 6894 ] final   80.47 input  -60.11 | X-H torsion
[ 7974 7965 7964 7962 ] final -162.66 input  175.53 | X-H torsion
[ 8008 7997 7996 7995 ] final  -21.62 input   59.86 | X-H torsion
[ 10167 10162 10161 10158 ] final  -15.70 input  -65.29 | X-H torsion
[ 10718 10713 10712 10709 ] final -129.54 input   66.30 | X-H torsion
[ 10763 10752 10751 10750 ] final  140.35 input  -60.55 | X-H torsion
[ 11005 11000 10999 10996 ] final -130.32 input  -57.11 | X-H torsion

> <Gold.Protein.ActiveResidues>
 VAL166  LYS551  ARG553  GLY616  TRP617  ASP618  TYR619  PRO620  LYS621  CYS622 
 ASP623  PHE694  ASN695  SER759  ASP760  ASP761  ALA762  ILE779  LEU786  VAL792 
 PHE793  MET794  SER795  GLU796  ALA797  LYS798  CYS799  TRP800  GLU811  SER814 

> <Gold.Protein.RotatedAtoms>
  152.5236  134.3352  159.9197 H   0  0  0  0  0  0  0  0  0  0  0  0  # atno 6907 bound_to 6896
  151.3302  133.3997  159.2669 H   0  0  0  0  0  0  0  0  0  0  0  0  # atno 6908 bound_to 6896
  150.9887  134.9244  159.7944 H   0  0  0  0  0  0  0  0  0  0  0  0  # atno 6909 bound_to 6896
  144.7350  140.3220  143.6169 H   0  0  0  0  0  0  0  0  0  0  0  0  # atno 7974 bound_to 7965
  154.4694  140.2030  156.0033 H   0  0  0  0  0  0  0  0  0  0  0  0  # atno 8008 bound_to 7997
  156.0985  140.3247  155.7880 H   0  0  0  0  0  0  0  0  0  0  0  0  # atno 8009 bound_to 7997
  155.4838  140.0540  157.2954 H   0  0  0  0  0  0  0  0  0  0  0  0  # atno 8010 bound_to 7997
  140.7222  143.5191  150.9655 H   0  0  0  0  0  0  0  0  0  0  0  0  # atno 10167 bound_to 10162
  156.2056  130.6886  151.0591 H   0  0  0  0  0  0  0  0  0  0  0  0  # atno 10718 bound_to 10713
  153.9213  135.3000  155.3447 H   0  0  0  0  0  0  0  0  0  0  0  0  # atno 10763 bound_to 10752
  154.7574  135.4951  153.9403 H   0  0  0  0  0  0  0  0  0  0  0  0  # atno 10764 bound_to 10752
  153.1140  135.6766  153.9553 H   0  0  0  0  0  0  0  0  0  0  0  0  # atno 10765 bound_to 10752
  140.9355  134.1262  157.4197 H   0  0  0  0  0  0  0  0  0  0  0  0  # atno 11005 bound_to 11000
  145.7559  139.1808  143.2295 LP  0  0  0  0  0  0  0  0  0  0  0  0  # atno 17320 bound_to 7965
  146.1025  140.7527  142.9542 LP  0  0  0  0  0  0  0  0  0  0  0  0  # atno 17321 bound_to 7965
  139.8908  143.6956  152.3145 LP  0  0  0  0  0  0  0  0  0  0  0  0  # atno 17342 bound_to 10162
  139.7271  144.7590  151.0862 LP  0  0  0  0  0  0  0  0  0  0  0  0  # atno 17343 bound_to 10162
  157.7010  131.0775  150.6818 LP  0  0  0  0  0  0  0  0  0  0  0  0  # atno 17370 bound_to 10713
  156.6877  130.4586  149.5609 LP  0  0  0  0  0  0  0  0  0  0  0  0  # atno 17371 bound_to 10713
  139.8807  135.0019  156.6098 LP  0  0  0  0  0  0  0  0  0  0  0  0  # atno 17394 bound_to 11000
  140.7804  133.8664  155.8563 LP  0  0  0  0  0  0  0  0  0  0  0  0  # atno 17395 bound_to 11000

$$$$
