AV-unprocessed.smi:1994|AV-procd|sdf|8074|dock1
  -GOLD-   2272010283D 1   1.00000     0.00000
 Structure written by MMmdl.
 40 42  0  0  0  0  0  0  0  0  2 V2000
  145.9096  142.6750  153.9220 C   0  0  0  0  0  0  0  0  0  0  0  0
  147.2379  142.0750  154.2407 C   0  0  0  0  0  0  0  0  0  0  0  0
  148.1593  142.5803  155.1082 N   0  3  0  0  0  0  0  0  0  0  0  0
  149.2800  141.7492  155.1435 C   0  0  0  0  0  0  0  0  0  0  0  0
  150.4635  141.8478  155.8686 C   0  0  0  0  0  0  0  0  0  0  0  0
  151.4125  140.8231  155.6736 C   0  0  0  0  0  0  0  0  0  0  0  0
  151.1664  139.7537  154.7882 C   0  0  0  0  0  0  0  0  0  0  0  0
  149.9621  139.6637  154.0592 C   0  0  0  0  0  0  0  0  0  0  0  0
  149.0297  140.6829  154.2546 C   0  0  0  0  0  0  0  0  0  0  0  0
  147.7577  140.9264  153.7213 N   0  0  0  0  0  0  0  0  0  0  0  0
  147.1817  139.9931  152.7397 C   0  0  0  0  0  0  0  0  0  0  0  0
  146.3652  138.8637  153.3983 C   0  0  2  0  0  0  0  0  0  0  0  0
  147.2318  137.9562  154.0489 O   0  0  0  0  0  0  0  0  0  0  0  0
  145.5136  138.0867  152.3841 C   0  0  0  0  0  0  0  0  0  0  0  0
  144.8942  136.9942  153.0498 O   0  0  0  0  0  0  0  0  0  0  0  0
  144.6941  135.8258  152.3459 C   0  0  0  0  0  0  0  0  0  0  0  0
  145.4675  135.4300  151.2250 C   0  0  0  0  0  0  0  0  0  0  0  0
  145.1959  134.2163  150.5637 C   0  0  0  0  0  0  0  0  0  0  0  0
  144.1523  133.3855  151.0113 C   0  0  0  0  0  0  0  0  0  0  0  0
  143.3790  133.7703  152.1217 C   0  0  0  0  0  0  0  0  0  0  0  0
  143.6495  134.9836  152.7841 C   0  0  0  0  0  0  0  0  0  0  0  0
  142.8974  135.3429  153.8518 F   0  0  0  0  0  0  0  0  0  0  0  0
  145.7459  143.5794  154.5086 H   0  0  0  0  0  0  0  0  0  0  0  0
  145.1119  141.9673  154.1471 H   0  0  0  0  0  0  0  0  0  0  0  0
  145.8582  142.9336  152.8642 H   0  0  0  0  0  0  0  0  0  0  0  0
  150.6531  142.6654  156.5486 H   0  0  0  0  0  0  0  0  0  0  0  0
  152.3473  140.8575  156.2147 H   0  0  0  0  0  0  0  0  0  0  0  0
  151.9168  138.9859  154.6657 H   0  0  0  0  0  0  0  0  0  0  0  0
  149.7842  138.8367  153.3879 H   0  0  0  0  0  0  0  0  0  0  0  0
  146.5408  140.5792  152.0800 H   0  0  0  0  0  0  0  0  0  0  0  0
  147.9749  139.5928  152.1083 H   0  0  0  0  0  0  0  0  0  0  0  0
  145.7064  139.2851  154.1587 H   0  0  0  0  0  0  0  0  0  0  0  0
  147.8046  137.5741  153.4018 H   0  0  0  0  0  0  0  0  0  0  0  0
  144.7659  138.7449  151.9376 H   0  0  0  0  0  0  0  0  0  0  0  0
  146.1530  137.7069  151.5851 H   0  0  0  0  0  0  0  0  0  0  0  0
  146.2766  136.0395  150.8524 H   0  0  0  0  0  0  0  0  0  0  0  0
  145.7904  133.9222  149.7112 H   0  0  0  0  0  0  0  0  0  0  0  0
  143.9456  132.4548  150.5040 H   0  0  0  0  0  0  0  0  0  0  0  0
  142.5769  133.1346  152.4669 H   0  0  0  0  0  0  0  0  0  0  0  0
  148.0292  143.4336  155.6363 H   0  0  0  0  0  0  0  0  0  0  0  0
  1  2  1  0  0  0  0
  1 23  1  0  0  0  0
  1 24  1  0  0  0  0
  1 25  1  0  0  0  0
  2 10  1  0  0  0  0
  2  3  2  0  0  0  0
  3  4  1  0  0  0  0
  3 40  1  0  0  0  0
  4  9  2  0  0  0  0
  4  5  1  0  0  0  0
  5  6  2  0  0  0  0
  5 26  1  0  0  0  0
  6  7  1  0  0  0  0
  6 27  1  0  0  0  0
  7  8  2  0  0  0  0
  7 28  1  0  0  0  0
  8  9  1  0  0  0  0
  8 29  1  0  0  0  0
  9 10  1  0  0  0  0
 10 11  1  0  0  0  0
 11 12  1  0  0  0  0
 11 30  1  0  0  0  0
 11 31  1  0  0  0  0
 12 13  1  0  0  0  0
 12 14  1  0  0  0  0
 12 32  1  0  0  0  0
 13 33  1  0  0  0  0
 14 15  1  0  0  0  0
 14 34  1  0  0  0  0
 14 35  1  0  0  0  0
 15 16  1  0  0  0  0
 16 21  1  0  0  0  0
 16 17  2  0  0  0  0
 17 18  1  0  0  0  0
 17 36  1  0  0  0  0
 18 19  2  0  0  0  0
 18 37  1  0  0  0  0
 19 20  1  0  0  0  0
 19 38  1  0  0  0  0
 20 21  2  0  0  0  0
 20 39  1  0  0  0  0
 21 22  1  0  0  0  0
M  CHG  1   3   1
M  END
> <s_m_source_file>
AV-unprocessed.smi

> <i_m_source_file_index>
1994

> <i_lp_mmshare_version>
43012

> <i_f3d_flags>
0

> <s_epik_input>
W2NIXTFbY0hdW2NIXVtjSF1jKGMxMiluKGMobjIpW0NIM10pW0NIMl1bQ0BIXShbT0hdKVtDSDJdT2MzW2NIXVtjSF1bY0hdW2NIXWMzRg==

> <s_epik_cmdline>
J2VwaWtfcHl0aG9uJywgJy1waCcsICc3LjAnLCAnLXRuJywgJzgnLCAnLW1hJywgJzIwMCcsICctbWV0YWxfYmluZGluZycsICctaW1hZScsICc8aW5maWxlLm1hZT4nLCAnLW9tYWUnLCAnPG91dGZpbGUubWFlPic=

> <r_lp_tautomer_probability>
1

> <r_epik_Ionization_Penalty>
1.03916

> <r_epik_Ionization_Penalty_Charging>
1.03916

> <r_epik_Ionization_Penalty_Neutral>
2.3993e-06

> <r_epik_State_Penalty>
1.09101

> <r_epik_Charging_Adjusted_Penalty>
2.13018

> <i_epik_Tot_Q>
1

> <i_epik_Tot_abs_Q>
1

> <r_epik_Metal_State_Penalty>
5.08156

> <b_epik_Metal_Only>
0

> <s_lp_Force_Field>
OPLS_2005

> <r_lp_Energy>
18.7982

> <b_lp_Chiralities_Consistent>
1

> <s_lp_Variant>
AV-unprocessed.smi:1994-3

> <Gold.Version>
5.8.1

> <Gold.Id.Protein>
6NUR|6NUR_protein|mol2

> <Gold.PLP.Fitness>
52.8531

> <Gold.PLP.PLP>
-45.8536

> <Gold.PLP.part.hbond>
-2.0000

> <Gold.PLP.part.metal>
0.0000

> <Gold.PLP.part.buried>
2.4098

> <Gold.PLP.part.nonpolar>
-45.4627

> <Gold.PLP.part.repulsive>
0.3401

> <Gold.PLP.ligand.clash>
0.0000

> <Gold.PLP.ligand.torsion>
1.0416

> <Gold.PLP.Chemscore.Hbond>
2.9840

> <Gold.PLP.Chemscore.CHOScore>
0.0000

> <Gold.PLP.Chemscore.Metal>
0.0000

> <Gold.Chemscore.Hbonds>
donor molecule, donor type, donor heavy atom, donor atom, acceptor molecule, acceptor atom, score
      L1  H     3    40       P1  8028  1.19
      L1  H    13    33       P1  7948  0.23

> <Gold.PLP.Chemscore.Internal.Correction>
0.1308

> <Gold.Rescore>
     Score         DG    S(hbond)    S(metal)    S(lipo)     H(rot)  DE(clash)    DE(int)     intcor
     15.56     -18.09       1.84        0.00     104.83       2.27       1.45       1.08       ----

> <Gold.Chemscore.Fitness>
15.5633

> <Gold.Chemscore.DG>
-18.0906

> <Gold.Chemscore.ZeroCoef>
-5.4800

> <Gold.Chemscore.Hbond>
1.8437

> <Gold.Chemscore.Metal>
0.0000

> <Gold.Chemscore.Lipo>
104.8318

> <Gold.Chemscore.Internal_Hbond>
0.0000

> <Gold.Chemscore.DEClash>
1.4479

> <Gold.Chemscore.DEInternal>
1.0794

> <Gold.Chemscore.Rot>
2.2706

> <Gold.Chemscore.Internal.Correction>
   9.000000E+99

> <Gold.Chemscore.Hbonds>
donor molecule, donor type, donor heavy atom, donor atom, acceptor molecule, acceptor atom, score
      L1  H     3    40       P1  8028  0.28
      L1  H    13    33       P1  7948  0.23

> <Gold.Chemscore.Hbond.Weighted>
-6.1581

> <Gold.Chemscore.Metal.Weighted>
-0.0000

> <Gold.Chemscore.Lipo.Weighted>
-12.2653

> <Gold.Chemscore.Internal_Hbond.Weighted>
0.0000

> <Gold.Chemscore.DEClash.Weighted>
1.4479

> <Gold.Chemscore.DEInternal.Weighted>
1.0794

> <Gold.Chemscore.Rot.Weighted>
5.8128

> <Gold.Chemscore.Internal.Correction.Weighted>
   9.000000E+99

> <Gold.Protein.RotatedTorsions>
[ 6907 6896 6895 6894 ] final   20.88 input  -60.11 | X-H torsion
[ 7974 7965 7964 7962 ] final   98.22 input  175.53 | X-H torsion
[ 8008 7997 7996 7995 ] final  -89.45 input   59.86 | X-H torsion
[ 10167 10162 10161 10158 ] final   88.04 input  -65.29 | X-H torsion
[ 10718 10713 10712 10709 ] final  -27.46 input   66.30 | X-H torsion
[ 10763 10752 10751 10750 ] final  -52.41 input  -60.55 | X-H torsion
[ 11005 11000 10999 10996 ] final  -14.47 input  -57.11 | X-H torsion

> <Gold.Protein.ActiveResidues>
 VAL166  LYS551  ARG553  GLY616  TRP617  ASP618  TYR619  PRO620  LYS621  CYS622 
 ASP623  PHE694  ASN695  SER759  ASP760  ASP761  ALA762  ILE779  LEU786  VAL792 
 PHE793  MET794  SER795  GLU796  ALA797  LYS798  CYS799  TRP800  GLU811  SER814 

> <Gold.Protein.RotatedAtoms>
  151.9032  135.0370  160.0507 H   0  0  0  0  0  0  0  0  0  0  0  0  # atno 6907 bound_to 6896
  152.2341  133.5077  159.5241 H   0  0  0  0  0  0  0  0  0  0  0  0  # atno 6908 bound_to 6896
  150.7034  134.1093  159.4037 H   0  0  0  0  0  0  0  0  0  0  0  0  # atno 6909 bound_to 6896
  145.4150  139.2329  143.3227 H   0  0  0  0  0  0  0  0  0  0  0  0  # atno 7974 bound_to 7965
  154.6867  140.0541  157.0322 H   0  0  0  0  0  0  0  0  0  0  0  0  # atno 8008 bound_to 7997
  155.0874  140.3216  155.4565 H   0  0  0  0  0  0  0  0  0  0  0  0  # atno 8009 bound_to 7997
  156.2714  140.2054  156.6002 H   0  0  0  0  0  0  0  0  0  0  0  0  # atno 8010 bound_to 7997
  139.8713  144.6491  150.8946 H   0  0  0  0  0  0  0  0  0  0  0  0  # atno 10167 bound_to 10162
  156.4379  130.4458  149.7073 H   0  0  0  0  0  0  0  0  0  0  0  0  # atno 10718 bound_to 10713
  154.1422  135.6503  153.4945 H   0  0  0  0  0  0  0  0  0  0  0  0  # atno 10763 bound_to 10752
  153.0162  135.5318  154.6893 H   0  0  0  0  0  0  0  0  0  0  0  0  # atno 10764 bound_to 10752
  154.6158  135.2959  155.0353 H   0  0  0  0  0  0  0  0  0  0  0  0  # atno 10765 bound_to 10752
  140.7868  133.8319  155.9342 H   0  0  0  0  0  0  0  0  0  0  0  0  # atno 11005 bound_to 11000
  146.2685  140.4867  142.8824 LP  0  0  0  0  0  0  0  0  0  0  0  0  # atno 17320 bound_to 7965
  144.8283  140.6665  143.6307 LP  0  0  0  0  0  0  0  0  0  0  0  0  # atno 17321 bound_to 7965
  140.7760  143.3661  151.1736 LP  0  0  0  0  0  0  0  0  0  0  0  0  # atno 17342 bound_to 10162
  139.7281  143.9116  152.3010 LP  0  0  0  0  0  0  0  0  0  0  0  0  # atno 17343 bound_to 10162
  156.3949  130.7646  151.2649 LP  0  0  0  0  0  0  0  0  0  0  0  0  # atno 17370 bound_to 10713
  157.7507  131.0257  150.3929 LP  0  0  0  0  0  0  0  0  0  0  0  0  # atno 17371 bound_to 10713
  140.9429  134.1878  157.4784 LP  0  0  0  0  0  0  0  0  0  0  0  0  # atno 17394 bound_to 11000
  139.8736  134.9879  156.5388 LP  0  0  0  0  0  0  0  0  0  0  0  0  # atno 17395 bound_to 11000

$$$$
