AV-unprocessed.smi:2113|AV-procd|sdf|8616|dock10
  -GOLD-   2272011363D 1   1.00000     0.00000
 Structure written by MMmdl.
 44 45  0  0  0  0  0  0  0  0  1 V2000
  150.1319  131.7649  155.0429 C   0  0  0  0  0  0  0  0  0  0  0  0
  149.4483  133.0393  154.5426 C   0  0  0  0  0  0  0  0  0  0  0  0
  148.9912  133.7820  155.6666 O   0  0  0  0  0  0  0  0  0  0  0  0
  148.6580  135.1441  155.4093 C   0  0  1  0  0  0  0  0  0  0  0  0
  148.0639  135.7271  156.6999 C   0  0  0  0  0  0  0  0  0  0  0  0
  149.9020  135.9292  154.9648 C   0  0  0  0  0  0  0  0  0  0  0  0
  151.0151  135.4039  155.0033 O   0  0  0  0  0  0  0  0  0  0  0  0
  149.6964  137.1859  154.5408 N   0  0  0  0  0  0  0  0  0  0  0  0
  150.7480  138.1000  154.1096 C   0  0  0  0  0  0  0  0  0  0  0  0
  151.0332  139.1988  155.1198 C   0  0  0  0  0  0  0  0  0  0  0  0
  150.1492  140.2828  155.2903 C   0  0  0  0  0  0  0  0  0  0  0  0
  150.4532  141.2673  156.2495 C   0  0  0  0  0  0  0  0  0  0  0  0
  151.6374  141.1432  157.0146 C   0  0  0  0  0  0  0  0  0  0  0  0
  151.9565  142.1125  157.9899 N   0  0  0  0  0  0  0  0  0  0  0  0
  152.1735  141.6059  159.3426 C   0  0  0  0  0  0  0  0  0  0  0  0
  152.8154  142.6912  160.2240 C   0  0  0  0  0  0  0  0  0  0  0  0
  152.0190  143.8710  160.1948 O   0  0  0  0  0  0  0  0  0  0  0  0
  151.9167  144.4083  158.8802 C   0  0  0  0  0  0  0  0  0  0  0  0
  151.2380  143.3850  157.9544 C   0  0  0  0  0  0  0  0  0  0  0  0
  152.4856  140.0986  156.8448 N   0  0  0  0  0  0  0  0  0  0  0  0
  152.1908  139.1587  155.9223 C   0  0  0  0  0  0  0  0  0  0  0  0
  150.4944  131.1640  154.2089 H   0  0  0  0  0  0  0  0  0  0  0  0
  149.4409  131.1515  155.6217 H   0  0  0  0  0  0  0  0  0  0  0  0
  150.9842  132.0020  155.6798 H   0  0  0  0  0  0  0  0  0  0  0  0
  150.1532  133.6214  153.9483 H   0  0  0  0  0  0  0  0  0  0  0  0
  148.6087  132.7778  153.8974 H   0  0  0  0  0  0  0  0  0  0  0  0
  147.8939  135.1897  154.6306 H   0  0  0  0  0  0  0  0  0  0  0  0
  147.8026  136.7785  156.5763 H   0  0  0  0  0  0  0  0  0  0  0  0
  148.7624  135.6511  157.5344 H   0  0  0  0  0  0  0  0  0  0  0  0
  147.1562  135.1940  156.9830 H   0  0  0  0  0  0  0  0  0  0  0  0
  148.7500  137.5372  154.5318 H   0  0  0  0  0  0  0  0  0  0  0  0
  151.6590  137.5411  153.8880 H   0  0  0  0  0  0  0  0  0  0  0  0
  150.4355  138.5647  153.1743 H   0  0  0  0  0  0  0  0  0  0  0  0
  149.2474  140.3582  154.7006 H   0  0  0  0  0  0  0  0  0  0  0  0
  149.7700  142.0899  156.3990 H   0  0  0  0  0  0  0  0  0  0  0  0
  151.2131  141.3046  159.7628 H   0  0  0  0  0  0  0  0  0  0  0  0
  152.8119  140.7238  159.3466 H   0  0  0  0  0  0  0  0  0  0  0  0
  152.8921  142.3410  161.2534 H   0  0  0  0  0  0  0  0  0  0  0  0
  153.8291  142.9154  159.8876 H   0  0  0  0  0  0  0  0  0  0  0  0
  151.3318  145.3273  158.9158 H   0  0  0  0  0  0  0  0  0  0  0  0
  152.9065  144.6755  158.5062 H   0  0  0  0  0  0  0  0  0  0  0  0
  151.2151  143.7781  156.9371 H   0  0  0  0  0  0  0  0  0  0  0  0
  150.2051  143.2259  158.2670 H   0  0  0  0  0  0  0  0  0  0  0  0
  152.8974  138.3472  155.8304 H   0  0  0  0  0  0  0  0  0  0  0  0
  1  2  1  0  0  0  0
  1 22  1  0  0  0  0
  1 23  1  0  0  0  0
  1 24  1  0  0  0  0
  2  3  1  0  0  0  0
  2 25  1  0  0  0  0
  2 26  1  0  0  0  0
  3  4  1  0  0  0  0
  4  5  1  0  0  0  0
  4  6  1  0  0  0  0
  4 27  1  0  0  0  0
  5 28  1  0  0  0  0
  5 29  1  0  0  0  0
  5 30  1  0  0  0  0
  6  7  2  0  0  0  0
  6  8  1  0  0  0  0
  8  9  1  0  0  0  0
  8 31  1  0  0  0  0
  9 10  1  0  0  0  0
  9 32  1  0  0  0  0
  9 33  1  0  0  0  0
 10 21  1  0  0  0  0
 10 11  2  0  0  0  0
 11 12  1  0  0  0  0
 11 34  1  0  0  0  0
 12 13  2  0  0  0  0
 12 35  1  0  0  0  0
 13 14  1  0  0  0  0
 13 20  1  0  0  0  0
 14 19  1  0  0  0  0
 14 15  1  0  0  0  0
 15 16  1  0  0  0  0
 15 36  1  0  0  0  0
 15 37  1  0  0  0  0
 16 17  1  0  0  0  0
 16 38  1  0  0  0  0
 16 39  1  0  0  0  0
 17 18  1  0  0  0  0
 18 19  1  0  0  0  0
 18 40  1  0  0  0  0
 18 41  1  0  0  0  0
 19 42  1  0  0  0  0
 19 43  1  0  0  0  0
 20 21  2  0  0  0  0
 21 44  1  0  0  0  0
M  END
> <s_m_source_file>
AV-unprocessed.smi

> <i_m_source_file_index>
2113

> <i_lp_mmshare_version>
43012

> <i_f3d_flags>
0

> <s_epik_input>
W0NIM11bQ0gyXU9bQ0BIXShbQ0gzXSlDKD1PKVtOSF1bQ0gyXWMxW2NIXVtjSF1jKG5bY0hdMSlOMltDSDJdW0NIMl1PW0NIMl1bQ0gyXTI=

> <s_epik_cmdline>
J2VwaWtfcHl0aG9uJywgJy1waCcsICc3LjAnLCAnLXRuJywgJzgnLCAnLW1hJywgJzIwMCcsICctbWV0YWxfYmluZGluZycsICctaW1hZScsICc8aW5maWxlLm1hZT4nLCAnLW9tYWUnLCAnPG91dGZpbGUubWFlPic=

> <r_lp_tautomer_probability>
1

> <r_epik_Ionization_Penalty>
0.00454344

> <r_epik_Ionization_Penalty_Charging>
0

> <r_epik_Ionization_Penalty_Neutral>
0.00454344

> <r_epik_State_Penalty>
0.00328127

> <r_epik_Charging_Adjusted_Penalty>
0.00328127

> <i_epik_Tot_Q>
0

> <i_epik_Tot_abs_Q>
0

> <r_epik_Metal_State_Penalty>
-0

> <b_epik_Metal_Only>
0

> <s_lp_Force_Field>
OPLS_2005

> <r_lp_Energy>
17.3963

> <b_lp_Chiralities_Consistent>
1

> <s_lp_Variant>
AV-unprocessed.smi:2113-2

> <Gold.Version>
5.8.1

> <Gold.Id.Protein>
6NUR|6NUR_protein|mol2

> <Gold.PLP.Fitness>
43.9281

> <Gold.PLP.PLP>
-38.8583

> <Gold.PLP.part.hbond>
-3.0000

> <Gold.PLP.part.metal>
0.0000

> <Gold.PLP.part.buried>
-2.9769

> <Gold.PLP.part.nonpolar>
-32.1794

> <Gold.PLP.part.repulsive>
0.2505

> <Gold.PLP.ligand.clash>
0.0000

> <Gold.PLP.ligand.torsion>
0.6543

> <Gold.PLP.Chemscore.Hbond>
1.9920

> <Gold.PLP.Chemscore.CHOScore>
0.0000

> <Gold.PLP.Chemscore.Metal>
0.0000

> <Gold.Chemscore.Hbonds>
donor molecule, donor type, donor heavy atom, donor atom, acceptor molecule, acceptor atom, score
      P1  H  7997  8009       L1    20  0.99
      P1  H 10752 10763       L1     7  1.00

> <Gold.PLP.Chemscore.Internal.Correction>
0.4024

> <Gold.Rescore>
     Score         DG    S(hbond)    S(metal)    S(lipo)     H(rot)  DE(clash)    DE(int)     intcor
     15.61     -16.72       1.52        0.00      94.27       1.90       0.09       1.01       ----

> <Gold.Chemscore.Fitness>
15.6145

> <Gold.Chemscore.DG>
-16.7196

> <Gold.Chemscore.ZeroCoef>
-5.4800

> <Gold.Chemscore.Hbond>
1.5154

> <Gold.Chemscore.Metal>
0.0000

> <Gold.Chemscore.Lipo>
94.2713

> <Gold.Chemscore.Internal_Hbond>
0.0000

> <Gold.Chemscore.DEClash>
0.0943

> <Gold.Chemscore.DEInternal>
1.0109

> <Gold.Chemscore.Rot>
1.8952

> <Gold.Chemscore.Internal.Correction>
   9.000000E+99

> <Gold.Chemscore.Hbonds>
donor molecule, donor type, donor heavy atom, donor atom, acceptor molecule, acceptor atom, score
      P1  H  7997  8009       L1    20  0.24
      P1  H 10752 10763       L1     7  0.95

> <Gold.Chemscore.Hbond.Weighted>
-5.0615

> <Gold.Chemscore.Metal.Weighted>
-0.0000

> <Gold.Chemscore.Lipo.Weighted>
-11.0297

> <Gold.Chemscore.Internal_Hbond.Weighted>
0.0000

> <Gold.Chemscore.DEClash.Weighted>
0.0943

> <Gold.Chemscore.DEInternal.Weighted>
1.0109

> <Gold.Chemscore.Rot.Weighted>
4.8516

> <Gold.Chemscore.Internal.Correction.Weighted>
   9.000000E+99

> <Gold.Protein.RotatedTorsions>
[ 6907 6896 6895 6894 ] final  140.54 input  -60.11 | X-H torsion
[ 7974 7965 7964 7962 ] final   20.44 input  175.53 | X-H torsion
[ 8008 7997 7996 7995 ] final  173.33 input   59.86 | X-H torsion
[ 10167 10162 10161 10158 ] final  -72.55 input  -65.29 | X-H torsion
[ 10718 10713 10712 10709 ] final   43.44 input   66.30 | X-H torsion
[ 10763 10752 10751 10750 ] final   67.77 input  -60.55 | X-H torsion
[ 11005 11000 10999 10996 ] final  153.89 input  -57.11 | X-H torsion

> <Gold.Protein.ActiveResidues>
 VAL166  LYS551  ARG553  GLY616  TRP617  ASP618  TYR619  PRO620  LYS621  CYS622 
 ASP623  PHE694  ASN695  SER759  ASP760  ASP761  ALA762  ILE779  LEU786  VAL792 
 PHE793  MET794  SER795  GLU796  ALA797  LYS798  CYS799  TRP800  GLU811  SER814 

> <Gold.Protein.RotatedAtoms>
  152.2418  133.5142  159.5274 H   0  0  0  0  0  0  0  0  0  0  0  0  # atno 6907 bound_to 6896
  150.7067  134.1078  159.3998 H   0  0  0  0  0  0  0  0  0  0  0  0  # atno 6908 bound_to 6896
  151.8999  135.0382  160.0556 H   0  0  0  0  0  0  0  0  0  0  0  0  # atno 6909 bound_to 6896
  146.2111  139.8169  142.8688 H   0  0  0  0  0  0  0  0  0  0  0  0  # atno 7974 bound_to 7965
  156.1087  140.1463  156.9369 H   0  0  0  0  0  0  0  0  0  0  0  0  # atno 8008 bound_to 7997
  154.4751  140.0897  156.7286 H   0  0  0  0  0  0  0  0  0  0  0  0  # atno 8009 bound_to 7997
  155.4635  140.3439  155.4318 H   0  0  0  0  0  0  0  0  0  0  0  0  # atno 8010 bound_to 7997
  140.5183  143.2335  151.7474 H   0  0  0  0  0  0  0  0  0  0  0  0  # atno 10167 bound_to 10162
  157.4160  130.7941  149.7472 H   0  0  0  0  0  0  0  0  0  0  0  0  # atno 10718 bound_to 10713
  153.0202  135.5272  154.7031 H   0  0  0  0  0  0  0  0  0  0  0  0  # atno 10763 bound_to 10752
  154.6134  135.2881  155.0409 H   0  0  0  0  0  0  0  0  0  0  0  0  # atno 10764 bound_to 10752
  154.1422  135.6576  153.4997 H   0  0  0  0  0  0  0  0  0  0  0  0  # atno 10765 bound_to 10752
  140.1439  134.8720  157.2367 H   0  0  0  0  0  0  0  0  0  0  0  0  # atno 11005 bound_to 11000
  145.3137  141.0226  143.3540 LP  0  0  0  0  0  0  0  0  0  0  0  0  # atno 17320 bound_to 7965
  144.8917  139.4766  143.6674 LP  0  0  0  0  0  0  0  0  0  0  0  0  # atno 17321 bound_to 7965
  139.4916  144.4291  151.9892 LP  0  0  0  0  0  0  0  0  0  0  0  0  # atno 17342 bound_to 10162
  140.3387  144.3230  150.5972 LP  0  0  0  0  0  0  0  0  0  0  0  0  # atno 17343 bound_to 10162
  155.9865  130.3974  150.3209 LP  0  0  0  0  0  0  0  0  0  0  0  0  # atno 17370 bound_to 10713
  157.1352  131.0282  151.2952 LP  0  0  0  0  0  0  0  0  0  0  0  0  # atno 17371 bound_to 10713
  140.2688  134.3485  155.7381 LP  0  0  0  0  0  0  0  0  0  0  0  0  # atno 17394 bound_to 11000
  141.2190  133.7411  156.9191 LP  0  0  0  0  0  0  0  0  0  0  0  0  # atno 17395 bound_to 11000

$$$$
