AV-unprocessed.smi:1943|AV-procd|sdf|7851|dock8
  -GOLD-   22720 9593D 1   1.00000     0.00000
 Structure written by MMmdl.
 48 49  0  0  0  0  0  0  0  0  2 V2000
  144.9949  143.3458  154.2600 C   0  0  0  0  0  0  0  0  0  0  0  0
  144.6165  142.0598  154.9043 N   0  3  0  0  0  0  0  0  0  0  0  0
  143.3245  142.2114  155.6236 C   0  0  0  0  0  0  0  0  0  0  0  0
  145.7189  141.3721  155.6708 C   0  0  0  0  0  0  0  0  0  0  0  0
  145.9415  142.0478  157.0472 C   0  0  0  0  0  0  0  0  0  0  0  0
  145.3728  139.8801  155.9232 C   0  0  0  0  0  0  0  0  0  0  0  0
  147.0195  141.4176  154.8118 C   0  0  0  0  0  0  0  0  0  0  0  0
  148.2467  141.2386  155.5865 N   0  0  0  0  0  0  0  0  0  0  0  0
  149.4841  141.1145  155.0783 C   0  0  0  0  0  0  0  0  0  0  0  0
  149.7277  141.1286  153.8715 O   0  0  0  0  0  0  0  0  0  0  0  0
  150.5798  141.0076  156.1014 C   0  0  0  0  0  0  0  0  0  0  0  0
  150.9101  142.1393  156.7683 N   0  0  0  0  0  0  0  0  0  0  0  0
  151.8587  142.0735  157.7111 C   0  0  0  0  0  0  0  0  0  0  0  0
  152.1899  143.2568  158.3824 N   0  0  0  0  0  0  0  0  0  0  0  0
  151.2941  144.4123  158.4128 C   0  0  0  0  0  0  0  0  0  0  0  0
  150.4543  144.3791  159.7025 C   0  0  0  0  0  0  0  0  0  0  0  0
  151.3234  144.3611  160.8331 O   0  0  0  0  0  0  0  0  0  0  0  0
  152.2003  143.2359  160.8332 C   0  0  0  0  0  0  0  0  0  0  0  0
  153.0613  143.2542  159.5569 C   0  0  0  0  0  0  0  0  0  0  0  0
  152.5185  140.9616  158.0559 N   0  0  0  0  0  0  0  0  0  0  0  0
  152.2076  139.8206  157.4067 C   0  0  0  0  0  0  0  0  0  0  0  0
  151.2258  139.7806  156.3979 C   0  0  0  0  0  0  0  0  0  0  0  0
  150.8914  138.2933  155.5789 Cl  0  0  0  0  0  0  0  0  0  0  0  0
  145.1332  144.1359  154.9988 H   0  0  0  0  0  0  0  0  0  0  0  0
  144.2057  143.6709  153.5815 H   0  0  0  0  0  0  0  0  0  0  0  0
  145.9033  143.2738  153.6657 H   0  0  0  0  0  0  0  0  0  0  0  0
  143.4486  142.7637  156.5554 H   0  0  0  0  0  0  0  0  0  0  0  0
  142.8669  141.2476  155.8453 H   0  0  0  0  0  0  0  0  0  0  0  0
  142.6034  142.7535  155.0109 H   0  0  0  0  0  0  0  0  0  0  0  0
  146.6463  141.4849  157.6599 H   0  0  0  0  0  0  0  0  0  0  0  0
  145.0161  142.1160  157.6189 H   0  0  0  0  0  0  0  0  0  0  0  0
  146.3467  143.0551  156.9484 H   0  0  0  0  0  0  0  0  0  0  0  0
  146.1903  139.3467  156.4087 H   0  0  0  0  0  0  0  0  0  0  0  0
  145.1563  139.3569  154.9909 H   0  0  0  0  0  0  0  0  0  0  0  0
  144.5138  139.7610  156.5841 H   0  0  0  0  0  0  0  0  0  0  0  0
  146.9908  140.6214  154.0668 H   0  0  0  0  0  0  0  0  0  0  0  0
  147.0960  142.3427  154.2425 H   0  0  0  0  0  0  0  0  0  0  0  0
  148.1539  141.2147  156.5922 H   0  0  0  0  0  0  0  0  0  0  0  0
  151.8981  145.3202  158.3919 H   0  0  0  0  0  0  0  0  0  0  0  0
  150.6505  144.4647  157.5348 H   0  0  0  0  0  0  0  0  0  0  0  0
  149.8162  145.2610  159.7595 H   0  0  0  0  0  0  0  0  0  0  0  0
  149.7987  143.5068  159.7190 H   0  0  0  0  0  0  0  0  0  0  0  0
  152.8358  143.2824  161.7175 H   0  0  0  0  0  0  0  0  0  0  0  0
  151.6239  142.3117  160.9012 H   0  0  0  0  0  0  0  0  0  0  0  0
  153.7613  142.4193  159.5610 H   0  0  0  0  0  0  0  0  0  0  0  0
  153.6732  144.1568  159.5385 H   0  0  0  0  0  0  0  0  0  0  0  0
  152.7527  138.9329  157.6916 H   0  0  0  0  0  0  0  0  0  0  0  0
  144.4076  141.4336  154.1397 H   0  0  0  0  0  0  0  0  0  0  0  0
  1  2  1  0  0  0  0
  1 24  1  0  0  0  0
  1 25  1  0  0  0  0
  1 26  1  0  0  0  0
  2  3  1  0  0  0  0
  2  4  1  0  0  0  0
  2 48  1  0  0  0  0
  3 27  1  0  0  0  0
  3 28  1  0  0  0  0
  3 29  1  0  0  0  0
  4  5  1  0  0  0  0
  4  6  1  0  0  0  0
  4  7  1  0  0  0  0
  5 30  1  0  0  0  0
  5 31  1  0  0  0  0
  5 32  1  0  0  0  0
  6 33  1  0  0  0  0
  6 34  1  0  0  0  0
  6 35  1  0  0  0  0
  7  8  1  0  0  0  0
  7 36  1  0  0  0  0
  7 37  1  0  0  0  0
  8  9  1  0  0  0  0
  8 38  1  0  0  0  0
  9 10  2  0  0  0  0
  9 11  1  0  0  0  0
 11 22  1  0  0  0  0
 11 12  2  0  0  0  0
 12 13  1  0  0  0  0
 13 14  1  0  0  0  0
 13 20  2  0  0  0  0
 14 19  1  0  0  0  0
 14 15  1  0  0  0  0
 15 16  1  0  0  0  0
 15 39  1  0  0  0  0
 15 40  1  0  0  0  0
 16 17  1  0  0  0  0
 16 41  1  0  0  0  0
 16 42  1  0  0  0  0
 17 18  1  0  0  0  0
 18 19  1  0  0  0  0
 18 43  1  0  0  0  0
 18 44  1  0  0  0  0
 19 45  1  0  0  0  0
 19 46  1  0  0  0  0
 20 21  1  0  0  0  0
 21 22  2  0  0  0  0
 21 47  1  0  0  0  0
 22 23  1  0  0  0  0
M  CHG  1   2   1
M  END
> <s_m_source_file>
AV-unprocessed.smi

> <i_m_source_file_index>
1943

> <i_lp_mmshare_version>
43012

> <i_f3d_flags>
0

> <s_epik_input>
W0NIM11OKFtDSDNdKUMoW0NIM10pKFtDSDNdKVtDSDJdW05IXUMoPU8pYzFuYyhuW2NIXWMxQ2wpTjJbQ0gyXVtDSDJdT1tDSDJdW0NIMl0y

> <s_epik_cmdline>
J2VwaWtfcHl0aG9uJywgJy1waCcsICc3LjAnLCAnLXRuJywgJzgnLCAnLW1hJywgJzIwMCcsICctbWV0YWxfYmluZGluZycsICctaW1hZScsICc8aW5maWxlLm1hZT4nLCAnLW9tYWUnLCAnPG91dGZpbGUubWFlPic=

> <r_lp_tautomer_probability>
1

> <r_epik_Ionization_Penalty>
0.00747112

> <r_epik_Ionization_Penalty_Charging>
0.00734137

> <r_epik_Ionization_Penalty_Neutral>
0.000129757

> <r_epik_State_Penalty>
0.00547931

> <r_epik_Charging_Adjusted_Penalty>
0.0128207

> <i_epik_Tot_Q>
1

> <i_epik_Tot_abs_Q>
1

> <r_epik_Metal_State_Penalty>
0.0979204

> <b_epik_Metal_Only>
0

> <s_lp_Force_Field>
OPLS_2005

> <r_lp_Energy>
30.7364

> <b_lp_Chiralities_Consistent>
1

> <s_lp_Variant>
AV-unprocessed.smi:1943-1

> <Gold.Version>
5.8.1

> <Gold.Id.Protein>
6NUR|6NUR_protein|mol2

> <Gold.PLP.Fitness>
42.1807

> <Gold.PLP.PLP>
-36.4077

> <Gold.PLP.part.hbond>
-3.2722

> <Gold.PLP.part.metal>
0.0000

> <Gold.PLP.part.buried>
-5.2986

> <Gold.PLP.part.nonpolar>
-30.4916

> <Gold.PLP.part.repulsive>
1.8724

> <Gold.PLP.ligand.clash>
0.0000

> <Gold.PLP.ligand.torsion>
2.0899

> <Gold.PLP.Chemscore.Hbond>
3.2160

> <Gold.PLP.Chemscore.CHOScore>
0.0000

> <Gold.PLP.Chemscore.Metal>
0.0000

> <Gold.Chemscore.Hbonds>
donor molecule, donor type, donor heavy atom, donor atom, acceptor molecule, acceptor atom, score
      L1  H     2    48       P1 10175  2.00
      P1  H  7989  7998       L1    10  0.34
      P1  H  8011  8017       L1    10  0.85

> <Gold.PLP.Chemscore.Internal.Correction>
0.3049

> <Gold.Rescore>
     Score         DG    S(hbond)    S(metal)    S(lipo)     H(rot)  DE(clash)    DE(int)     intcor
     14.28     -17.57       1.90        0.00      80.31       1.43       1.14       2.15       ----

> <Gold.Chemscore.Fitness>
14.2826

> <Gold.Chemscore.DG>
-17.5723

> <Gold.Chemscore.ZeroCoef>
-5.4800

> <Gold.Chemscore.Hbond>
1.9030

> <Gold.Chemscore.Metal>
0.0000

> <Gold.Chemscore.Lipo>
80.3136

> <Gold.Chemscore.Internal_Hbond>
0.0000

> <Gold.Chemscore.DEClash>
1.1386

> <Gold.Chemscore.DEInternal>
2.1511

> <Gold.Chemscore.Rot>
1.4298

> <Gold.Chemscore.Internal.Correction>
   9.000000E+99

> <Gold.Chemscore.Hbonds>
donor molecule, donor type, donor heavy atom, donor atom, acceptor molecule, acceptor atom, score
      L1  H     2    48       P1 10175  0.33
      P1  H  7989  7998       L1    10  0.30
      P1  H  8011  8017       L1    10  0.82

> <Gold.Chemscore.Hbond.Weighted>
-6.3560

> <Gold.Chemscore.Metal.Weighted>
-0.0000

> <Gold.Chemscore.Lipo.Weighted>
-9.3967

> <Gold.Chemscore.Internal_Hbond.Weighted>
0.0000

> <Gold.Chemscore.DEClash.Weighted>
1.1386

> <Gold.Chemscore.DEInternal.Weighted>
2.1511

> <Gold.Chemscore.Rot.Weighted>
3.6604

> <Gold.Chemscore.Internal.Correction.Weighted>
   9.000000E+99

> <Gold.Protein.RotatedTorsions>
[ 6907 6896 6895 6894 ] final   50.61 input  -60.11 | X-H torsion
[ 7974 7965 7964 7962 ] final -114.31 input  175.53 | X-H torsion
[ 8008 7997 7996 7995 ] final  -66.68 input   59.86 | X-H torsion
[ 10167 10162 10161 10158 ] final  -74.75 input  -65.29 | X-H torsion
[ 10718 10713 10712 10709 ] final  -64.19 input   66.30 | X-H torsion
[ 10763 10752 10751 10750 ] final   -5.47 input  -60.55 | X-H torsion
[ 11005 11000 10999 10996 ] final  110.90 input  -57.11 | X-H torsion

> <Gold.Protein.ActiveResidues>
 VAL166  LYS551  ARG553  GLY616  TRP617  ASP618  TYR619  PRO620  LYS621  CYS622 
 ASP623  PHE694  ASN695  SER759  ASP760  ASP761  ALA762  ILE779  LEU786  VAL792 
 PHE793  MET794  SER795  GLU796  ALA797  LYS798  CYS799  TRP800  GLU811  SER814 

> <Gold.Protein.RotatedAtoms>
  152.3037  134.7581  160.0351 H   0  0  0  0  0  0  0  0  0  0  0  0  # atno 6907 bound_to 6896
  151.8085  133.3373  159.3556 H   0  0  0  0  0  0  0  0  0  0  0  0  # atno 6908 bound_to 6896
  150.7286  134.5616  159.5889 H   0  0  0  0  0  0  0  0  0  0  0  0  # atno 6909 bound_to 6896
  145.1216  140.8672  143.3810 H   0  0  0  0  0  0  0  0  0  0  0  0  # atno 7974 bound_to 7965
  154.4750  140.0908  156.7240 H   0  0  0  0  0  0  0  0  0  0  0  0  # atno 8008 bound_to 7997
  155.4620  140.3461  155.4296 H   0  0  0  0  0  0  0  0  0  0  0  0  # atno 8009 bound_to 7997
  156.1102  140.1446  156.9337 H   0  0  0  0  0  0  0  0  0  0  0  0  # atno 8010 bound_to 7997
  140.5000  143.2363  151.7767 H   0  0  0  0  0  0  0  0  0  0  0  0  # atno 10167 bound_to 10162
  156.0744  130.4230  150.1385 H   0  0  0  0  0  0  0  0  0  0  0  0  # atno 10718 bound_to 10713
  153.3990  135.7004  153.6440 H   0  0  0  0  0  0  0  0  0  0  0  0  # atno 10763 bound_to 10752
  153.4981  135.3658  155.2526 H   0  0  0  0  0  0  0  0  0  0  0  0  # atno 10764 bound_to 10752
  154.8709  135.4105  154.3321 H   0  0  0  0  0  0  0  0  0  0  0  0  # atno 10765 bound_to 10752
  139.8892  134.9495  156.6349 H   0  0  0  0  0  0  0  0  0  0  0  0  # atno 11005 bound_to 11000
  145.0734  139.3014  143.5820 LP  0  0  0  0  0  0  0  0  0  0  0  0  # atno 17320 bound_to 7965
  146.3520  140.0216  142.8658 LP  0  0  0  0  0  0  0  0  0  0  0  0  # atno 17321 bound_to 7965
  139.4870  144.4534  151.9627 LP  0  0  0  0  0  0  0  0  0  0  0  0  # atno 17342 bound_to 10162
  140.3623  144.2958  150.5931 LP  0  0  0  0  0  0  0  0  0  0  0  0  # atno 17343 bound_to 10162
  156.9429  130.9750  151.3513 LP  0  0  0  0  0  0  0  0  0  0  0  0  # atno 17370 bound_to 10713
  157.5832  130.8391  149.8552 LP  0  0  0  0  0  0  0  0  0  0  0  0  # atno 17371 bound_to 10713
  140.7638  133.8795  155.8438 LP  0  0  0  0  0  0  0  0  0  0  0  0  # atno 17394 bound_to 11000
  140.9900  134.1292  157.4417 LP  0  0  0  0  0  0  0  0  0  0  0  0  # atno 17395 bound_to 11000

$$$$
