#       Name:                AV-unprocessed.smi:1830
#       Creating user name   scv26
#       Creation time:       Fri Mar 27 09:12:50 2020


#       File generated by GOLD software.
#

@<TRIPOS>MOLECULE
AV-unprocessed.smi:1830
    59    62     1
SMALL
NO_CHARGES


@<TRIPOS>ATOM
      1 ****         0.5442   2.1595   0.5839 O.2            1 S1                 0.0000
      2 ****        -0.0230   1.1276   0.9396 C.2            1 S1                 0.0000
      3 ****         0.6295   0.0023   1.2628 N.am           1 S1                 0.0000
      4 ****         2.0760  -0.1805   1.2044 C.3            1 S1                 0.0000
      5 ****         2.5183  -0.7422  -0.1573 C.3            1 S1                 0.0000
      6 ****         4.0142  -1.1337  -0.1625 C.3            1 S1                 0.0000
      7 ****         4.4067  -1.5577  -1.4930 N.3            1 S1                 0.0000
      8 ****         5.7974  -1.8933  -1.6914 C.3            1 S1                 0.0000
      9 ****         5.9722  -1.8909  -3.2205 C.3            1 S1                 0.0000
     10 ****         4.7888  -1.0458  -3.7427 C.3            1 S1                 0.0000
     11 ****         4.1566  -0.5177  -2.4540 C.3            1 S1                 0.0000
     12 ****         2.6651  -0.1557  -2.4872 C.3            1 S1                 0.0000
     13 ****         2.2808   0.2444  -1.1700 O.3            1 S1                 0.0000
     14 ****        -1.3514   0.9578   1.0545 N.am           1 S1                 0.0000
     15 ****        -2.4249   1.8584   0.7813 C.ar           1 S1                 0.0000
     16 ****        -2.2396   3.2147   0.4120 C.ar           1 S1                 0.0000
     17 ****        -3.3644   4.0191   0.1561 C.ar           1 S1                 0.0000
     18 ****        -4.6401   3.4438   0.2800 C.ar           1 S1                 0.0000
     19 ****        -4.8361   2.1587   0.6348 N.ar           1 S1                 0.0000
     20 ****        -3.7583   1.3733   0.8786 C.ar           1 S1                 0.0000
     21 ****        -4.0009   0.0431   1.2813 N.3            1 S1                 0.0000
     22 ****        -3.8950  -0.1524   2.7247 C.3            1 S1                 0.0000
     23 ****        -4.9901  -1.1489   3.1106 C.3            1 S1                 0.0000
     24 ****        -6.0473  -0.9312   2.0355 C.3            1 S1                 0.0000
     25 ****        -5.2012  -0.6378   0.7983 C.3            1 S1                 0.0000
     26 ****         0.0829  -0.7983   1.5439 H              1 S1                 0.0000
     27 ****         2.6001   0.7508   1.4262 H              1 S1                 0.0000
     28 ****         2.3471  -0.8807   1.9950 H              1 S1                 0.0000
     29 ****         1.9211  -1.6265  -0.3876 H              1 S1                 0.0000
     30 ****         4.6216  -0.2839   0.1531 H              1 S1                 0.0000
     31 ****         4.1970  -1.9373   0.5517 H              1 S1                 0.0000
     32 ****         6.4365  -1.1306  -1.2433 H              1 S1                 0.0000
     33 ****         6.0488  -2.8537  -1.2405 H              1 S1                 0.0000
     34 ****         6.9353  -1.4664  -3.5052 H              1 S1                 0.0000
     35 ****         5.9203  -2.9038  -3.6215 H              1 S1                 0.0000
     36 ****         5.1063  -0.2404  -4.4054 H              1 S1                 0.0000
     37 ****         4.0860  -1.6779  -4.2874 H              1 S1                 0.0000
     38 ****         4.7109   0.3756  -2.1577 H              1 S1                 0.0000
     39 ****         2.4818   0.6641  -3.1818 H              1 S1                 0.0000
     40 ****         2.0585  -1.0027  -2.8112 H              1 S1                 0.0000
     41 ****        -1.6443   0.0379   1.3494 H              1 S1                 0.0000
     42 ****        -1.2663   3.6670   0.3188 H              1 S1                 0.0000
     43 ****        -3.2498   5.0546  -0.1278 H              1 S1                 0.0000
     44 ****        -5.5268   4.0311   0.0926 H              1 S1                 0.0000
     45 ****        -2.9069  -0.5228   2.9982 H              1 S1                 0.0000
     46 ****        -4.0524   0.7930   3.2468 H              1 S1                 0.0000
     47 ****        -4.6042  -2.1671   3.0469 H              1 S1                 0.0000
     48 ****        -5.3683  -0.9930   4.1212 H              1 S1                 0.0000
     49 ****        -6.7094  -1.7874   1.9052 H              1 S1                 0.0000
     50 ****        -6.6577  -0.0618   2.2839 H              1 S1                 0.0000
     51 ****        -5.7607  -0.0836   0.0444 H              1 S1                 0.0000
     52 ****        -4.8865  -1.5728   0.3339 H              1 S1                 0.0000
     53 ****         1.5421   2.1866   0.5245 LP             1 S1                 0.0000
     54 ****         0.0075   2.9714   0.3541 LP             1 S1                 0.0000
     55 ****         3.8587  -2.3857  -1.6110 LP             1 S1                 0.0000
     56 ****         2.7953   1.0679  -0.9309 LP             1 S1                 0.0000
     57 ****         1.3030   0.4534  -1.1796 LP             1 S1                 0.0000
     58 ****        -5.7620   1.7902   0.7170 LP             1 S1                 0.0000
     59 ****        -3.2497  -0.4042   0.7958 LP             1 S1                 0.0000
@<TRIPOS>BOND
    1    1    2 2     
    2    2    3 am    
    3    2   14 am    
    4    3    4 1     
    5    3   26 1     
    6    4    5 1     
    7    4   27 1     
    8    4   28 1     
    9    5   13 1     
   10    5    6 1     
   11    5   29 1     
   12    6    7 1     
   13    6   30 1     
   14    6   31 1     
   15    7   11 1     
   16    7    8 1     
   17    8    9 1     
   18    8   32 1     
   19    8   33 1     
   20    9   10 1     
   21    9   34 1     
   22    9   35 1     
   23   10   11 1     
   24   10   36 1     
   25   10   37 1     
   26   11   12 1     
   27   11   38 1     
   28   12   13 1     
   29   12   39 1     
   30   12   40 1     
   31   14   15 1     
   32   14   41 1     
   33   15   20 ar    
   34   15   16 ar    
   35   16   17 ar    
   36   16   42 1     
   37   17   18 ar    
   38   17   43 1     
   39   18   19 ar    
   40   18   44 1     
   41   19   20 ar    
   42   20   21 1     
   43   21   25 1     
   44   21   22 1     
   45   22   23 1     
   46   22   45 1     
   47   22   46 1     
   48   23   24 1     
   49   23   47 1     
   50   23   48 1     
   51   24   25 1     
   52   24   49 1     
   53   24   50 1     
   54   25   51 1     
   55   25   52 1     
   56    1   53 1     
   57    1   54 1     
   58    7   55 1     
   59   13   56 1     
   60   13   57 1     
   61   19   58 1     
   62   21   59 1     
@<TRIPOS>SUBSTRUCTURE
      1 S1             1
@<TRIPOS>SET
LONE_PAIRS      STATIC     ATOMS    <user>   **** ""
7 53 54 55 56 57 58 59
DONOR_HYDROGENS      STATIC     ATOMS    <user>   **** ""
2 26 41
ATOM$BLUE        STATIC     ATOMS    COLORGROUP SYSTEM
7 53 54 55 56 57 58 59
ATOM$RED        STATIC     ATOMS    COLORGROUP SYSTEM
2 26 41
