#       Name:                AV-unprocessed.smi:2355
#       Creating user name   scv26
#       Creation time:       Fri Mar 27 13:02:01 2020


#       File generated by GOLD software.
#

@<TRIPOS>MOLECULE
AV-unprocessed.smi:2355
    54    55     1
SMALL
NO_CHARGES


@<TRIPOS>ATOM
      1 ****        -6.9902   0.5142  -0.5092 C.3            1 S1                 0.0000
      2 ****        -5.5775   1.0510  -0.6050 C.ar           1 S1                 0.0000
      3 ****        -5.3365   2.4313  -0.7432 C.ar           1 S1                 0.0000
      4 ****        -4.0000   2.8678  -0.8276 C.ar           1 S1                 0.0000
      5 ****        -3.6698   4.3374  -0.9825 C.3            1 S1                 0.0000
      6 ****        -2.9457   2.0255  -0.7831 N.ar           1 S1                 0.0000
      7 ****        -3.1657   0.6941  -0.6493 C.ar           1 S1                 0.0000
      8 ****        -2.1278  -0.2734  -0.5920 N.am           1 S1                 0.0000
      9 ****        -0.8004  -0.0728  -0.6660 C.2            1 S1                 0.0000
     10 ****        -0.2500   1.0215  -0.7941 O.2            1 S1                 0.0000
     11 ****        -0.1305  -1.2316  -0.5786 N.am           1 S1                 0.0000
     12 ****         1.3244  -1.3737  -0.6175 C.3            1 S1                 0.0000
     13 ****         1.6727  -2.8049  -1.0630 C.3            1 S1                 0.0000
     14 ****         1.9875  -0.9664   0.7393 C.3            1 S1                 0.0000
     15 ****         1.4026  -1.8229   1.8930 C.3            1 S1                 0.0000
     16 ****         3.4696  -0.9691   0.7099 N.3            1 S1                 0.0000
     17 ****         4.0601  -0.5716   1.9931 C.3            1 S1                 0.0000
     18 ****         5.5980  -0.5535   1.9613 C.3            1 S1                 0.0000
     19 ****         6.0446   0.3168   0.9307 O.3            1 S1                 0.0000
     20 ****         5.5569  -0.0734  -0.3455 C.3            1 S1                 0.0000
     21 ****         4.0188  -0.0927  -0.3311 C.3            1 S1                 0.0000
     22 ****        -4.4759   0.1731  -0.5563 C.ar           1 S1                 0.0000
     23 ****        -7.7255   1.3083  -0.6426 H              1 S1                 0.0000
     24 ****        -7.1548   0.0565   0.4664 H              1 S1                 0.0000
     25 ****        -7.1615  -0.2400  -1.2775 H              1 S1                 0.0000
     26 ****        -6.1537   3.1366  -0.7849 H              1 S1                 0.0000
     27 ****        -4.5289   4.9615  -0.7346 H              1 S1                 0.0000
     28 ****        -3.3767   4.5507  -2.0107 H              1 S1                 0.0000
     29 ****        -2.8465   4.6180  -0.3245 H              1 S1                 0.0000
     30 ****        -2.4322  -1.2295  -0.4852 H              1 S1                 0.0000
     31 ****        -0.6643  -2.0820  -0.4749 H              1 S1                 0.0000
     32 ****         1.6556  -0.7026  -1.4090 H              1 S1                 0.0000
     33 ****         2.7505  -2.9406  -1.1538 H              1 S1                 0.0000
     34 ****         1.2353  -3.0264  -2.0371 H              1 S1                 0.0000
     35 ****         1.3008  -3.5511  -0.3608 H              1 S1                 0.0000
     36 ****         1.6740   0.0597   0.9382 H              1 S1                 0.0000
     37 ****         0.3164  -1.8952   1.8523 H              1 S1                 0.0000
     38 ****         1.6246  -1.3935   2.8691 H              1 S1                 0.0000
     39 ****         1.7999  -2.8379   1.8775 H              1 S1                 0.0000
     40 ****         3.6927   0.4148   2.2800 H              1 S1                 0.0000
     41 ****         3.7640  -1.2613   2.7818 H              1 S1                 0.0000
     42 ****         5.9923  -0.2052   2.9160 H              1 S1                 0.0000
     43 ****         5.9932  -1.5575   1.7983 H              1 S1                 0.0000
     44 ****         5.9188   0.6304  -1.0951 H              1 S1                 0.0000
     45 ****         5.9526  -1.0549  -0.6111 H              1 S1                 0.0000
     46 ****         3.7005  -0.4188  -1.3189 H              1 S1                 0.0000
     47 ****         3.6446   0.9230  -0.1947 H              1 S1                 0.0000
     48 ****        -4.6372  -0.8902  -0.4498 H              1 S1                 0.0000
     49 ****        -2.0128   2.3796  -0.8481 LP             1 S1                 0.0000
     50 ****        -0.8005   1.8544  -0.8516 LP             1 S1                 0.0000
     51 ****         0.7474   1.0772  -0.8405 LP             1 S1                 0.0000
     52 ****         3.7130  -1.9178   0.5083 LP             1 S1                 0.0000
     53 ****         7.0444   0.3071   0.9109 LP             1 S1                 0.0000
     54 ****         5.7242   1.2431   1.1292 LP             1 S1                 0.0000
@<TRIPOS>BOND
    1    1    2 1     
    2    1   23 1     
    3    1   24 1     
    4    1   25 1     
    5    2   22 ar    
    6    2    3 ar    
    7    3    4 ar    
    8    3   26 1     
    9    4    5 1     
   10    4    6 ar    
   11    5   27 1     
   12    5   28 1     
   13    5   29 1     
   14    6    7 ar    
   15    7    8 1     
   16    7   22 ar    
   17    8    9 am    
   18    8   30 1     
   19    9   10 2     
   20    9   11 am    
   21   11   12 1     
   22   11   31 1     
   23   12   13 1     
   24   12   14 1     
   25   12   32 1     
   26   13   33 1     
   27   13   34 1     
   28   13   35 1     
   29   14   15 1     
   30   14   16 1     
   31   14   36 1     
   32   15   37 1     
   33   15   38 1     
   34   15   39 1     
   35   16   21 1     
   36   16   17 1     
   37   17   18 1     
   38   17   40 1     
   39   17   41 1     
   40   18   19 1     
   41   18   42 1     
   42   18   43 1     
   43   19   20 1     
   44   20   21 1     
   45   20   44 1     
   46   20   45 1     
   47   21   46 1     
   48   21   47 1     
   49   22   48 1     
   50    6   49 1     
   51   10   50 1     
   52   10   51 1     
   53   16   52 1     
   54   19   53 1     
   55   19   54 1     
@<TRIPOS>SUBSTRUCTURE
      1 S1             1
@<TRIPOS>SET
LONE_PAIRS      STATIC     ATOMS    <user>   **** ""
6 49 50 51 52 53 54
DONOR_HYDROGENS      STATIC     ATOMS    <user>   **** ""
2 30 31
ATOM$BLUE        STATIC     ATOMS    COLORGROUP SYSTEM
6 49 50 51 52 53 54
ATOM$RED        STATIC     ATOMS    COLORGROUP SYSTEM
2 30 31
