#       Name:                AV-unprocessed.smi:1406
#       Creating user name   scv26
#       Creation time:       Fri Mar 27 05:34:34 2020


#       File generated by GOLD software.
#

@<TRIPOS>MOLECULE
AV-unprocessed.smi:1406
    45    47     1
SMALL
NO_CHARGES


@<TRIPOS>ATOM
      1 ****        -2.8482  -1.6564  -3.2722 C.3            1 S1                 0.0000
      2 ****        -2.4439  -0.7135  -2.1205 C.3            1 S1                 0.0000
      3 ****        -0.9284  -0.4717  -2.0498 C.2            1 S1                 0.0000
      4 ****        -0.1352  -1.2690  -2.5513 O.2            1 S1                 0.0000
      5 ****        -0.5363   0.6283  -1.3882 N.am           1 S1                 0.0000
      6 ****         0.8510   0.9700  -1.0900 C.3            1 S1                 0.0000
      7 ****         1.0279   2.4139  -0.6005 C.3            1 S1                 0.0000
      8 ****         2.2045   2.3615   0.3910 C.3            1 S1                 0.0000
      9 ****         2.6305   0.9455   0.4508 N.4            1 S1                 1.0000
     10 ****         3.3223   0.5135   1.6923 C.3            1 S1                 0.0000
     11 ****         2.3501   0.2578   2.8562 C.3            1 S1                 0.0000
     12 ****         1.2498  -0.7223   2.4365 C.3            1 S1                 0.0000
     13 ****         0.5070  -0.1694   1.2160 C.3            1 S1                 0.0000
     14 ****         1.4715   0.1241   0.0364 C.3            1 S1                 0.0000
     15 ****        -2.9273  -1.1825  -0.8270 N.pl3          1 S1                 0.0000
     16 ****        -3.4754  -0.5014   0.1819 C.2            1 S1                 0.0000
     17 ****        -3.7396  -1.2397   1.2503 N.2            1 S1                 0.0000
     18 ****        -3.2954  -2.4522   0.8053 C.2            1 S1                 0.0000
     19 ****        -2.7847  -2.4704  -0.4256 N.2            1 S1                 0.0000
     20 ****        -2.5314  -1.2567  -4.2360 H              1 S1                 0.0000
     21 ****        -3.9309  -1.7797  -3.3104 H              1 S1                 0.0000
     22 ****        -2.4080  -2.6489  -3.1656 H              1 S1                 0.0000
     23 ****        -2.9186   0.2507  -2.3100 H              1 S1                 0.0000
     24 ****        -1.2497   1.2381  -1.0155 H              1 S1                 0.0000
     25 ****         1.4529   0.8458  -1.9929 H              1 S1                 0.0000
     26 ****         1.2186   3.0972  -1.4286 H              1 S1                 0.0000
     27 ****         0.1321   2.7649  -0.0860 H              1 S1                 0.0000
     28 ****         3.0367   2.9896   0.0719 H              1 S1                 0.0000
     29 ****         1.8794   2.7130   1.3708 H              1 S1                 0.0000
     30 ****         3.8613  -0.4080   1.4695 H              1 S1                 0.0000
     31 ****         4.0750   1.2514   1.9721 H              1 S1                 0.0000
     32 ****         2.8953  -0.1408   3.7123 H              1 S1                 0.0000
     33 ****         1.9031   1.1957   3.1876 H              1 S1                 0.0000
     34 ****         1.6840  -1.6946   2.2000 H              1 S1                 0.0000
     35 ****         0.5527  -0.8810   3.2598 H              1 S1                 0.0000
     36 ****        -0.2589  -0.8821   0.9083 H              1 S1                 0.0000
     37 ****        -0.0217   0.7393   1.5066 H              1 S1                 0.0000
     38 ****         1.8380  -0.8243  -0.3592 H              1 S1                 0.0000
     39 ****        -3.6746   0.5592   0.1380 H              1 S1                 0.0000
     40 ****        -3.3393  -3.3460   1.4102 H              1 S1                 0.0000
     41 ****         3.3056   0.8494  -0.2946 H              1 S1                 0.0000
     42 ****        -0.4747  -2.0884  -3.0132 LP             1 S1                 0.0000
     43 ****         0.8483  -1.0970  -2.4967 LP             1 S1                 0.0000
     44 ****        -4.1461  -0.9835   2.1273 LP             1 S1                 0.0000
     45 ****        -2.3938  -3.2415  -0.9281 LP             1 S1                 0.0000
@<TRIPOS>BOND
    1    1    2 1     
    2    1   20 1     
    3    1   21 1     
    4    1   22 1     
    5    2    3 1     
    6    2   15 1     
    7    2   23 1     
    8    3    4 2     
    9    3    5 am    
   10    5    6 1     
   11    5   24 1     
   12    6   14 1     
   13    6    7 1     
   14    6   25 1     
   15    7    8 1     
   16    7   26 1     
   17    7   27 1     
   18    8    9 1     
   19    8   28 1     
   20    8   29 1     
   21    9   14 1     
   22    9   10 1     
   23    9   41 1     
   24   10   11 1     
   25   10   30 1     
   26   10   31 1     
   27   11   12 1     
   28   11   32 1     
   29   11   33 1     
   30   12   13 1     
   31   12   34 1     
   32   12   35 1     
   33   13   14 1     
   34   13   36 1     
   35   13   37 1     
   36   14   38 1     
   37   15   19 1     
   38   15   16 1     
   39   16   17 2     
   40   16   39 1     
   41   17   18 1     
   42   18   19 2     
   43   18   40 1     
   44    4   42 1     
   45    4   43 1     
   46   17   44 1     
   47   19   45 1     
@<TRIPOS>SUBSTRUCTURE
      1 S1             1
@<TRIPOS>SET
LONE_PAIRS      STATIC     ATOMS    <user>   **** ""
4 42 43 44 45
DONOR_HYDROGENS      STATIC     ATOMS    <user>   **** ""
2 24 41
ATOM$BLUE        STATIC     ATOMS    COLORGROUP SYSTEM
4 42 43 44 45
ATOM$RED        STATIC     ATOMS    COLORGROUP SYSTEM
2 24 41
