#       Name:                AV-unprocessed.smi:675
#       Creating user name   scv26
#       Creation time:       Fri Mar 27 00:26:54 2020


#       File generated by GOLD software.
#

@<TRIPOS>MOLECULE
AV-unprocessed.smi:675
    35    36     1
SMALL
NO_CHARGES


@<TRIPOS>ATOM
      1 ****        -2.6938   5.2601  -0.5411 O.2            1 S1                 0.0000
      2 ****        -2.3122   4.1160  -0.2987 C.2            1 S1                 0.0000
      3 ****        -2.3245   3.5861   0.9595 N.pl3          1 S1                -1.0000
      4 ****        -1.9040   2.3159   1.2492 C.2            1 S1                 0.0000
      5 ****        -1.9241   1.8629   2.3936 O.2            1 S1                 0.0000
      6 ****        -1.4478   1.5266   0.2320 N.am           1 S1                 0.0000
      7 ****        -0.9662   0.1545   0.4477 C.3            1 S1                 0.0000
      8 ****         0.5713   0.0952   0.5761 C.3            1 S1                 0.0000
      9 ****         0.9329   0.4638   1.8933 O.3            1 S1                 0.0000
     10 ****         1.0922  -1.2944   0.2112 C.ar           1 S1                 0.0000
     11 ****         1.1620  -2.3040   1.1999 C.ar           1 S1                 0.0000
     12 ****         1.6316  -3.5918   0.8805 C.ar           1 S1                 0.0000
     13 ****         2.0311  -3.8880  -0.4348 C.ar           1 S1                 0.0000
     14 ****         1.9535  -2.8965  -1.4298 C.ar           1 S1                 0.0000
     15 ****         1.4837  -1.6050  -1.1163 C.ar           1 S1                 0.0000
     16 ****         1.3887  -0.4360  -2.3874 Cl             1 S1                 0.0000
     17 ****        -1.4131   2.0246  -1.0819 C.2            1 S1                 0.0000
     18 ****        -1.8211   3.2716  -1.3858 C.2            1 S1                 0.0000
     19 ****        -1.7629   3.8565  -3.0105 Cl             1 S1                 0.0000
     20 ****        -1.4515  -0.3370   1.2930 H              1 S1                 0.0000
     21 ****        -1.2741  -0.4312  -0.4202 H              1 S1                 0.0000
     22 ****         1.0319   0.8321  -0.0811 H              1 S1                 0.0000
     23 ****         1.8734   0.5398   1.9366 H              1 S1                 0.0000
     24 ****         0.8506  -2.0990   2.2137 H              1 S1                 0.0000
     25 ****         1.6823  -4.3530   1.6451 H              1 S1                 0.0000
     26 ****         2.3908  -4.8758  -0.6818 H              1 S1                 0.0000
     27 ****         2.2527  -3.1302  -2.4410 H              1 S1                 0.0000
     28 ****        -1.0321   1.3349  -1.8208 H              1 S1                 0.0000
     29 ****        -2.6671   5.6082  -1.4782 LP             1 S1                 0.0000
     30 ****        -3.0308   5.8422   0.1990 LP             1 S1                 0.0000
     31 ****        -2.6587   4.1565   1.7098 LP             1 S1                 0.0000
     32 ****        -2.2556   2.4279   3.1492 LP             1 S1                 0.0000
     33 ****        -1.6090   0.9300   2.5677 LP             1 S1                 0.0000
     34 ****         0.6212  -0.2354   2.5366 LP             1 S1                 0.0000
     35 ****         0.5127   1.3412   2.1252 LP             1 S1                 0.0000
@<TRIPOS>BOND
    1    1    2 2     
    2    2   18 1     
    3    2    3 1     
    4    3    4 1     
    5    4    5 2     
    6    4    6 am    
    7    6    7 1     
    8    6   17 1     
    9    7    8 1     
   10    7   20 1     
   11    7   21 1     
   12    8    9 1     
   13    8   10 1     
   14    8   22 1     
   15    9   23 1     
   16   10   15 ar    
   17   10   11 ar    
   18   11   12 ar    
   19   11   24 1     
   20   12   13 ar    
   21   12   25 1     
   22   13   14 ar    
   23   13   26 1     
   24   14   15 ar    
   25   14   27 1     
   26   15   16 1     
   27   17   18 2     
   28   17   28 1     
   29   18   19 1     
   30    1   29 1     
   31    1   30 1     
   32    3   31 1     
   33    5   32 1     
   34    5   33 1     
   35    9   34 1     
   36    9   35 1     
@<TRIPOS>SUBSTRUCTURE
      1 S1             1
@<TRIPOS>SET
LONE_PAIRS      STATIC     ATOMS    <user>   **** ""
7 29 30 31 32 33 34 35
DONOR_HYDROGENS      STATIC     ATOMS    <user>   **** ""
1 23
ATOM$BLUE        STATIC     ATOMS    COLORGROUP SYSTEM
7 29 30 31 32 33 34 35
ATOM$RED        STATIC     ATOMS    COLORGROUP SYSTEM
1 23
