AV-unprocessed.smi:160|AV-procd|sdf|1359|dock8
  -GOLD-   2262019 63D 1   1.00000     0.00000
 Structure written by MMmdl.
 28 29  0  0  0  0  0  0  0  0  2 V2000
  149.5248  134.8043  157.9099 N   0  5  0  0  0  0  0  0  0  0  0  0
  149.4223  136.1509  157.9509 C   0  0  0  0  0  0  0  0  0  0  0  0
  149.0191  136.8216  158.9004 O   0  0  0  0  0  0  0  0  0  0  0  0
  149.8584  136.8505  156.6857 C   0  0  0  0  0  0  0  0  0  0  0  0
  150.2900  136.1335  155.6036 N   0  0  0  0  0  0  0  0  0  0  0  0
  150.5540  137.1360  154.7758 C   0  0  0  0  0  0  0  0  0  0  0  0
  150.3015  138.3458  155.2832 N   0  0  0  0  0  0  0  0  0  0  0  0
  150.4965  139.7005  154.6823 C   0  0  2  0  0  0  0  0  0  0  0  0
  151.1703  140.4790  155.6267 O   0  0  0  0  0  0  0  0  0  0  0  0
  150.4098  141.6324  155.9831 C   0  0  2  0  0  0  0  0  0  0  0  0
  150.6088  141.9363  157.4763 C   0  0  0  0  0  0  0  0  0  0  0  0
  149.9530  143.1376  157.8220 O   0  0  0  0  0  0  0  0  0  0  0  0
  148.9698  141.2555  155.6276 C   0  0  1  0  0  0  0  0  0  0  0  0
  148.1404  142.3773  155.3851 O   0  0  0  0  0  0  0  0  0  0  0  0
  149.1451  140.3713  154.3997 C   0  0  1  0  0  0  0  0  0  0  0  0
  149.1937  141.1101  153.1926 O   0  0  0  0  0  0  0  0  0  0  0  0
  149.8519  138.1801  156.5513 N   0  0  0  0  0  0  0  0  0  0  0  0
  151.1021  139.5209  153.7929 H   0  0  0  0  0  0  0  0  0  0  0  0
  150.7294  142.4692  155.3588 H   0  0  0  0  0  0  0  0  0  0  0  0
  148.5322  140.6686  156.4361 H   0  0  0  0  0  0  0  0  0  0  0  0
  148.3489  139.6305  154.3105 H   0  0  0  0  0  0  0  0  0  0  0  0
  149.2314  134.3179  157.0544 H   0  0  0  0  0  0  0  0  0  0  0  0
  150.9403  136.9849  153.7785 H   0  0  0  0  0  0  0  0  0  0  0  0
  150.1735  141.1424  158.0831 H   0  0  0  0  0  0  0  0  0  0  0  0
  151.6681  141.9928  157.7299 H   0  0  0  0  0  0  0  0  0  0  0  0
  149.4865  143.4530  157.0630 H   0  0  0  0  0  0  0  0  0  0  0  0
  148.6797  143.1531  155.3860 H   0  0  0  0  0  0  0  0  0  0  0  0
  148.9848  140.5241  152.4811 H   0  0  0  0  0  0  0  0  0  0  0  0
  1  2  1  0  0  0  0
  1 22  1  0  0  0  0
  2  3  2  0  0  0  0
  2  4  1  0  0  0  0
  4 17  2  0  0  0  0
  4  5  1  0  0  0  0
  5  6  2  0  0  0  0
  6  7  1  0  0  0  0
  6 23  1  0  0  0  0
  7  8  1  0  0  0  0
  7 17  1  0  0  0  0
  8 18  1  0  0  0  0
  8 15  1  0  0  0  0
  8  9  1  0  0  0  0
  9 10  1  0  0  0  0
 10 19  1  0  0  0  0
 10 11  1  0  0  0  0
 10 13  1  0  0  0  0
 11 12  1  0  0  0  0
 11 24  1  0  0  0  0
 11 25  1  0  0  0  0
 12 26  1  0  0  0  0
 13 20  1  0  0  0  0
 13 14  1  0  0  0  0
 13 15  1  0  0  0  0
 14 27  1  0  0  0  0
 15 21  1  0  0  0  0
 15 16  1  0  0  0  0
 16 28  1  0  0  0  0
M  CHG  1   1  -1
M  END
> <s_m_source_file>
AV-unprocessed.smi

> <i_m_source_file_index>
160

> <i_lp_mmshare_version>
43012

> <i_f3d_flags>
0

> <s_epik_input>
W05IMl1DKD1PKWMxbltjSF1uKG4xKVtDQEBIXTJPW0NASF0oW0NIMl1bT0hdKVtDQEBIXShbT0hdKVtDQEhdMltPSF0=

> <s_epik_cmdline>
J2VwaWtfcHl0aG9uJywgJy1waCcsICc3LjAnLCAnLXRuJywgJzgnLCAnLW1hJywgJzIwMCcsICctbWV0YWxfYmluZGluZycsICctaW1hZScsICc8aW5maWxlLm1hZT4nLCAnLW9tYWUnLCAnPG91dGZpbGUubWFlPic=

> <r_lp_tautomer_probability>
1

> <r_epik_Ionization_Penalty>
6.6993

> <r_epik_Ionization_Penalty_Charging>
6.6993

> <r_epik_Ionization_Penalty_Neutral>
6.01698e-06

> <r_epik_State_Penalty>
6.69929

> <r_epik_Charging_Adjusted_Penalty>
13.3986

> <i_epik_Tot_Q>
-1

> <i_epik_Tot_abs_Q>
1

> <r_epik_Metal_State_Penalty>
2.62798

> <b_epik_Metal_Only>
1

> <s_epik_Chemistry_Notes>
This compound contains an acetal/aminal-like group ( X-CH(R)-Y where X, Y are N, S, or O) that may be acid/base labile, releasing an aldehyde.

> <s_lp_Force_Field>
OPLS_2005

> <r_lp_Energy>
41.4703

> <b_lp_Chiralities_Consistent>
1

> <s_lp_Variant>
AV-unprocessed.smi:160-17

> <Gold.Version>
5.8.1

> <Gold.Id.Protein>
6NUR|6NUR_protein|mol2

> <Gold.PLP.Fitness>
44.3769

> <Gold.PLP.PLP>
-24.3844

> <Gold.PLP.part.hbond>
-5.9655

> <Gold.PLP.part.metal>
0.0000

> <Gold.PLP.part.buried>
-3.9274

> <Gold.PLP.part.nonpolar>
-15.5191

> <Gold.PLP.part.repulsive>
0.1112

> <Gold.PLP.ligand.clash>
0.0000

> <Gold.PLP.ligand.torsion>
0.2565

> <Gold.PLP.Chemscore.Hbond>
5.7848

> <Gold.PLP.Chemscore.CHOScore>
1.0428

> <Gold.PLP.Chemscore.Metal>
0.0000

> <Gold.Chemscore.Hbonds>
donor molecule, donor type, donor heavy atom, donor atom, acceptor molecule, acceptor atom, score
      L1  H    12    26       P1  8028  1.00
      L1  H    14    27       P1  8028  1.00
      L1  H    16    28       P1  7957  0.77
      P1  H  6896  6907       L1     1  2.00
      P1  H  8011  8017       L1    16  1.00
      L1  C     6    23       P1  7948  0.07
      L1  C     6    23       P1  7949  1.00

> <Gold.PLP.Chemscore.Internal.Correction>
0.0227

> <Gold.Rescore>
     Score         DG    S(hbond)    S(metal)    S(lipo)     H(rot)  DE(clash)    DE(int)     intcor
     11.66     -12.06       4.11        0.00      27.29       4.04       0.31       0.10       ----

> <Gold.Chemscore.Fitness>
11.6562

> <Gold.Chemscore.DG>
-12.0645

> <Gold.Chemscore.ZeroCoef>
-5.4800

> <Gold.Chemscore.Hbond>
4.1121

> <Gold.Chemscore.Metal>
0.0000

> <Gold.Chemscore.Lipo>
27.2930

> <Gold.Chemscore.Internal_Hbond>
0.0000

> <Gold.Chemscore.DEClash>
0.3081

> <Gold.Chemscore.DEInternal>
0.1002

> <Gold.Chemscore.Rot>
4.0403

> <Gold.Chemscore.Internal.Correction>
   9.000000E+99

> <Gold.Chemscore.Hbonds>
donor molecule, donor type, donor heavy atom, donor atom, acceptor molecule, acceptor atom, score
      L1  H    12    26       P1  8028  0.90
      L1  H    14    27       P1  8028  0.93
      L1  H    16    28       P1  7957  0.73
      P1  H  6896  6907       L1     1  0.79
      P1  H  8011  8017       L1    16  0.25

> <Gold.Chemscore.Hbond.Weighted>
-13.7343

> <Gold.Chemscore.Metal.Weighted>
-0.0000

> <Gold.Chemscore.Lipo.Weighted>
-3.1933

> <Gold.Chemscore.Internal_Hbond.Weighted>
0.0000

> <Gold.Chemscore.DEClash.Weighted>
0.3081

> <Gold.Chemscore.DEInternal.Weighted>
0.1002

> <Gold.Chemscore.Rot.Weighted>
10.3431

> <Gold.Chemscore.Internal.Correction.Weighted>
   9.000000E+99

> <Gold.Protein.RotatedTorsions>
[ 6907 6896 6895 6894 ] final  -99.84 input  -60.11 | X-H torsion
[ 7974 7965 7964 7962 ] final   62.77 input  175.53 | X-H torsion
[ 8008 7997 7996 7995 ] final  169.14 input   59.86 | X-H torsion
[ 10167 10162 10161 10158 ] final  -97.46 input  -65.29 | X-H torsion
[ 10718 10713 10712 10709 ] final  144.91 input   66.30 | X-H torsion
[ 10763 10752 10751 10750 ] final  148.99 input  -60.55 | X-H torsion
[ 11005 11000 10999 10996 ] final -116.89 input  -57.11 | X-H torsion

> <Gold.Protein.ActiveResidues>
 VAL166  LYS551  ARG553  GLY616  TRP617  ASP618  TYR619  PRO620  LYS621  CYS622 
 ASP623  PHE694  ASN695  SER759  ASP760  ASP761  ALA762  ILE779  LEU786  VAL792 
 PHE793  MET794  SER795  GLU796  ALA797  LYS798  CYS799  TRP800  GLU811  SER814 

> <Gold.Protein.RotatedAtoms>
  150.7094  134.0979  159.3954 H   0  0  0  0  0  0  0  0  0  0  0  0  # atno 6907 bound_to 6896
  151.8965  135.0393  160.0512 H   0  0  0  0  0  0  0  0  0  0  0  0  # atno 6908 bound_to 6896
  152.2449  133.5130  159.5328 H   0  0  0  0  0  0  0  0  0  0  0  0  # atno 6909 bound_to 6896
  145.8695  139.3368  143.0771 H   0  0  0  0  0  0  0  0  0  0  0  0  # atno 7974 bound_to 7965
  156.1484  140.1572  156.8809 H   0  0  0  0  0  0  0  0  0  0  0  0  # atno 8008 bound_to 7997
  154.5049  140.0815  156.7911 H   0  0  0  0  0  0  0  0  0  0  0  0  # atno 8009 bound_to 7997
  155.3944  140.3411  155.4255 H   0  0  0  0  0  0  0  0  0  0  0  0  # atno 8010 bound_to 7997
  140.2832  143.3268  152.0420 H   0  0  0  0  0  0  0  0  0  0  0  0  # atno 10167 bound_to 10162
  157.3515  131.0951  151.0995 H   0  0  0  0  0  0  0  0  0  0  0  0  # atno 10718 bound_to 10713
  154.0637  135.2872  155.3320 H   0  0  0  0  0  0  0  0  0  0  0  0  # atno 10763 bound_to 10752
  154.6791  135.5270  153.8243 H   0  0  0  0  0  0  0  0  0  0  0  0  # atno 10764 bound_to 10752
  153.0512  135.6577  154.0824 H   0  0  0  0  0  0  0  0  0  0  0  0  # atno 10765 bound_to 10752
  141.0392  133.9863  157.3022 H   0  0  0  0  0  0  0  0  0  0  0  0  # atno 11005 bound_to 11000
  145.9153  140.9152  143.0433 LP  0  0  0  0  0  0  0  0  0  0  0  0  # atno 17320 bound_to 7965
  144.6726  140.1215  143.7449 LP  0  0  0  0  0  0  0  0  0  0  0  0  # atno 17321 bound_to 7965
  139.4957  144.6577  151.6535 LP  0  0  0  0  0  0  0  0  0  0  0  0  # atno 17342 bound_to 10162
  140.5794  143.9972  150.6260 LP  0  0  0  0  0  0  0  0  0  0  0  0  # atno 17343 bound_to 10162
  157.2169  130.6463  149.5796 LP  0  0  0  0  0  0  0  0  0  0  0  0  # atno 17370 bound_to 10713
  155.9722  130.4642  150.6208 LP  0  0  0  0  0  0  0  0  0  0  0  0  # atno 17371 bound_to 10713
  139.9263  135.0201  156.8245 LP  0  0  0  0  0  0  0  0  0  0  0  0  # atno 17394 bound_to 11000
  140.6266  133.9944  155.7643 LP  0  0  0  0  0  0  0  0  0  0  0  0  # atno 17395 bound_to 11000

$$$$
