AV-unprocessed.smi:518|AV-procd|sdf|2794|dock1
  -GOLD-   2262023263D 1   1.00000     0.00000
 Structure written by MMmdl.
 41 43  0  0  0  0  0  0  0  0  2 V2000
  152.8083  139.6278  155.0597 O   0  0  0  0  0  0  0  0  0  0  0  0
  151.6111  138.9866  155.4462 C   0  0  0  0  0  0  0  0  0  0  0  0
  151.1407  139.4479  156.8381 C   0  0  0  0  0  0  0  0  0  0  0  0
  151.0338  140.9117  156.9634 N   0  0  0  0  0  0  0  0  0  0  0  0
  150.3468  141.8143  156.2031 C   0  0  0  0  0  0  0  0  0  0  0  0
  149.4919  141.5274  155.0079 C   0  0  0  0  0  0  0  0  0  0  0  0
  148.1684  142.1432  155.0609 N   0  0  0  0  0  0  0  0  0  0  0  0
  147.4441  141.8249  153.8282 C   0  0  0  0  0  0  0  0  0  0  0  0
  146.0857  142.5470  153.8049 C   0  0  0  0  0  0  0  0  0  0  0  0
  145.2379  142.1488  155.0181 C   0  0  0  0  0  0  0  0  0  0  0  0
  146.0470  142.3723  156.3008 C   0  0  0  0  0  0  0  0  0  0  0  0
  147.4097  141.6611  156.2206 C   0  0  0  0  0  0  0  0  0  0  0  0
  150.5690  143.0468  156.7401 N   0  3  0  0  0  0  0  0  0  0  0  0
  151.3983  142.9342  157.8561 C   0  0  0  0  0  0  0  0  0  0  0  0
  151.8929  143.9027  158.7240 C   0  0  0  0  0  0  0  0  0  0  0  0
  152.7176  143.4491  159.7742 C   0  0  0  0  0  0  0  0  0  0  0  0
  153.0228  142.0813  159.9322 C   0  0  0  0  0  0  0  0  0  0  0  0
  154.0386  141.5854  161.2354 Cl  0  0  0  0  0  0  0  0  0  0  0  0
  152.5134  141.1102  159.0452 C   0  0  0  0  0  0  0  0  0  0  0  0
  151.6991  141.5654  158.0083 C   0  0  0  0  0  0  0  0  0  0  0  0
  152.7910  139.7550  154.1231 H   0  0  0  0  0  0  0  0  0  0  0  0
  150.8502  139.1865  154.6930 H   0  0  0  0  0  0  0  0  0  0  0  0
  151.7779  137.9094  155.4484 H   0  0  0  0  0  0  0  0  0  0  0  0
  150.1552  139.0305  157.0467 H   0  0  0  0  0  0  0  0  0  0  0  0
  151.7991  139.0692  157.6201 H   0  0  0  0  0  0  0  0  0  0  0  0
  150.0232  141.8959  154.1296 H   0  0  0  0  0  0  0  0  0  0  0  0
  149.3959  140.4474  154.8838 H   0  0  0  0  0  0  0  0  0  0  0  0
  148.0312  142.1418  152.9653 H   0  0  0  0  0  0  0  0  0  0  0  0
  147.3027  140.7464  153.7409 H   0  0  0  0  0  0  0  0  0  0  0  0
  146.2434  143.6264  153.8018 H   0  0  0  0  0  0  0  0  0  0  0  0
  145.5527  142.3086  152.8841 H   0  0  0  0  0  0  0  0  0  0  0  0
  144.3135  142.7263  155.0439 H   0  0  0  0  0  0  0  0  0  0  0  0
  144.9531  141.0989  154.9396 H   0  0  0  0  0  0  0  0  0  0  0  0
  146.1989  143.4407  156.4601 H   0  0  0  0  0  0  0  0  0  0  0  0
  145.4862  142.0082  157.1620 H   0  0  0  0  0  0  0  0  0  0  0  0
  147.2706  140.5807  156.1572 H   0  0  0  0  0  0  0  0  0  0  0  0
  147.9623  141.8593  157.1393 H   0  0  0  0  0  0  0  0  0  0  0  0
  151.6605  144.9509  158.6073 H   0  0  0  0  0  0  0  0  0  0  0  0
  153.1242  144.1660  160.4729 H   0  0  0  0  0  0  0  0  0  0  0  0
  152.7559  140.0655  159.1711 H   0  0  0  0  0  0  0  0  0  0  0  0
  150.1760  143.9020  156.3686 H   0  0  0  0  0  0  0  0  0  0  0  0
  1  2  1  0  0  0  0
  1 21  1  0  0  0  0
  2  3  1  0  0  0  0
  2 22  1  0  0  0  0
  2 23  1  0  0  0  0
  3  4  1  0  0  0  0
  3 24  1  0  0  0  0
  3 25  1  0  0  0  0
  4 20  1  0  0  0  0
  4  5  1  0  0  0  0
  5  6  1  0  0  0  0
  5 13  2  0  0  0  0
  6  7  1  0  0  0  0
  6 26  1  0  0  0  0
  6 27  1  0  0  0  0
  7 12  1  0  0  0  0
  7  8  1  0  0  0  0
  8  9  1  0  0  0  0
  8 28  1  0  0  0  0
  8 29  1  0  0  0  0
  9 10  1  0  0  0  0
  9 30  1  0  0  0  0
  9 31  1  0  0  0  0
 10 11  1  0  0  0  0
 10 32  1  0  0  0  0
 10 33  1  0  0  0  0
 11 12  1  0  0  0  0
 11 34  1  0  0  0  0
 11 35  1  0  0  0  0
 12 36  1  0  0  0  0
 12 37  1  0  0  0  0
 13 14  1  0  0  0  0
 13 41  1  0  0  0  0
 14 20  2  0  0  0  0
 14 15  1  0  0  0  0
 15 16  2  0  0  0  0
 15 38  1  0  0  0  0
 16 17  1  0  0  0  0
 16 39  1  0  0  0  0
 17 18  1  0  0  0  0
 17 19  2  0  0  0  0
 19 20  1  0  0  0  0
 19 40  1  0  0  0  0
M  CHG  1  13   1
M  END
> <s_m_source_file>
AV-unprocessed.smi

> <i_m_source_file_index>
518

> <i_lp_mmshare_version>
43012

> <i_f3d_flags>
0

> <s_epik_input>
W2NIXTFbY0hdYyhDbClbY0hdYyhjMTIpbihbQ0gyXVtDSDJdW09IXSljKG4yKVtDSDJdTjNbQ0gyXVtDSDJdW0NIMl1bQ0gyXVtDSDJdMw==

> <s_epik_cmdline>
J2VwaWtfcHl0aG9uJywgJy1waCcsICc3LjAnLCAnLXRuJywgJzgnLCAnLW1hJywgJzIwMCcsICctbWV0YWxfYmluZGluZycsICctaW1hZScsICc8aW5maWxlLm1hZT4nLCAnLW9tYWUnLCAnPG91dGZpbGUubWFlPic=

> <r_epik_Ionization_Penalty>
1.35728

> <r_epik_Ionization_Penalty_Charging>
1.07632

> <r_epik_Ionization_Penalty_Neutral>
0.28096

> <r_epik_State_Penalty>
1.90917

> <r_epik_Charging_Adjusted_Penalty>
2.98548

> <i_epik_Tot_Q>
1

> <i_epik_Tot_abs_Q>
1

> <r_epik_Metal_State_Penalty>
5.90072

> <b_epik_Metal_Only>
0

> <s_lp_Force_Field>
OPLS_2005

> <r_lp_Energy>
20.298

> <b_lp_Chiralities_Consistent>
1

> <s_lp_Variant>
AV-unprocessed.smi:518-3

> <Gold.Version>
5.8.1

> <Gold.Id.Protein>
6NUR|6NUR_protein|mol2

> <Gold.PLP.Fitness>
53.6222

> <Gold.PLP.PLP>
-44.9393

> <Gold.PLP.part.hbond>
-3.0000

> <Gold.PLP.part.metal>
0.0000

> <Gold.PLP.part.buried>
-7.0433

> <Gold.PLP.part.nonpolar>
-39.0665

> <Gold.PLP.part.repulsive>
2.9549

> <Gold.PLP.ligand.clash>
0.0000

> <Gold.PLP.ligand.torsion>
0.1469

> <Gold.PLP.Chemscore.Hbond>
2.9840

> <Gold.PLP.Chemscore.CHOScore>
0.0000

> <Gold.PLP.Chemscore.Metal>
0.0000

> <Gold.Chemscore.Hbonds>
donor molecule, donor type, donor heavy atom, donor atom, acceptor molecule, acceptor atom, score
      L1  H    13    41       P1  8028  2.00
      P1  H  7997  8008       L1     1  1.00

> <Gold.PLP.Chemscore.Internal.Correction>
0.0247

> <Gold.Rescore>
     Score         DG    S(hbond)    S(metal)    S(lipo)     H(rot)  DE(clash)    DE(int)     intcor
     18.89     -20.27       1.96        0.00     116.10       2.08       1.23       0.16       ----

> <Gold.Chemscore.Fitness>
18.8856

> <Gold.Chemscore.DG>
-20.2732

> <Gold.Chemscore.ZeroCoef>
-5.4800

> <Gold.Chemscore.Hbond>
1.9551

> <Gold.Chemscore.Metal>
0.0000

> <Gold.Chemscore.Lipo>
116.1046

> <Gold.Chemscore.Internal_Hbond>
0.0000

> <Gold.Chemscore.DEClash>
1.2265

> <Gold.Chemscore.DEInternal>
0.1611

> <Gold.Chemscore.Rot>
2.0786

> <Gold.Chemscore.Internal.Correction>
   9.000000E+99

> <Gold.Chemscore.Hbonds>
donor molecule, donor type, donor heavy atom, donor atom, acceptor molecule, acceptor atom, score
      L1  H    13    41       P1  8028  0.95
      P1  H  7997  8008       L1     1  0.74

> <Gold.Chemscore.Hbond.Weighted>
-6.5301

> <Gold.Chemscore.Metal.Weighted>
-0.0000

> <Gold.Chemscore.Lipo.Weighted>
-13.5842

> <Gold.Chemscore.Internal_Hbond.Weighted>
0.0000

> <Gold.Chemscore.DEClash.Weighted>
1.2265

> <Gold.Chemscore.DEInternal.Weighted>
0.1611

> <Gold.Chemscore.Rot.Weighted>
5.3212

> <Gold.Chemscore.Internal.Correction.Weighted>
   9.000000E+99

> <Gold.Protein.RotatedTorsions>
[ 6907 6896 6895 6894 ] final  157.95 input  -60.11 | X-H torsion
[ 7974 7965 7964 7962 ] final  -38.43 input  175.53 | X-H torsion
[ 8008 7997 7996 7995 ] final   -6.88 input   59.86 | X-H torsion
[ 10167 10162 10161 10158 ] final   39.74 input  -65.29 | X-H torsion
[ 10718 10713 10712 10709 ] final    0.19 input   66.30 | X-H torsion
[ 10763 10752 10751 10750 ] final  138.65 input  -60.55 | X-H torsion
[ 11005 11000 10999 10996 ] final    4.62 input  -57.11 | X-H torsion

> <Gold.Protein.ActiveResidues>
 VAL166  LYS551  ARG553  GLY616  TRP617  ASP618  TYR619  PRO620  LYS621  CYS622 
 ASP623  PHE694  ASN695  SER759  ASP760  ASP761  ALA762  ILE779  LEU786  VAL792 
 PHE793  MET794  SER795  GLU796  ALA797  LYS798  CYS799  TRP800  GLU811  SER814 

> <Gold.Protein.RotatedAtoms>
  152.0076  133.3849  159.4206 H   0  0  0  0  0  0  0  0  0  0  0  0  # atno 6907 bound_to 6896
  150.6903  134.3766  159.5025 H   0  0  0  0  0  0  0  0  0  0  0  0  # atno 6908 bound_to 6896
  152.1522  134.8979  160.0598 H   0  0  0  0  0  0  0  0  0  0  0  0  # atno 6909 bound_to 6896
  146.0487  140.6511  142.9052 H   0  0  0  0  0  0  0  0  0  0  0  0  # atno 7974 bound_to 7965
  154.5893  140.2421  155.7943 H   0  0  0  0  0  0  0  0  0  0  0  0  # atno 8008 bound_to 7997
  156.2236  140.2990  155.9966 H   0  0  0  0  0  0  0  0  0  0  0  0  # atno 8009 bound_to 7997
  155.2402  140.0407  157.2964 H   0  0  0  0  0  0  0  0  0  0  0  0  # atno 8010 bound_to 7997
  140.3810  144.1980  150.6131 H   0  0  0  0  0  0  0  0  0  0  0  0  # atno 10167 bound_to 10162
  156.8297  130.5484  149.5688 H   0  0  0  0  0  0  0  0  0  0  0  0  # atno 10718 bound_to 10713
  153.8931  135.3030  155.3447 H   0  0  0  0  0  0  0  0  0  0  0  0  # atno 10763 bound_to 10752
  154.7707  135.4887  153.9645 H   0  0  0  0  0  0  0  0  0  0  0  0  # atno 10764 bound_to 10752
  153.1286  135.6799  153.9314 H   0  0  0  0  0  0  0  0  0  0  0  0  # atno 10765 bound_to 10752
  140.5799  134.0023  155.8043 H   0  0  0  0  0  0  0  0  0  0  0  0  # atno 11005 bound_to 11000
  144.7111  140.4041  143.7080 LP  0  0  0  0  0  0  0  0  0  0  0  0  # atno 17320 bound_to 7965
  145.6762  139.1609  143.2726 LP  0  0  0  0  0  0  0  0  0  0  0  0  # atno 17321 bound_to 7965
  140.4938  143.2339  151.8780 LP  0  0  0  0  0  0  0  0  0  0  0  0  # atno 17342 bound_to 10162
  139.4795  144.5136  151.8898 LP  0  0  0  0  0  0  0  0  0  0  0  0  # atno 17343 bound_to 10162
  156.0941  130.5919  150.9784 LP  0  0  0  0  0  0  0  0  0  0  0  0  # atno 17370 bound_to 10713
  157.6413  131.0910  150.8245 LP  0  0  0  0  0  0  0  0  0  0  0  0  # atno 17371 bound_to 10713
  141.1003  133.9779  157.3090 LP  0  0  0  0  0  0  0  0  0  0  0  0  # atno 17394 bound_to 11000
  139.9322  135.0199  156.8438 LP  0  0  0  0  0  0  0  0  0  0  0  0  # atno 17395 bound_to 11000

$$$$
