AV-unprocessed.smi:3155|AV-procd|sdf|12028|dock5
  -GOLD-   2272017443D 1   1.00000     0.00000
 Structure written by MMmdl.
 37 38  0  0  0  0  0  0  0  0  1 V2000
  153.3317  138.3093  154.9704 C   0  0  0  0  0  0  0  0  0  0  0  0
  152.1680  139.2997  155.1205 C   0  0  1  0  0  0  0  0  0  0  0  0
  150.8118  138.5681  154.9845 C   0  0  0  0  0  0  0  0  0  0  0  0
  149.6773  139.4630  154.8358 N   0  0  0  0  0  0  0  0  0  0  0  0
  148.3403  139.1418  154.7242 C   0  0  0  0  0  0  0  0  0  0  0  0
  147.6477  140.3136  154.6179 C   0  0  0  0  0  0  0  0  0  0  0  0
  148.6589  141.3115  154.6914 C   0  0  0  0  0  0  0  0  0  0  0  0
  149.8708  140.7995  154.8315 N   0  0  0  0  0  0  0  0  0  0  0  0
  152.3106  139.9223  156.4343 N   0  0  0  0  0  0  0  0  0  0  0  0
  151.8506  139.0565  157.5278 C   0  0  0  0  0  0  0  0  0  0  0  0
  152.6201  139.3299  158.8245 C   0  0  0  0  0  0  0  0  0  0  0  0
  153.2812  138.4174  159.3208 O   0  0  0  0  0  0  0  0  0  0  0  0
  152.5541  140.5577  159.3822 N   0  0  0  0  0  0  0  0  0  0  0  0
  153.2467  140.9888  160.5958 C   0  0  0  0  0  0  0  0  0  0  0  0
  153.0623  142.5044  160.6628 C   0  0  0  0  0  0  0  0  0  0  0  0
  151.7801  142.7578  159.8827 C   0  0  0  0  0  0  0  0  0  0  0  0
  151.7620  141.6530  158.8259 C   0  0  0  0  0  0  0  0  0  0  0  0
  153.3077  137.8237  153.9943 H   0  0  0  0  0  0  0  0  0  0  0  0
  153.2921  137.5269  155.7294 H   0  0  0  0  0  0  0  0  0  0  0  0
  154.2951  138.8127  155.0588 H   0  0  0  0  0  0  0  0  0  0  0  0
  152.2773  140.0446  154.3305 H   0  0  0  0  0  0  0  0  0  0  0  0
  150.8271  137.9283  154.1013 H   0  0  0  0  0  0  0  0  0  0  0  0
  150.6464  137.9065  155.8371 H   0  0  0  0  0  0  0  0  0  0  0  0
  147.9983  138.1173  154.7234 H   0  0  0  0  0  0  0  0  0  0  0  0
  146.5809  140.4393  154.5079 H   0  0  0  0  0  0  0  0  0  0  0  0
  148.5494  142.3853  154.6500 H   0  0  0  0  0  0  0  0  0  0  0  0
  151.7934  140.7901  156.4336 H   0  0  0  0  0  0  0  0  0  0  0  0
  150.7899  139.2370  157.7090 H   0  0  0  0  0  0  0  0  0  0  0  0
  151.9437  138.0055  157.2621 H   0  0  0  0  0  0  0  0  0  0  0  0
  152.7829  140.5112  161.4600 H   0  0  0  0  0  0  0  0  0  0  0  0
  154.3051  140.7266  160.5847 H   0  0  0  0  0  0  0  0  0  0  0  0
  153.0190  142.8801  161.6856 H   0  0  0  0  0  0  0  0  0  0  0  0
  153.8972  142.9960  160.1614 H   0  0  0  0  0  0  0  0  0  0  0  0
  150.9221  142.6438  160.5463 H   0  0  0  0  0  0  0  0  0  0  0  0
  151.7380  143.7580  159.4504 H   0  0  0  0  0  0  0  0  0  0  0  0
  152.2313  141.9973  157.9033 H   0  0  0  0  0  0  0  0  0  0  0  0
  150.7415  141.3446  158.5932 H   0  0  0  0  0  0  0  0  0  0  0  0
  1  2  1  0  0  0  0
  1 18  1  0  0  0  0
  1 19  1  0  0  0  0
  1 20  1  0  0  0  0
  2  3  1  0  0  0  0
  2  9  1  0  0  0  0
  2 21  1  0  0  0  0
  3  4  1  0  0  0  0
  3 22  1  0  0  0  0
  3 23  1  0  0  0  0
  4  8  1  0  0  0  0
  4  5  1  0  0  0  0
  5  6  2  0  0  0  0
  5 24  1  0  0  0  0
  6  7  1  0  0  0  0
  6 25  1  0  0  0  0
  7  8  2  0  0  0  0
  7 26  1  0  0  0  0
  9 10  1  0  0  0  0
  9 27  1  0  0  0  0
 10 11  1  0  0  0  0
 10 28  1  0  0  0  0
 10 29  1  0  0  0  0
 11 12  2  0  0  0  0
 11 13  1  0  0  0  0
 13 17  1  0  0  0  0
 13 14  1  0  0  0  0
 14 15  1  0  0  0  0
 14 30  1  0  0  0  0
 14 31  1  0  0  0  0
 15 16  1  0  0  0  0
 15 32  1  0  0  0  0
 15 33  1  0  0  0  0
 16 17  1  0  0  0  0
 16 34  1  0  0  0  0
 16 35  1  0  0  0  0
 17 36  1  0  0  0  0
 17 37  1  0  0  0  0
M  END
> <s_m_source_file>
AV-unprocessed.smi

> <i_m_source_file_index>
3155

> <i_lp_mmshare_version>
43012

> <i_f3d_flags>
0

> <s_epik_input>
bjFbY0hdW2NIXVtjSF1uMVtDSDJdW0NAQEhdKFtDSDNdKVtOSF1bQ0gyXUMoPU8pTjJbQ0gyXVtDSDJdW0NIMl1bQ0gyXTI=

> <s_epik_cmdline>
J2VwaWtfcHl0aG9uJywgJy1waCcsICc3LjAnLCAnLXRuJywgJzgnLCAnLW1hJywgJzIwMCcsICctbWV0YWxfYmluZGluZycsICctaW1hZScsICc8aW5maWxlLm1hZT4nLCAnLW9tYWUnLCAnPG91dGZpbGUubWFlPic=

> <r_lp_tautomer_probability>
1

> <r_epik_Ionization_Penalty>
1.00455

> <r_epik_Ionization_Penalty_Charging>
0

> <r_epik_Ionization_Penalty_Neutral>
1.00455

> <r_epik_State_Penalty>
1.05336

> <r_epik_Charging_Adjusted_Penalty>
1.05336

> <i_epik_Tot_Q>
0

> <i_epik_Tot_abs_Q>
0

> <r_epik_Metal_State_Penalty>
1.05331

> <b_epik_Metal_Only>
0

> <s_lp_Force_Field>
OPLS_2005

> <r_lp_Energy>
30.9369

> <b_lp_Chiralities_Consistent>
1

> <s_lp_Variant>
AV-unprocessed.smi:3155-4

> <Gold.Version>
5.8.1

> <Gold.Id.Protein>
6NUR|6NUR_protein|mol2

> <Gold.PLP.Fitness>
42.4870

> <Gold.PLP.PLP>
-35.1955

> <Gold.PLP.part.hbond>
-2.0000

> <Gold.PLP.part.metal>
0.0000

> <Gold.PLP.part.buried>
0.1715

> <Gold.PLP.part.nonpolar>
-32.9285

> <Gold.PLP.part.repulsive>
0.1279

> <Gold.PLP.ligand.clash>
0.0000

> <Gold.PLP.ligand.torsion>
0.4193

> <Gold.PLP.Chemscore.Hbond>
1.7040

> <Gold.PLP.Chemscore.CHOScore>
0.9998

> <Gold.PLP.Chemscore.Metal>
0.0000

> <Gold.Chemscore.Hbonds>
donor molecule, donor type, donor heavy atom, donor atom, acceptor molecule, acceptor atom, score
      P1  H  7989  7998       L1     8  0.42
      P1  H  7997  8010       L1     9  0.79
      L1  C     7    26       P1  8028  0.96

> <Gold.PLP.Chemscore.Internal.Correction>
0.0186

> <Gold.Rescore>
     Score         DG    S(hbond)    S(metal)    S(lipo)     H(rot)  DE(clash)    DE(int)     intcor
     13.17     -15.14       1.22        0.00      86.52       1.77       1.37       0.60       ----

> <Gold.Chemscore.Fitness>
13.1731

> <Gold.Chemscore.DG>
-15.1434

> <Gold.Chemscore.ZeroCoef>
-5.4800

> <Gold.Chemscore.Hbond>
1.2186

> <Gold.Chemscore.Metal>
0.0000

> <Gold.Chemscore.Lipo>
86.5174

> <Gold.Chemscore.Internal_Hbond>
0.0000

> <Gold.Chemscore.DEClash>
1.3732

> <Gold.Chemscore.DEInternal>
0.5971

> <Gold.Chemscore.Rot>
1.7693

> <Gold.Chemscore.Internal.Correction>
   9.000000E+99

> <Gold.Chemscore.Hbonds>
donor molecule, donor type, donor heavy atom, donor atom, acceptor molecule, acceptor atom, score
      P1  H  7989  7998       L1     8  0.10
      P1  H  7997  8010       L1     9  0.09

> <Gold.Chemscore.Hbond.Weighted>
-4.0702

> <Gold.Chemscore.Metal.Weighted>
-0.0000

> <Gold.Chemscore.Lipo.Weighted>
-10.1225

> <Gold.Chemscore.Internal_Hbond.Weighted>
0.0000

> <Gold.Chemscore.DEClash.Weighted>
1.3732

> <Gold.Chemscore.DEInternal.Weighted>
0.5971

> <Gold.Chemscore.Rot.Weighted>
4.5294

> <Gold.Chemscore.Internal.Correction.Weighted>
   9.000000E+99

> <Gold.Protein.RotatedTorsions>
[ 6907 6896 6895 6894 ] final   89.44 input  -60.11 | X-H torsion
[ 7974 7965 7964 7962 ] final  123.18 input  175.53 | X-H torsion
[ 8008 7997 7996 7995 ] final   78.21 input   59.86 | X-H torsion
[ 10167 10162 10161 10158 ] final  -16.31 input  -65.29 | X-H torsion
[ 10718 10713 10712 10709 ] final -162.80 input   66.30 | X-H torsion
[ 10763 10752 10751 10750 ] final  -27.19 input  -60.55 | X-H torsion
[ 11005 11000 10999 10996 ] final -134.64 input  -57.11 | X-H torsion

> <Gold.Protein.ActiveResidues>
 VAL166  LYS551  ARG553  GLY616  TRP617  ASP618  TYR619  PRO620  LYS621  CYS622 
 ASP623  PHE694  ASN695  SER759  ASP760  ASP761  ALA762  ILE779  LEU786  VAL792 
 PHE793  MET794  SER795  GLU796  ALA797  LYS798  CYS799  TRP800  GLU811  SER814 

> <Gold.Protein.RotatedAtoms>
  152.5436  134.1966  159.8695 H   0  0  0  0  0  0  0  0  0  0  0  0  # atno 6907 bound_to 6896
  151.1958  133.4633  159.2603 H   0  0  0  0  0  0  0  0  0  0  0  0  # atno 6908 bound_to 6896
  151.1038  135.0000  159.8517 H   0  0  0  0  0  0  0  0  0  0  0  0  # atno 6909 bound_to 6896
  145.0989  139.3533  143.4822 H   0  0  0  0  0  0  0  0  0  0  0  0  # atno 7974 bound_to 7965
  155.8525  140.3457  155.5703 H   0  0  0  0  0  0  0  0  0  0  0  0  # atno 8008 bound_to 7997
  155.8022  140.0887  157.1970 H   0  0  0  0  0  0  0  0  0  0  0  0  # atno 8009 bound_to 7997
  154.4008  140.1463  156.3275 H   0  0  0  0  0  0  0  0  0  0  0  0  # atno 8010 bound_to 7997
  140.7232  143.5129  150.9727 H   0  0  0  0  0  0  0  0  0  0  0  0  # atno 10167 bound_to 10162
  156.6156  130.8869  151.2946 H   0  0  0  0  0  0  0  0  0  0  0  0  # atno 10718 bound_to 10713
  153.7281  135.6940  153.4996 H   0  0  0  0  0  0  0  0  0  0  0  0  # atno 10763 bound_to 10752
  153.2155  135.4388  155.0428 H   0  0  0  0  0  0  0  0  0  0  0  0  # atno 10764 bound_to 10752
  154.8262  135.3447  154.6812 H   0  0  0  0  0  0  0  0  0  0  0  0  # atno 10765 bound_to 10752
  140.8971  134.1737  157.4487 H   0  0  0  0  0  0  0  0  0  0  0  0  # atno 11005 bound_to 11000
  146.3530  140.0857  142.8615 LP  0  0  0  0  0  0  0  0  0  0  0  0  # atno 17320 bound_to 7965
  145.0979  140.9327  143.4730 LP  0  0  0  0  0  0  0  0  0  0  0  0  # atno 17321 bound_to 7965
  139.8844  143.7032  152.3153 LP  0  0  0  0  0  0  0  0  0  0  0  0  # atno 17342 bound_to 10162
  139.7325  144.7579  151.0779 LP  0  0  0  0  0  0  0  0  0  0  0  0  # atno 17343 bound_to 10162
  157.7242  130.9600  150.1564 LP  0  0  0  0  0  0  0  0  0  0  0  0  # atno 17370 bound_to 10713
  156.2354  130.3686  149.8397 LP  0  0  0  0  0  0  0  0  0  0  0  0  # atno 17371 bound_to 10713
  139.8737  134.9883  156.5405 LP  0  0  0  0  0  0  0  0  0  0  0  0  # atno 17394 bound_to 11000
  140.8275  133.8305  155.8953 LP  0  0  0  0  0  0  0  0  0  0  0  0  # atno 17395 bound_to 11000

$$$$
