#       Name:                AV-unprocessed.smi:3094
#       Creating user name   scv26
#       Creation time:       Fri Mar 27 17:16:50 2020


#       File generated by GOLD software.
#

@<TRIPOS>MOLECULE
AV-unprocessed.smi:3094
    32    33     1
SMALL
NO_CHARGES


@<TRIPOS>ATOM
      1 ****        -0.3574  -2.2370   1.8227 C.3            1 S1                 0.0000
      2 ****         0.1405  -1.4199   0.6208 C.3            1 S1                 0.0000
      3 ****         1.6774  -1.4443   0.5193 C.3            1 S1                 0.0000
      4 ****         2.1595  -0.7984  -0.6878 N.pl3          1 S1                 0.0000
      5 ****         2.1585  -1.3204  -1.9746 C.2            1 S1                 0.0000
      6 ****         2.7032  -0.3550  -2.7908 C.2            1 S1                 0.0000
      7 ****         3.0473   0.7611  -2.0318 N.2            1 S1                 0.0000
      8 ****         2.6981   0.4239  -0.7971 C.2            1 S1                 0.0000
      9 ****        -0.3334  -0.0409   0.7259 N.am           1 S1                 0.0000
     10 ****        -1.4992   0.4216   0.2492 C.2            1 S1                 0.0000
     11 ****        -2.3236  -0.2931  -0.3224 O.2            1 S1                 0.0000
     12 ****        -1.7051   1.8838   0.4733 C.3            1 S1                 0.0000
     13 ****        -3.1200   2.3647   0.7224 C.3            1 S1                 0.0000
     14 ****        -2.4480   2.6597  -0.5952 C.3            1 S1                 0.0000
     15 ****        -0.0281  -3.2741   1.7545 H              1 S1                 0.0000
     16 ****        -1.4468  -2.2429   1.8721 H              1 S1                 0.0000
     17 ****         0.0171  -1.8301   2.7626 H              1 S1                 0.0000
     18 ****        -0.2632  -1.8739  -0.2863 H              1 S1                 0.0000
     19 ****         2.1304  -0.9600   1.3860 H              1 S1                 0.0000
     20 ****         2.0367  -2.4740   0.5131 H              1 S1                 0.0000
     21 ****         1.7777  -2.3064  -2.1971 H              1 S1                 0.0000
     22 ****         2.8727  -0.3782  -3.8572 H              1 S1                 0.0000
     23 ****         2.8329   1.0837   0.0475 H              1 S1                 0.0000
     24 ****         0.2816   0.6169   1.1823 H              1 S1                 0.0000
     25 ****        -0.9094   2.4130   0.9959 H              1 S1                 0.0000
     26 ****        -3.9267   1.6336   0.7200 H              1 S1                 0.0000
     27 ****        -3.2452   3.1840   1.4273 H              1 S1                 0.0000
     28 ****        -2.1174   3.6790  -0.7839 H              1 S1                 0.0000
     29 ****        -2.8088   2.1243  -1.4718 H              1 S1                 0.0000
     30 ****         3.4607   1.6163  -2.3443 LP             1 S1                 0.0000
     31 ****        -2.1380  -1.2675  -0.4492 LP             1 S1                 0.0000
     32 ****        -3.1786   0.1010  -0.6596 LP             1 S1                 0.0000
@<TRIPOS>BOND
    1    1    2 1     
    2    1   15 1     
    3    1   16 1     
    4    1   17 1     
    5    2    3 1     
    6    2    9 1     
    7    2   18 1     
    8    3    4 1     
    9    3   19 1     
   10    3   20 1     
   11    4    8 1     
   12    4    5 1     
   13    5    6 2     
   14    5   21 1     
   15    6    7 1     
   16    6   22 1     
   17    7    8 2     
   18    8   23 1     
   19    9   10 am    
   20    9   24 1     
   21   10   11 2     
   22   10   12 1     
   23   12   14 1     
   24   12   13 1     
   25   12   25 1     
   26   13   14 1     
   27   13   26 1     
   28   13   27 1     
   29   14   28 1     
   30   14   29 1     
   31    7   30 1     
   32   11   31 1     
   33   11   32 1     
@<TRIPOS>SUBSTRUCTURE
      1 S1             1
@<TRIPOS>SET
LONE_PAIRS      STATIC     ATOMS    <user>   **** ""
3 30 31 32
DONOR_HYDROGENS      STATIC     ATOMS    <user>   **** ""
1 24
ATOM$BLUE        STATIC     ATOMS    COLORGROUP SYSTEM
3 30 31 32
ATOM$RED        STATIC     ATOMS    COLORGROUP SYSTEM
1 24
