AV-unprocessed.smi:66|AV-procd|sdf|617|dock8
  -GOLD-   2262016513D 1   1.00000     0.00000
 Structure written by MMmdl.
 28 30  0  0  0  0  0  0  0  0  2 V2000
  153.0536  136.9804  156.2031 O   0  0  0  0  0  0  0  0  0  0  0  0
  152.7459  138.1546  155.9032 C   0  0  0  0  0  0  0  0  0  0  0  0
  153.5098  138.9871  155.3649 O   0  5  0  0  0  0  0  0  0  0  0  0
  151.3077  138.5953  156.2216 C   0  0  2  0  0  0  0  0  0  0  0  0
  150.2684  137.9171  155.3107 C   0  0  0  0  0  0  0  0  0  0  0  0
  150.0730  138.9096  154.1660 C   0  0  1  0  0  0  0  0  0  0  0  0
  148.8285  138.7545  153.5168 O   0  0  0  0  0  0  0  0  0  0  0  0
  150.2016  140.2633  154.8642 C   0  0  0  0  0  0  0  0  0  0  0  0
  151.1114  140.0282  155.9777 N   0  0  0  0  0  0  0  0  0  0  0  0
  151.4092  140.9838  156.9011 C   0  0  0  0  0  0  0  0  0  0  0  0
  150.8635  142.2210  156.7528 N   0  0  0  0  0  0  0  0  0  0  0  0
  151.1191  143.1942  157.6309 C   0  0  0  0  0  0  0  0  0  0  0  0
  151.8863  143.1535  158.7211 N   0  0  0  0  0  0  0  0  0  0  0  0
  152.4376  141.9189  158.8803 C   0  0  0  0  0  0  0  0  0  0  0  0
  153.2801  141.4961  159.8862 N   0  0  0  0  0  0  0  0  0  0  0  0
  153.5629  140.1814  159.6150 C   0  0  0  0  0  0  0  0  0  0  0  0
  152.9902  139.7131  158.5398 N   0  0  0  0  0  0  0  0  0  0  0  0
  152.2592  140.7864  158.0324 C   0  0  0  0  0  0  0  0  0  0  0  0
  153.5907  142.0848  160.6453 H   0  0  0  0  0  0  0  0  0  0  0  0
  151.0841  138.3451  157.2598 H   0  0  0  0  0  0  0  0  0  0  0  0
  150.5715  136.9290  154.9613 H   0  0  0  0  0  0  0  0  0  0  0  0
  149.3359  137.7953  155.8641 H   0  0  0  0  0  0  0  0  0  0  0  0
  150.8755  138.7915  153.4365 H   0  0  0  0  0  0  0  0  0  0  0  0
  148.8361  139.2774  152.7297 H   0  0  0  0  0  0  0  0  0  0  0  0
  150.5847  141.0176  154.1767 H   0  0  0  0  0  0  0  0  0  0  0  0
  149.2394  140.5988  155.2548 H   0  0  0  0  0  0  0  0  0  0  0  0
  150.6400  144.1409  157.4290 H   0  0  0  0  0  0  0  0  0  0  0  0
  154.2067  139.5809  160.2405 H   0  0  0  0  0  0  0  0  0  0  0  0
  1  2  2  0  0  0  0
  2  3  1  0  0  0  0
  2  4  1  0  0  0  0
  4  5  1  0  0  0  0
  4 20  1  0  0  0  0
  4  9  1  0  0  0  0
  5  6  1  0  0  0  0
  5 21  1  0  0  0  0
  5 22  1  0  0  0  0
  6  7  1  0  0  0  0
  6  8  1  0  0  0  0
  6 23  1  0  0  0  0
  7 24  1  0  0  0  0
  8 25  1  0  0  0  0
  8 26  1  0  0  0  0
  8  9  1  0  0  0  0
  9 10  1  0  0  0  0
 10 11  1  0  0  0  0
 10 18  2  0  0  0  0
 11 12  2  0  0  0  0
 12 27  1  0  0  0  0
 12 13  1  0  0  0  0
 13 14  2  0  0  0  0
 14 15  1  0  0  0  0
 14 18  1  0  0  0  0
 15 16  1  0  0  0  0
 15 19  1  0  0  0  0
 16 17  2  0  0  0  0
 16 28  1  0  0  0  0
 17 18  1  0  0  0  0
M  CHG  1   3  -1
M  END
> <s_m_source_file>
AV-unprocessed.smi

> <i_m_source_file_index>
66

> <i_lp_mmshare_version>
43012

> <i_f3d_flags>
0

> <s_epik_input>
Tz1DKFtPSF0pW0NAQEhdMVtDSDJdW0NAQEhdKFtPSF0pW0NIMl1OMWMobltjSF1uMiljKGMyMylbbkhdW2NIXW4z

> <s_epik_cmdline>
J2VwaWtfcHl0aG9uJywgJy1waCcsICc3LjAnLCAnLXRuJywgJzgnLCAnLW1hJywgJzIwMCcsICctbWV0YWxfYmluZGluZycsICctaW1hZScsICc8aW5maWxlLm1hZT4nLCAnLW9tYWUnLCAnPG91dGZpbGUubWFlPic=

> <r_lp_tautomer_probability>
0.955585

> <r_epik_Ionization_Penalty>
0.00455415

> <r_epik_Ionization_Penalty_Charging>
0.000248217

> <r_epik_Ionization_Penalty_Neutral>
0.00430593

> <r_epik_State_Penalty>
0.0207074

> <r_epik_Charging_Adjusted_Penalty>
0.0209557

> <i_epik_Tot_Q>
-1

> <i_epik_Tot_abs_Q>
1

> <r_epik_Metal_State_Penalty>
0.337372

> <b_epik_Metal_Only>
0

> <s_lp_Force_Field>
OPLS_2005

> <r_lp_Energy>
24.8214

> <b_lp_Chiralities_Consistent>
1

> <s_lp_Variant>
AV-unprocessed.smi:66-1

> <Gold.Version>
5.8.1

> <Gold.Id.Protein>
6NUR|6NUR_protein|mol2

> <Gold.PLP.Fitness>
44.3552

> <Gold.PLP.PLP>
-28.2779

> <Gold.PLP.part.hbond>
-4.3316

> <Gold.PLP.part.metal>
0.0000

> <Gold.PLP.part.buried>
-4.6484

> <Gold.PLP.part.nonpolar>
-20.7467

> <Gold.PLP.part.repulsive>
0.1965

> <Gold.PLP.ligand.clash>
0.0000

> <Gold.PLP.ligand.torsion>
0.2214

> <Gold.PLP.Chemscore.Hbond>
4.4720

> <Gold.PLP.Chemscore.CHOScore>
1.0000

> <Gold.PLP.Chemscore.Metal>
0.0000

> <Gold.Chemscore.Hbonds>
donor molecule, donor type, donor heavy atom, donor atom, acceptor molecule, acceptor atom, score
      L1  H     7    24       P1  7957  1.00
      P1  H  7997  8008       L1     3  2.00
      P1  H 10752 10765       L1     1  1.44
      L1  C    12    27       P1  8028  1.00

> <Gold.PLP.Chemscore.Internal.Correction>
0.1041

> <Gold.Rescore>
     Score         DG    S(hbond)    S(metal)    S(lipo)     H(rot)  DE(clash)    DE(int)     intcor
     12.58     -13.81       2.80        0.00      30.13       1.78       0.00       1.22       ----

> <Gold.Chemscore.Fitness>
12.5817

> <Gold.Chemscore.DG>
-13.8053

> <Gold.Chemscore.ZeroCoef>
-5.4800

> <Gold.Chemscore.Hbond>
2.8047

> <Gold.Chemscore.Metal>
0.0000

> <Gold.Chemscore.Lipo>
30.1298

> <Gold.Chemscore.Internal_Hbond>
0.0000

> <Gold.Chemscore.DEClash>
0.0038

> <Gold.Chemscore.DEInternal>
1.2198

> <Gold.Chemscore.Rot>
1.7842

> <Gold.Chemscore.Internal.Correction>
   9.000000E+99

> <Gold.Chemscore.Hbonds>
donor molecule, donor type, donor heavy atom, donor atom, acceptor molecule, acceptor atom, score
      L1  H     7    24       P1  7957  0.98
      P1  H  7997  8008       L1     3  0.94
      P1  H 10752 10765       L1     1  0.72

> <Gold.Chemscore.Hbond.Weighted>
-9.3677

> <Gold.Chemscore.Metal.Weighted>
-0.0000

> <Gold.Chemscore.Lipo.Weighted>
-3.5252

> <Gold.Chemscore.Internal_Hbond.Weighted>
0.0000

> <Gold.Chemscore.DEClash.Weighted>
0.0038

> <Gold.Chemscore.DEInternal.Weighted>
1.2198

> <Gold.Chemscore.Rot.Weighted>
4.5676

> <Gold.Chemscore.Internal.Correction.Weighted>
   9.000000E+99

> <Gold.Protein.RotatedTorsions>
[ 6907 6896 6895 6894 ] final -114.08 input  -60.11 | X-H torsion
[ 7974 7965 7964 7962 ] final  -60.33 input  175.53 | X-H torsion
[ 8008 7997 7996 7995 ] final  -23.83 input   59.86 | X-H torsion
[ 10167 10162 10161 10158 ] final   77.73 input  -65.29 | X-H torsion
[ 10718 10713 10712 10709 ] final  129.70 input   66.30 | X-H torsion
[ 10763 10752 10751 10750 ] final -131.89 input  -60.55 | X-H torsion
[ 11005 11000 10999 10996 ] final  127.36 input  -57.11 | X-H torsion

> <Gold.Protein.ActiveResidues>
 VAL166  LYS551  ARG553  GLY616  TRP617  ASP618  TYR619  PRO620  LYS621  CYS622 
 ASP623  PHE694  ASN695  SER759  ASP760  ASP761  ALA762  ILE779  LEU786  VAL792 
 PHE793  MET794  SER795  GLU796  ALA797  LYS798  CYS799  TRP800  GLU811  SER814 

> <Gold.Protein.RotatedAtoms>
  150.7875  133.8853  159.3297 H   0  0  0  0  0  0  0  0  0  0  0  0  # atno 6907 bound_to 6896
  151.6700  135.0975  160.0205 H   0  0  0  0  0  0  0  0  0  0  0  0  # atno 6908 bound_to 6896
  152.3943  133.6685  159.6298 H   0  0  0  0  0  0  0  0  0  0  0  0  # atno 6909 bound_to 6896
  145.8168  140.8565  143.0153 H   0  0  0  0  0  0  0  0  0  0  0  0  # atno 7974 bound_to 7965
  154.4563  140.1970  156.0371 H   0  0  0  0  0  0  0  0  0  0  0  0  # atno 8008 bound_to 7997
  156.0752  140.3279  155.7597 H   0  0  0  0  0  0  0  0  0  0  0  0  # atno 8009 bound_to 7997
  155.5200  140.0569  157.2899 H   0  0  0  0  0  0  0  0  0  0  0  0  # atno 8010 bound_to 7997
  139.9784  144.5844  150.7922 H   0  0  0  0  0  0  0  0  0  0  0  0  # atno 10167 bound_to 10162
  157.5130  131.1097  150.9266 H   0  0  0  0  0  0  0  0  0  0  0  0  # atno 10718 bound_to 10713
  154.8747  135.3815  154.4320 H   0  0  0  0  0  0  0  0  0  0  0  0  # atno 10763 bound_to 10752
  153.5013  135.7030  153.5835 H   0  0  0  0  0  0  0  0  0  0  0  0  # atno 10764 bound_to 10752
  153.4166  135.3912  155.2051 H   0  0  0  0  0  0  0  0  0  0  0  0  # atno 10765 bound_to 10752
  139.9504  134.9623  156.8844 H   0  0  0  0  0  0  0  0  0  0  0  0  # atno 11005 bound_to 11000
  144.6751  140.0476  143.7479 LP  0  0  0  0  0  0  0  0  0  0  0  0  # atno 17320 bound_to 7965
  145.9718  139.2875  143.1094 LP  0  0  0  0  0  0  0  0  0  0  0  0  # atno 17321 bound_to 7965
  140.7498  143.2944  151.3244 LP  0  0  0  0  0  0  0  0  0  0  0  0  # atno 17342 bound_to 10162
  139.6428  144.0507  152.2568 LP  0  0  0  0  0  0  0  0  0  0  0  0  # atno 17343 bound_to 10162
  156.9900  130.5559  149.5302 LP  0  0  0  0  0  0  0  0  0  0  0  0  # atno 17370 bound_to 10713
  156.0301  130.5393  150.8512 LP  0  0  0  0  0  0  0  0  0  0  0  0  # atno 17371 bound_to 10713
  140.5734  134.0421  155.7438 LP  0  0  0  0  0  0  0  0  0  0  0  0  # atno 17394 bound_to 11000
  141.1165  133.9532  157.2813 LP  0  0  0  0  0  0  0  0  0  0  0  0  # atno 17395 bound_to 11000

$$$$
