AV-unprocessed.smi:148|AV-procd|sdf|1233|dock2
  -GOLD-   2262018443D 1   1.00000     0.00000
 Structure written by MMmdl.
 63 67  0  0  0  0  0  0  0  0  1 V2000
  147.3621  135.4777  154.0457 O   0  0  0  0  0  0  0  0  0  0  0  0
  148.2186  134.9918  155.0581 C   0  0  0  0  0  0  0  0  0  0  0  0
  149.5724  134.5217  154.4721 C   0  0  1  0  0  0  0  0  0  0  0  0
  150.7435  134.7449  155.4645 C   0  0  0  0  0  0  0  0  0  0  0  0
  150.7111  136.0483  156.1052 N   0  0  0  0  0  0  0  0  0  0  0  0
  149.9257  136.4197  157.1736 C   0  0  0  0  0  0  0  0  0  0  0  0
  150.0690  137.6565  157.5669 N   0  0  0  0  0  0  0  0  0  0  0  0
  151.0227  138.1753  156.7004 C   0  0  0  0  0  0  0  0  0  0  0  0
  151.6323  139.4483  156.5524 C   0  0  0  0  0  0  0  0  0  0  0  0
  151.3212  140.4891  157.3598 N   0  0  0  0  0  0  0  0  0  0  0  0
  152.5204  140.9358  158.0689 C   0  0  0  0  0  0  0  0  0  0  0  0
  152.1804  141.9626  159.1556 C   0  0  0  0  0  0  0  0  0  0  0  0
  151.4153  143.1404  158.5464 C   0  0  0  0  0  0  0  0  0  0  0  0
  150.1565  142.6320  157.8322 C   0  0  0  0  0  0  0  0  0  0  0  0
  150.4851  141.5514  156.7676 C   0  0  2  0  0  0  0  0  0  0  0  0
  149.2143  140.9865  156.0559 C   0  0  1  0  0  0  0  0  0  0  0  0
  147.8571  141.4237  156.6420 C   0  0  0  0  0  0  0  0  0  0  0  0
  146.8548  141.4037  155.4761 C   0  0  0  0  0  0  0  0  0  0  0  0
  147.6326  140.9183  154.2488 C   0  0  0  0  0  0  0  0  0  0  0  0
  149.0859  141.2792  154.5537 C   0  0  2  0  0  0  0  0  0  0  0  0
  149.9820  140.5100  153.7790 O   0  0  0  0  0  0  0  0  0  0  0  0
  152.5609  139.6006  155.5709 N   0  0  0  0  0  0  0  0  0  0  0  0
  152.8605  138.5715  154.7724 C   0  0  0  0  0  0  0  0  0  0  0  0
  152.3642  137.3320  154.7848 N   0  0  0  0  0  0  0  0  0  0  0  0
  151.4390  137.1782  155.7755 C   0  0  0  0  0  0  0  0  0  0  0  0
  149.4829  133.0662  153.9300 C   0  0  1  0  0  0  0  0  0  0  0  0
  149.4838  131.9511  154.9601 C   0  0  0  0  0  0  0  0  0  0  0  0
  149.0466  130.7592  154.1143 C   0  0  0  0  0  0  0  0  0  0  0  0
  148.1505  131.2871  153.1401 O   0  0  0  0  0  0  0  0  0  0  0  0
  148.2448  132.7091  153.1013 C   0  0  0  0  0  0  0  0  0  0  0  0
  147.8783  135.9710  153.4262 H   0  0  0  0  0  0  0  0  0  0  0  0
  148.3544  135.8047  155.7707 H   0  0  0  0  0  0  0  0  0  0  0  0
  147.7236  134.1815  155.5939 H   0  0  0  0  0  0  0  0  0  0  0  0
  149.7770  135.1591  153.6103 H   0  0  0  0  0  0  0  0  0  0  0  0
  150.7412  133.9852  156.2452 H   0  0  0  0  0  0  0  0  0  0  0  0
  151.7043  134.6656  154.9585 H   0  0  0  0  0  0  0  0  0  0  0  0
  149.2385  135.7391  157.6548 H   0  0  0  0  0  0  0  0  0  0  0  0
  153.0236  140.0814  158.5246 H   0  0  0  0  0  0  0  0  0  0  0  0
  153.2207  141.3738  157.3557 H   0  0  0  0  0  0  0  0  0  0  0  0
  151.5779  141.4913  159.9332 H   0  0  0  0  0  0  0  0  0  0  0  0
  153.0931  142.3150  159.6366 H   0  0  0  0  0  0  0  0  0  0  0  0
  151.1439  143.8560  159.3231 H   0  0  0  0  0  0  0  0  0  0  0  0
  152.0538  143.6713  157.8391 H   0  0  0  0  0  0  0  0  0  0  0  0
  149.4685  142.2383  158.5795 H   0  0  0  0  0  0  0  0  0  0  0  0
  149.6602  143.4861  157.3741 H   0  0  0  0  0  0  0  0  0  0  0  0
  151.0928  142.0394  156.0041 H   0  0  0  0  0  0  0  0  0  0  0  0
  149.2362  139.8982  156.1315 H   0  0  0  0  0  0  0  0  0  0  0  0
  147.5456  140.7534  157.4433 H   0  0  0  0  0  0  0  0  0  0  0  0
  147.8984  142.4253  157.0678 H   0  0  0  0  0  0  0  0  0  0  0  0
  145.9963  140.7645  155.6842 H   0  0  0  0  0  0  0  0  0  0  0  0
  146.4767  142.4116  155.3014 H   0  0  0  0  0  0  0  0  0  0  0  0
  147.5263  139.8358  154.1611 H   0  0  0  0  0  0  0  0  0  0  0  0
  147.2735  141.3627  153.3200 H   0  0  0  0  0  0  0  0  0  0  0  0
  149.2324  142.3362  154.3365 H   0  0  0  0  0  0  0  0  0  0  0  0
  149.6470  140.4570  152.8969 H   0  0  0  0  0  0  0  0  0  0  0  0
  153.6039  138.7697  154.0144 H   0  0  0  0  0  0  0  0  0  0  0  0
  150.3539  132.8899  153.2966 H   0  0  0  0  0  0  0  0  0  0  0  0
  150.4557  131.8024  155.4314 H   0  0  0  0  0  0  0  0  0  0  0  0
  148.7455  132.1203  155.7425 H   0  0  0  0  0  0  0  0  0  0  0  0
  149.9033  130.3236  153.5987 H   0  0  0  0  0  0  0  0  0  0  0  0
  148.5744  129.9761  154.7078 H   0  0  0  0  0  0  0  0  0  0  0  0
  147.3325  133.1144  153.5365 H   0  0  0  0  0  0  0  0  0  0  0  0
  148.3156  133.0689  152.0745 H   0  0  0  0  0  0  0  0  0  0  0  0
  1  2  1  0  0  0  0
  1 31  1  0  0  0  0
  2  3  1  0  0  0  0
  2 32  1  0  0  0  0
  2 33  1  0  0  0  0
  3  4  1  0  0  0  0
  3 26  1  0  0  0  0
  3 34  1  0  0  0  0
  4  5  1  0  0  0  0
  4 35  1  0  0  0  0
  4 36  1  0  0  0  0
  5 25  1  0  0  0  0
  5  6  1  0  0  0  0
  6  7  2  0  0  0  0
  6 37  1  0  0  0  0
  7  8  1  0  0  0  0
  8 25  2  0  0  0  0
  8  9  1  0  0  0  0
  9 10  1  0  0  0  0
  9 22  2  0  0  0  0
 10 15  1  0  0  0  0
 10 11  1  0  0  0  0
 11 12  1  0  0  0  0
 11 38  1  0  0  0  0
 11 39  1  0  0  0  0
 12 13  1  0  0  0  0
 12 40  1  0  0  0  0
 12 41  1  0  0  0  0
 13 14  1  0  0  0  0
 13 42  1  0  0  0  0
 13 43  1  0  0  0  0
 14 15  1  0  0  0  0
 14 44  1  0  0  0  0
 14 45  1  0  0  0  0
 15 16  1  0  0  0  0
 15 46  1  0  0  0  0
 16 20  1  0  0  0  0
 16 17  1  0  0  0  0
 16 47  1  0  0  0  0
 17 18  1  0  0  0  0
 17 48  1  0  0  0  0
 17 49  1  0  0  0  0
 18 19  1  0  0  0  0
 18 50  1  0  0  0  0
 18 51  1  0  0  0  0
 19 20  1  0  0  0  0
 19 52  1  0  0  0  0
 19 53  1  0  0  0  0
 20 21  1  0  0  0  0
 20 54  1  0  0  0  0
 21 55  1  0  0  0  0
 22 23  1  0  0  0  0
 23 24  2  0  0  0  0
 23 56  1  0  0  0  0
 24 25  1  0  0  0  0
 26 30  1  0  0  0  0
 26 27  1  0  0  0  0
 26 57  1  0  0  0  0
 27 28  1  0  0  0  0
 27 58  1  0  0  0  0
 27 59  1  0  0  0  0
 28 29  1  0  0  0  0
 28 60  1  0  0  0  0
 28 61  1  0  0  0  0
 29 30  1  0  0  0  0
 30 62  1  0  0  0  0
 30 63  1  0  0  0  0
M  END
> <s_m_source_file>
AV-unprocessed.smi

> <i_m_source_file_index>
148

> <i_lp_mmshare_version>
43012

> <i_f3d_flags>
0

> <s_epik_input>
W0NIMl0xT1tDSDJdW0NIMl1bQ0BIXTFbQ0BIXShbQ0gyXVtPSF0pW0NIMl1uKFtjSF1uMiljKGMyMyluW2NIXW5jM040W0NIMl1bQ0gyXVtDSDJdW0NIMl1bQ0BIXTRbQ0BASF01W0NIMl1bQ0gyXVtDSDJdW0NASF01W09IXQ==

> <s_epik_cmdline>
J2VwaWtfcHl0aG9uJywgJy1waCcsICc3LjAnLCAnLXRuJywgJzgnLCAnLW1hJywgJzIwMCcsICctbWV0YWxfYmluZGluZycsICctaW1hZScsICc8aW5maWxlLm1hZT4nLCAnLW9tYWUnLCAnPG91dGZpbGUubWFlPic=

> <r_lp_tautomer_probability>
1

> <r_epik_Ionization_Penalty>
0.00556303

> <r_epik_Ionization_Penalty_Charging>
0

> <r_epik_Ionization_Penalty_Neutral>
0.00556303

> <r_epik_State_Penalty>
0.00401767

> <r_epik_Charging_Adjusted_Penalty>
0.00401767

> <i_epik_Tot_Q>
0

> <i_epik_Tot_abs_Q>
0

> <r_epik_Metal_State_Penalty>
-0

> <b_epik_Metal_Only>
0

> <s_lp_Force_Field>
OPLS_2005

> <r_lp_Energy>
68.5512

> <b_lp_Chiralities_Consistent>
1

> <s_lp_Variant>
AV-unprocessed.smi:148-32

> <Gold.Version>
5.8.1

> <Gold.Id.Protein>
6NUR|6NUR_protein|mol2

> <Gold.PLP.Fitness>
55.5720

> <Gold.PLP.PLP>
-47.2221

> <Gold.PLP.part.hbond>
-4.5497

> <Gold.PLP.part.metal>
0.0000

> <Gold.PLP.part.buried>
-6.1952

> <Gold.PLP.part.nonpolar>
-36.6190

> <Gold.PLP.part.repulsive>
0.5604

> <Gold.PLP.ligand.clash>
0.0000

> <Gold.PLP.ligand.torsion>
2.5031

> <Gold.PLP.Chemscore.Hbond>
4.2928

> <Gold.PLP.Chemscore.CHOScore>
0.0000

> <Gold.PLP.Chemscore.Metal>
0.0000

> <Gold.Chemscore.Hbonds>
donor molecule, donor type, donor heavy atom, donor atom, acceptor molecule, acceptor atom, score
      L1  H     1    31       P1  7948  1.00
      L1  H    21    55       P1  7957  1.00
      P1  H  7989  7998       L1    21  0.62
      P1  H  7997  8009       L1    22  1.00
      P1  H 10752 10763       L1    24  0.69

> <Gold.PLP.Chemscore.Internal.Correction>
0.4776

> <Gold.Rescore>
     Score         DG    S(hbond)    S(metal)    S(lipo)     H(rot)  DE(clash)    DE(int)     intcor
     17.39     -20.84       3.53        0.00     103.21       3.32       0.24       3.20       ----

> <Gold.Chemscore.Fitness>
17.3935

> <Gold.Chemscore.DG>
-20.8365

> <Gold.Chemscore.ZeroCoef>
-5.4800

> <Gold.Chemscore.Hbond>
3.5272

> <Gold.Chemscore.Metal>
0.0000

> <Gold.Chemscore.Lipo>
103.2119

> <Gold.Chemscore.Internal_Hbond>
0.0000

> <Gold.Chemscore.DEClash>
0.2383

> <Gold.Chemscore.DEInternal>
3.2047

> <Gold.Chemscore.Rot>
3.3203

> <Gold.Chemscore.Internal.Correction>
   9.000000E+99

> <Gold.Chemscore.Hbonds>
donor molecule, donor type, donor heavy atom, donor atom, acceptor molecule, acceptor atom, score
      L1  H     1    31       P1  7948  0.98
      L1  H    21    55       P1  7957  0.99
      P1  H  7989  7998       L1    21  0.16
      P1  H  7997  8009       L1    22  0.24
      P1  H 10752 10763       L1    24  0.38

> <Gold.Chemscore.Hbond.Weighted>
-11.7807

> <Gold.Chemscore.Metal.Weighted>
-0.0000

> <Gold.Chemscore.Lipo.Weighted>
-12.0758

> <Gold.Chemscore.Internal_Hbond.Weighted>
0.0000

> <Gold.Chemscore.DEClash.Weighted>
0.2383

> <Gold.Chemscore.DEInternal.Weighted>
3.2047

> <Gold.Chemscore.Rot.Weighted>
8.5000

> <Gold.Chemscore.Internal.Correction.Weighted>
   9.000000E+99

> <Gold.Protein.RotatedTorsions>
[ 6907 6896 6895 6894 ] final  170.01 input  -60.11 | X-H torsion
[ 7974 7965 7964 7962 ] final  -43.67 input  175.53 | X-H torsion
[ 8008 7997 7996 7995 ] final -149.34 input   59.86 | X-H torsion
[ 10167 10162 10161 10158 ] final   82.01 input  -65.29 | X-H torsion
[ 10718 10713 10712 10709 ] final  101.59 input   66.30 | X-H torsion
[ 10763 10752 10751 10750 ] final   48.55 input  -60.55 | X-H torsion
[ 11005 11000 10999 10996 ] final  -28.47 input  -57.11 | X-H torsion

> <Gold.Protein.ActiveResidues>
 VAL166  LYS551  ARG553  GLY616  TRP617  ASP618  TYR619  PRO620  LYS621  CYS622 
 ASP623  PHE694  ASN695  SER759  ASP760  ASP761  ALA762  ILE779  LEU786  VAL792 
 PHE793  MET794  SER795  GLU796  ALA797  LYS798  CYS799  TRP800  GLU811  SER814 

> <Gold.Protein.RotatedAtoms>
  151.8229  133.3397  159.3589 H   0  0  0  0  0  0  0  0  0  0  0  0  # atno 6907 bound_to 6896
  150.7289  134.5556  159.5826 H   0  0  0  0  0  0  0  0  0  0  0  0  # atno 6908 bound_to 6896
  152.2993  134.7631  160.0412 H   0  0  0  0  0  0  0  0  0  0  0  0  # atno 6909 bound_to 6896
  145.9996  140.7089  142.9277 H   0  0  0  0  0  0  0  0  0  0  0  0  # atno 7974 bound_to 7965
  155.6060  140.0667  157.2719 H   0  0  0  0  0  0  0  0  0  0  0  0  # atno 8008 bound_to 7997
  154.4266  140.1810  156.1270 H   0  0  0  0  0  0  0  0  0  0  0  0  # atno 8009 bound_to 7997
  156.0122  140.3325  155.6956 H   0  0  0  0  0  0  0  0  0  0  0  0  # atno 8010 bound_to 7997
  139.9333  144.6138  150.8324 H   0  0  0  0  0  0  0  0  0  0  0  0  # atno 10167 bound_to 10162
  157.6825  131.0730  150.5275 H   0  0  0  0  0  0  0  0  0  0  0  0  # atno 10718 bound_to 10713
  152.9791  135.5940  154.3944 H   0  0  0  0  0  0  0  0  0  0  0  0  # atno 10763 bound_to 10752
  154.3596  135.2767  155.2329 H   0  0  0  0  0  0  0  0  0  0  0  0  # atno 10764 bound_to 10752
  154.4332  135.6031  153.6137 H   0  0  0  0  0  0  0  0  0  0  0  0  # atno 10765 bound_to 10752
  140.9211  133.7398  156.0803 H   0  0  0  0  0  0  0  0  0  0  0  0  # atno 11005 bound_to 11000
  144.6915  140.3210  143.7232 LP  0  0  0  0  0  0  0  0  0  0  0  0  # atno 17320 bound_to 7965
  145.7507  139.1793  143.2323 LP  0  0  0  0  0  0  0  0  0  0  0  0  # atno 17321 bound_to 7965
  140.7631  143.3216  151.2610 LP  0  0  0  0  0  0  0  0  0  0  0  0  # atno 17342 bound_to 10162
  139.6765  143.9929  152.2784 LP  0  0  0  0  0  0  0  0  0  0  0  0  # atno 17343 bound_to 10162
  156.5586  130.4250  149.6073 LP  0  0  0  0  0  0  0  0  0  0  0  0  # atno 17370 bound_to 10713
  156.2840  130.7087  151.1919 LP  0  0  0  0  0  0  0  0  0  0  0  0  # atno 17371 bound_to 10713
  140.7986  134.3535  157.5445 LP  0  0  0  0  0  0  0  0  0  0  0  0  # atno 17394 bound_to 11000
  139.8776  134.9184  156.3201 LP  0  0  0  0  0  0  0  0  0  0  0  0  # atno 17395 bound_to 11000

$$$$
