AV-unprocessed.smi:195|AV-procd|sdf|1525|dock1
  -GOLD-   2262019373D 1   1.00000     0.00000
 Structure written by MMmdl.
 45 48  0  0  0  0  0  0  0  0  1 V2000
  154.5577  138.0434  162.7521 N   0  0  0  0  0  0  0  0  0  0  0  0
  154.6997  136.9398  163.0695 C   0  0  0  0  0  0  0  0  0  0  0  0
  154.8795  135.5358  163.4729 C   0  0  0  0  0  0  0  0  0  0  0  0
  155.3441  134.6297  162.3292 C   0  0  0  0  0  0  0  0  0  0  0  0
  155.3955  133.3443  162.9129 O   0  0  0  0  0  0  0  0  0  0  0  0
  154.5771  134.7068  161.0062 C   0  0  0  0  0  0  0  0  0  0  0  0
  155.7638  135.2815  160.3815 N   0  0  0  0  0  0  0  0  0  0  0  0
  155.6099  136.6473  160.0089 C   0  0  0  0  0  0  0  0  0  0  0  0
  156.6824  137.4427  159.7468 N   0  0  0  0  0  0  0  0  0  0  0  0
  156.5202  138.7234  159.4013 C   0  0  0  0  0  0  0  0  0  0  0  0
  155.3860  139.4097  159.2565 N   0  0  0  0  0  0  0  0  0  0  0  0
  154.3030  138.6239  159.5154 C   0  0  0  0  0  0  0  0  0  0  0  0
  154.3288  137.2524  159.8963 C   0  0  0  0  0  0  0  0  0  0  0  0
  153.0324  136.7878  160.0807 N   0  0  0  0  0  0  0  0  0  0  0  0
  152.2822  137.8234  159.8184 C   0  0  0  0  0  0  0  0  0  0  0  0
  152.9636  138.9675  159.4709 N   0  0  0  0  0  0  0  0  0  0  0  0
  152.3797  140.2530  159.1287 C   0  0  0  0  0  0  0  0  0  0  0  0
  152.7782  141.3642  160.1189 C   0  0  1  0  0  0  0  0  0  0  0  0
  154.1484  141.6727  159.9483 O   0  0  0  0  0  0  0  0  0  0  0  0
  151.9510  142.6464  159.9145 C   0  0  2  0  0  0  0  0  0  0  0  0
  152.1829  143.3470  158.5734 C   0  0  0  0  0  0  0  0  0  0  0  0
  151.8724  144.8081  158.8644 C   0  0  0  0  0  0  0  0  0  0  0  0
  151.7887  144.8761  160.3909 C   0  0  0  0  0  0  0  0  0  0  0  0
  152.3440  143.6488  160.8396 O   0  0  0  0  0  0  0  0  0  0  0  0
  156.6014  135.0331  161.5516 C   0  0  0  0  0  0  0  0  0  0  0  0
  155.5853  135.5148  164.3042 H   0  0  0  0  0  0  0  0  0  0  0  0
  153.9269  135.2000  163.8791 H   0  0  0  0  0  0  0  0  0  0  0  0
  154.7409  133.3242  163.5945 H   0  0  0  0  0  0  0  0  0  0  0  0
  154.3312  133.7306  160.5863 H   0  0  0  0  0  0  0  0  0  0  0  0
  153.7090  135.3677  161.0281 H   0  0  0  0  0  0  0  0  0  0  0  0
  157.4290  139.2764  159.2147 H   0  0  0  0  0  0  0  0  0  0  0  0
  151.2038  137.7825  159.8725 H   0  0  0  0  0  0  0  0  0  0  0  0
  152.6799  140.5187  158.1142 H   0  0  0  0  0  0  0  0  0  0  0  0
  151.2957  140.1350  159.1097 H   0  0  0  0  0  0  0  0  0  0  0  0
  152.6393  141.0036  161.1391 H   0  0  0  0  0  0  0  0  0  0  0  0
  154.3570  141.6092  159.0289 H   0  0  0  0  0  0  0  0  0  0  0  0
  150.8867  142.4413  160.0487 H   0  0  0  0  0  0  0  0  0  0  0  0
  153.2264  143.2512  158.2706 H   0  0  0  0  0  0  0  0  0  0  0  0
  151.5648  142.9343  157.7755 H   0  0  0  0  0  0  0  0  0  0  0  0
  152.6634  145.4526  158.4793 H   0  0  0  0  0  0  0  0  0  0  0  0
  150.9320  145.1215  158.4099 H   0  0  0  0  0  0  0  0  0  0  0  0
  152.3272  145.7290  160.8046 H   0  0  0  0  0  0  0  0  0  0  0  0
  150.7490  144.9389  160.7157 H   0  0  0  0  0  0  0  0  0  0  0  0
  157.1224  135.9073  161.9442 H   0  0  0  0  0  0  0  0  0  0  0  0
  157.2891  134.2036  161.3829 H   0  0  0  0  0  0  0  0  0  0  0  0
  1  2  3  0  0  0  0
  2  3  1  0  0  0  0
  3  4  1  0  0  0  0
  3 26  1  0  0  0  0
  3 27  1  0  0  0  0
  4 25  1  0  0  0  0
  4  5  1  0  0  0  0
  4  6  1  0  0  0  0
  5 28  1  0  0  0  0
  6  7  1  0  0  0  0
  6 29  1  0  0  0  0
  6 30  1  0  0  0  0
  7  8  1  0  0  0  0
  7 25  1  0  0  0  0
  8 13  1  0  0  0  0
  8  9  2  0  0  0  0
  9 10  1  0  0  0  0
 10 11  2  0  0  0  0
 10 31  1  0  0  0  0
 11 12  1  0  0  0  0
 12 16  1  0  0  0  0
 12 13  2  0  0  0  0
 13 14  1  0  0  0  0
 14 15  2  0  0  0  0
 15 16  1  0  0  0  0
 15 32  1  0  0  0  0
 16 17  1  0  0  0  0
 17 18  1  0  0  0  0
 17 33  1  0  0  0  0
 17 34  1  0  0  0  0
 18 19  1  0  0  0  0
 18 20  1  0  0  0  0
 18 35  1  0  0  0  0
 19 36  1  0  0  0  0
 20 24  1  0  0  0  0
 20 21  1  0  0  0  0
 20 37  1  0  0  0  0
 21 22  1  0  0  0  0
 21 38  1  0  0  0  0
 21 39  1  0  0  0  0
 22 23  1  0  0  0  0
 22 40  1  0  0  0  0
 22 41  1  0  0  0  0
 23 24  1  0  0  0  0
 23 42  1  0  0  0  0
 23 43  1  0  0  0  0
 25 44  1  0  0  0  0
 25 45  1  0  0  0  0
M  END
> <s_m_source_file>
AV-unprocessed.smi

> <i_m_source_file_index>
195

> <i_lp_mmshare_version>
43012

> <i_f3d_flags>
0

> <s_epik_input>
TiNDW0NIMl1DMShbT0hdKVtDSDJdTihbQ0gyXTEpYyhuW2NIXW4yKWMoYzIzKW5bY0hdbjNbQ0gyXVtDQEhdKFtPSF0pW0NAQEhdNFtDSDJdW0NIMl1bQ0gyXU80

> <s_epik_cmdline>
J2VwaWtfcHl0aG9uJywgJy1waCcsICc3LjAnLCAnLXRuJywgJzgnLCAnLW1hJywgJzIwMCcsICctbWV0YWxfYmluZGluZycsICctaW1hZScsICc8aW5maWxlLm1hZT4nLCAnLW9tYWUnLCAnPG91dGZpbGUubWFlPic=

> <r_lp_tautomer_probability>
1

> <r_epik_Ionization_Penalty>
0.00307146

> <r_epik_Ionization_Penalty_Charging>
0

> <r_epik_Ionization_Penalty_Neutral>
0.00307146

> <r_epik_State_Penalty>
0.0020279

> <r_epik_Charging_Adjusted_Penalty>
0.0020279

> <i_epik_Tot_Q>
0

> <i_epik_Tot_abs_Q>
0

> <r_epik_Metal_State_Penalty>
-0

> <b_epik_Metal_Only>
0

> <s_lp_Force_Field>
OPLS_2005

> <r_lp_Energy>
44.0633

> <b_lp_Chiralities_Consistent>
1

> <s_lp_Variant>
AV-unprocessed.smi:195-2

> <Gold.Version>
5.8.1

> <Gold.Id.Protein>
6NUR|6NUR_protein|mol2

> <Gold.PLP.Fitness>
42.5706

> <Gold.PLP.PLP>
-37.0873

> <Gold.PLP.part.hbond>
-1.9404

> <Gold.PLP.part.metal>
0.0000

> <Gold.PLP.part.buried>
-6.0454

> <Gold.PLP.part.nonpolar>
-30.4064

> <Gold.PLP.part.repulsive>
0.1055

> <Gold.PLP.ligand.clash>
0.0000

> <Gold.PLP.ligand.torsion>
0.3669

> <Gold.PLP.Chemscore.Hbond>
1.9750

> <Gold.PLP.Chemscore.CHOScore>
0.0000

> <Gold.PLP.Chemscore.Metal>
0.0000

> <Gold.Chemscore.Hbonds>
donor molecule, donor type, donor heavy atom, donor atom, acceptor molecule, acceptor atom, score
      P1  H  6896  6909       L1    14  1.00
      P1  H  7997  8008       L1    11  1.00

> <Gold.PLP.Chemscore.Internal.Correction>
0.2920

> <Gold.Rescore>
     Score         DG    S(hbond)    S(metal)    S(lipo)     H(rot)  DE(clash)    DE(int)     intcor
      9.68     -11.67       1.74        0.00      84.75       3.72       0.04       1.95       ----

> <Gold.Chemscore.Fitness>
9.6800

> <Gold.Chemscore.DG>
-11.6748

> <Gold.Chemscore.ZeroCoef>
-5.4800

> <Gold.Chemscore.Hbond>
1.7379

> <Gold.Chemscore.Metal>
0.0000

> <Gold.Chemscore.Lipo>
84.7493

> <Gold.Chemscore.Internal_Hbond>
0.0000

> <Gold.Chemscore.DEClash>
0.0430

> <Gold.Chemscore.DEInternal>
1.9518

> <Gold.Chemscore.Rot>
3.7210

> <Gold.Chemscore.Internal.Correction>
   9.000000E+99

> <Gold.Chemscore.Hbonds>
donor molecule, donor type, donor heavy atom, donor atom, acceptor molecule, acceptor atom, score
      P1  H  6896  6909       L1    14  0.85
      P1  H  7997  8008       L1    11  0.40

> <Gold.Chemscore.Hbond.Weighted>
-5.8047

> <Gold.Chemscore.Metal.Weighted>
-0.0000

> <Gold.Chemscore.Lipo.Weighted>
-9.9157

> <Gold.Chemscore.Internal_Hbond.Weighted>
0.0000

> <Gold.Chemscore.DEClash.Weighted>
0.0430

> <Gold.Chemscore.DEInternal.Weighted>
1.9518

> <Gold.Chemscore.Rot.Weighted>
9.5256

> <Gold.Chemscore.Internal.Correction.Weighted>
   9.000000E+99

> <Gold.Protein.RotatedTorsions>
[ 6907 6896 6895 6894 ] final  147.93 input  -60.11 | X-H torsion
[ 7974 7965 7964 7962 ] final   21.80 input  175.53 | X-H torsion
[ 8008 7997 7996 7995 ] final -133.26 input   59.86 | X-H torsion
[ 10167 10162 10161 10158 ] final -129.66 input  -65.29 | X-H torsion
[ 10718 10713 10712 10709 ] final  -23.82 input   66.30 | X-H torsion
[ 10763 10752 10751 10750 ] final  -71.91 input  -60.55 | X-H torsion
[ 11005 11000 10999 10996 ] final  173.75 input  -57.11 | X-H torsion

> <Gold.Protein.ActiveResidues>
 VAL166  LYS551  ARG553  GLY616  TRP617  ASP618  TYR619  PRO620  LYS621  CYS622 
 ASP623  PHE694  ASN695  SER759  ASP760  ASP761  ALA762  ILE779  LEU786  VAL792 
 PHE793  MET794  SER795  GLU796  ALA797  LYS798  CYS799  TRP800  GLU811  SER814 

> <Gold.Protein.RotatedAtoms>
  152.1483  133.4506  159.4800 H   0  0  0  0  0  0  0  0  0  0  0  0  # atno 6907 bound_to 6896
  150.6893  134.2221  159.4410 H   0  0  0  0  0  0  0  0  0  0  0  0  # atno 6908 bound_to 6896
  152.0116  134.9873  160.0619 H   0  0  0  0  0  0  0  0  0  0  0  0  # atno 6909 bound_to 6896
  146.2056  139.7976  142.8728 H   0  0  0  0  0  0  0  0  0  0  0  0  # atno 7974 bound_to 7965
  155.3425  140.0473  157.3045 H   0  0  0  0  0  0  0  0  0  0  0  0  # atno 8008 bound_to 7997
  154.5269  140.2244  155.8838 H   0  0  0  0  0  0  0  0  0  0  0  0  # atno 8009 bound_to 7997
  156.1749  140.3087  155.9047 H   0  0  0  0  0  0  0  0  0  0  0  0  # atno 8010 bound_to 7997
  139.9374  143.6202  152.2513 H   0  0  0  0  0  0  0  0  0  0  0  0  # atno 10167 bound_to 10162
  156.4858  130.4555  149.6784 H   0  0  0  0  0  0  0  0  0  0  0  0  # atno 10718 bound_to 10713
  154.4383  135.5947  153.6113 H   0  0  0  0  0  0  0  0  0  0  0  0  # atno 10763 bound_to 10752
  152.9803  135.5992  154.3753 H   0  0  0  0  0  0  0  0  0  0  0  0  # atno 10764 bound_to 10752
  154.3600  135.2841  155.2304 H   0  0  0  0  0  0  0  0  0  0  0  0  # atno 10765 bound_to 10752
  140.3439  134.7253  157.4221 H   0  0  0  0  0  0  0  0  0  0  0  0  # atno 11005 bound_to 11000
  145.3331  141.0271  143.3435 LP  0  0  0  0  0  0  0  0  0  0  0  0  # atno 17320 bound_to 7965
  144.8785  139.4937  143.6734 LP  0  0  0  0  0  0  0  0  0  0  0  0  # atno 17321 bound_to 7965
  139.6732  144.7660  151.1744 LP  0  0  0  0  0  0  0  0  0  0  0  0  # atno 17342 bound_to 10162
  140.7620  143.5834  150.8871 LP  0  0  0  0  0  0  0  0  0  0  0  0  # atno 17343 bound_to 10162
  156.3475  130.7414  151.2369 LP  0  0  0  0  0  0  0  0  0  0  0  0  # atno 17370 bound_to 10713
  157.7479  131.0386  150.4512 LP  0  0  0  0  0  0  0  0  0  0  0  0  # atno 17371 bound_to 10713
  140.0758  134.5799  155.8592 LP  0  0  0  0  0  0  0  0  0  0  0  0  # atno 17394 bound_to 11000
  141.2031  133.6629  156.6043 LP  0  0  0  0  0  0  0  0  0  0  0  0  # atno 17395 bound_to 11000

$$$$
