#       Name:                AV-unprocessed.smi:3172
#       Creating user name   scv26
#       Creation time:       Fri Mar 27 17:55:34 2020


#       File generated by GOLD software.
#

@<TRIPOS>MOLECULE
AV-unprocessed.smi:3172
    44    45     1
SMALL
NO_CHARGES


@<TRIPOS>ATOM
      1 ****        -3.5974   4.5897  -0.2212 C.3            1 S1                 0.0000
      2 ****        -3.1675   3.3298   0.4643 C.2            1 S1                 0.0000
      3 ****        -3.3637   3.1462   1.8307 N.2            1 S1                 0.0000
      4 ****        -2.8675   1.9394   2.0622 C.2            1 S1                 0.0000
      5 ****        -2.3624   1.3281   0.9814 N.pl3          1 S1                 0.0000
      6 ****        -1.7518   0.0095   0.9406 C.3            1 S1                 0.0000
      7 ****        -0.2108   0.0578   0.8953 C.3            1 S1                 0.0000
      8 ****         0.4015   0.8217   2.0820 C.3            1 S1                 0.0000
      9 ****         0.3236  -1.3222   0.8539 N.4            1 S1                 1.0000
     10 ****         1.2049  -1.6431  -0.2916 C.3            1 S1                 0.0000
     11 ****         1.3985  -3.1686  -0.3857 C.3            1 S1                 0.0000
     12 ****         2.3274  -3.5509  -1.5491 C.3            1 S1                 0.0000
     13 ****         3.6839  -2.8392  -1.4331 C.3            1 S1                 0.0000
     14 ****         3.5032  -1.3162  -1.3399 C.3            1 S1                 0.0000
     15 ****         2.5721  -0.9339  -0.1776 C.3            1 S1                 0.0000
     16 ****        -2.5578   2.2166  -0.0747 C.2            1 S1                 0.0000
     17 ****        -2.1512   1.9334  -1.4855 C.3            1 S1                 0.0000
     18 ****        -4.3692   4.3876  -0.9641 H              1 S1                 0.0000
     19 ****        -2.7594   5.0630  -0.7337 H              1 S1                 0.0000
     20 ****        -4.0027   5.3145   0.4859 H              1 S1                 0.0000
     21 ****        -2.8656   1.4914   3.0453 H              1 S1                 0.0000
     22 ****        -2.0842  -0.5500   1.8166 H              1 S1                 0.0000
     23 ****        -2.1412  -0.5230   0.0721 H              1 S1                 0.0000
     24 ****         0.0779   0.5785  -0.0180 H              1 S1                 0.0000
     25 ****         0.0925   1.8673   2.0871 H              1 S1                 0.0000
     26 ****         1.4909   0.8106   2.0406 H              1 S1                 0.0000
     27 ****         0.1021   0.3814   3.0336 H              1 S1                 0.0000
     28 ****         0.8177  -1.5113   1.7143 H              1 S1                 0.0000
     29 ****         0.7061  -1.3133  -1.2047 H              1 S1                 0.0000
     30 ****         1.8157  -3.5479   0.5485 H              1 S1                 0.0000
     31 ****         0.4334  -3.6602  -0.5145 H              1 S1                 0.0000
     32 ****         2.4748  -4.6310  -1.5679 H              1 S1                 0.0000
     33 ****         1.8557  -3.2871  -2.4967 H              1 S1                 0.0000
     34 ****         4.2124  -3.1999  -0.5497 H              1 S1                 0.0000
     35 ****         4.3091  -3.0881  -2.2910 H              1 S1                 0.0000
     36 ****         4.4731  -0.8343  -1.2136 H              1 S1                 0.0000
     37 ****         3.0912  -0.9395  -2.2770 H              1 S1                 0.0000
     38 ****         2.4438   0.1487  -0.1682 H              1 S1                 0.0000
     39 ****         3.0476  -1.1966   0.7686 H              1 S1                 0.0000
     40 ****        -2.5628   2.6772  -2.1678 H              1 S1                 0.0000
     41 ****        -2.5088   0.9559  -1.8093 H              1 S1                 0.0000
     42 ****        -1.0665   1.9527  -1.5897 H              1 S1                 0.0000
     43 ****        -0.4693  -1.9457   0.8028 H              1 S1                 0.0000
     44 ****        -3.7813   3.7774   2.4843 LP             1 S1                 0.0000
@<TRIPOS>BOND
    1    1    2 1     
    2    1   18 1     
    3    1   19 1     
    4    1   20 1     
    5    2   16 2     
    6    2    3 1     
    7    3    4 2     
    8    4    5 1     
    9    4   21 1     
   10    5    6 1     
   11    5   16 1     
   12    6    7 1     
   13    6   22 1     
   14    6   23 1     
   15    7    8 1     
   16    7    9 1     
   17    7   24 1     
   18    8   25 1     
   19    8   26 1     
   20    8   27 1     
   21    9   10 1     
   22    9   28 1     
   23    9   43 1     
   24   10   15 1     
   25   10   11 1     
   26   10   29 1     
   27   11   12 1     
   28   11   30 1     
   29   11   31 1     
   30   12   13 1     
   31   12   32 1     
   32   12   33 1     
   33   13   14 1     
   34   13   34 1     
   35   13   35 1     
   36   14   15 1     
   37   14   36 1     
   38   14   37 1     
   39   15   38 1     
   40   15   39 1     
   41   16   17 1     
   42   17   40 1     
   43   17   41 1     
   44   17   42 1     
   45    3   44 1     
@<TRIPOS>SUBSTRUCTURE
      1 S1             1
@<TRIPOS>SET
LONE_PAIRS      STATIC     ATOMS    <user>   **** ""
1 44
DONOR_HYDROGENS      STATIC     ATOMS    <user>   **** ""
2 28 43
ATOM$BLUE        STATIC     ATOMS    COLORGROUP SYSTEM
1 44
ATOM$RED        STATIC     ATOMS    COLORGROUP SYSTEM
2 28 43
