AV-unprocessed.smi:2788|AV-procd|sdf|10761|dock3
  -GOLD-   2272015193D 1   1.00000     0.00000
 Structure written by MMmdl.
 47 48  0  0  0  0  0  0  0  0  1 V2000
  152.5285  137.3965  157.5238 C   0  0  0  0  0  0  0  0  0  0  0  0
  151.5921  136.2477  157.2819 C   0  0  0  0  0  0  0  0  0  0  0  0
  152.0734  135.0928  156.8541 N   0  0  0  0  0  0  0  0  0  0  0  0
  150.9747  134.2349  156.7497 O   0  0  0  0  0  0  0  0  0  0  0  0
  149.8618  134.9142  157.1249 C   0  0  0  0  0  0  0  0  0  0  0  0
  148.5810  134.1509  157.1058 C   0  0  0  0  0  0  0  0  0  0  0  0
  150.1811  136.1991  157.4712 C   0  0  0  0  0  0  0  0  0  0  0  0
  149.2751  137.2982  157.9661 C   0  0  0  0  0  0  0  0  0  0  0  0
  149.4692  138.5353  157.0917 C   0  0  0  0  0  0  0  0  0  0  0  0
  149.0401  138.5439  155.9388 O   0  0  0  0  0  0  0  0  0  0  0  0
  150.1470  139.5518  157.6562 N   0  0  0  0  0  0  0  0  0  0  0  0
  150.5955  140.8137  157.0473 C   0  0  2  0  0  0  0  0  0  0  0  0
  149.3533  141.4262  156.3592 C   0  0  0  0  0  0  0  0  0  0  0  0
  151.6771  140.5240  155.9656 C   0  0  0  0  0  0  0  0  0  0  0  0
  151.1447  139.8644  154.8321 O   0  0  0  0  0  0  0  0  0  0  0  0
  151.1544  141.7723  158.1614 C   0  0  0  0  0  0  0  0  0  0  0  0
  151.5188  143.1950  157.6541 C   0  0  0  0  0  0  0  0  0  0  0  0
  151.9356  144.1245  158.8044 C   0  0  0  0  0  0  0  0  0  0  0  0
  153.1096  143.5349  159.5973 C   0  0  0  0  0  0  0  0  0  0  0  0
  152.7712  142.1289  160.1113 C   0  0  0  0  0  0  0  0  0  0  0  0
  152.3506  141.1972  158.9625 C   0  0  0  0  0  0  0  0  0  0  0  0
  152.7612  137.4895  158.5845 H   0  0  0  0  0  0  0  0  0  0  0  0
  152.0886  138.3385  157.1966 H   0  0  0  0  0  0  0  0  0  0  0  0
  153.4685  137.2689  156.9863 H   0  0  0  0  0  0  0  0  0  0  0  0
  147.7262  134.8116  157.2483 H   0  0  0  0  0  0  0  0  0  0  0  0
  148.5670  133.4068  157.9024 H   0  0  0  0  0  0  0  0  0  0  0  0
  148.4524  133.6333  156.1553 H   0  0  0  0  0  0  0  0  0  0  0  0
  148.2274  136.9971  157.9354 H   0  0  0  0  0  0  0  0  0  0  0  0
  149.4840  137.5569  159.0047 H   0  0  0  0  0  0  0  0  0  0  0  0
  150.4313  139.4159  158.6150 H   0  0  0  0  0  0  0  0  0  0  0  0
  149.5940  142.3447  155.8246 H   0  0  0  0  0  0  0  0  0  0  0  0
  148.5600  141.6540  157.0704 H   0  0  0  0  0  0  0  0  0  0  0  0
  148.9258  140.7400  155.6274 H   0  0  0  0  0  0  0  0  0  0  0  0
  152.1299  141.4491  155.6110 H   0  0  0  0  0  0  0  0  0  0  0  0
  152.4900  139.9194  156.3674 H   0  0  0  0  0  0  0  0  0  0  0  0
  150.5071  139.2317  155.1253 H   0  0  0  0  0  0  0  0  0  0  0  0
  150.3527  141.9061  158.8886 H   0  0  0  0  0  0  0  0  0  0  0  0
  152.3342  143.1424  156.9332 H   0  0  0  0  0  0  0  0  0  0  0  0
  150.6809  143.6571  157.1341 H   0  0  0  0  0  0  0  0  0  0  0  0
  152.2092  145.1032  158.4093 H   0  0  0  0  0  0  0  0  0  0  0  0
  151.0863  144.2866  159.4694 H   0  0  0  0  0  0  0  0  0  0  0  0
  153.9955  143.4905  158.9625 H   0  0  0  0  0  0  0  0  0  0  0  0
  153.3596  144.1877  160.4341 H   0  0  0  0  0  0  0  0  0  0  0  0
  153.6315  141.7093  160.6332 H   0  0  0  0  0  0  0  0  0  0  0  0
  151.9663  142.1916  160.8447 H   0  0  0  0  0  0  0  0  0  0  0  0
  152.1039  140.2258  159.3883 H   0  0  0  0  0  0  0  0  0  0  0  0
  153.2066  141.0404  158.3062 H   0  0  0  0  0  0  0  0  0  0  0  0
  1  2  1  0  0  0  0
  1 22  1  0  0  0  0
  1 23  1  0  0  0  0
  1 24  1  0  0  0  0
  2  7  1  0  0  0  0
  2  3  2  0  0  0  0
  3  4  1  0  0  0  0
  4  5  1  0  0  0  0
  5  6  1  0  0  0  0
  5  7  2  0  0  0  0
  6 25  1  0  0  0  0
  6 26  1  0  0  0  0
  6 27  1  0  0  0  0
  7  8  1  0  0  0  0
  8  9  1  0  0  0  0
  8 28  1  0  0  0  0
  8 29  1  0  0  0  0
  9 10  2  0  0  0  0
  9 11  1  0  0  0  0
 11 12  1  0  0  0  0
 11 30  1  0  0  0  0
 12 13  1  0  0  0  0
 12 14  1  0  0  0  0
 12 16  1  0  0  0  0
 13 31  1  0  0  0  0
 13 32  1  0  0  0  0
 13 33  1  0  0  0  0
 14 15  1  0  0  0  0
 14 34  1  0  0  0  0
 14 35  1  0  0  0  0
 15 36  1  0  0  0  0
 16 21  1  0  0  0  0
 16 17  1  0  0  0  0
 16 37  1  0  0  0  0
 17 18  1  0  0  0  0
 17 38  1  0  0  0  0
 17 39  1  0  0  0  0
 18 19  1  0  0  0  0
 18 40  1  0  0  0  0
 18 41  1  0  0  0  0
 19 20  1  0  0  0  0
 19 42  1  0  0  0  0
 19 43  1  0  0  0  0
 20 21  1  0  0  0  0
 20 44  1  0  0  0  0
 20 45  1  0  0  0  0
 21 46  1  0  0  0  0
 21 47  1  0  0  0  0
M  END
> <s_m_source_file>
AV-unprocessed.smi

> <i_m_source_file_index>
2788

> <i_lp_mmshare_version>
43012

> <i_f3d_flags>
0

> <s_epik_input>
W0NIM11jMW5vYyhbQ0gzXSljMVtDSDJdQyg9TylbTkhdW0NAQF0oW0NIM10pKFtDSDJdW09IXSlbQ0hdMltDSDJdW0NIMl1bQ0gyXVtDSDJdW0NIMl0y

> <s_epik_cmdline>
J2VwaWtfcHl0aG9uJywgJy1waCcsICc3LjAnLCAnLXRuJywgJzgnLCAnLW1hJywgJzIwMCcsICctbWV0YWxfYmluZGluZycsICctaW1hZScsICc8aW5maWxlLm1hZT4nLCAnLW9tYWUnLCAnPG91dGZpbGUubWFlPic=

> <r_lp_tautomer_probability>
1

> <r_epik_Ionization_Penalty>
1.3408e-07

> <r_epik_Ionization_Penalty_Charging>
0

> <r_epik_Ionization_Penalty_Neutral>
1.3408e-07

> <r_epik_State_Penalty>
-0

> <r_epik_Charging_Adjusted_Penalty>
0

> <i_epik_Tot_Q>
0

> <i_epik_Tot_abs_Q>
0

> <r_epik_Metal_State_Penalty>
-0

> <b_epik_Metal_Only>
0

> <s_lp_Force_Field>
OPLS_2005

> <r_lp_Energy>
14.1961

> <b_lp_Chiralities_Consistent>
1

> <s_lp_Variant>
AV-unprocessed.smi:2788-2

> <Gold.Version>
5.8.1

> <Gold.Id.Protein>
6NUR|6NUR_protein|mol2

> <Gold.PLP.Fitness>
36.9436

> <Gold.PLP.PLP>
-31.6330

> <Gold.PLP.part.hbond>
-2.3739

> <Gold.PLP.part.metal>
0.0000

> <Gold.PLP.part.buried>
-5.0403

> <Gold.PLP.part.nonpolar>
-24.4090

> <Gold.PLP.part.repulsive>
0.0959

> <Gold.PLP.ligand.clash>
0.0000

> <Gold.PLP.ligand.torsion>
0.3780

> <Gold.PLP.Chemscore.Hbond>
2.0000

> <Gold.PLP.Chemscore.CHOScore>
0.0000

> <Gold.PLP.Chemscore.Metal>
0.0000

> <Gold.Chemscore.Hbonds>
donor molecule, donor type, donor heavy atom, donor atom, acceptor molecule, acceptor atom, score
      P1  H  7989  7998       L1    15  1.00
      P1  H 10752 10765       L1     3  0.88

> <Gold.PLP.Chemscore.Internal.Correction>
0.0665

> <Gold.Rescore>
     Score         DG    S(hbond)    S(metal)    S(lipo)     H(rot)  DE(clash)    DE(int)     intcor
     15.40     -17.32       1.89        0.00      96.14       2.24       0.21       1.70       ----

> <Gold.Chemscore.Fitness>
15.4025

> <Gold.Chemscore.DG>
-17.3181

> <Gold.Chemscore.ZeroCoef>
-5.4800

> <Gold.Chemscore.Hbond>
1.8902

> <Gold.Chemscore.Metal>
0.0000

> <Gold.Chemscore.Lipo>
96.1410

> <Gold.Chemscore.Internal_Hbond>
0.0000

> <Gold.Chemscore.DEClash>
0.2111

> <Gold.Chemscore.DEInternal>
1.7045

> <Gold.Chemscore.Rot>
2.2357

> <Gold.Chemscore.Internal.Correction>
   9.000000E+99

> <Gold.Chemscore.Hbonds>
donor molecule, donor type, donor heavy atom, donor atom, acceptor molecule, acceptor atom, score
      P1  H  7989  7998       L1    15  0.45
      P1  H 10752 10765       L1     3  0.55

> <Gold.Chemscore.Hbond.Weighted>
-6.3131

> <Gold.Chemscore.Metal.Weighted>
-0.0000

> <Gold.Chemscore.Lipo.Weighted>
-11.2485

> <Gold.Chemscore.Internal_Hbond.Weighted>
0.0000

> <Gold.Chemscore.DEClash.Weighted>
0.2111

> <Gold.Chemscore.DEInternal.Weighted>
1.7045

> <Gold.Chemscore.Rot.Weighted>
5.7235

> <Gold.Chemscore.Internal.Correction.Weighted>
   9.000000E+99

> <Gold.Protein.RotatedTorsions>
[ 6907 6896 6895 6894 ] final  -81.15 input  -60.11 | X-H torsion
[ 7974 7965 7964 7962 ] final  114.18 input  175.53 | X-H torsion
[ 8008 7997 7996 7995 ] final   99.00 input   59.86 | X-H torsion
[ 10167 10162 10161 10158 ] final   -9.50 input  -65.29 | X-H torsion
[ 10718 10713 10712 10709 ] final   11.47 input   66.30 | X-H torsion
[ 10763 10752 10751 10750 ] final -142.17 input  -60.55 | X-H torsion
[ 11005 11000 10999 10996 ] final  155.77 input  -57.11 | X-H torsion

> <Gold.Protein.ActiveResidues>
 VAL166  LYS551  ARG553  GLY616  TRP617  ASP618  TYR619  PRO620  LYS621  CYS622 
 ASP623  PHE694  ASN695  SER759  ASP760  ASP761  ALA762  ILE779  LEU786  VAL792 
 PHE793  MET794  SER795  GLU796  ALA797  LYS798  CYS799  TRP800  GLU811  SER814 

> <Gold.Protein.RotatedAtoms>
  150.6917  134.3862  159.5055 H   0  0  0  0  0  0  0  0  0  0  0  0  # atno 6907 bound_to 6896
  152.1657  134.8873  160.0547 H   0  0  0  0  0  0  0  0  0  0  0  0  # atno 6908 bound_to 6896
  151.9918  133.3759  159.4184 H   0  0  0  0  0  0  0  0  0  0  0  0  # atno 6909 bound_to 6896
  145.2077  139.2921  143.4285 H   0  0  0  0  0  0  0  0  0  0  0  0  # atno 7974 bound_to 7965
  156.1061  140.3235  155.8008 H   0  0  0  0  0  0  0  0  0  0  0  0  # atno 8008 bound_to 7997
  155.4754  140.0550  157.2991 H   0  0  0  0  0  0  0  0  0  0  0  0  # atno 8009 bound_to 7997
  154.4728  140.2019  155.9966 H   0  0  0  0  0  0  0  0  0  0  0  0  # atno 8010 bound_to 7997
  140.7089  143.5851  150.8952 H   0  0  0  0  0  0  0  0  0  0  0  0  # atno 10167 bound_to 10162
  156.9960  130.6061  149.5691 H   0  0  0  0  0  0  0  0  0  0  0  0  # atno 10718 bound_to 10713
  154.8519  135.3503  154.5986 H   0  0  0  0  0  0  0  0  0  0  0  0  # atno 10763 bound_to 10752
  153.6595  135.6990  153.5187 H   0  0  0  0  0  0  0  0  0  0  0  0  # atno 10764 bound_to 10752
  153.2829  135.4258  155.1053 H   0  0  0  0  0  0  0  0  0  0  0  0  # atno 10765 bound_to 10752
  140.1613  134.8607  157.2577 H   0  0  0  0  0  0  0  0  0  0  0  0  # atno 11005 bound_to 11000
  146.3404  140.2342  142.8594 LP  0  0  0  0  0  0  0  0  0  0  0  0  # atno 17320 bound_to 7965
  144.9886  140.8526  143.5353 LP  0  0  0  0  0  0  0  0  0  0  0  0  # atno 17321 bound_to 7965
  139.9577  143.6200  152.3011 LP  0  0  0  0  0  0  0  0  0  0  0  0  # atno 17342 bound_to 10162
  139.6741  144.7659  151.1728 LP  0  0  0  0  0  0  0  0  0  0  0  0  # atno 17343 bound_to 10162
  156.0189  130.5283  150.8217 LP  0  0  0  0  0  0  0  0  0  0  0  0  # atno 17370 bound_to 10713
  157.5424  131.0941  150.9809 LP  0  0  0  0  0  0  0  0  0  0  0  0  # atno 17371 bound_to 10713
  140.2487  134.3709  155.7451 LP  0  0  0  0  0  0  0  0  0  0  0  0  # atno 17394 bound_to 11000
  141.2209  133.7304  156.8901 LP  0  0  0  0  0  0  0  0  0  0  0  0  # atno 17395 bound_to 11000

$$$$
