AV-unprocessed.smi:899|AV-procd|sdf|4087|dock5
  -GOLD-   22720 1573D 1   1.00000     0.00000
 Structure written by MMmdl.
 33 34  0  0  0  0  0  0  0  0  1 V2000
  154.8286  140.8371  161.2230 N   0  0  0  0  0  0  0  0  0  0  0  0
  154.0817  141.6961  161.0164 C   0  0  0  0  0  0  0  0  0  0  0  0
  153.1321  142.7880  160.7534 C   0  0  0  0  0  0  0  0  0  0  0  0
  152.3448  142.5643  159.4789 C   0  0  0  0  0  0  0  0  0  0  0  0
  152.0709  143.6460  158.6194 C   0  0  0  0  0  0  0  0  0  0  0  0
  151.3413  143.4380  157.4333 C   0  0  0  0  0  0  0  0  0  0  0  0
  150.8769  142.1526  157.0862 C   0  0  0  0  0  0  0  0  0  0  0  0
  150.1763  142.0390  155.9046 O   0  0  0  0  0  0  0  0  0  0  0  0
  149.7999  140.7406  155.4685 C   0  0  0  0  0  0  0  0  0  0  0  0
  148.9233  140.8823  154.2145 C   0  0  0  0  0  0  0  0  0  0  0  0
  147.6060  141.3913  154.5051 N   0  0  0  0  0  0  0  0  0  0  0  0
  147.0754  142.4963  153.8574 C   0  0  0  0  0  0  0  0  0  0  0  0
  145.8464  142.9976  154.1302 C   0  0  0  0  0  0  0  0  0  0  0  0
  145.2542  144.3795  153.2796 Cl  0  0  0  0  0  0  0  0  0  0  0  0
  145.0110  142.3706  155.1540 C   0  0  0  0  0  0  0  0  0  0  0  0
  143.8844  142.7402  155.4788 O   0  0  0  0  0  0  0  0  0  0  0  0
  145.5897  141.2655  155.7858 N   0  0  0  0  0  0  0  0  0  0  0  0
  146.8548  140.7440  155.5129 C   0  0  0  0  0  0  0  0  0  0  0  0
  147.2653  139.7680  156.1410 O   0  0  0  0  0  0  0  0  0  0  0  0
  151.1534  141.0688  157.9580 C   0  0  0  0  0  0  0  0  0  0  0  0
  151.8824  141.2761  159.1452 C   0  0  0  0  0  0  0  0  0  0  0  0
  145.0463  140.8068  156.5027 H   0  0  0  0  0  0  0  0  0  0  0  0
  152.4501  142.8642  161.6006 H   0  0  0  0  0  0  0  0  0  0  0  0
  153.6900  143.7229  160.6963 H   0  0  0  0  0  0  0  0  0  0  0  0
  152.4195  144.6377  158.8683 H   0  0  0  0  0  0  0  0  0  0  0  0
  151.1375  144.2749  156.7815 H   0  0  0  0  0  0  0  0  0  0  0  0
  150.6886  140.1493  155.2425 H   0  0  0  0  0  0  0  0  0  0  0  0
  149.2398  140.2291  156.2531 H   0  0  0  0  0  0  0  0  0  0  0  0
  149.3721  141.5825  153.5083 H   0  0  0  0  0  0  0  0  0  0  0  0
  148.8044  139.9390  153.6768 H   0  0  0  0  0  0  0  0  0  0  0  0
  147.6681  142.9870  153.0981 H   0  0  0  0  0  0  0  0  0  0  0  0
  150.8176  140.0667  157.7389 H   0  0  0  0  0  0  0  0  0  0  0  0
  152.0861  140.4408  159.7991 H   0  0  0  0  0  0  0  0  0  0  0  0
  1  2  3  0  0  0  0
  2  3  1  0  0  0  0
  3  4  1  0  0  0  0
  3 23  1  0  0  0  0
  3 24  1  0  0  0  0
  4 21  1  0  0  0  0
  4  5  2  0  0  0  0
  5  6  1  0  0  0  0
  5 25  1  0  0  0  0
  6  7  2  0  0  0  0
  6 26  1  0  0  0  0
  7  8  1  0  0  0  0
  7 20  1  0  0  0  0
  8  9  1  0  0  0  0
  9 10  1  0  0  0  0
  9 27  1  0  0  0  0
  9 28  1  0  0  0  0
 10 11  1  0  0  0  0
 10 29  1  0  0  0  0
 10 30  1  0  0  0  0
 11 18  1  0  0  0  0
 11 12  1  0  0  0  0
 12 13  2  0  0  0  0
 12 31  1  0  0  0  0
 13 14  1  0  0  0  0
 13 15  1  0  0  0  0
 15 16  2  0  0  0  0
 15 17  1  0  0  0  0
 17 22  1  0  0  0  0
 17 18  1  0  0  0  0
 18 19  2  0  0  0  0
 20 21  2  0  0  0  0
 20 32  1  0  0  0  0
 21 33  1  0  0  0  0
M  END
> <s_m_source_file>
AV-unprocessed.smi

> <i_m_source_file_index>
899

> <i_lp_mmshare_version>
43012

> <i_f3d_flags>
0

> <s_epik_input>
TiNDW0NIMl1jMVtjSF1bY0hdYyhbY0hdW2NIXTEpT1tDSDJdW0NIMl1uMltjSF1jKENsKWMoPU8pW25IXWMyPU8=

> <s_epik_cmdline>
J2VwaWtfcHl0aG9uJywgJy1waCcsICc3LjAnLCAnLXRuJywgJzgnLCAnLW1hJywgJzIwMCcsICctbWV0YWxfYmluZGluZycsICctaW1hZScsICc8aW5maWxlLm1hZT4nLCAnLW9tYWUnLCAnPG91dGZpbGUubWFlPic=

> <r_lp_tautomer_probability>
0.999537

> <r_epik_Ionization_Penalty>
0.0457407

> <r_epik_Ionization_Penalty_Charging>
0.0457407

> <r_epik_Ionization_Penalty_Neutral>
1.03254e-10

> <r_epik_State_Penalty>
0.0388483

> <r_epik_Charging_Adjusted_Penalty>
0.0845889

> <i_epik_Tot_Q>
0

> <i_epik_Tot_abs_Q>
0

> <r_epik_Metal_State_Penalty>
2.50663

> <b_epik_Metal_Only>
0

> <s_lp_Force_Field>
OPLS_2005

> <r_lp_Energy>
13.2906

> <b_lp_Chiralities_Consistent>
1

> <s_lp_Variant>
AV-unprocessed.smi:899-1

> <Gold.Version>
5.8.1

> <Gold.Id.Protein>
6NUR|6NUR_protein|mol2

> <Gold.PLP.Fitness>
43.4724

> <Gold.PLP.PLP>
-44.2507

> <Gold.PLP.part.hbond>
-0.6907

> <Gold.PLP.part.metal>
0.0000

> <Gold.PLP.part.buried>
-5.9944

> <Gold.PLP.part.nonpolar>
-39.4536

> <Gold.PLP.part.repulsive>
1.1717

> <Gold.PLP.ligand.clash>
0.0000

> <Gold.PLP.ligand.torsion>
0.4123

> <Gold.PLP.Chemscore.Hbond>
0.0000

> <Gold.PLP.Chemscore.CHOScore>
0.0000

> <Gold.PLP.Chemscore.Metal>
0.0000

> <Gold.PLP.Chemscore.Internal.Correction>
0.0463

> <Gold.Rescore>
     Score         DG    S(hbond)    S(metal)    S(lipo)     H(rot)  DE(clash)    DE(int)     intcor
      9.55     -11.39       0.00        0.00     101.24       2.32       0.03       1.82       ----

> <Gold.Chemscore.Fitness>
9.5494

> <Gold.Chemscore.DG>
-11.3929

> <Gold.Chemscore.ZeroCoef>
-5.4800

> <Gold.Chemscore.Hbond>
0.0000

> <Gold.Chemscore.Metal>
0.0000

> <Gold.Chemscore.Lipo>
101.2424

> <Gold.Chemscore.Internal_Hbond>
0.0000

> <Gold.Chemscore.DEClash>
0.0280

> <Gold.Chemscore.DEInternal>
1.8155

> <Gold.Chemscore.Rot>
2.3174

> <Gold.Chemscore.Internal.Correction>
   9.000000E+99

> <Gold.Chemscore.Hbond.Weighted>
-0.0000

> <Gold.Chemscore.Metal.Weighted>
-0.0000

> <Gold.Chemscore.Lipo.Weighted>
-11.8454

> <Gold.Chemscore.Internal_Hbond.Weighted>
0.0000

> <Gold.Chemscore.DEClash.Weighted>
0.0280

> <Gold.Chemscore.DEInternal.Weighted>
1.8155

> <Gold.Chemscore.Rot.Weighted>
5.9324

> <Gold.Chemscore.Internal.Correction.Weighted>
   9.000000E+99

> <Gold.Protein.RotatedTorsions>
[ 6907 6896 6895 6894 ] final -154.54 input  -60.11 | X-H torsion
[ 7974 7965 7964 7962 ] final  121.09 input  175.53 | X-H torsion
[ 8008 7997 7996 7995 ] final  -82.76 input   59.86 | X-H torsion
[ 10167 10162 10161 10158 ] final   33.35 input  -65.29 | X-H torsion
[ 10718 10713 10712 10709 ] final   88.01 input   66.30 | X-H torsion
[ 10763 10752 10751 10750 ] final  135.58 input  -60.55 | X-H torsion
[ 11005 11000 10999 10996 ] final  -12.46 input  -57.11 | X-H torsion

> <Gold.Protein.ActiveResidues>
 VAL166  LYS551  ARG553  GLY616  TRP617  ASP618  TYR619  PRO620  LYS621  CYS622 
 ASP623  PHE694  ASN695  SER759  ASP760  ASP761  ALA762  ILE779  LEU786  VAL792 
 PHE793  MET794  SER795  GLU796  ALA797  LYS798  CYS799  TRP800  GLU811  SER814 

> <Gold.Protein.RotatedAtoms>
  151.2590  133.4312  159.2614 H   0  0  0  0  0  0  0  0  0  0  0  0  # atno 6907 bound_to 6896
  151.0548  134.9698  159.8240 H   0  0  0  0  0  0  0  0  0  0  0  0  # atno 6908 bound_to 6896
  152.5389  134.2542  159.8963 H   0  0  0  0  0  0  0  0  0  0  0  0  # atno 6909 bound_to 6896
  145.1234  139.3374  143.4702 H   0  0  0  0  0  0  0  0  0  0  0  0  # atno 7974 bound_to 7965
  154.6120  140.0628  156.9506 H   0  0  0  0  0  0  0  0  0  0  0  0  # atno 8008 bound_to 7997
  155.1958  140.3311  155.4333 H   0  0  0  0  0  0  0  0  0  0  0  0  # atno 8009 bound_to 7997
  156.2382  140.1873  156.7045 H   0  0  0  0  0  0  0  0  0  0  0  0  # atno 8010 bound_to 7997
  140.4415  144.1180  150.6175 H   0  0  0  0  0  0  0  0  0  0  0  0  # atno 10167 bound_to 10162
  157.6945  131.0278  150.3210 H   0  0  0  0  0  0  0  0  0  0  0  0  # atno 10718 bound_to 10713
  153.8424  135.3089  155.3427 H   0  0  0  0  0  0  0  0  0  0  0  0  # atno 10763 bound_to 10752
  154.7927  135.4773  154.0092 H   0  0  0  0  0  0  0  0  0  0  0  0  # atno 10764 bound_to 10752
  153.1568  135.6853  153.8893 H   0  0  0  0  0  0  0  0  0  0  0  0  # atno 10765 bound_to 10752
  140.7659  133.8477  155.9165 H   0  0  0  0  0  0  0  0  0  0  0  0  # atno 11005 bound_to 11000
  146.3519  140.1203  142.8600 LP  0  0  0  0  0  0  0  0  0  0  0  0  # atno 17320 bound_to 7965
  145.0715  140.9159  143.4879 LP  0  0  0  0  0  0  0  0  0  0  0  0  # atno 17321 bound_to 7965
  140.4313  143.2567  151.9592 LP  0  0  0  0  0  0  0  0  0  0  0  0  # atno 17342 bound_to 10162
  139.4790  144.5741  151.8040 LP  0  0  0  0  0  0  0  0  0  0  0  0  # atno 17343 bound_to 10162
  156.3697  130.3861  149.7185 LP  0  0  0  0  0  0  0  0  0  0  0  0  # atno 17370 bound_to 10713
  156.4604  130.7949  151.2969 LP  0  0  0  0  0  0  0  0  0  0  0  0  # atno 17371 bound_to 10713
  140.9619  134.1644  157.4647 LP  0  0  0  0  0  0  0  0  0  0  0  0  # atno 17394 bound_to 11000
  139.8763  134.9948  156.5710 LP  0  0  0  0  0  0  0  0  0  0  0  0  # atno 17395 bound_to 11000

$$$$
