AV-unprocessed.smi:1460|AV-procd|sdf|5928|dock1
  -GOLD-   22720 6 13D 1   1.00000     0.00000
 Structure written by MMmdl.
 41 42  0  0  0  0  0  0  0  0  1 V2000
  153.1901  142.7819  162.2556 C   0  0  0  0  0  0  0  0  0  0  0  0
  153.6218  142.1340  160.9296 C   0  0  2  0  0  0  0  0  0  0  0  0
  152.4622  141.9817  159.9201 C   0  0  0  0  0  0  0  0  0  0  0  0
  152.0593  143.2408  159.3202 N   0  0  0  0  0  0  0  0  0  0  0  0
  152.0874  144.5024  159.8764 C   0  0  0  0  0  0  0  0  0  0  0  0
  151.6063  145.3706  158.9388 C   0  0  0  0  0  0  0  0  0  0  0  0
  151.2993  144.5339  157.8296 C   0  0  0  0  0  0  0  0  0  0  0  0
  151.5681  143.2593  158.0622 N   0  0  0  0  0  0  0  0  0  0  0  0
  154.2162  140.8299  161.2080 N   0  0  0  0  0  0  0  0  0  0  0  0
  155.0662  140.5579  162.2105 C   0  0  0  0  0  0  0  0  0  0  0  0
  155.4442  141.4014  163.0239 O   0  0  0  0  0  0  0  0  0  0  0  0
  155.5675  139.1109  162.3057 C   0  0  0  0  0  0  0  0  0  0  0  0
  156.5549  138.7902  161.1597 C   0  0  0  0  0  0  0  0  0  0  0  0
  156.9605  137.3054  161.1783 C   0  0  0  0  0  0  0  0  0  0  0  0
  155.7436  136.4810  161.0883 N   0  0  0  0  0  0  0  0  0  0  0  0
  155.3225  135.7871  160.0008 C   0  0  0  0  0  0  0  0  0  0  0  0
  156.2638  135.5293  159.0874 N   0  0  0  0  0  0  0  0  0  0  0  0
  154.1690  135.3891  159.8477 O   0  0  0  0  0  0  0  0  0  0  0  0
  154.8945  136.6563  162.2733 C   0  0  0  0  0  0  0  0  0  0  0  0
  154.3882  138.1097  162.3133 C   0  0  0  0  0  0  0  0  0  0  0  0
  152.8188  143.7955  162.1039 H   0  0  0  0  0  0  0  0  0  0  0  0
  154.0280  142.8473  162.9506 H   0  0  0  0  0  0  0  0  0  0  0  0
  152.4001  142.2065  162.7394 H   0  0  0  0  0  0  0  0  0  0  0  0
  154.3857  142.7775  160.4889 H   0  0  0  0  0  0  0  0  0  0  0  0
  152.7408  141.2965  159.1179 H   0  0  0  0  0  0  0  0  0  0  0  0
  151.5919  141.5452  160.4125 H   0  0  0  0  0  0  0  0  0  0  0  0
  152.4460  144.6753  160.8804 H   0  0  0  0  0  0  0  0  0  0  0  0
  151.4895  146.4399  159.0317 H   0  0  0  0  0  0  0  0  0  0  0  0
  150.8903  144.8126  156.8697 H   0  0  0  0  0  0  0  0  0  0  0  0
  153.9617  140.0743  160.5886 H   0  0  0  0  0  0  0  0  0  0  0  0
  156.1051  138.9929  163.2484 H   0  0  0  0  0  0  0  0  0  0  0  0
  156.1060  139.0263  160.1933 H   0  0  0  0  0  0  0  0  0  0  0  0
  157.4449  139.4146  161.2479 H   0  0  0  0  0  0  0  0  0  0  0  0
  157.6859  137.1116  160.3885 H   0  0  0  0  0  0  0  0  0  0  0  0
  157.4807  137.0737  162.1090 H   0  0  0  0  0  0  0  0  0  0  0  0
  156.0276  135.0138  158.2525 H   0  0  0  0  0  0  0  0  0  0  0  0
  157.2090  135.8492  159.2403 H   0  0  0  0  0  0  0  0  0  0  0  0
  154.0490  135.9671  162.2911 H   0  0  0  0  0  0  0  0  0  0  0  0
  155.4737  136.4343  163.1708 H   0  0  0  0  0  0  0  0  0  0  0  0
  153.7749  138.2610  163.2024 H   0  0  0  0  0  0  0  0  0  0  0  0
  153.7356  138.2820  161.4557 H   0  0  0  0  0  0  0  0  0  0  0  0
  1  2  1  0  0  0  0
  1 21  1  0  0  0  0
  1 22  1  0  0  0  0
  1 23  1  0  0  0  0
  2  3  1  0  0  0  0
  2  9  1  0  0  0  0
  2 24  1  0  0  0  0
  3  4  1  0  0  0  0
  3 25  1  0  0  0  0
  3 26  1  0  0  0  0
  4  8  1  0  0  0  0
  4  5  1  0  0  0  0
  5  6  2  0  0  0  0
  5 27  1  0  0  0  0
  6  7  1  0  0  0  0
  6 28  1  0  0  0  0
  7  8  2  0  0  0  0
  7 29  1  0  0  0  0
  9 10  1  0  0  0  0
  9 30  1  0  0  0  0
 10 11  2  0  0  0  0
 10 12  1  0  0  0  0
 12 20  1  0  0  0  0
 12 13  1  0  0  0  0
 12 31  1  0  0  0  0
 13 14  1  0  0  0  0
 13 32  1  0  0  0  0
 13 33  1  0  0  0  0
 14 15  1  0  0  0  0
 14 34  1  0  0  0  0
 14 35  1  0  0  0  0
 15 16  1  0  0  0  0
 15 19  1  0  0  0  0
 16 17  1  0  0  0  0
 16 18  2  0  0  0  0
 17 36  1  0  0  0  0
 17 37  1  0  0  0  0
 19 20  1  0  0  0  0
 19 38  1  0  0  0  0
 19 39  1  0  0  0  0
 20 40  1  0  0  0  0
 20 41  1  0  0  0  0
M  END
> <s_m_source_file>
AV-unprocessed.smi

> <i_m_source_file_index>
1460

> <i_lp_mmshare_version>
43012

> <i_f3d_flags>
0

> <s_epik_input>
bjFbY0hdW2NIXVtjSF1uMVtDSDJdW0NAQEhdKFtDSDNdKVtOSF1DKD1PKVtDSF0yW0NIMl1bQ0gyXU4oQyg9TylbTkgyXSlbQ0gyXVtDSDJdMg==

> <s_epik_cmdline>
J2VwaWtfcHl0aG9uJywgJy1waCcsICc3LjAnLCAnLXRuJywgJzgnLCAnLW1hJywgJzIwMCcsICctbWV0YWxfYmluZGluZycsICctaW1hZScsICc8aW5maWxlLm1hZT4nLCAnLW9tYWUnLCAnPG91dGZpbGUubWFlPic=

> <r_lp_tautomer_probability>
1

> <r_epik_Ionization_Penalty>
0.000387527

> <r_epik_Ionization_Penalty_Charging>
0

> <r_epik_Ionization_Penalty_Neutral>
0.000387527

> <r_epik_State_Penalty>
-0

> <r_epik_Charging_Adjusted_Penalty>
0

> <i_epik_Tot_Q>
0

> <i_epik_Tot_abs_Q>
0

> <r_epik_Metal_State_Penalty>
-0

> <b_epik_Metal_Only>
0

> <s_lp_Force_Field>
OPLS_2005

> <r_lp_Energy>
26.2675

> <b_lp_Chiralities_Consistent>
1

> <s_lp_Variant>
AV-unprocessed.smi:1460-1

> <Gold.Version>
5.8.1

> <Gold.Id.Protein>
6NUR|6NUR_protein|mol2

> <Gold.PLP.Fitness>
45.5839

> <Gold.PLP.PLP>
-41.4092

> <Gold.PLP.part.hbond>
-2.0000

> <Gold.PLP.part.metal>
0.0000

> <Gold.PLP.part.buried>
-4.9327

> <Gold.PLP.part.nonpolar>
-34.3166

> <Gold.PLP.part.repulsive>
0.0776

> <Gold.PLP.ligand.clash>
0.0000

> <Gold.PLP.ligand.torsion>
0.9499

> <Gold.PLP.Chemscore.Hbond>
1.0000

> <Gold.PLP.Chemscore.CHOScore>
0.9998

> <Gold.PLP.Chemscore.Metal>
0.0000

> <Gold.Chemscore.Hbonds>
donor molecule, donor type, donor heavy atom, donor atom, acceptor molecule, acceptor atom, score
      P1  H  6896  6908       L1    18  1.00
      L1  C     7    29       P1  8028  1.00

> <Gold.PLP.Chemscore.Internal.Correction>
0.0750

> <Gold.Rescore>
     Score         DG    S(hbond)    S(metal)    S(lipo)     H(rot)  DE(clash)    DE(int)     intcor
     12.88     -15.53       1.00        0.00      97.26       1.82       0.19       2.47       ----

> <Gold.Chemscore.Fitness>
12.8759

> <Gold.Chemscore.DG>
-15.5349

> <Gold.Chemscore.ZeroCoef>
-5.4800

> <Gold.Chemscore.Hbond>
0.9989

> <Gold.Chemscore.Metal>
0.0000

> <Gold.Chemscore.Lipo>
97.2573

> <Gold.Chemscore.Internal_Hbond>
0.0000

> <Gold.Chemscore.DEClash>
0.1889

> <Gold.Chemscore.DEInternal>
2.4701

> <Gold.Chemscore.Rot>
1.8206

> <Gold.Chemscore.Internal.Correction>
   9.000000E+99

> <Gold.Chemscore.Hbonds>
donor molecule, donor type, donor heavy atom, donor atom, acceptor molecule, acceptor atom, score
      P1  H  6896  6908       L1    18  1.00

> <Gold.Chemscore.Hbond.Weighted>
-3.3365

> <Gold.Chemscore.Metal.Weighted>
-0.0000

> <Gold.Chemscore.Lipo.Weighted>
-11.3791

> <Gold.Chemscore.Internal_Hbond.Weighted>
0.0000

> <Gold.Chemscore.DEClash.Weighted>
0.1889

> <Gold.Chemscore.DEInternal.Weighted>
2.4701

> <Gold.Chemscore.Rot.Weighted>
4.6607

> <Gold.Chemscore.Internal.Correction.Weighted>
   9.000000E+99

> <Gold.Protein.RotatedTorsions>
[ 6907 6896 6895 6894 ] final  -39.95 input  -60.11 | X-H torsion
[ 7974 7965 7964 7962 ] final   -5.83 input  175.53 | X-H torsion
[ 8008 7997 7996 7995 ] final -135.95 input   59.86 | X-H torsion
[ 10167 10162 10161 10158 ] final -133.16 input  -65.29 | X-H torsion
[ 10718 10713 10712 10709 ] final -142.81 input   66.30 | X-H torsion
[ 10763 10752 10751 10750 ] final  140.54 input  -60.55 | X-H torsion
[ 11005 11000 10999 10996 ] final  171.24 input  -57.11 | X-H torsion

> <Gold.Protein.ActiveResidues>
 VAL166  LYS551  ARG553  GLY616  TRP617  ASP618  TYR619  PRO620  LYS621  CYS622 
 ASP623  PHE694  ASN695  SER759  ASP760  ASP761  ALA762  ILE779  LEU786  VAL792 
 PHE793  MET794  SER795  GLU796  ALA797  LYS798  CYS799  TRP800  GLU811  SER814 

> <Gold.Protein.RotatedAtoms>
  150.9842  134.9191  159.7861 H   0  0  0  0  0  0  0  0  0  0  0  0  # atno 6907 bound_to 6896
  152.5231  134.3369  159.9213 H   0  0  0  0  0  0  0  0  0  0  0  0  # atno 6908 bound_to 6896
  151.3376  133.3934  159.2702 H   0  0  0  0  0  0  0  0  0  0  0  0  # atno 6909 bound_to 6896
  146.2344  140.2080  142.8335 H   0  0  0  0  0  0  0  0  0  0  0  0  # atno 7974 bound_to 7965
  155.3871  140.0497  157.3042 H   0  0  0  0  0  0  0  0  0  0  0  0  # atno 8008 bound_to 7997
  154.5054  140.2172  155.9223 H   0  0  0  0  0  0  0  0  0  0  0  0  # atno 8009 bound_to 7997
  156.1519  140.3134  155.8667 H   0  0  0  0  0  0  0  0  0  0  0  0  # atno 8010 bound_to 7997
  139.9011  143.6606  152.2594 H   0  0  0  0  0  0  0  0  0  0  0  0  # atno 10167 bound_to 10162
  156.3503  130.7685  151.1836 H   0  0  0  0  0  0  0  0  0  0  0  0  # atno 10718 bound_to 10713
  153.9243  135.2997  155.3447 H   0  0  0  0  0  0  0  0  0  0  0  0  # atno 10763 bound_to 10752
  154.7559  135.4958  153.9377 H   0  0  0  0  0  0  0  0  0  0  0  0  # atno 10764 bound_to 10752
  153.1125  135.6762  153.9579 H   0  0  0  0  0  0  0  0  0  0  0  0  # atno 10765 bound_to 10752
  140.3168  134.7470  157.4034 H   0  0  0  0  0  0  0  0  0  0  0  0  # atno 11005 bound_to 11000
  144.9729  140.8386  143.5444 LP  0  0  0  0  0  0  0  0  0  0  0  0  # atno 17320 bound_to 7965
  145.2063  139.2226  143.5166 LP  0  0  0  0  0  0  0  0  0  0  0  0  # atno 17321 bound_to 7965
  139.7024  144.7633  151.1250 LP  0  0  0  0  0  0  0  0  0  0  0  0  # atno 17342 bound_to 10162
  140.7706  143.5439  150.9281 LP  0  0  0  0  0  0  0  0  0  0  0  0  # atno 17343 bound_to 10162
  157.7460  131.0429  150.4718 LP  0  0  0  0  0  0  0  0  0  0  0  0  # atno 17370 bound_to 10713
  156.4912  130.4096  149.6405 LP  0  0  0  0  0  0  0  0  0  0  0  0  # atno 17371 bound_to 10713
  140.0976  134.5516  155.8383 LP  0  0  0  0  0  0  0  0  0  0  0  0  # atno 17394 bound_to 11000
  141.2096  133.6685  156.6448 LP  0  0  0  0  0  0  0  0  0  0  0  0  # atno 17395 bound_to 11000

$$$$
