AV-unprocessed.smi:1199|AV-procd|sdf|5018|dock5
  -GOLD-   22720 4 33D 1   1.00000     0.00000
 Structure written by MMmdl.
 41 42  0  0  0  0  0  0  0  0  1 V2000
  146.5182  139.2239  157.3698 C   0  0  0  0  0  0  0  0  0  0  0  0
  148.0406  139.2177  157.5604 C   0  0  2  0  0  0  0  0  0  0  0  0
  148.7762  139.5738  156.2489 C   0  0  0  0  0  0  0  0  0  0  0  0
  150.1251  139.0198  156.1155 N   0  0  0  0  0  0  0  0  0  0  0  0
  151.0682  139.5736  157.0831 C   0  0  0  0  0  0  0  0  0  0  0  0
  152.4649  138.9474  156.9311 C   0  0  0  0  0  0  0  0  0  0  0  0
  152.9331  139.1448  155.6007 O   0  0  0  0  0  0  0  0  0  0  0  0
  152.0582  138.5933  154.6215 C   0  0  0  0  0  0  0  0  0  0  0  0
  150.6569  139.2117  154.7720 C   0  0  0  0  0  0  0  0  0  0  0  0
  148.4656  137.8966  158.0203 N   0  0  0  0  0  0  0  0  0  0  0  0
  147.8918  137.1905  159.0071 C   0  0  0  0  0  0  0  0  0  0  0  0
  146.8397  137.5166  159.5577 O   0  0  0  0  0  0  0  0  0  0  0  0
  148.6293  135.9220  159.4513 C   0  0  0  0  0  0  0  0  0  0  0  0
  147.9673  135.2809  160.5963 N   0  0  0  0  0  0  0  0  0  0  0  0
  147.7071  133.9305  160.4202 N   0  0  0  0  0  0  0  0  0  0  0  0
  147.0958  133.2669  161.3421 C   0  0  0  0  0  0  0  0  0  0  0  0
  146.8538  131.9329  161.1246 O   0  0  0  0  0  0  0  0  0  0  0  0
  146.6744  133.9047  162.5701 C   0  0  0  0  0  0  0  0  0  0  0  0
  146.9404  135.2187  162.7369 C   0  0  0  0  0  0  0  0  0  0  0  0
  147.6366  136.0004  161.7137 C   0  0  0  0  0  0  0  0  0  0  0  0
  147.8994  137.1962  161.8426 O   0  0  0  0  0  0  0  0  0  0  0  0
  147.0779  131.5026  161.9355 H   0  0  0  0  0  0  0  0  0  0  0  0
  146.1703  140.2015  157.0356 H   0  0  0  0  0  0  0  0  0  0  0  0
  146.0049  138.9935  158.3040 H   0  0  0  0  0  0  0  0  0  0  0  0
  146.2057  138.4885  156.6275 H   0  0  0  0  0  0  0  0  0  0  0  0
  148.2677  139.9731  158.3135 H   0  0  0  0  0  0  0  0  0  0  0  0
  148.1673  139.2075  155.4211 H   0  0  0  0  0  0  0  0  0  0  0  0
  148.8127  140.6577  156.1321 H   0  0  0  0  0  0  0  0  0  0  0  0
  151.1386  140.6547  156.9552 H   0  0  0  0  0  0  0  0  0  0  0  0
  150.7180  139.4031  158.0997 H   0  0  0  0  0  0  0  0  0  0  0  0
  153.1650  139.4068  157.6286 H   0  0  0  0  0  0  0  0  0  0  0  0
  152.4357  137.8808  157.1607 H   0  0  0  0  0  0  0  0  0  0  0  0
  152.4591  138.7977  153.6287 H   0  0  0  0  0  0  0  0  0  0  0  0
  152.0158  137.5087  154.7332 H   0  0  0  0  0  0  0  0  0  0  0  0
  149.9860  138.7610  154.0397 H   0  0  0  0  0  0  0  0  0  0  0  0
  150.7029  140.2770  154.5407 H   0  0  0  0  0  0  0  0  0  0  0  0
  149.3226  137.5373  157.6257 H   0  0  0  0  0  0  0  0  0  0  0  0
  148.6735  135.2393  158.6009 H   0  0  0  0  0  0  0  0  0  0  0  0
  149.6672  136.1510  159.7012 H   0  0  0  0  0  0  0  0  0  0  0  0
  146.1599  133.3350  163.3300 H   0  0  0  0  0  0  0  0  0  0  0  0
  146.6304  135.7081  163.6486 H   0  0  0  0  0  0  0  0  0  0  0  0
  1  2  1  0  0  0  0
  1 23  1  0  0  0  0
  1 24  1  0  0  0  0
  1 25  1  0  0  0  0
  2  3  1  0  0  0  0
  2 10  1  0  0  0  0
  2 26  1  0  0  0  0
  3  4  1  0  0  0  0
  3 27  1  0  0  0  0
  3 28  1  0  0  0  0
  4  9  1  0  0  0  0
  4  5  1  0  0  0  0
  5  6  1  0  0  0  0
  5 29  1  0  0  0  0
  5 30  1  0  0  0  0
  6  7  1  0  0  0  0
  6 31  1  0  0  0  0
  6 32  1  0  0  0  0
  7  8  1  0  0  0  0
  8  9  1  0  0  0  0
  8 33  1  0  0  0  0
  8 34  1  0  0  0  0
  9 35  1  0  0  0  0
  9 36  1  0  0  0  0
 10 11  1  0  0  0  0
 10 37  1  0  0  0  0
 11 12  2  0  0  0  0
 11 13  1  0  0  0  0
 13 38  1  0  0  0  0
 13 39  1  0  0  0  0
 13 14  1  0  0  0  0
 14 15  1  0  0  0  0
 14 20  1  0  0  0  0
 15 16  2  0  0  0  0
 16 17  1  0  0  0  0
 16 18  1  0  0  0  0
 17 22  1  0  0  0  0
 18 40  1  0  0  0  0
 18 19  2  0  0  0  0
 19 41  1  0  0  0  0
 19 20  1  0  0  0  0
 20 21  2  0  0  0  0
M  END
> <s_m_source_file>
AV-unprocessed.smi

> <i_m_source_file_index>
1199

> <i_lp_mmshare_version>
43012

> <i_f3d_flags>
0

> <s_epik_input>
W0NIMl0xW0NIMl1PW0NIMl1bQ0gyXU4xW0NIMl1bQ0BASF0oW0NIM10pW05IXUMoPU8pW0NIMl1uMltuSF1jKD1PKVtjSF1bY0hdYzI9Tw==

> <s_epik_cmdline>
J2VwaWtfcHl0aG9uJywgJy1waCcsICc3LjAnLCAnLXRuJywgJzgnLCAnLW1hJywgJzIwMCcsICctbWV0YWxfYmluZGluZycsICctaW1hZScsICc8aW5maWxlLm1hZT4nLCAnLW9tYWUnLCAnPG91dGZpbGUubWFlPic=

> <r_epik_Ionization_Penalty>
2.36432

> <r_epik_Ionization_Penalty_Charging>
3.67277e-08

> <r_epik_Ionization_Penalty_Neutral>
2.36432

> <r_epik_State_Penalty>
1.96081

> <r_epik_Charging_Adjusted_Penalty>
1.96081

> <i_epik_Tot_Q>
0

> <i_epik_Tot_abs_Q>
0

> <r_epik_Metal_State_Penalty>
1.96081

> <b_epik_Metal_Only>
0

> <s_lp_Force_Field>
OPLS_2005

> <r_lp_Energy>
35.6953

> <b_lp_Chiralities_Consistent>
1

> <s_lp_Variant>
AV-unprocessed.smi:1199-5

> <Gold.Version>
5.8.1

> <Gold.Id.Protein>
6NUR|6NUR_protein|mol2

> <Gold.PLP.Fitness>
40.8486

> <Gold.PLP.PLP>
-33.1830

> <Gold.PLP.part.hbond>
-3.8808

> <Gold.PLP.part.metal>
0.0000

> <Gold.PLP.part.buried>
-3.4338

> <Gold.PLP.part.nonpolar>
-25.4680

> <Gold.PLP.part.repulsive>
0.1060

> <Gold.PLP.ligand.clash>
0.0000

> <Gold.PLP.ligand.torsion>
0.5798

> <Gold.PLP.Chemscore.Hbond>
2.9280

> <Gold.PLP.Chemscore.CHOScore>
0.0000

> <Gold.PLP.Chemscore.Metal>
0.0000

> <Gold.Chemscore.Hbonds>
donor molecule, donor type, donor heavy atom, donor atom, acceptor molecule, acceptor atom, score
      P1  H  6931  6943       L1    21  1.00
      P1  H  6934  6947       L1    12  0.89
      P1  H  7997  8010       L1     7  1.00

> <Gold.PLP.Chemscore.Internal.Correction>
0.0412

> <Gold.Rescore>
     Score         DG    S(hbond)    S(metal)    S(lipo)     H(rot)  DE(clash)    DE(int)     intcor
      5.88     -12.04       2.52        0.00      48.43       2.94       0.01       6.15       ----

> <Gold.Chemscore.Fitness>
5.8830

> <Gold.Chemscore.DG>
-12.0394

> <Gold.Chemscore.ZeroCoef>
-5.4800

> <Gold.Chemscore.Hbond>
2.5238

> <Gold.Chemscore.Metal>
0.0000

> <Gold.Chemscore.Lipo>
48.4258

> <Gold.Chemscore.Internal_Hbond>
0.0000

> <Gold.Chemscore.DEClash>
0.0073

> <Gold.Chemscore.DEInternal>
6.1491

> <Gold.Chemscore.Rot>
2.9437

> <Gold.Chemscore.Internal.Correction>
   9.000000E+99

> <Gold.Chemscore.Hbonds>
donor molecule, donor type, donor heavy atom, donor atom, acceptor molecule, acceptor atom, score
      P1  H  6931  6943       L1    21  0.93
      P1  H  6934  6947       L1    12  0.61
      P1  H  7997  8010       L1     7  0.38

> <Gold.Chemscore.Hbond.Weighted>
-8.4296

> <Gold.Chemscore.Metal.Weighted>
-0.0000

> <Gold.Chemscore.Lipo.Weighted>
-5.6658

> <Gold.Chemscore.Internal_Hbond.Weighted>
0.0000

> <Gold.Chemscore.DEClash.Weighted>
0.0073

> <Gold.Chemscore.DEInternal.Weighted>
6.1491

> <Gold.Chemscore.Rot.Weighted>
7.5359

> <Gold.Chemscore.Internal.Correction.Weighted>
   9.000000E+99

> <Gold.Protein.RotatedTorsions>
[ 6907 6896 6895 6894 ] final  -23.19 input  -60.11 | X-H torsion
[ 7974 7965 7964 7962 ] final -133.50 input  175.53 | X-H torsion
[ 8008 7997 7996 7995 ] final  108.06 input   59.86 | X-H torsion
[ 10167 10162 10161 10158 ] final   73.72 input  -65.29 | X-H torsion
[ 10718 10713 10712 10709 ] final  101.11 input   66.30 | X-H torsion
[ 10763 10752 10751 10750 ] final -169.09 input  -60.55 | X-H torsion
[ 11005 11000 10999 10996 ] final  -73.05 input  -57.11 | X-H torsion

> <Gold.Protein.ActiveResidues>
 VAL166  LYS551  ARG553  GLY616  TRP617  ASP618  TYR619  PRO620  LYS621  CYS622 
 ASP623  PHE694  ASN695  SER759  ASP760  ASP761  ALA762  ILE779  LEU786  VAL792 
 PHE793  MET794  SER795  GLU796  ALA797  LYS798  CYS799  TRP800  GLU811  SER814 

> <Gold.Protein.RotatedAtoms>
  151.2076  135.0468  159.8897 H   0  0  0  0  0  0  0  0  0  0  0  0  # atno 6907 bound_to 6896
  152.5427  134.0781  159.8233 H   0  0  0  0  0  0  0  0  0  0  0  0  # atno 6908 bound_to 6896
  151.0930  133.5254  159.2646 H   0  0  0  0  0  0  0  0  0  0  0  0  # atno 6909 bound_to 6896
  144.9187  140.6987  143.4979 H   0  0  0  0  0  0  0  0  0  0  0  0  # atno 7974 bound_to 7965
  156.1874  140.3083  155.9264 H   0  0  0  0  0  0  0  0  0  0  0  0  # atno 8008 bound_to 7997
  155.3251  140.0458  157.3058 H   0  0  0  0  0  0  0  0  0  0  0  0  # atno 8009 bound_to 7997
  154.5411  140.2262  155.8649 H   0  0  0  0  0  0  0  0  0  0  0  0  # atno 8010 bound_to 7997
  140.0214  144.5537  150.7579 H   0  0  0  0  0  0  0  0  0  0  0  0  # atno 10167 bound_to 10162
  157.6837  131.0717  150.5203 H   0  0  0  0  0  0  0  0  0  0  0  0  # atno 10718 bound_to 10713
  154.6559  135.2918  154.9928 H   0  0  0  0  0  0  0  0  0  0  0  0  # atno 10763 bound_to 10752
  154.1004  135.6577  153.4871 H   0  0  0  0  0  0  0  0  0  0  0  0  # atno 10764 bound_to 10752
  153.0402  135.5241  154.7488 H   0  0  0  0  0  0  0  0  0  0  0  0  # atno 10765 bound_to 10752
  141.1617  133.6866  156.7152 H   0  0  0  0  0  0  0  0  0  0  0  0  # atno 11005 bound_to 11000
  145.3332  139.1753  143.4526 LP  0  0  0  0  0  0  0  0  0  0  0  0  # atno 17320 bound_to 7965
  146.3194  140.3364  142.8644 LP  0  0  0  0  0  0  0  0  0  0  0  0  # atno 17321 bound_to 7965
  140.7341  143.2724  151.3845 LP  0  0  0  0  0  0  0  0  0  0  0  0  # atno 17342 bound_to 10162
  139.6137  144.1046  152.2324 LP  0  0  0  0  0  0  0  0  0  0  0  0  # atno 17343 bound_to 10162
  156.5517  130.4233  149.6105 LP  0  0  0  0  0  0  0  0  0  0  0  0  # atno 17370 bound_to 10713
  156.2897  130.7117  151.1963 LP  0  0  0  0  0  0  0  0  0  0  0  0  # atno 17371 bound_to 10713
  140.2857  134.8281  157.3973 LP  0  0  0  0  0  0  0  0  0  0  0  0  # atno 17394 bound_to 11000
  140.1392  134.4994  155.8044 LP  0  0  0  0  0  0  0  0  0  0  0  0  # atno 17395 bound_to 11000

$$$$
