AV-unprocessed.smi:1265|AV-procd|sdf|5318|dock7
  -GOLD-   22720 4443D 1   1.00000     0.00000
 Structure written by MMmdl.
 45 47  0  0  0  0  0  0  0  0  2 V2000
  144.6170  136.4348  152.8527 O   0  0  0  0  0  0  0  0  0  0  0  0
  145.8263  136.3419  152.6424 C   0  0  0  0  0  0  0  0  0  0  0  0
  146.7303  137.2153  153.1077 N   0  0  0  0  0  0  0  0  0  0  0  0
  146.4408  138.3928  153.9259 C   0  0  0  0  0  0  0  0  0  0  0  0
  147.7344  139.0798  154.4770 C   0  0  2  0  0  0  0  0  0  0  0  0
  148.8560  138.0926  154.5467 N   0  0  0  0  0  0  0  0  0  0  0  0
  148.6487  136.9398  155.4353 C   0  0  0  0  0  0  0  0  0  0  0  0
  149.8166  135.9398  155.3822 C   0  0  0  0  0  0  0  0  0  0  0  0
  151.0329  136.6011  155.7025 O   0  0  0  0  0  0  0  0  0  0  0  0
  151.3085  137.6748  154.8137 C   0  0  0  0  0  0  0  0  0  0  0  0
  150.1589  138.6948  154.8618 C   0  0  0  0  0  0  0  0  0  0  0  0
  147.3902  139.7234  155.8518 C   0  0  0  0  0  0  0  0  0  0  0  0
  146.4720  140.9301  155.6296 C   0  0  0  0  0  0  0  0  0  0  0  0
  146.9320  141.6699  154.0453 S   0  0  0  0  0  0  0  0  0  0  0  0
  148.0442  140.3112  153.5875 C   0  0  0  0  0  0  0  0  0  0  0  0
  146.4187  135.3541  151.9497 N   0  0  0  0  0  0  0  0  0  0  0  0
  145.8128  134.2529  151.2860 C   0  0  0  0  0  0  0  0  0  0  0  0
  144.4024  134.1754  151.3015 C   0  0  0  0  0  0  0  0  0  0  0  0
  143.7582  133.0913  150.6712 C   0  0  0  0  0  0  0  0  0  0  0  0
  144.4917  132.1313  150.0684 N   0  3  0  0  0  0  0  0  0  0  0  0
  145.8417  132.1537  150.0409 C   0  0  0  0  0  0  0  0  0  0  0  0
  146.5415  133.2133  150.6534 C   0  0  0  0  0  0  0  0  0  0  0  0
  147.7034  137.0479  152.8972 H   0  0  0  0  0  0  0  0  0  0  0  0
  145.8644  139.0829  153.3115 H   0  0  0  0  0  0  0  0  0  0  0  0
  145.7470  138.1339  154.7254 H   0  0  0  0  0  0  0  0  0  0  0  0
  148.5158  137.2673  156.4657 H   0  0  0  0  0  0  0  0  0  0  0  0
  147.7566  136.3852  155.1549 H   0  0  0  0  0  0  0  0  0  0  0  0
  149.6533  135.1306  156.0941 H   0  0  0  0  0  0  0  0  0  0  0  0
  149.8906  135.4849  154.3932 H   0  0  0  0  0  0  0  0  0  0  0  0
  152.2458  138.1473  155.1077 H   0  0  0  0  0  0  0  0  0  0  0  0
  151.4458  137.2942  153.8003 H   0  0  0  0  0  0  0  0  0  0  0  0
  150.4049  139.4884  154.1599 H   0  0  0  0  0  0  0  0  0  0  0  0
  150.1301  139.1494  155.8526 H   0  0  0  0  0  0  0  0  0  0  0  0
  146.9623  139.0141  156.5595 H   0  0  0  0  0  0  0  0  0  0  0  0
  148.2786  140.1306  156.3293 H   0  0  0  0  0  0  0  0  0  0  0  0
  145.4274  140.6216  155.5849 H   0  0  0  0  0  0  0  0  0  0  0  0
  146.5598  141.6593  156.4352 H   0  0  0  0  0  0  0  0  0  0  0  0
  149.0564  140.6768  153.7511 H   0  0  0  0  0  0  0  0  0  0  0  0
  147.9547  140.0938  152.5227 H   0  0  0  0  0  0  0  0  0  0  0  0
  147.4283  135.3636  151.9416 H   0  0  0  0  0  0  0  0  0  0  0  0
  143.8150  134.9416  151.7868 H   0  0  0  0  0  0  0  0  0  0  0  0
  142.6861  132.9633  150.6343 H   0  0  0  0  0  0  0  0  0  0  0  0
  146.3196  131.3247  149.5393 H   0  0  0  0  0  0  0  0  0  0  0  0
  147.6207  133.2003  150.6374 H   0  0  0  0  0  0  0  0  0  0  0  0
  144.0063  131.3543  149.6194 H   0  0  0  0  0  0  0  0  0  0  0  0
  1  2  2  0  0  0  0
  2  3  1  0  0  0  0
  2 16  1  0  0  0  0
  3  4  1  0  0  0  0
  3 23  1  0  0  0  0
  4  5  1  0  0  0  0
  4 24  1  0  0  0  0
  4 25  1  0  0  0  0
  5 15  1  0  0  0  0
  5  6  1  0  0  0  0
  5 12  1  0  0  0  0
  6 11  1  0  0  0  0
  6  7  1  0  0  0  0
  7  8  1  0  0  0  0
  7 26  1  0  0  0  0
  7 27  1  0  0  0  0
  8  9  1  0  0  0  0
  8 28  1  0  0  0  0
  8 29  1  0  0  0  0
  9 10  1  0  0  0  0
 10 11  1  0  0  0  0
 10 30  1  0  0  0  0
 10 31  1  0  0  0  0
 11 32  1  0  0  0  0
 11 33  1  0  0  0  0
 12 13  1  0  0  0  0
 12 34  1  0  0  0  0
 12 35  1  0  0  0  0
 13 14  1  0  0  0  0
 13 36  1  0  0  0  0
 13 37  1  0  0  0  0
 14 15  1  0  0  0  0
 15 38  1  0  0  0  0
 15 39  1  0  0  0  0
 16 17  1  0  0  0  0
 16 40  1  0  0  0  0
 17 22  1  0  0  0  0
 17 18  2  0  0  0  0
 18 19  1  0  0  0  0
 18 41  1  0  0  0  0
 19 20  2  0  0  0  0
 19 42  1  0  0  0  0
 20 21  1  0  0  0  0
 20 45  1  0  0  0  0
 21 22  2  0  0  0  0
 21 43  1  0  0  0  0
 22 44  1  0  0  0  0
M  CHG  1  20   1
M  END
> <s_m_source_file>
AV-unprocessed.smi

> <i_m_source_file_index>
1265

> <i_lp_mmshare_version>
43012

> <i_f3d_flags>
0

> <s_epik_input>
W2NIXTFbY0hdbltjSF1bY0hdYzFbTkhdQyg9TylbTkhdW0NIMl1bQ0BdMihbQ0gyXVtDSDJdU1tDSDJdMilOM1tDSDJdW0NIMl1PW0NIMl1bQ0gyXTM=

> <s_epik_cmdline>
J2VwaWtfcHl0aG9uJywgJy1waCcsICc3LjAnLCAnLXRuJywgJzgnLCAnLW1hJywgJzIwMCcsICctbWV0YWxfYmluZGluZycsICctaW1hZScsICc8aW5maWxlLm1hZT4nLCAnLW9tYWUnLCAnPG91dGZpbGUubWFlPic=

> <r_epik_Ionization_Penalty>
1.06168

> <r_epik_Ionization_Penalty_Charging>
1.04215

> <r_epik_Ionization_Penalty_Neutral>
0.019527

> <r_epik_State_Penalty>
1.12733

> <r_epik_Charging_Adjusted_Penalty>
2.16948

> <i_epik_Tot_Q>
1

> <i_epik_Tot_abs_Q>
1

> <r_epik_Metal_State_Penalty>
1.22116

> <b_epik_Metal_Only>
0

> <s_lp_Force_Field>
OPLS_2005

> <r_lp_Energy>
64.854

> <b_lp_Chiralities_Consistent>
1

> <s_lp_Variant>
AV-unprocessed.smi:1265-4

> <Gold.Version>
5.8.1

> <Gold.Id.Protein>
6NUR|6NUR_protein|mol2

> <Gold.PLP.Fitness>
39.8082

> <Gold.PLP.PLP>
-32.4017

> <Gold.PLP.part.hbond>
-3.0000

> <Gold.PLP.part.metal>
0.0000

> <Gold.PLP.part.buried>
-4.4642

> <Gold.PLP.part.nonpolar>
-25.4430

> <Gold.PLP.part.repulsive>
0.5963

> <Gold.PLP.ligand.clash>
0.0333

> <Gold.PLP.ligand.torsion>
0.8267

> <Gold.PLP.Chemscore.Hbond>
3.0000

> <Gold.PLP.Chemscore.CHOScore>
0.0000

> <Gold.PLP.Chemscore.Metal>
0.0000

> <Gold.Chemscore.Hbonds>
donor molecule, donor type, donor heavy atom, donor atom, acceptor molecule, acceptor atom, score
      L1  H     3    23       P1  7948  0.98
      L1  H    16    40       P1  7948  1.00
      P1  H 10752 10765       L1     9  0.02

> <Gold.PLP.Chemscore.Internal.Correction>
0.0932

> <Gold.Rescore>
     Score         DG    S(hbond)    S(metal)    S(lipo)     H(rot)  DE(clash)    DE(int)     intcor
     16.90     -20.18       2.61        0.00      83.48       1.47       0.23       3.04       ----

> <Gold.Chemscore.Fitness>
16.9023

> <Gold.Chemscore.DG>
-20.1788

> <Gold.Chemscore.ZeroCoef>
-5.4800

> <Gold.Chemscore.Hbond>
2.6064

> <Gold.Chemscore.Metal>
0.0000

> <Gold.Chemscore.Lipo>
83.4835

> <Gold.Chemscore.Internal_Hbond>
0.0000

> <Gold.Chemscore.DEClash>
0.2347

> <Gold.Chemscore.DEInternal>
3.0418

> <Gold.Chemscore.Rot>
1.4743

> <Gold.Chemscore.Internal.Correction>
   9.000000E+99

> <Gold.Chemscore.Hbonds>
donor molecule, donor type, donor heavy atom, donor atom, acceptor molecule, acceptor atom, score
      L1  H     3    23       P1  7948  0.93
      L1  H    16    40       P1  7948  0.96

> <Gold.Chemscore.Hbond.Weighted>
-8.7055

> <Gold.Chemscore.Metal.Weighted>
-0.0000

> <Gold.Chemscore.Lipo.Weighted>
-9.7676

> <Gold.Chemscore.Internal_Hbond.Weighted>
0.0000

> <Gold.Chemscore.DEClash.Weighted>
0.2347

> <Gold.Chemscore.DEInternal.Weighted>
3.0418

> <Gold.Chemscore.Rot.Weighted>
3.7742

> <Gold.Chemscore.Internal.Correction.Weighted>
   9.000000E+99

> <Gold.Protein.RotatedTorsions>
[ 6907 6896 6895 6894 ] final   74.42 input  -60.11 | X-H torsion
[ 7974 7965 7964 7962 ] final -141.60 input  175.53 | X-H torsion
[ 8008 7997 7996 7995 ] final   89.65 input   59.86 | X-H torsion
[ 10167 10162 10161 10158 ] final  -55.28 input  -65.29 | X-H torsion
[ 10718 10713 10712 10709 ] final  107.77 input   66.30 | X-H torsion
[ 10763 10752 10751 10750 ] final -174.35 input  -60.55 | X-H torsion
[ 11005 11000 10999 10996 ] final  107.55 input  -57.11 | X-H torsion

> <Gold.Protein.ActiveResidues>
 VAL166  LYS551  ARG553  GLY616  TRP617  ASP618  TYR619  PRO620  LYS621  CYS622 
 ASP623  PHE694  ASN695  SER759  ASP760  ASP761  ALA762  ILE779  LEU786  VAL792 
 PHE793  MET794  SER795  GLU796  ALA797  LYS798  CYS799  TRP800  GLU811  SER814 

> <Gold.Protein.RotatedAtoms>
  152.4975  134.4274  159.9500 H   0  0  0  0  0  0  0  0  0  0  0  0  # atno 6907 bound_to 6896
  151.4250  133.3681  159.2769 H   0  0  0  0  0  0  0  0  0  0  0  0  # atno 6908 bound_to 6896
  150.9195  134.8635  159.7539 H   0  0  0  0  0  0  0  0  0  0  0  0  # atno 6909 bound_to 6896
  144.8507  140.6060  143.5392 H   0  0  0  0  0  0  0  0  0  0  0  0  # atno 7974 bound_to 7965
  156.0025  140.3358  155.6859 H   0  0  0  0  0  0  0  0  0  0  0  0  # atno 8008 bound_to 7997
  155.6271  140.0681  157.2678 H   0  0  0  0  0  0  0  0  0  0  0  0  # atno 8009 bound_to 7997
  154.4254  140.1766  156.1420 H   0  0  0  0  0  0  0  0  0  0  0  0  # atno 8010 bound_to 7997
  140.6383  143.2494  151.5057 H   0  0  0  0  0  0  0  0  0  0  0  0  # atno 10167 bound_to 10162
  157.6614  131.0880  150.6206 H   0  0  0  0  0  0  0  0  0  0  0  0  # atno 10718 bound_to 10713
  154.5972  135.2851  155.0573 H   0  0  0  0  0  0  0  0  0  0  0  0  # atno 10763 bound_to 10752
  154.1852  135.6450  153.5048 H   0  0  0  0  0  0  0  0  0  0  0  0  # atno 10764 bound_to 10752
  153.0143  135.5433  154.6678 H   0  0  0  0  0  0  0  0  0  0  0  0  # atno 10765 bound_to 10752
  139.8830  134.9404  156.5837 H   0  0  0  0  0  0  0  0  0  0  0  0  # atno 11005 bound_to 11000
  145.4506  139.1524  143.3920 LP  0  0  0  0  0  0  0  0  0  0  0  0  # atno 17320 bound_to 7965
  146.2782  140.4632  142.8787 LP  0  0  0  0  0  0  0  0  0  0  0  0  # atno 17321 bound_to 7965
  139.5593  144.2196  152.1665 LP  0  0  0  0  0  0  0  0  0  0  0  0  # atno 17342 bound_to 10162
  140.1459  144.5159  150.6716 LP  0  0  0  0  0  0  0  0  0  0  0  0  # atno 17343 bound_to 10162
  156.6509  130.4485  149.5720 LP  0  0  0  0  0  0  0  0  0  0  0  0  # atno 17370 bound_to 10713
  156.2138  130.6695  151.1298 LP  0  0  0  0  0  0  0  0  0  0  0  0  # atno 17371 bound_to 10713
  140.8008  133.8507  155.8725 LP  0  0  0  0  0  0  0  0  0  0  0  0  # atno 17394 bound_to 11000
  140.9594  134.1675  157.4666 LP  0  0  0  0  0  0  0  0  0  0  0  0  # atno 17395 bound_to 11000

$$$$
