AV-unprocessed.smi:109|AV-procd|sdf|1061|dock7
  -GOLD-   2262018133D 1   1.00000     0.00000
 Structure written by MMmdl.
 58 61  0  0  0  0  0  0  0  0  1 V2000
  149.1015  142.7224  154.1508 O   0  0  0  0  0  0  0  0  0  0  0  0
  149.6199  141.4863  154.5927 C   0  0  0  0  0  0  0  0  0  0  0  0
  150.5404  141.7108  155.8048 C   0  0  0  0  0  0  0  0  0  0  0  0
  149.8134  141.6382  157.1695 C   0  0  2  0  0  0  0  0  0  0  0  0
  148.7262  142.6201  157.1896 N   0  0  0  0  0  0  0  0  0  0  0  0
  147.4415  142.2723  157.4278 C   0  0  0  0  0  0  0  0  0  0  0  0
  146.6502  141.7583  156.4509 N   0  0  0  0  0  0  0  0  0  0  0  0
  145.3849  141.4248  156.7205 C   0  0  0  0  0  0  0  0  0  0  0  0
  144.7250  141.5226  157.8764 N   0  0  0  0  0  0  0  0  0  0  0  0
  145.5133  142.0415  158.8615 C   0  0  0  0  0  0  0  0  0  0  0  0
  146.8728  142.4358  158.7174 C   0  0  0  0  0  0  0  0  0  0  0  0
  147.3539  142.9168  159.9280 N   0  0  0  0  0  0  0  0  0  0  0  0
  146.3329  142.8157  160.7361 C   0  0  0  0  0  0  0  0  0  0  0  0
  145.1861  142.2957  160.1781 N   0  0  0  0  0  0  0  0  0  0  0  0
  143.8704  142.0725  160.8487 C   0  0  1  0  0  0  0  0  0  0  0  0
  143.5098  143.2530  161.4912 O   0  0  0  0  0  0  0  0  0  0  0  0
  142.0909  143.4257  161.4749 C   0  0  1  0  0  0  0  0  0  0  0  0
  141.7748  144.8172  160.9004 C   0  0  0  0  0  0  0  0  0  0  0  0
  140.3784  145.0192  160.8544 O   0  0  0  0  0  0  0  0  0  0  0  0
  141.5426  142.2842  160.5957 C   0  0  2  0  0  0  0  0  0  0  0  0
  140.9801  141.2924  161.4395 O   0  0  0  0  0  0  0  0  0  0  0  0
  142.7679  141.7824  159.8364 C   0  0  2  0  0  0  0  0  0  0  0  0
  142.6627  140.4126  159.4964 O   0  0  0  0  0  0  0  0  0  0  0  0
  150.7474  141.8748  158.3909 C   0  0  0  0  0  0  0  0  0  0  0  0
  151.4923  143.2325  158.3370 C   0  0  0  0  0  0  0  0  0  0  0  0
  152.4461  143.4287  159.5268 C   0  0  0  0  0  0  0  0  0  0  0  0
  153.4570  142.2807  159.6316 C   0  0  0  0  0  0  0  0  0  0  0  0
  152.7331  140.9320  159.7182 C   0  0  0  0  0  0  0  0  0  0  0  0
  151.7877  140.7329  158.5234 C   0  0  0  0  0  0  0  0  0  0  0  0
  144.0275  141.2737  161.5754 H   0  0  0  0  0  0  0  0  0  0  0  0
  141.6986  143.3515  162.4910 H   0  0  0  0  0  0  0  0  0  0  0  0
  140.7617  142.6172  159.9111 H   0  0  0  0  0  0  0  0  0  0  0  0
  142.9184  142.3866  158.9413 H   0  0  0  0  0  0  0  0  0  0  0  0
  149.1858  143.3510  154.8514 H   0  0  0  0  0  0  0  0  0  0  0  0
  148.7850  140.8326  154.8445 H   0  0  0  0  0  0  0  0  0  0  0  0
  150.1679  141.0183  153.7745 H   0  0  0  0  0  0  0  0  0  0  0  0
  151.3136  140.9458  155.7564 H   0  0  0  0  0  0  0  0  0  0  0  0
  151.0493  142.6710  155.7091 H   0  0  0  0  0  0  0  0  0  0  0  0
  149.4253  140.6254  157.2722 H   0  0  0  0  0  0  0  0  0  0  0  0
  148.9916  143.5603  156.9334 H   0  0  0  0  0  0  0  0  0  0  0  0
  144.8207  141.0217  155.8925 H   0  0  0  0  0  0  0  0  0  0  0  0
  146.3897  143.1197  161.7713 H   0  0  0  0  0  0  0  0  0  0  0  0
  142.2552  145.6096  161.4725 H   0  0  0  0  0  0  0  0  0  0  0  0
  142.1431  144.8935  159.8769 H   0  0  0  0  0  0  0  0  0  0  0  0
  140.0267  144.8838  161.7210 H   0  0  0  0  0  0  0  0  0  0  0  0
  141.4764  140.4949  161.3388 H   0  0  0  0  0  0  0  0  0  0  0  0
  142.7898  139.8996  160.2797 H   0  0  0  0  0  0  0  0  0  0  0  0
  150.1315  141.8741  159.2918 H   0  0  0  0  0  0  0  0  0  0  0  0
  152.0519  143.3082  157.4037 H   0  0  0  0  0  0  0  0  0  0  0  0
  150.7873  144.0623  158.3468 H   0  0  0  0  0  0  0  0  0  0  0  0
  152.9730  144.3780  159.4268 H   0  0  0  0  0  0  0  0  0  0  0  0
  151.8689  143.4924  160.4501 H   0  0  0  0  0  0  0  0  0  0  0  0
  154.1160  142.2903  158.7625 H   0  0  0  0  0  0  0  0  0  0  0  0
  154.0930  142.4211  160.5060 H   0  0  0  0  0  0  0  0  0  0  0  0
  153.4620  140.1219  159.7537 H   0  0  0  0  0  0  0  0  0  0  0  0
  152.1650  140.8780  160.6477 H   0  0  0  0  0  0  0  0  0  0  0  0
  151.2917  139.7690  158.6377 H   0  0  0  0  0  0  0  0  0  0  0  0
  152.3742  140.6652  157.6061 H   0  0  0  0  0  0  0  0  0  0  0  0
  1  2  1  0  0  0  0
  1 34  1  0  0  0  0
  2  3  1  0  0  0  0
  2 35  1  0  0  0  0
  2 36  1  0  0  0  0
  3  4  1  0  0  0  0
  3 37  1  0  0  0  0
  3 38  1  0  0  0  0
  4  5  1  0  0  0  0
  4 24  1  0  0  0  0
  4 39  1  0  0  0  0
  5  6  1  0  0  0  0
  5 40  1  0  0  0  0
  6 11  1  0  0  0  0
  6  7  2  0  0  0  0
  7  8  1  0  0  0  0
  8  9  2  0  0  0  0
  8 41  1  0  0  0  0
  9 10  1  0  0  0  0
 10 14  1  0  0  0  0
 10 11  2  0  0  0  0
 11 12  1  0  0  0  0
 12 13  2  0  0  0  0
 13 14  1  0  0  0  0
 13 42  1  0  0  0  0
 14 15  1  0  0  0  0
 15 30  1  0  0  0  0
 15 22  1  0  0  0  0
 15 16  1  0  0  0  0
 16 17  1  0  0  0  0
 17 31  1  0  0  0  0
 17 18  1  0  0  0  0
 17 20  1  0  0  0  0
 18 19  1  0  0  0  0
 18 43  1  0  0  0  0
 18 44  1  0  0  0  0
 19 45  1  0  0  0  0
 20 32  1  0  0  0  0
 20 21  1  0  0  0  0
 20 22  1  0  0  0  0
 21 46  1  0  0  0  0
 22 33  1  0  0  0  0
 22 23  1  0  0  0  0
 23 47  1  0  0  0  0
 24 29  1  0  0  0  0
 24 25  1  0  0  0  0
 24 48  1  0  0  0  0
 25 26  1  0  0  0  0
 25 49  1  0  0  0  0
 25 50  1  0  0  0  0
 26 27  1  0  0  0  0
 26 51  1  0  0  0  0
 26 52  1  0  0  0  0
 27 28  1  0  0  0  0
 27 53  1  0  0  0  0
 27 54  1  0  0  0  0
 28 29  1  0  0  0  0
 28 55  1  0  0  0  0
 28 56  1  0  0  0  0
 29 57  1  0  0  0  0
 29 58  1  0  0  0  0
M  END
> <s_m_source_file>
AV-unprocessed.smi

> <i_m_source_file_index>
109

> <i_lp_mmshare_version>
43012

> <i_f3d_flags>
0

> <s_epik_input>
W0NIMl0xW0NIMl1bQ0gyXVtDSDJdW0NIMl1bQ0hdMVtDQEhdKFtDSDJdW0NIMl1bT0hdKVtOSF1jKG5bY0hdbjIpYyhjMjMpbltjSF1uM1tDQEBIXTRPW0NASF0oW0NIMl1bT0hdKVtDQEBIXShbT0hdKVtDQEhdNFtPSF0=

> <s_epik_cmdline>
J2VwaWtfcHl0aG9uJywgJy1waCcsICc3LjAnLCAnLXRuJywgJzgnLCAnLW1hJywgJzIwMCcsICctbWV0YWxfYmluZGluZycsICctaW1hZScsICc8aW5maWxlLm1hZT4nLCAnLW9tYWUnLCAnPG91dGZpbGUubWFlPic=

> <r_lp_tautomer_probability>
1

> <r_epik_Ionization_Penalty>
0.000793976

> <r_epik_Ionization_Penalty_Charging>
0

> <r_epik_Ionization_Penalty_Neutral>
0.000793976

> <r_epik_State_Penalty>
-0

> <r_epik_Charging_Adjusted_Penalty>
0

> <i_epik_Tot_Q>
0

> <i_epik_Tot_abs_Q>
0

> <r_epik_Metal_State_Penalty>
-0

> <b_epik_Metal_Only>
0

> <s_epik_Chemistry_Notes>
This compound contains an acetal/aminal-like group ( X-CH(R)-Y where X, Y are N, S, or O) that may be acid/base labile, releasing an aldehyde.

> <s_lp_Force_Field>
OPLS_2005

> <r_lp_Energy>
56.6401

> <b_lp_Chiralities_Consistent>
1

> <s_lp_Variant>
AV-unprocessed.smi:109-31

> <Gold.Version>
5.8.1

> <Gold.Id.Protein>
6NUR|6NUR_protein|mol2

> <Gold.PLP.Fitness>
51.9239

> <Gold.PLP.PLP>
-46.9084

> <Gold.PLP.part.hbond>
-6.4936

> <Gold.PLP.part.metal>
0.0000

> <Gold.PLP.part.buried>
-7.5803

> <Gold.PLP.part.nonpolar>
-35.2231

> <Gold.PLP.part.repulsive>
0.2875

> <Gold.PLP.ligand.clash>
0.0000

> <Gold.PLP.ligand.torsion>
1.2230

> <Gold.PLP.Chemscore.Hbond>
2.4173

> <Gold.PLP.Chemscore.CHOScore>
0.0000

> <Gold.PLP.Chemscore.Metal>
0.0000

> <Gold.Chemscore.Hbonds>
donor molecule, donor type, donor heavy atom, donor atom, acceptor molecule, acceptor atom, score
      L1  H     1    34       P1  8028  1.00
      L1  H     5    40       P1  8028  0.86
      P1  H  6933  6944       L1    12  0.34

> <Gold.PLP.Chemscore.Internal.Correction>
0.2096

> <Gold.Rescore>
     Score         DG    S(hbond)    S(metal)    S(lipo)     H(rot)  DE(clash)    DE(int)     intcor
      3.31      -9.33       1.87        0.00      98.98       5.47       2.93       3.08       ----

> <Gold.Chemscore.Fitness>
3.3110

> <Gold.Chemscore.DG>
-9.3270

> <Gold.Chemscore.ZeroCoef>
-5.4800

> <Gold.Chemscore.Hbond>
1.8742

> <Gold.Chemscore.Metal>
0.0000

> <Gold.Chemscore.Lipo>
98.9816

> <Gold.Chemscore.Internal_Hbond>
0.0000

> <Gold.Chemscore.DEClash>
2.9321

> <Gold.Chemscore.DEInternal>
3.0840

> <Gold.Chemscore.Rot>
5.4662

> <Gold.Chemscore.Internal.Correction>
   9.000000E+99

> <Gold.Chemscore.Hbonds>
donor molecule, donor type, donor heavy atom, donor atom, acceptor molecule, acceptor atom, score
      L1  H     1    34       P1  8028  0.97
      L1  H     5    40       P1  8028  0.55
      P1  H  6933  6944       L1    12  0.01

> <Gold.Chemscore.Hbond.Weighted>
-6.2597

> <Gold.Chemscore.Metal.Weighted>
-0.0000

> <Gold.Chemscore.Lipo.Weighted>
-11.5808

> <Gold.Chemscore.Internal_Hbond.Weighted>
0.0000

> <Gold.Chemscore.DEClash.Weighted>
2.9321

> <Gold.Chemscore.DEInternal.Weighted>
3.0840

> <Gold.Chemscore.Rot.Weighted>
13.9935

> <Gold.Chemscore.Internal.Correction.Weighted>
   9.000000E+99

> <Gold.Protein.RotatedTorsions>
[ 6907 6896 6895 6894 ] final    4.88 input  -60.11 | X-H torsion
[ 7974 7965 7964 7962 ] final    0.50 input  175.53 | X-H torsion
[ 8008 7997 7996 7995 ] final   79.90 input   59.86 | X-H torsion
[ 10167 10162 10161 10158 ] final -150.50 input  -65.29 | X-H torsion
[ 10718 10713 10712 10709 ] final  -50.27 input   66.30 | X-H torsion
[ 10763 10752 10751 10750 ] final  125.35 input  -60.55 | X-H torsion
[ 11005 11000 10999 10996 ] final  145.14 input  -57.11 | X-H torsion

> <Gold.Protein.ActiveResidues>
 VAL166  LYS551  ARG553  GLY616  TRP617  ASP618  TYR619  PRO620  LYS621  CYS622 
 ASP623  PHE694  ASN695  SER759  ASP760  ASP761  ALA762  ILE779  LEU786  VAL792 
 PHE793  MET794  SER795  GLU796  ALA797  LYS798  CYS799  TRP800  GLU811  SER814 

> <Gold.Protein.RotatedAtoms>
  151.6485  135.1004  160.0155 H   0  0  0  0  0  0  0  0  0  0  0  0  # atno 6907 bound_to 6896
  152.4014  133.6820  159.6328 H   0  0  0  0  0  0  0  0  0  0  0  0  # atno 6908 bound_to 6896
  150.7914  133.8701  159.3297 H   0  0  0  0  0  0  0  0  0  0  0  0  # atno 6909 bound_to 6896
  146.2435  140.1128  142.8343 H   0  0  0  0  0  0  0  0  0  0  0  0  # atno 7974 bound_to 7965
  155.8761  140.3446  155.5855 H   0  0  0  0  0  0  0  0  0  0  0  0  # atno 8008 bound_to 7997
  155.7772  140.0853  157.2097 H   0  0  0  0  0  0  0  0  0  0  0  0  # atno 8009 bound_to 7997
  154.4021  140.1507  156.2998 H   0  0  0  0  0  0  0  0  0  0  0  0  # atno 8010 bound_to 7997
  139.7349  143.8751  152.2546 H   0  0  0  0  0  0  0  0  0  0  0  0  # atno 10167 bound_to 10162
  156.1816  130.4150  149.9499 H   0  0  0  0  0  0  0  0  0  0  0  0  # atno 10718 bound_to 10713
  153.6759  135.3322  155.3166 H   0  0  0  0  0  0  0  0  0  0  0  0  # atno 10763 bound_to 10752
  154.8478  135.4397  154.1656 H   0  0  0  0  0  0  0  0  0  0  0  0  # atno 10764 bound_to 10752
  153.2660  135.6996  153.7606 H   0  0  0  0  0  0  0  0  0  0  0  0  # atno 10765 bound_to 10752
  140.0688  134.9163  157.1311 H   0  0  0  0  0  0  0  0  0  0  0  0  # atno 11005 bound_to 11000
  145.0473  140.8991  143.5017 LP  0  0  0  0  0  0  0  0  0  0  0  0  # atno 17320 bound_to 7965
  145.1219  139.2688  143.5584 LP  0  0  0  0  0  0  0  0  0  0  0  0  # atno 17321 bound_to 7965
  139.8685  144.7081  150.9016 LP  0  0  0  0  0  0  0  0  0  0  0  0  # atno 17342 bound_to 10162
  140.7777  143.3758  151.1566 LP  0  0  0  0  0  0  0  0  0  0  0  0  # atno 17343 bound_to 10162
  156.7268  130.9028  151.3622 LP  0  0  0  0  0  0  0  0  0  0  0  0  # atno 17370 bound_to 10713
  157.6871  130.9197  150.0416 LP  0  0  0  0  0  0  0  0  0  0  0  0  # atno 17371 bound_to 10713
  140.3658  134.2445  155.7182 LP  0  0  0  0  0  0  0  0  0  0  0  0  # atno 17394 bound_to 11000
  141.2004  133.7989  157.0492 LP  0  0  0  0  0  0  0  0  0  0  0  0  # atno 17395 bound_to 11000

$$$$
