AV-unprocessed.smi:1867|AV-procd|sdf|7576|dock10
  -GOLD-   22720 9283D 1   1.00000     0.00000
 Structure written by MMmdl.
 52 55  0  0  0  0  0  0  0  0  4 V2000
  146.1525  140.4017  155.6793 O   0  0  0  0  0  0  0  0  0  0  0  0
  146.8147  139.4471  155.2765 C   0  0  0  0  0  0  0  0  0  0  0  0
  148.1319  139.3820  155.5927 N   0  0  0  0  0  0  0  0  0  0  0  0
  148.9419  140.3341  156.2672 C   0  0  0  0  0  0  0  0  0  0  0  0
  149.9460  139.8504  157.1310 C   0  0  0  0  0  0  0  0  0  0  0  0
  150.7918  140.7588  157.7994 C   0  0  0  0  0  0  0  0  0  0  0  0
  150.6311  142.1488  157.5906 C   0  0  0  0  0  0  0  0  0  0  0  0
  151.4436  143.1122  158.2173 N   0  0  0  0  0  0  0  0  0  0  0  0
  151.2493  144.5354  157.9911 C   0  0  0  0  0  0  0  0  0  0  0  0
  152.2059  145.2146  158.9699 C   0  0  0  0  0  0  0  0  0  0  0  0
  152.2308  144.2506  160.1563 C   0  0  0  0  0  0  0  0  0  0  0  0
  152.0427  142.8676  159.5216 C   0  0  0  0  0  0  0  0  0  0  0  0
  149.6665  142.5673  156.7369 N   0  3  0  0  0  0  0  0  0  0  0  0
  148.8346  141.7319  156.0779 C   0  0  0  0  0  0  0  0  0  0  0  0
  146.2407  138.4448  154.5437 N   0  5  0  0  0  0  0  0  0  0  0  0
  146.7018  137.8360  153.2878 C   0  0  2  0  0  0  0  0  0  0  0  0
  146.5782  138.8105  152.1009 C   0  0  0  0  0  0  0  0  0  0  0  0
  146.1761  137.9411  150.8938 C   0  0  0  0  0  0  0  0  0  0  0  0
  146.0671  136.5650  151.4158 N   0  3  2  0  0  0  0  0  0  0  0  0
  145.1368  135.6478  150.7216 C   0  0  0  0  0  0  0  0  0  0  0  0
  145.2516  134.2407  151.3426 C   0  0  0  0  0  0  0  0  0  0  0  0
  145.0614  134.2711  152.8734 C   0  0  0  0  0  0  0  0  0  0  0  0
  145.9977  135.3041  153.5316 C   0  0  0  0  0  0  0  0  0  0  0  0
  145.7945  136.6773  152.8578 C   0  0  1  0  0  0  0  0  0  0  0  0
  148.5937  138.5198  155.3436 H   0  0  0  0  0  0  0  0  0  0  0  0
  150.0690  138.7881  157.2843 H   0  0  0  0  0  0  0  0  0  0  0  0
  151.5586  140.3769  158.4568 H   0  0  0  0  0  0  0  0  0  0  0  0
  151.4645  144.8134  156.9588 H   0  0  0  0  0  0  0  0  0  0  0  0
  150.2156  144.8027  158.2145 H   0  0  0  0  0  0  0  0  0  0  0  0
  153.2016  145.2814  158.5288 H   0  0  0  0  0  0  0  0  0  0  0  0
  151.8892  146.2214  159.2439 H   0  0  0  0  0  0  0  0  0  0  0  0
  153.1451  144.3248  160.7456 H   0  0  0  0  0  0  0  0  0  0  0  0
  151.3898  144.4672  160.8164 H   0  0  0  0  0  0  0  0  0  0  0  0
  151.4186  142.2320  160.1509 H   0  0  0  0  0  0  0  0  0  0  0  0
  153.0042  142.3730  159.3804 H   0  0  0  0  0  0  0  0  0  0  0  0
  148.1305  142.2159  155.4175 H   0  0  0  0  0  0  0  0  0  0  0  0
  147.7298  137.4729  153.3434 H   0  0  0  0  0  0  0  0  0  0  0  0
  145.8042  139.5594  152.2784 H   0  0  0  0  0  0  0  0  0  0  0  0
  147.5130  139.3447  151.9277 H   0  0  0  0  0  0  0  0  0  0  0  0
  145.2168  138.2745  150.4935 H   0  0  0  0  0  0  0  0  0  0  0  0
  146.9100  137.9844  150.0880 H   0  0  0  0  0  0  0  0  0  0  0  0
  144.1152  136.0222  150.8059 H   0  0  0  0  0  0  0  0  0  0  0  0
  145.3823  135.6119  149.6598 H   0  0  0  0  0  0  0  0  0  0  0  0
  144.5206  133.5711  150.8886 H   0  0  0  0  0  0  0  0  0  0  0  0
  146.2334  133.8252  151.1129 H   0  0  0  0  0  0  0  0  0  0  0  0
  144.0256  134.5227  153.1044 H   0  0  0  0  0  0  0  0  0  0  0  0
  145.2400  133.2811  153.2937 H   0  0  0  0  0  0  0  0  0  0  0  0
  145.7866  135.3607  154.6011 H   0  0  0  0  0  0  0  0  0  0  0  0
  147.0319  134.9680  153.4331 H   0  0  0  0  0  0  0  0  0  0  0  0
  144.7520  136.9819  152.9804 H   0  0  0  0  0  0  0  0  0  0  0  0
  146.9918  136.1655  151.3434 H   0  0  0  0  0  0  0  0  0  0  0  0
  149.5618  143.5694  156.5788 H   0  0  0  0  0  0  0  0  0  0  0  0
  1  2  2  0  0  0  0
  2  3  1  0  0  0  0
  2 15  1  0  0  0  0
  3  4  1  0  0  0  0
  3 25  1  0  0  0  0
  4 14  1  0  0  0  0
  4  5  2  0  0  0  0
  5  6  1  0  0  0  0
  5 26  1  0  0  0  0
  6  7  2  0  0  0  0
  6 27  1  0  0  0  0
  7  8  1  0  0  0  0
  7 13  1  0  0  0  0
  8 12  1  0  0  0  0
  8  9  1  0  0  0  0
  9 10  1  0  0  0  0
  9 28  1  0  0  0  0
  9 29  1  0  0  0  0
 10 11  1  0  0  0  0
 10 30  1  0  0  0  0
 10 31  1  0  0  0  0
 11 12  1  0  0  0  0
 11 32  1  0  0  0  0
 11 33  1  0  0  0  0
 12 34  1  0  0  0  0
 12 35  1  0  0  0  0
 13 14  2  0  0  0  0
 13 52  1  0  0  0  0
 14 36  1  0  0  0  0
 15 16  1  0  0  0  0
 16 24  1  0  0  0  0
 16 17  1  0  0  0  0
 16 37  1  0  0  0  0
 17 18  1  0  0  0  0
 17 38  1  0  0  0  0
 17 39  1  0  0  0  0
 18 19  1  0  0  0  0
 18 40  1  0  0  0  0
 18 41  1  0  0  0  0
 19 24  1  0  0  0  0
 19 20  1  0  0  0  0
 19 51  1  0  0  0  0
 20 21  1  0  0  0  0
 20 42  1  0  0  0  0
 20 43  1  0  0  0  0
 21 22  1  0  0  0  0
 21 44  1  0  0  0  0
 21 45  1  0  0  0  0
 22 23  1  0  0  0  0
 22 46  1  0  0  0  0
 22 47  1  0  0  0  0
 23 24  1  0  0  0  0
 23 48  1  0  0  0  0
 23 49  1  0  0  0  0
 24 50  1  0  0  0  0
M  CHG  1  13   1
M  CHG  1  15  -1
M  CHG  1  19   1
M  END
> <s_m_source_file>
AV-unprocessed.smi

> <i_m_source_file_index>
1867

> <i_lp_mmshare_version>
43012

> <i_f3d_flags>
0

> <s_epik_input>
W0NIMl0xW0NIMl1bQ0gyXVtDSDJdW0NASF0oTjEyKVtDQEBIXShbQ0gyXVtDSDJdMilbTkhdQyg9TylbTkhdYzNbY0hdW2NIXWMobltjSF0zKU40W0NIMl1bQ0gyXVtDSDJdW0NIMl00

> <s_epik_cmdline>
J2VwaWtfcHl0aG9uJywgJy1waCcsICc3LjAnLCAnLXRuJywgJzgnLCAnLW1hJywgJzIwMCcsICctbWV0YWxfYmluZGluZycsICctaW1hZScsICc8aW5maWxlLm1hZT4nLCAnLW9tYWUnLCAnPG91dGZpbGUubWFlPic=

> <r_lp_tautomer_probability>
0.999994

> <r_epik_Ionization_Penalty>
8.56137

> <r_epik_Ionization_Penalty_Charging>
8.56136

> <r_epik_Ionization_Penalty_Neutral>
3.91889e-06

> <r_epik_State_Penalty>
8.16255

> <r_epik_Charging_Adjusted_Penalty>
16.7239

> <i_epik_Tot_Q>
1

> <i_epik_Tot_abs_Q>
3

> <r_epik_Metal_State_Penalty>
4.14279

> <b_epik_Metal_Only>
1

> <s_lp_Force_Field>
OPLS_2005

> <r_lp_Energy>
66.0689

> <b_lp_Chiralities_Consistent>
1

> <s_lp_Variant>
AV-unprocessed.smi:1867-17

> <Gold.Version>
5.8.1

> <Gold.Id.Protein>
6NUR|6NUR_protein|mol2

> <Gold.PLP.Fitness>
48.1500

> <Gold.PLP.PLP>
-38.0611

> <Gold.PLP.part.hbond>
-2.0000

> <Gold.PLP.part.metal>
0.0000

> <Gold.PLP.part.buried>
0.7633

> <Gold.PLP.part.nonpolar>
-37.7478

> <Gold.PLP.part.repulsive>
0.2339

> <Gold.PLP.ligand.clash>
0.0000

> <Gold.PLP.ligand.torsion>
0.9235

> <Gold.PLP.Chemscore.Hbond>
3.9040

> <Gold.PLP.Chemscore.CHOScore>
0.0000

> <Gold.PLP.Chemscore.Metal>
0.0000

> <Gold.Chemscore.Hbonds>
donor molecule, donor type, donor heavy atom, donor atom, acceptor molecule, acceptor atom, score
      L1  H    13    52       P1  8028  1.89
      L1  H    19    51       P1  7948  1.98

> <Gold.PLP.Chemscore.Internal.Correction>
0.2239

> <Gold.Rescore>
     Score         DG    S(hbond)    S(metal)    S(lipo)     H(rot)  DE(clash)    DE(int)     intcor
     18.34     -21.68       1.84        0.00     107.82       1.00       1.47       1.88       ----

> <Gold.Chemscore.Fitness>
18.3384

> <Gold.Chemscore.DG>
-21.6841

> <Gold.Chemscore.ZeroCoef>
-5.4800

> <Gold.Chemscore.Hbond>
1.8412

> <Gold.Chemscore.Metal>
0.0000

> <Gold.Chemscore.Lipo>
107.8152

> <Gold.Chemscore.Internal_Hbond>
0.0000

> <Gold.Chemscore.DEClash>
1.4703

> <Gold.Chemscore.DEInternal>
1.8754

> <Gold.Chemscore.Rot>
1.0000

> <Gold.Chemscore.Internal.Correction>
   9.000000E+99

> <Gold.Chemscore.Hbonds>
donor molecule, donor type, donor heavy atom, donor atom, acceptor molecule, acceptor atom, score
      L1  H    13    52       P1  8028  0.90
      L1  H    19    51       P1  7948  0.92

> <Gold.Chemscore.Hbond.Weighted>
-6.1497

> <Gold.Chemscore.Metal.Weighted>
-0.0000

> <Gold.Chemscore.Lipo.Weighted>
-12.6144

> <Gold.Chemscore.Internal_Hbond.Weighted>
0.0000

> <Gold.Chemscore.DEClash.Weighted>
1.4703

> <Gold.Chemscore.DEInternal.Weighted>
1.8754

> <Gold.Chemscore.Rot.Weighted>
2.5600

> <Gold.Chemscore.Internal.Correction.Weighted>
   9.000000E+99

> <Gold.Protein.RotatedTorsions>
[ 6907 6896 6895 6894 ] final  -25.47 input  -60.11 | X-H torsion
[ 7974 7965 7964 7962 ] final  -95.56 input  175.53 | X-H torsion
[ 8008 7997 7996 7995 ] final -158.86 input   59.86 | X-H torsion
[ 10167 10162 10161 10158 ] final   56.59 input  -65.29 | X-H torsion
[ 10718 10713 10712 10709 ] final -129.28 input   66.30 | X-H torsion
[ 10763 10752 10751 10750 ] final  148.35 input  -60.55 | X-H torsion
[ 11005 11000 10999 10996 ] final    4.35 input  -57.11 | X-H torsion

> <Gold.Protein.ActiveResidues>
 VAL166  LYS551  ARG553  GLY616  TRP617  ASP618  TYR619  PRO620  LYS621  CYS622 
 ASP623  PHE694  ASN695  SER759  ASP760  ASP761  ALA762  ILE779  LEU786  VAL792 
 PHE793  MET794  SER795  GLU796  ALA797  LYS798  CYS799  TRP800  GLU811  SER814 

> <Gold.Protein.RotatedAtoms>
  151.1748  135.0334  159.8766 H   0  0  0  0  0  0  0  0  0  0  0  0  # atno 6907 bound_to 6896
  152.5447  134.1130  159.8376 H   0  0  0  0  0  0  0  0  0  0  0  0  # atno 6908 bound_to 6896
  151.1240  133.5037  159.2633 H   0  0  0  0  0  0  0  0  0  0  0  0  # atno 6909 bound_to 6896
  145.3584  140.9488  143.2514 H   0  0  0  0  0  0  0  0  0  0  0  0  # atno 7974 bound_to 7965
  155.7540  140.0830  157.2188 H   0  0  0  0  0  0  0  0  0  0  0  0  # atno 8008 bound_to 7997
  154.4009  140.1555  156.2812 H   0  0  0  0  0  0  0  0  0  0  0  0  # atno 8009 bound_to 7997
  155.8903  140.3415  155.5954 H   0  0  0  0  0  0  0  0  0  0  0  0  # atno 8010 bound_to 7997
  140.2071  144.3927  150.6504 H   0  0  0  0  0  0  0  0  0  0  0  0  # atno 10167 bound_to 10162
  156.2031  130.6870  151.0563 H   0  0  0  0  0  0  0  0  0  0  0  0  # atno 10718 bound_to 10713
  154.0534  135.2880  155.3337 H   0  0  0  0  0  0  0  0  0  0  0  0  # atno 10763 bound_to 10752
  154.6855  135.5247  153.8323 H   0  0  0  0  0  0  0  0  0  0  0  0  # atno 10764 bound_to 10752
  153.0552  135.6592  154.0728 H   0  0  0  0  0  0  0  0  0  0  0  0  # atno 10765 bound_to 10752
  140.5829  133.9996  155.8055 H   0  0  0  0  0  0  0  0  0  0  0  0  # atno 11005 bound_to 11000
  144.8665  139.5101  143.6788 LP  0  0  0  0  0  0  0  0  0  0  0  0  # atno 17320 bound_to 7965
  146.2938  139.7216  142.9142 LP  0  0  0  0  0  0  0  0  0  0  0  0  # atno 17321 bound_to 7965
  140.6349  143.2193  151.6415 LP  0  0  0  0  0  0  0  0  0  0  0  0  # atno 17342 bound_to 10162
  139.5194  144.3254  152.0874 LP  0  0  0  0  0  0  0  0  0  0  0  0  # atno 17343 bound_to 10162
  157.6997  131.0780  150.6859 LP  0  0  0  0  0  0  0  0  0  0  0  0  # atno 17370 bound_to 10713
  156.6916  130.4597  149.5598 LP  0  0  0  0  0  0  0  0  0  0  0  0  # atno 17371 bound_to 10713
  141.0984  133.9806  157.3120 LP  0  0  0  0  0  0  0  0  0  0  0  0  # atno 17394 bound_to 11000
  139.9309  135.0200  156.8396 LP  0  0  0  0  0  0  0  0  0  0  0  0  # atno 17395 bound_to 11000

$$$$
