AV-unprocessed.smi:1209|AV-procd|sdf|5070|dock7
  -GOLD-   22720 4113D 1   1.00000     0.00000
 Structure written by MMmdl.
 48 50  0  0  0  0  0  0  0  0  1 V2000
  145.2072  142.0228  162.3234 C   0  0  0  0  0  0  0  0  0  0  0  0
  145.3133  141.7818  160.8568 C   0  0  0  0  0  0  0  0  0  0  0  0
  145.5056  142.6104  159.7884 C   0  0  0  0  0  0  0  0  0  0  0  0
  145.5068  141.7270  158.6740 C   0  0  0  0  0  0  0  0  0  0  0  0
  145.6772  142.0635  157.2164 C   0  0  0  0  0  0  0  0  0  0  0  0
  146.7673  141.3294  156.5645 N   0  0  0  0  0  0  0  0  0  0  0  0
  148.0064  141.4273  157.3314 C   0  0  0  0  0  0  0  0  0  0  0  0
  146.9949  141.7863  155.1919 C   0  0  0  0  0  0  0  0  0  0  0  0
  148.1490  141.0875  154.4403 C   0  0  1  0  0  0  0  0  0  0  0  0
  147.8793  141.1174  153.0508 O   0  0  0  0  0  0  0  0  0  0  0  0
  149.5027  141.7801  154.6940 C   0  0  0  0  0  0  0  0  0  0  0  0
  150.3493  141.0321  155.6067 N   0  0  0  0  0  0  0  0  0  0  0  0
  150.6843  139.7308  155.5155 C   0  0  0  0  0  0  0  0  0  0  0  0
  151.4766  139.2380  156.4631 N   0  0  0  0  0  0  0  0  0  0  0  0
  151.6813  140.3505  157.2617 C   0  0  0  0  0  0  0  0  0  0  0  0
  152.4387  140.5032  158.4436 C   0  0  0  0  0  0  0  0  0  0  0  0
  152.5095  141.7511  159.1032 C   0  0  0  0  0  0  0  0  0  0  0  0
  153.3369  141.8707  160.3709 C   0  0  0  0  0  0  0  0  0  0  0  0
  151.8151  142.8716  158.5801 C   0  0  0  0  0  0  0  0  0  0  0  0
  151.8786  144.2228  159.2701 C   0  0  0  0  0  0  0  0  0  0  0  0
  151.0528  142.7359  157.4009 C   0  0  0  0  0  0  0  0  0  0  0  0
  150.9897  141.4891  156.7538 C   0  0  0  0  0  0  0  0  0  0  0  0
  145.3255  140.4696  159.0446 N   0  0  0  0  0  0  0  0  0  0  0  0
  145.2019  140.4950  160.4383 O   0  0  0  0  0  0  0  0  0  0  0  0
  145.4615  143.0543  162.5678 H   0  0  0  0  0  0  0  0  0  0  0  0
  145.8841  141.3687  162.8733 H   0  0  0  0  0  0  0  0  0  0  0  0
  144.1923  141.8327  162.6731 H   0  0  0  0  0  0  0  0  0  0  0  0
  145.6290  143.6829  159.8009 H   0  0  0  0  0  0  0  0  0  0  0  0
  144.7348  141.8478  156.7141 H   0  0  0  0  0  0  0  0  0  0  0  0
  145.8353  143.1364  157.0998 H   0  0  0  0  0  0  0  0  0  0  0  0
  148.8084  140.8701  156.8460 H   0  0  0  0  0  0  0  0  0  0  0  0
  147.8884  141.0096  158.3314 H   0  0  0  0  0  0  0  0  0  0  0  0
  148.3276  142.4650  157.4308 H   0  0  0  0  0  0  0  0  0  0  0  0
  146.0713  141.7314  154.6128 H   0  0  0  0  0  0  0  0  0  0  0  0
  147.2389  142.8487  155.2381 H   0  0  0  0  0  0  0  0  0  0  0  0
  148.2247  140.0471  154.7605 H   0  0  0  0  0  0  0  0  0  0  0  0
  148.6787  140.9270  152.5846 H   0  0  0  0  0  0  0  0  0  0  0  0
  150.0409  141.9273  153.7568 H   0  0  0  0  0  0  0  0  0  0  0  0
  149.3429  142.7718  155.1191 H   0  0  0  0  0  0  0  0  0  0  0  0
  150.3255  139.1105  154.7071 H   0  0  0  0  0  0  0  0  0  0  0  0
  152.9682  139.6497  158.8409 H   0  0  0  0  0  0  0  0  0  0  0  0
  154.1439  142.5905  160.2328 H   0  0  0  0  0  0  0  0  0  0  0  0
  153.7838  140.9153  160.6469 H   0  0  0  0  0  0  0  0  0  0  0  0
  152.7159  142.2014  161.2036 H   0  0  0  0  0  0  0  0  0  0  0  0
  151.2968  144.9720  158.7326 H   0  0  0  0  0  0  0  0  0  0  0  0
  152.9086  144.5756  159.3249 H   0  0  0  0  0  0  0  0  0  0  0  0
  151.4806  144.1534  160.2826 H   0  0  0  0  0  0  0  0  0  0  0  0
  150.5204  143.5813  156.9911 H   0  0  0  0  0  0  0  0  0  0  0  0
  1  2  1  0  0  0  0
  1 25  1  0  0  0  0
  1 26  1  0  0  0  0
  1 27  1  0  0  0  0
  2 24  1  0  0  0  0
  2  3  2  0  0  0  0
  3  4  1  0  0  0  0
  3 28  1  0  0  0  0
  4  5  1  0  0  0  0
  4 23  2  0  0  0  0
  5  6  1  0  0  0  0
  5 29  1  0  0  0  0
  5 30  1  0  0  0  0
  6  7  1  0  0  0  0
  6  8  1  0  0  0  0
  7 31  1  0  0  0  0
  7 32  1  0  0  0  0
  7 33  1  0  0  0  0
  8  9  1  0  0  0  0
  8 34  1  0  0  0  0
  8 35  1  0  0  0  0
  9 10  1  0  0  0  0
  9 11  1  0  0  0  0
  9 36  1  0  0  0  0
 10 37  1  0  0  0  0
 11 12  1  0  0  0  0
 11 38  1  0  0  0  0
 11 39  1  0  0  0  0
 12 22  1  0  0  0  0
 12 13  1  0  0  0  0
 13 14  2  0  0  0  0
 13 40  1  0  0  0  0
 14 15  1  0  0  0  0
 15 22  2  0  0  0  0
 15 16  1  0  0  0  0
 16 17  2  0  0  0  0
 16 41  1  0  0  0  0
 17 18  1  0  0  0  0
 17 19  1  0  0  0  0
 18 42  1  0  0  0  0
 18 43  1  0  0  0  0
 18 44  1  0  0  0  0
 19 20  1  0  0  0  0
 19 21  2  0  0  0  0
 20 45  1  0  0  0  0
 20 46  1  0  0  0  0
 20 47  1  0  0  0  0
 21 22  1  0  0  0  0
 21 48  1  0  0  0  0
 23 24  1  0  0  0  0
M  END
> <s_m_source_file>
AV-unprocessed.smi

> <i_m_source_file_index>
1209

> <i_lp_mmshare_version>
43012

> <i_f3d_flags>
0

> <s_epik_input>
W0NIM11jMVtjSF1jKG5vMSlbQ0gyXU4oW0NIM10pW0NIMl1bQ0BIXShbT0hdKVtDSDJdbihbY0hdbjIpYyhjMjMpW2NIXWMoW0NIM10pYyhbY0hdMylbQ0gzXQ==

> <s_epik_cmdline>
J2VwaWtfcHl0aG9uJywgJy1waCcsICc3LjAnLCAnLXRuJywgJzgnLCAnLW1hJywgJzIwMCcsICctbWV0YWxfYmluZGluZycsICctaW1hZScsICc8aW5maWxlLm1hZT4nLCAnLW9tYWUnLCAnPG91dGZpbGUubWFlPic=

> <r_epik_Ionization_Penalty>
0.103258

> <r_epik_Ionization_Penalty_Charging>
0

> <r_epik_Ionization_Penalty_Neutral>
0.103258

> <r_epik_State_Penalty>
0.0919675

> <r_epik_Charging_Adjusted_Penalty>
0.0919675

> <i_epik_Tot_Q>
0

> <i_epik_Tot_abs_Q>
0

> <r_epik_Metal_State_Penalty>
0.0812522

> <b_epik_Metal_Only>
0

> <s_lp_Force_Field>
OPLS_2005

> <r_lp_Energy>
16.8498

> <b_lp_Chiralities_Consistent>
1

> <s_lp_Variant>
AV-unprocessed.smi:1209-2

> <Gold.Version>
5.8.1

> <Gold.Id.Protein>
6NUR|6NUR_protein|mol2

> <Gold.PLP.Fitness>
49.5342

> <Gold.PLP.PLP>
-47.8042

> <Gold.PLP.part.hbond>
-2.6774

> <Gold.PLP.part.metal>
0.0000

> <Gold.PLP.part.buried>
-4.3127

> <Gold.PLP.part.nonpolar>
-39.9922

> <Gold.PLP.part.repulsive>
0.0949

> <Gold.PLP.ligand.clash>
0.0000

> <Gold.PLP.ligand.torsion>
1.0955

> <Gold.PLP.Chemscore.Hbond>
1.2760

> <Gold.PLP.Chemscore.CHOScore>
0.0000

> <Gold.PLP.Chemscore.Metal>
0.0000

> <Gold.Chemscore.Hbonds>
donor molecule, donor type, donor heavy atom, donor atom, acceptor molecule, acceptor atom, score
      L1  H    10    37       P1  7957  1.00

> <Gold.PLP.Chemscore.Internal.Correction>
0.0928

> <Gold.Rescore>
     Score         DG    S(hbond)    S(metal)    S(lipo)     H(rot)  DE(clash)    DE(int)     intcor
     14.08     -15.30       0.93        0.00     110.78       2.45       0.00       1.22       ----

> <Gold.Chemscore.Fitness>
14.0763

> <Gold.Chemscore.DG>
-15.2954

> <Gold.Chemscore.ZeroCoef>
-5.4800

> <Gold.Chemscore.Hbond>
0.9331

> <Gold.Chemscore.Metal>
0.0000

> <Gold.Chemscore.Lipo>
110.7792

> <Gold.Chemscore.Internal_Hbond>
0.0000

> <Gold.Chemscore.DEClash>
0.0000

> <Gold.Chemscore.DEInternal>
1.2191

> <Gold.Chemscore.Rot>
2.4462

> <Gold.Chemscore.Internal.Correction>
   9.000000E+99

> <Gold.Chemscore.Hbonds>
donor molecule, donor type, donor heavy atom, donor atom, acceptor molecule, acceptor atom, score
      L1  H    10    37       P1  7957  0.94

> <Gold.Chemscore.Hbond.Weighted>
-3.1165

> <Gold.Chemscore.Metal.Weighted>
-0.0000

> <Gold.Chemscore.Lipo.Weighted>
-12.9612

> <Gold.Chemscore.Internal_Hbond.Weighted>
0.0000

> <Gold.Chemscore.DEClash.Weighted>
0.0000

> <Gold.Chemscore.DEInternal.Weighted>
1.2191

> <Gold.Chemscore.Rot.Weighted>
6.2623

> <Gold.Chemscore.Internal.Correction.Weighted>
   9.000000E+99

> <Gold.Protein.RotatedTorsions>
[ 6907 6896 6895 6894 ] final   50.94 input  -60.11 | X-H torsion
[ 7974 7965 7964 7962 ] final  -36.50 input  175.53 | X-H torsion
[ 8008 7997 7996 7995 ] final  -80.96 input   59.86 | X-H torsion
[ 10167 10162 10161 10158 ] final  148.48 input  -65.29 | X-H torsion
[ 10718 10713 10712 10709 ] final  -64.19 input   66.30 | X-H torsion
[ 10763 10752 10751 10750 ] final -129.73 input  -60.55 | X-H torsion
[ 11005 11000 10999 10996 ] final -132.95 input  -57.11 | X-H torsion

> <Gold.Protein.ActiveResidues>
 VAL166  LYS551  ARG553  GLY616  TRP617  ASP618  TYR619  PRO620  LYS621  CYS622 
 ASP623  PHE694  ASN695  SER759  ASP760  ASP761  ALA762  ILE779  LEU786  VAL792 
 PHE793  MET794  SER795  GLU796  ALA797  LYS798  CYS799  TRP800  GLU811  SER814 

> <Gold.Protein.RotatedAtoms>
  152.3073  134.7540  160.0344 H   0  0  0  0  0  0  0  0  0  0  0  0  # atno 6907 bound_to 6896
  151.8033  133.3367  159.3541 H   0  0  0  0  0  0  0  0  0  0  0  0  # atno 6908 bound_to 6896
  150.7302  134.5663  159.5912 H   0  0  0  0  0  0  0  0  0  0  0  0  # atno 6909 bound_to 6896
  146.0656  140.6286  142.8976 H   0  0  0  0  0  0  0  0  0  0  0  0  # atno 7974 bound_to 7965
  154.5935  140.0655  156.9271 H   0  0  0  0  0  0  0  0  0  0  0  0  # atno 8008 bound_to 7997
  155.2254  140.3333  155.4292 H   0  0  0  0  0  0  0  0  0  0  0  0  # atno 8009 bound_to 7997
  156.2272  140.1824  156.7318 H   0  0  0  0  0  0  0  0  0  0  0  0  # atno 8010 bound_to 7997
  139.4874  144.5676  151.7116 H   0  0  0  0  0  0  0  0  0  0  0  0  # atno 10167 bound_to 10162
  156.0744  130.4230  150.1384 H   0  0  0  0  0  0  0  0  0  0  0  0  # atno 10718 bound_to 10713
  154.8757  135.3886  154.3967 H   0  0  0  0  0  0  0  0  0  0  0  0  # atno 10763 bound_to 10752
  153.4696  135.7030  153.6006 H   0  0  0  0  0  0  0  0  0  0  0  0  # atno 10764 bound_to 10752
  153.4469  135.3843  155.2229 H   0  0  0  0  0  0  0  0  0  0  0  0  # atno 10765 bound_to 10752
  140.9125  134.1550  157.4378 H   0  0  0  0  0  0  0  0  0  0  0  0  # atno 11005 bound_to 11000
  144.7200  140.4342  143.7015 LP  0  0  0  0  0  0  0  0  0  0  0  0  # atno 17320 bound_to 7965
  145.6483  139.1561  143.2876 LP  0  0  0  0  0  0  0  0  0  0  0  0  # atno 17321 bound_to 7965
  140.5257  144.0809  150.6037 LP  0  0  0  0  0  0  0  0  0  0  0  0  # atno 17342 bound_to 10162
  140.3782  143.2817  152.0200 LP  0  0  0  0  0  0  0  0  0  0  0  0  # atno 17343 bound_to 10162
  156.9428  130.9750  151.3513 LP  0  0  0  0  0  0  0  0  0  0  0  0  # atno 17370 bound_to 10713
  157.5832  130.8391  149.8553 LP  0  0  0  0  0  0  0  0  0  0  0  0  # atno 17371 bound_to 10713
  139.8760  134.9941  156.5677 LP  0  0  0  0  0  0  0  0  0  0  0  0  # atno 17394 bound_to 11000
  140.8092  133.8443  155.8795 LP  0  0  0  0  0  0  0  0  0  0  0  0  # atno 17395 bound_to 11000

$$$$
