AV-unprocessed.smi:1238|AV-procd|sdf|5184|dock8
  -GOLD-   22720 4263D 1   1.00000     0.00000
 Structure written by MMmdl.
 42 43  0  0  0  0  0  0  0  0  2 V2000
  146.7533  138.6327  152.9295 C   0  0  0  0  0  0  0  0  0  0  0  0
  147.3100  138.6848  154.2312 O   0  0  0  0  0  0  0  0  0  0  0  0
  147.1430  139.9536  154.8409 C   0  0  0  0  0  0  0  0  0  0  0  0
  147.9266  139.9792  156.1642 C   0  0  0  0  0  0  0  0  0  0  0  0
  149.1230  139.1068  156.1089 N   0  0  0  0  0  0  0  0  0  0  0  0
  149.2742  138.0280  157.0330 C   0  0  0  0  0  0  0  0  0  0  0  0
  147.9603  137.8916  158.3052 S   0  0  0  0  0  0  0  0  0  0  0  0
  148.4467  136.3728  159.1730 C   0  0  0  0  0  0  0  0  0  0  0  0
  147.9018  136.3199  160.5969 C   0  0  0  0  0  0  0  0  0  0  0  0
  147.8371  137.3468  161.2724 O   0  0  0  0  0  0  0  0  0  0  0  0
  147.5121  135.1157  161.0427 N   0  0  0  0  0  0  0  0  0  0  0  0
  146.9764  134.8486  162.3744 C   0  0  0  0  0  0  0  0  0  0  0  0
  146.2577  133.4849  162.4380 C   0  0  0  0  0  0  0  0  0  0  0  0
  144.9055  133.7487  163.1022 C   0  0  0  0  0  0  0  0  0  0  0  0
  144.5733  135.1874  162.7197 C   0  0  0  0  0  0  0  0  0  0  0  0
  145.9232  135.9047  162.7572 C   0  0  0  0  0  0  0  0  0  0  0  0
  150.2939  137.2300  156.9585 N   0  0  0  0  0  0  0  0  0  0  0  0
  151.2951  137.3831  156.0004 C   0  0  0  0  0  0  0  0  0  0  0  0
  152.1820  136.5053  156.0797 O   0  5  0  0  0  0  0  0  0  0  0  0
  151.1934  138.4490  155.1218 C   0  0  0  0  0  0  0  0  0  0  0  0
  150.0757  139.3833  155.1663 C   0  0  0  0  0  0  0  0  0  0  0  0
  150.0039  140.3458  154.4002 O   0  0  0  0  0  0  0  0  0  0  0  0
  146.9062  137.6408  152.5047 H   0  0  0  0  0  0  0  0  0  0  0  0
  147.2287  139.3584  152.2683 H   0  0  0  0  0  0  0  0  0  0  0  0
  145.6806  138.8287  152.9506 H   0  0  0  0  0  0  0  0  0  0  0  0
  147.5077  140.7362  154.1737 H   0  0  0  0  0  0  0  0  0  0  0  0
  146.0833  140.1428  155.0174 H   0  0  0  0  0  0  0  0  0  0  0  0
  148.1625  141.0011  156.4570 H   0  0  0  0  0  0  0  0  0  0  0  0
  147.2584  139.6620  156.9668 H   0  0  0  0  0  0  0  0  0  0  0  0
  149.5349  136.3049  159.2019 H   0  0  0  0  0  0  0  0  0  0  0  0
  148.0853  135.5093  158.6130 H   0  0  0  0  0  0  0  0  0  0  0  0
  147.6035  134.3270  160.4186 H   0  0  0  0  0  0  0  0  0  0  0  0
  147.7881  134.8812  163.1036 H   0  0  0  0  0  0  0  0  0  0  0  0
  146.0878  133.0922  161.4339 H   0  0  0  0  0  0  0  0  0  0  0  0
  146.8398  132.7389  162.9800 H   0  0  0  0  0  0  0  0  0  0  0  0
  144.1382  133.0409  162.7872 H   0  0  0  0  0  0  0  0  0  0  0  0
  145.0059  133.6715  164.1856 H   0  0  0  0  0  0  0  0  0  0  0  0
  144.1699  135.2141  161.7066 H   0  0  0  0  0  0  0  0  0  0  0  0
  143.8380  135.6408  163.3848 H   0  0  0  0  0  0  0  0  0  0  0  0
  146.1161  136.2505  163.7737 H   0  0  0  0  0  0  0  0  0  0  0  0
  145.9364  136.7850  162.1130 H   0  0  0  0  0  0  0  0  0  0  0  0
  151.9580  138.5954  154.3729 H   0  0  0  0  0  0  0  0  0  0  0  0
  1  2  1  0  0  0  0
  1 23  1  0  0  0  0
  1 24  1  0  0  0  0
  1 25  1  0  0  0  0
  2  3  1  0  0  0  0
  3  4  1  0  0  0  0
  3 26  1  0  0  0  0
  3 27  1  0  0  0  0
  4 28  1  0  0  0  0
  4 29  1  0  0  0  0
  4  5  1  0  0  0  0
  5  6  1  0  0  0  0
  5 21  1  0  0  0  0
  6 17  2  0  0  0  0
  6  7  1  0  0  0  0
  7  8  1  0  0  0  0
  8  9  1  0  0  0  0
  8 30  1  0  0  0  0
  8 31  1  0  0  0  0
  9 10  2  0  0  0  0
  9 11  1  0  0  0  0
 11 12  1  0  0  0  0
 11 32  1  0  0  0  0
 12 16  1  0  0  0  0
 12 13  1  0  0  0  0
 12 33  1  0  0  0  0
 13 14  1  0  0  0  0
 13 34  1  0  0  0  0
 13 35  1  0  0  0  0
 14 15  1  0  0  0  0
 14 36  1  0  0  0  0
 14 37  1  0  0  0  0
 15 16  1  0  0  0  0
 15 38  1  0  0  0  0
 15 39  1  0  0  0  0
 16 40  1  0  0  0  0
 16 41  1  0  0  0  0
 17 18  1  0  0  0  0
 18 20  2  0  0  0  0
 18 19  1  0  0  0  0
 20 21  1  0  0  0  0
 20 42  1  0  0  0  0
 21 22  2  0  0  0  0
M  CHG  1  19  -1
M  END
> <s_m_source_file>
AV-unprocessed.smi

> <i_m_source_file_index>
1238

> <i_lp_mmshare_version>
43012

> <i_f3d_flags>
0

> <s_epik_input>
W0NIM11PW0NIMl1bQ0gyXW4xYyhuYyhbT0hdKVtjSF1jMT1PKVNbQ0gyXUMoPU8pW05IXVtDSF0yW0NIMl1bQ0gyXVtDSDJdW0NIMl0y

> <s_epik_cmdline>
J2VwaWtfcHl0aG9uJywgJy1waCcsICc3LjAnLCAnLXRuJywgJzgnLCAnLW1hJywgJzIwMCcsICctbWV0YWxfYmluZGluZycsICctaW1hZScsICc8aW5maWxlLm1hZT4nLCAnLW9tYWUnLCAnPG91dGZpbGUubWFlPic=

> <r_lp_tautomer_probability>
1

> <r_epik_Ionization_Penalty>
0.0116372

> <r_epik_Ionization_Penalty_Charging>
3.186e-07

> <r_epik_Ionization_Penalty_Neutral>
0.0116369

> <r_epik_State_Penalty>
0.000414464

> <r_epik_Charging_Adjusted_Penalty>
0.000414782

> <i_epik_Tot_Q>
-1

> <i_epik_Tot_abs_Q>
1

> <r_epik_Metal_State_Penalty>
-0

> <b_epik_Metal_Only>
0

> <s_lp_Force_Field>
OPLS_2005

> <r_lp_Energy>
27.578

> <b_lp_Chiralities_Consistent>
1

> <s_lp_Variant>
AV-unprocessed.smi:1238-1

> <Gold.Version>
5.8.1

> <Gold.Id.Protein>
6NUR|6NUR_protein|mol2

> <Gold.PLP.Fitness>
44.9563

> <Gold.PLP.PLP>
-32.6522

> <Gold.PLP.part.hbond>
-3.7572

> <Gold.PLP.part.metal>
0.0000

> <Gold.PLP.part.buried>
-3.7408

> <Gold.PLP.part.nonpolar>
-24.8001

> <Gold.PLP.part.repulsive>
0.3510

> <Gold.PLP.ligand.clash>
0.0000

> <Gold.PLP.ligand.torsion>
0.8689

> <Gold.PLP.Chemscore.Hbond>
4.6480

> <Gold.PLP.Chemscore.CHOScore>
0.0000

> <Gold.PLP.Chemscore.Metal>
0.0000

> <Gold.Chemscore.Hbonds>
donor molecule, donor type, donor heavy atom, donor atom, acceptor molecule, acceptor atom, score
      P1  H  6931  6943       L1    10  0.93
      P1  H  6934  6947       L1    10  0.74
      P1  H  7989  7998       L1    22  0.91
      P1  H 10752 10765       L1    19  2.00

> <Gold.PLP.Chemscore.Internal.Correction>
0.0977

> <Gold.Rescore>
     Score         DG    S(hbond)    S(metal)    S(lipo)     H(rot)  DE(clash)    DE(int)     intcor
     17.63     -18.18       3.69        0.00      58.25       2.51       0.07       0.48       ----

> <Gold.Chemscore.Fitness>
17.6349

> <Gold.Chemscore.DG>
-18.1845

> <Gold.Chemscore.ZeroCoef>
-5.4800

> <Gold.Chemscore.Hbond>
3.6889

> <Gold.Chemscore.Metal>
0.0000

> <Gold.Chemscore.Lipo>
58.2518

> <Gold.Chemscore.Internal_Hbond>
0.0000

> <Gold.Chemscore.DEClash>
0.0676

> <Gold.Chemscore.DEInternal>
0.4820

> <Gold.Chemscore.Rot>
2.5124

> <Gold.Chemscore.Internal.Correction>
   9.000000E+99

> <Gold.Chemscore.Hbonds>
donor molecule, donor type, donor heavy atom, donor atom, acceptor molecule, acceptor atom, score
      P1  H  6931  6943       L1    10  0.89
      P1  H  6934  6947       L1    10  0.74
      P1  H  7989  7998       L1    22  0.85
      P1  H 10752 10765       L1    19  1.00

> <Gold.Chemscore.Hbond.Weighted>
-12.3208

> <Gold.Chemscore.Metal.Weighted>
-0.0000

> <Gold.Chemscore.Lipo.Weighted>
-6.8155

> <Gold.Chemscore.Internal_Hbond.Weighted>
0.0000

> <Gold.Chemscore.DEClash.Weighted>
0.0676

> <Gold.Chemscore.DEInternal.Weighted>
0.4820

> <Gold.Chemscore.Rot.Weighted>
6.4318

> <Gold.Chemscore.Internal.Correction.Weighted>
   9.000000E+99

> <Gold.Protein.RotatedTorsions>
[ 6907 6896 6895 6894 ] final   45.87 input  -60.11 | X-H torsion
[ 7974 7965 7964 7962 ] final   88.69 input  175.53 | X-H torsion
[ 8008 7997 7996 7995 ] final   60.75 input   59.86 | X-H torsion
[ 10167 10162 10161 10158 ] final  129.68 input  -65.29 | X-H torsion
[ 10718 10713 10712 10709 ] final  136.89 input   66.30 | X-H torsion
[ 10763 10752 10751 10750 ] final -155.52 input  -60.55 | X-H torsion
[ 11005 11000 10999 10996 ] final  -40.44 input  -57.11 | X-H torsion

> <Gold.Protein.ActiveResidues>
 VAL166  LYS551  ARG553  GLY616  TRP617  ASP618  TYR619  PRO620  LYS621  CYS622 
 ASP623  PHE694  ASN695  SER759  ASP760  ASP761  ALA762  ILE779  LEU786  VAL792 
 PHE793  MET794  SER795  GLU796  ALA797  LYS798  CYS799  TRP800  GLU811  SER814 

> <Gold.Protein.RotatedAtoms>
  152.2497  134.8145  160.0447 H   0  0  0  0  0  0  0  0  0  0  0  0  # atno 6907 bound_to 6896
  151.8830  133.3494  159.3781 H   0  0  0  0  0  0  0  0  0  0  0  0  # atno 6908 bound_to 6896
  150.7080  134.4926  159.5567 H   0  0  0  0  0  0  0  0  0  0  0  0  # atno 6909 bound_to 6896
  145.5423  139.2289  143.2558 H   0  0  0  0  0  0  0  0  0  0  0  0  # atno 7974 bound_to 7965
  155.5873  140.3492  155.4556 H   0  0  0  0  0  0  0  0  0  0  0  0  # atno 8008 bound_to 7997
  156.0328  140.1278  157.0265 H   0  0  0  0  0  0  0  0  0  0  0  0  # atno 8009 bound_to 7997
  154.4359  140.1040  156.6110 H   0  0  0  0  0  0  0  0  0  0  0  0  # atno 8010 bound_to 7997
  139.5466  144.6778  151.4454 H   0  0  0  0  0  0  0  0  0  0  0  0  # atno 10167 bound_to 10162
  157.4419  131.1058  151.0134 H   0  0  0  0  0  0  0  0  0  0  0  0  # atno 10718 bound_to 10713
  154.7781  135.3166  154.8049 H   0  0  0  0  0  0  0  0  0  0  0  0  # atno 10763 bound_to 10752
  153.8768  135.6839  153.4774 H   0  0  0  0  0  0  0  0  0  0  0  0  # atno 10764 bound_to 10752
  153.1409  135.4739  154.9431 H   0  0  0  0  0  0  0  0  0  0  0  0  # atno 10765 bound_to 10752
  141.0175  133.6878  156.2322 H   0  0  0  0  0  0  0  0  0  0  0  0  # atno 11005 bound_to 11000
  146.1972  140.6244  142.9118 LP  0  0  0  0  0  0  0  0  0  0  0  0  # atno 17320 bound_to 7965
  144.7570  140.5332  143.6762 LP  0  0  0  0  0  0  0  0  0  0  0  0  # atno 17321 bound_to 7965
  140.6716  143.8281  150.7006 LP  0  0  0  0  0  0  0  0  0  0  0  0  # atno 17342 bound_to 10162
  140.1707  143.4197  152.2003 LP  0  0  0  0  0  0  0  0  0  0  0  0  # atno 17343 bound_to 10162
  157.0994  130.5975  149.5457 LP  0  0  0  0  0  0  0  0  0  0  0  0  # atno 17370 bound_to 10713
  155.9952  130.5018  150.7449 LP  0  0  0  0  0  0  0  0  0  0  0  0  # atno 17371 bound_to 10713
  140.6630  134.4948  157.5584 LP  0  0  0  0  0  0  0  0  0  0  0  0  # atno 17394 bound_to 11000
  139.9126  134.8313  156.1476 LP  0  0  0  0  0  0  0  0  0  0  0  0  # atno 17395 bound_to 11000

$$$$
