AV-unprocessed.smi:8|AV-procd|sdf|47|dock8
  -GOLD-   2262015163D 1   1.00000     0.00000
 Structure written by MMmdl.
 33 34  0  0  0  0  0  0  0  0  2 V2000
  151.0547  137.3160  154.5921 C   0  0  0  0  0  0  0  0  0  0  0  0
  150.1249  136.5408  155.5362 C   0  0  0  0  0  0  0  0  0  0  0  0
  150.1708  135.0974  155.2687 N   0  0  0  0  0  0  0  0  0  0  0  0
  149.2642  134.5840  154.3272 C   0  0  0  0  0  0  0  0  0  0  0  0
  149.2103  133.2736  154.0121 C   0  0  0  0  0  0  0  0  0  0  0  0
  148.2234  132.7276  152.9885 C   0  0  0  0  0  0  0  0  0  0  0  0
  147.2915  133.7322  152.4877 N   0  0  0  0  0  0  0  0  0  0  0  0
  146.1704  133.3005  151.7625 C   0  0  0  0  0  0  0  0  0  0  0  0
  145.9916  131.9725  151.5630 N   0  0  0  0  0  0  0  0  0  0  0  0
  144.9177  131.5969  150.8653 C   0  0  0  0  0  0  0  0  0  0  0  0
  143.9868  132.3962  150.3408 N   0  0  0  0  0  0  0  0  0  0  0  0
  144.1495  133.7223  150.5329 C   0  0  0  0  0  0  0  0  0  0  0  0
  145.2459  134.2431  151.2530 C   0  0  0  0  0  0  0  0  0  0  0  0
  145.4168  135.7383  151.4483 C   0  0  0  0  0  0  0  0  0  0  0  0
  150.1648  132.3818  154.6799 C   0  0  0  0  0  0  0  0  0  0  0  0
  150.1632  131.1786  154.4204 O   0  0  0  0  0  0  0  0  0  0  0  0
  151.0323  132.9315  155.5788 N   0  5  0  0  0  0  0  0  0  0  0  0
  151.0587  134.2642  155.8860 C   0  0  0  0  0  0  0  0  0  0  0  0
  151.8556  134.7371  156.6969 O   0  0  0  0  0  0  0  0  0  0  0  0
  151.0028  138.3865  154.7912 H   0  0  0  0  0  0  0  0  0  0  0  0
  150.7794  137.1575  153.5490 H   0  0  0  0  0  0  0  0  0  0  0  0
  152.0926  137.0057  154.7159 H   0  0  0  0  0  0  0  0  0  0  0  0
  150.3898  136.7502  156.5738 H   0  0  0  0  0  0  0  0  0  0  0  0
  149.1040  136.9092  155.4246 H   0  0  0  0  0  0  0  0  0  0  0  0
  148.6103  135.3190  153.8808 H   0  0  0  0  0  0  0  0  0  0  0  0
  148.7602  132.2652  152.1594 H   0  0  0  0  0  0  0  0  0  0  0  0
  147.6466  131.9291  153.4557 H   0  0  0  0  0  0  0  0  0  0  0  0
  147.7190  134.5854  152.1567 H   0  0  0  0  0  0  0  0  0  0  0  0
  144.7878  130.5359  150.7111 H   0  0  0  0  0  0  0  0  0  0  0  0
  143.3989  134.3710  150.1060 H   0  0  0  0  0  0  0  0  0  0  0  0
  144.6196  136.2941  150.9540 H   0  0  0  0  0  0  0  0  0  0  0  0
  146.3693  136.0691  151.0322 H   0  0  0  0  0  0  0  0  0  0  0  0
  145.3977  135.9874  152.5096 H   0  0  0  0  0  0  0  0  0  0  0  0
  1  2  1  0  0  0  0
  1 20  1  0  0  0  0
  1 21  1  0  0  0  0
  1 22  1  0  0  0  0
  2  3  1  0  0  0  0
  2 23  1  0  0  0  0
  2 24  1  0  0  0  0
  3 18  1  0  0  0  0
  3  4  1  0  0  0  0
  4  5  2  0  0  0  0
  4 25  1  0  0  0  0
  5  6  1  0  0  0  0
  5 15  1  0  0  0  0
  6  7  1  0  0  0  0
  6 26  1  0  0  0  0
  6 27  1  0  0  0  0
  7  8  1  0  0  0  0
  7 28  1  0  0  0  0
  8 13  1  0  0  0  0
  8  9  2  0  0  0  0
  9 10  1  0  0  0  0
 10 11  2  0  0  0  0
 10 29  1  0  0  0  0
 11 12  1  0  0  0  0
 12 13  2  0  0  0  0
 12 30  1  0  0  0  0
 13 14  1  0  0  0  0
 14 31  1  0  0  0  0
 14 32  1  0  0  0  0
 14 33  1  0  0  0  0
 15 16  2  0  0  0  0
 15 17  1  0  0  0  0
 17 18  1  0  0  0  0
 18 19  2  0  0  0  0
M  CHG  1  17  -1
M  END
> <s_m_source_file>
AV-unprocessed.smi

> <i_m_source_file_index>
8

> <i_lp_mmshare_version>
43012

> <i_f3d_flags>
0

> <s_epik_input>
W0NIM11bQ0gyXW4xW2NIXWMoYyg9TylbbkhdYzE9TylbQ0gyXVtOSF1jMm5bY0hdbltjSF1jMltDSDNd

> <s_epik_cmdline>
J2VwaWtfcHl0aG9uJywgJy1waCcsICc3LjAnLCAnLXRuJywgJzgnLCAnLW1hJywgJzIwMCcsICctbWV0YWxfYmluZGluZycsICctaW1hZScsICc8aW5maWxlLm1hZT4nLCAnLW9tYWUnLCAnPG91dGZpbGUubWFlPic=

> <r_lp_tautomer_probability>
0.999537

> <r_epik_Ionization_Penalty>
4.00162

> <r_epik_Ionization_Penalty_Charging>
4.85554e-07

> <r_epik_Ionization_Penalty_Neutral>
4.00162

> <r_epik_State_Penalty>
4.01059

> <r_epik_Charging_Adjusted_Penalty>
4.01059

> <i_epik_Tot_Q>
-1

> <i_epik_Tot_abs_Q>
1

> <r_epik_Metal_State_Penalty>
0.642438

> <b_epik_Metal_Only>
1

> <s_lp_Force_Field>
OPLS_2005

> <r_lp_Energy>
12.8082

> <b_lp_Chiralities_Consistent>
1

> <s_lp_Variant>
AV-unprocessed.smi:8-3

> <Gold.Version>
5.8.1

> <Gold.Id.Protein>
6NUR|6NUR_protein|mol2

> <Gold.PLP.Fitness>
41.1925

> <Gold.PLP.PLP>
-31.7358

> <Gold.PLP.part.hbond>
-1.9269

> <Gold.PLP.part.metal>
0.0000

> <Gold.PLP.part.buried>
-3.7085

> <Gold.PLP.part.nonpolar>
-26.5630

> <Gold.PLP.part.repulsive>
0.3234

> <Gold.PLP.ligand.clash>
0.0000

> <Gold.PLP.ligand.torsion>
0.4373

> <Gold.PLP.Chemscore.Hbond>
1.4796

> <Gold.PLP.Chemscore.CHOScore>
1.9623

> <Gold.PLP.Chemscore.Metal>
0.0000

> <Gold.Chemscore.Hbonds>
donor molecule, donor type, donor heavy atom, donor atom, acceptor molecule, acceptor atom, score
      L1  H     7    28       P1  7948  1.00
      P1  H 10752 10764       L1    19  0.50
      L1  C     4    25       P1  7948  0.85
      L1  C    12    30       P1 10186  1.00

> <Gold.PLP.Chemscore.Internal.Correction>
0.0058

> <Gold.Rescore>
     Score         DG    S(hbond)    S(metal)    S(lipo)     H(rot)  DE(clash)    DE(int)     intcor
      8.06      -8.55       0.96        0.00      44.62       2.09       0.02       0.47       ----

> <Gold.Chemscore.Fitness>
8.0607

> <Gold.Chemscore.DG>
-8.5541

> <Gold.Chemscore.ZeroCoef>
-5.4800

> <Gold.Chemscore.Hbond>
0.9573

> <Gold.Chemscore.Metal>
0.0000

> <Gold.Chemscore.Lipo>
44.6236

> <Gold.Chemscore.Internal_Hbond>
0.0000

> <Gold.Chemscore.DEClash>
0.0205

> <Gold.Chemscore.DEInternal>
0.4729

> <Gold.Chemscore.Rot>
2.0876

> <Gold.Chemscore.Internal.Correction>
   9.000000E+99

> <Gold.Chemscore.Hbonds>
donor molecule, donor type, donor heavy atom, donor atom, acceptor molecule, acceptor atom, score
      L1  H     7    28       P1  7948  0.52
      P1  H 10752 10764       L1    19  0.08

> <Gold.Chemscore.Hbond.Weighted>
-3.1973

> <Gold.Chemscore.Metal.Weighted>
-0.0000

> <Gold.Chemscore.Lipo.Weighted>
-5.2210

> <Gold.Chemscore.Internal_Hbond.Weighted>
0.0000

> <Gold.Chemscore.DEClash.Weighted>
0.0205

> <Gold.Chemscore.DEInternal.Weighted>
0.4729

> <Gold.Chemscore.Rot.Weighted>
5.3442

> <Gold.Chemscore.Internal.Correction.Weighted>
   9.000000E+99

> <Gold.Protein.RotatedTorsions>
[ 6907 6896 6895 6894 ] final   48.65 input  -60.11 | X-H torsion
[ 7974 7965 7964 7962 ] final -155.71 input  175.53 | X-H torsion
[ 8008 7997 7996 7995 ] final  152.49 input   59.86 | X-H torsion
[ 10167 10162 10161 10158 ] final  129.94 input  -65.29 | X-H torsion
[ 10718 10713 10712 10709 ] final   81.14 input   66.30 | X-H torsion
[ 10763 10752 10751 10750 ] final  -12.07 input  -60.55 | X-H torsion
[ 11005 11000 10999 10996 ] final -159.88 input  -57.11 | X-H torsion

> <Gold.Protein.ActiveResidues>
 VAL166  LYS551  ARG553  GLY616  TRP617  ASP618  TYR619  PRO620  LYS621  CYS622 
 ASP623  PHE694  ASN695  SER759  ASP760  ASP761  ALA762  ILE779  LEU786  VAL792 
 PHE793  MET794  SER795  GLU796  ALA797  LYS798  CYS799  TRP800  GLU811  SER814 

> <Gold.Protein.RotatedAtoms>
  152.2819  134.7819  160.0394 H   0  0  0  0  0  0  0  0  0  0  0  0  # atno 6907 bound_to 6896
  151.8396  133.3416  159.3647 H   0  0  0  0  0  0  0  0  0  0  0  0  # atno 6908 bound_to 6896
  150.7193  134.5333  159.5755 H   0  0  0  0  0  0  0  0  0  0  0  0  # atno 6909 bound_to 6896
  144.7627  140.4212  143.5964 H   0  0  0  0  0  0  0  0  0  0  0  0  # atno 7974 bound_to 7965
  156.2626  140.2019  156.6341 H   0  0  0  0  0  0  0  0  0  0  0  0  # atno 8008 bound_to 7997
  154.6660  140.0555  157.0138 H   0  0  0  0  0  0  0  0  0  0  0  0  # atno 8009 bound_to 7997
  155.1206  140.3224  155.4501 H   0  0  0  0  0  0  0  0  0  0  0  0  # atno 8010 bound_to 7997
  139.5453  144.6768  151.4492 H   0  0  0  0  0  0  0  0  0  0  0  0  # atno 10167 bound_to 10162
  157.6825  130.9991  150.2183 H   0  0  0  0  0  0  0  0  0  0  0  0  # atno 10718 bound_to 10713
  153.4930  135.7017  153.5873 H   0  0  0  0  0  0  0  0  0  0  0  0  # atno 10763 bound_to 10752
  153.4037  135.3865  155.2005 H   0  0  0  0  0  0  0  0  0  0  0  0  # atno 10764 bound_to 10752
  154.8715  135.3888  154.4393 H   0  0  0  0  0  0  0  0  0  0  0  0  # atno 10765 bound_to 10752
  140.6377  134.4584  157.5232 H   0  0  0  0  0  0  0  0  0  0  0  0  # atno 11005 bound_to 11000
  145.6567  139.1574  143.2831 LP  0  0  0  0  0  0  0  0  0  0  0  0  # atno 17320 bound_to 7965
  146.1706  140.6651  142.9235 LP  0  0  0  0  0  0  0  0  0  0  0  0  # atno 17321 bound_to 7965
  140.6699  143.8316  150.6987 LP  0  0  0  0  0  0  0  0  0  0  0  0  # atno 17342 bound_to 10162
  140.1737  143.4173  152.1983 LP  0  0  0  0  0  0  0  0  0  0  0  0  # atno 17343 bound_to 10162
  156.2840  130.3737  149.7907 LP  0  0  0  0  0  0  0  0  0  0  0  0  # atno 17370 bound_to 10713
  156.5587  130.8374  151.3322 LP  0  0  0  0  0  0  0  0  0  0  0  0  # atno 17371 bound_to 10713
  139.9092  134.8382  156.1591 LP  0  0  0  0  0  0  0  0  0  0  0  0  # atno 17394 bound_to 11000
  141.0630  133.6833  156.1989 LP  0  0  0  0  0  0  0  0  0  0  0  0  # atno 17395 bound_to 11000

$$$$
