AV-unprocessed.smi:1849|AV-procd|sdf|7521|dock10
  -GOLD-   22720 9233D 1   1.00000     0.00000
 Structure written by MMmdl.
 40 41  0  0  0  0  0  0  0  0  1 V2000
  146.7965  142.0096  153.8210 C   0  0  0  0  0  0  0  0  0  0  0  0
  145.7591  142.9611  154.1706 N   0  0  0  0  0  0  0  0  0  0  0  0
  145.4116  144.0933  153.4457 C   0  0  0  0  0  0  0  0  0  0  0  0
  144.3952  144.7071  154.1371 C   0  0  0  0  0  0  0  0  0  0  0  0
  144.1057  143.9719  155.2816 N   0  0  0  0  0  0  0  0  0  0  0  0
  144.9436  142.9402  155.2426 C   0  0  0  0  0  0  0  0  0  0  0  0
  145.0075  141.8806  156.2975 C   0  0  0  0  0  0  0  0  0  0  0  0
  145.5877  142.4064  157.6204 C   0  0  0  0  0  0  0  0  0  0  0  0
  146.9738  142.8312  157.4671 N   0  0  0  0  0  0  0  0  0  0  0  0
  147.8351  143.0089  158.4786 C   0  0  0  0  0  0  0  0  0  0  0  0
  147.5523  142.8314  159.6640 O   0  0  0  0  0  0  0  0  0  0  0  0
  149.0384  143.4073  158.0430 N   0  0  0  0  0  0  0  0  0  0  0  0
  150.1914  143.6890  158.8930 C   0  0  0  0  0  0  0  0  0  0  0  0
  149.8074  144.6613  160.0282 C   0  0  0  0  0  0  0  0  0  0  0  0
  151.0272  145.0359  160.8856 C   0  0  0  0  0  0  0  0  0  0  0  0
  152.1597  145.6147  160.0232 C   0  0  0  0  0  0  0  0  0  0  0  0
  152.5501  144.6433  158.8982 C   0  0  0  0  0  0  0  0  0  0  0  0
  151.3323  144.2715  158.0370 C   0  0  0  0  0  0  0  0  0  0  0  0
  147.3686  142.3734  152.9672 H   0  0  0  0  0  0  0  0  0  0  0  0
  146.3454  141.0516  153.5620 H   0  0  0  0  0  0  0  0  0  0  0  0
  147.4739  141.8710  154.6640 H   0  0  0  0  0  0  0  0  0  0  0  0
  145.9055  144.3634  152.5241 H   0  0  0  0  0  0  0  0  0  0  0  0
  143.8560  145.6130  153.9026 H   0  0  0  0  0  0  0  0  0  0  0  0
  143.9994  141.4986  156.4634 H   0  0  0  0  0  0  0  0  0  0  0  0
  145.5926  141.0381  155.9277 H   0  0  0  0  0  0  0  0  0  0  0  0
  144.9864  143.2335  158.0013 H   0  0  0  0  0  0  0  0  0  0  0  0
  145.5526  141.6234  158.3784 H   0  0  0  0  0  0  0  0  0  0  0  0
  147.2975  143.0034  156.5265 H   0  0  0  0  0  0  0  0  0  0  0  0
  149.1684  143.5250  157.0489 H   0  0  0  0  0  0  0  0  0  0  0  0
  150.5432  142.7542  159.3340 H   0  0  0  0  0  0  0  0  0  0  0  0
  149.3702  145.5675  159.6066 H   0  0  0  0  0  0  0  0  0  0  0  0
  149.0405  144.2164  160.6633 H   0  0  0  0  0  0  0  0  0  0  0  0
  150.7368  145.7566  161.6506 H   0  0  0  0  0  0  0  0  0  0  0  0
  151.3864  144.1521  161.4140 H   0  0  0  0  0  0  0  0  0  0  0  0
  151.8424  146.5653  159.5922 H   0  0  0  0  0  0  0  0  0  0  0  0
  153.0277  145.8316  160.6464 H   0  0  0  0  0  0  0  0  0  0  0  0
  153.3246  145.0893  158.2734 H   0  0  0  0  0  0  0  0  0  0  0  0
  152.9829  143.7395  159.3292 H   0  0  0  0  0  0  0  0  0  0  0  0
  151.6303  143.5535  157.2719 H   0  0  0  0  0  0  0  0  0  0  0  0
  150.9821  145.1593  157.5081 H   0  0  0  0  0  0  0  0  0  0  0  0
  1  2  1  0  0  0  0
  1 19  1  0  0  0  0
  1 20  1  0  0  0  0
  1 21  1  0  0  0  0
  2  6  1  0  0  0  0
  2  3  1  0  0  0  0
  3  4  2  0  0  0  0
  3 22  1  0  0  0  0
  4  5  1  0  0  0  0
  4 23  1  0  0  0  0
  5  6  2  0  0  0  0
  6  7  1  0  0  0  0
  7  8  1  0  0  0  0
  7 24  1  0  0  0  0
  7 25  1  0  0  0  0
  8  9  1  0  0  0  0
  8 26  1  0  0  0  0
  8 27  1  0  0  0  0
  9 10  1  0  0  0  0
  9 28  1  0  0  0  0
 10 11  2  0  0  0  0
 10 12  1  0  0  0  0
 12 13  1  0  0  0  0
 12 29  1  0  0  0  0
 13 18  1  0  0  0  0
 13 14  1  0  0  0  0
 13 30  1  0  0  0  0
 14 15  1  0  0  0  0
 14 31  1  0  0  0  0
 14 32  1  0  0  0  0
 15 16  1  0  0  0  0
 15 33  1  0  0  0  0
 15 34  1  0  0  0  0
 16 17  1  0  0  0  0
 16 35  1  0  0  0  0
 16 36  1  0  0  0  0
 17 18  1  0  0  0  0
 17 37  1  0  0  0  0
 17 38  1  0  0  0  0
 18 39  1  0  0  0  0
 18 40  1  0  0  0  0
M  END
> <s_m_source_file>
AV-unprocessed.smi

> <i_m_source_file_index>
1849

> <i_lp_mmshare_version>
43012

> <i_f3d_flags>
0

> <s_epik_input>
W0NIM11uMVtjSF1bY0hdbmMxW0NIMl1bQ0gyXVtOSF1DKD1PKVtOSF1bQ0hdMltDSDJdW0NIMl1bQ0gyXVtDSDJdW0NIMl0y

> <s_epik_cmdline>
J2VwaWtfcHl0aG9uJywgJy1waCcsICc3LjAnLCAnLXRuJywgJzgnLCAnLW1hJywgJzIwMCcsICctbWV0YWxfYmluZGluZycsICctaW1hZScsICc8aW5maWxlLm1hZT4nLCAnLW9tYWUnLCAnPG91dGZpbGUubWFlPic=

> <r_lp_tautomer_probability>
1

> <r_epik_Ionization_Penalty>
1.48237

> <r_epik_Ionization_Penalty_Charging>
1.48231

> <r_epik_Ionization_Penalty_Neutral>
5.84917e-05

> <r_epik_State_Penalty>
1.57104

> <r_epik_Charging_Adjusted_Penalty>
3.05335

> <i_epik_Tot_Q>
0

> <i_epik_Tot_abs_Q>
0

> <r_epik_Metal_State_Penalty>
0.437242

> <b_epik_Metal_Only>
0

> <s_lp_Force_Field>
OPLS_2005

> <r_lp_Energy>
3.77176

> <b_lp_Chiralities_Consistent>
1

> <s_lp_Variant>
AV-unprocessed.smi:1849-2

> <Gold.Version>
5.8.1

> <Gold.Id.Protein>
6NUR|6NUR_protein|mol2

> <Gold.PLP.Fitness>
41.1637

> <Gold.PLP.PLP>
-36.6364

> <Gold.PLP.part.hbond>
-4.6889

> <Gold.PLP.part.metal>
0.0000

> <Gold.PLP.part.buried>
-2.3269

> <Gold.PLP.part.nonpolar>
-30.4066

> <Gold.PLP.part.repulsive>
0.2733

> <Gold.PLP.ligand.clash>
0.0000

> <Gold.PLP.ligand.torsion>
0.2889

> <Gold.PLP.Chemscore.Hbond>
1.6983

> <Gold.PLP.Chemscore.CHOScore>
0.0000

> <Gold.PLP.Chemscore.Metal>
0.0000

> <Gold.Chemscore.Hbonds>
donor molecule, donor type, donor heavy atom, donor atom, acceptor molecule, acceptor atom, score
      L1  H    12    29       P1  8028  0.83
      P1  H  6933  6944       L1    11  0.68
      P1  H  6934  6946       L1    11  0.19

> <Gold.PLP.Chemscore.Internal.Correction>
0.0101

> <Gold.Rescore>
     Score         DG    S(hbond)    S(metal)    S(lipo)     H(rot)  DE(clash)    DE(int)     intcor
     14.96     -17.04       1.66        0.00      87.78       1.66       0.52       1.56       ----

> <Gold.Chemscore.Fitness>
14.9571

> <Gold.Chemscore.DG>
-17.0363

> <Gold.Chemscore.ZeroCoef>
-5.4800

> <Gold.Chemscore.Hbond>
1.6553

> <Gold.Chemscore.Metal>
0.0000

> <Gold.Chemscore.Lipo>
87.7843

> <Gold.Chemscore.Internal_Hbond>
0.0000

> <Gold.Chemscore.DEClash>
0.5237

> <Gold.Chemscore.DEInternal>
1.5554

> <Gold.Chemscore.Rot>
1.6575

> <Gold.Chemscore.Internal.Correction>
   9.000000E+99

> <Gold.Chemscore.Hbonds>
donor molecule, donor type, donor heavy atom, donor atom, acceptor molecule, acceptor atom, score
      L1  H    12    29       P1  8028  0.61
      P1  H  6933  6944       L1    11  0.65
      P1  H  6934  6946       L1    11  0.19

> <Gold.Chemscore.Hbond.Weighted>
-5.5287

> <Gold.Chemscore.Metal.Weighted>
-0.0000

> <Gold.Chemscore.Lipo.Weighted>
-10.2708

> <Gold.Chemscore.Internal_Hbond.Weighted>
0.0000

> <Gold.Chemscore.DEClash.Weighted>
0.5237

> <Gold.Chemscore.DEInternal.Weighted>
1.5554

> <Gold.Chemscore.Rot.Weighted>
4.2432

> <Gold.Chemscore.Internal.Correction.Weighted>
   9.000000E+99

> <Gold.Protein.RotatedTorsions>
[ 6907 6896 6895 6894 ] final   86.85 input  -60.11 | X-H torsion
[ 7974 7965 7964 7962 ] final   60.05 input  175.53 | X-H torsion
[ 8008 7997 7996 7995 ] final  -99.41 input   59.86 | X-H torsion
[ 10167 10162 10161 10158 ] final   59.40 input  -65.29 | X-H torsion
[ 10718 10713 10712 10709 ] final  138.88 input   66.30 | X-H torsion
[ 10763 10752 10751 10750 ] final  172.27 input  -60.55 | X-H torsion
[ 11005 11000 10999 10996 ] final   44.54 input  -57.11 | X-H torsion

> <Gold.Protein.ActiveResidues>
 VAL166  LYS551  ARG553  GLY616  TRP617  ASP618  TYR619  PRO620  LYS621  CYS622 
 ASP623  PHE694  ASN695  SER759  ASP760  ASP761  ALA762  ILE779  LEU786  VAL792 
 PHE793  MET794  SER795  GLU796  ALA797  LYS798  CYS799  TRP800  GLU811  SER814 

> <Gold.Protein.RotatedAtoms>
  152.5401  134.2367  159.8845 H   0  0  0  0  0  0  0  0  0  0  0  0  # atno 6907 bound_to 6896
  151.2336  133.4430  159.2612 H   0  0  0  0  0  0  0  0  0  0  0  0  # atno 6908 bound_to 6896
  151.0692  134.9801  159.8356 H   0  0  0  0  0  0  0  0  0  0  0  0  # atno 6909 bound_to 6896
  145.9004  139.3577  143.0596 H   0  0  0  0  0  0  0  0  0  0  0  0  # atno 7974 bound_to 7965
  154.8144  140.0448  157.1366 H   0  0  0  0  0  0  0  0  0  0  0  0  # atno 8008 bound_to 7997
  154.9331  140.3042  155.5138 H   0  0  0  0  0  0  0  0  0  0  0  0  # atno 8009 bound_to 7997
  156.2974  140.2319  156.4393 H   0  0  0  0  0  0  0  0  0  0  0  0  # atno 8010 bound_to 7997
  140.1768  144.4222  150.6634 H   0  0  0  0  0  0  0  0  0  0  0  0  # atno 10167 bound_to 10162
  157.4205  131.1038  151.0359 H   0  0  0  0  0  0  0  0  0  0  0  0  # atno 10718 bound_to 10713
  154.4237  135.2758  155.1958 H   0  0  0  0  0  0  0  0  0  0  0  0  # atno 10763 bound_to 10752
  154.3893  135.6070  153.5838 H   0  0  0  0  0  0  0  0  0  0  0  0  # atno 10764 bound_to 10752
  152.9834  135.5899  154.4537 H   0  0  0  0  0  0  0  0  0  0  0  0  # atno 10765 bound_to 10752
  140.1542  134.4423  155.8361 H   0  0  0  0  0  0  0  0  0  0  0  0  # atno 11005 bound_to 11000
  145.8798  140.9370  143.0607 LP  0  0  0  0  0  0  0  0  0  0  0  0  # atno 17320 bound_to 7965
  144.6735  140.0765  143.7471 LP  0  0  0  0  0  0  0  0  0  0  0  0  # atno 17321 bound_to 7965
  140.6546  143.2234  151.5999 LP  0  0  0  0  0  0  0  0  0  0  0  0  # atno 17342 bound_to 10162
  139.5313  144.2907  152.1154 LP  0  0  0  0  0  0  0  0  0  0  0  0  # atno 17343 bound_to 10162
  157.1291  130.6094  149.5524 LP  0  0  0  0  0  0  0  0  0  0  0  0  # atno 17370 bound_to 10713
  155.9879  130.4920  150.7146 LP  0  0  0  0  0  0  0  0  0  0  0  0  # atno 17371 bound_to 10713
  141.2202  133.6885  156.7477 LP  0  0  0  0  0  0  0  0  0  0  0  0  # atno 17394 bound_to 11000
  140.2567  134.8498  157.3720 LP  0  0  0  0  0  0  0  0  0  0  0  0  # atno 17395 bound_to 11000

$$$$
