AV-unprocessed.smi:2709|AV-procd|sdf|10463|dock3
  -GOLD-   2272014503D 1   1.00000     0.00000
 Structure written by MMmdl.
 40 42  0  0  0  0  0  0  0  0  1 V2000
  142.5906  137.3442  152.9197 C   0  0  0  0  0  0  0  0  0  0  0  0
  143.5870  136.9196  153.8361 O   0  0  0  0  0  0  0  0  0  0  0  0
  144.5971  136.1097  153.2496 C   0  0  1  0  0  0  0  0  0  0  0  0
  144.0361  134.7847  152.7148 C   0  0  0  0  0  0  0  0  0  0  0  0
  144.9303  134.4441  151.5286 C   0  0  0  0  0  0  0  0  0  0  0  0
  145.2050  135.7987  150.8781 C   0  0  0  0  0  0  0  0  0  0  0  0
  145.2143  136.8262  152.0284 C   0  0  2  0  0  0  0  0  0  0  0  0
  146.5724  137.2755  152.3269 N   0  0  0  0  0  0  0  0  0  0  0  0
  146.8923  138.2281  153.2135 C   0  0  0  0  0  0  0  0  0  0  0  0
  146.0599  138.8399  153.8824 O   0  0  0  0  0  0  0  0  0  0  0  0
  148.2228  138.4051  153.2756 N   0  0  0  0  0  0  0  0  0  0  0  0
  148.9544  139.3371  154.0597 C   0  0  0  0  0  0  0  0  0  0  0  0
  148.2831  140.4598  154.5881 C   0  0  0  0  0  0  0  0  0  0  0  0
  148.9124  141.3768  155.3538 N   0  0  0  0  0  0  0  0  0  0  0  0
  150.2115  141.1747  155.5904 C   0  0  0  0  0  0  0  0  0  0  0  0
  150.8996  142.1729  156.4691 C   0  0  0  0  0  0  0  0  0  0  0  0
  151.5944  141.7387  157.7439 C   0  0  0  0  0  0  0  0  0  0  0  0
  150.3243  142.5387  157.8221 C   0  0  0  0  0  0  0  0  0  0  0  0
  150.9456  140.1412  155.1692 N   0  0  0  0  0  0  0  0  0  0  0  0
  150.3246  139.2201  154.4007 C   0  0  0  0  0  0  0  0  0  0  0  0
  141.8391  137.9316  153.4468 H   0  0  0  0  0  0  0  0  0  0  0  0
  142.0875  136.4921  152.4610 H   0  0  0  0  0  0  0  0  0  0  0  0
  143.0091  137.9698  152.1309 H   0  0  0  0  0  0  0  0  0  0  0  0
  145.3783  135.8958  153.9826 H   0  0  0  0  0  0  0  0  0  0  0  0
  144.0217  133.9975  153.4691 H   0  0  0  0  0  0  0  0  0  0  0  0
  143.0130  134.9285  152.3642 H   0  0  0  0  0  0  0  0  0  0  0  0
  145.8647  134.0075  151.8834 H   0  0  0  0  0  0  0  0  0  0  0  0
  144.4670  133.7349  150.8425 H   0  0  0  0  0  0  0  0  0  0  0  0
  146.1230  135.7912  150.2889 H   0  0  0  0  0  0  0  0  0  0  0  0
  144.3901  136.0376  150.1935 H   0  0  0  0  0  0  0  0  0  0  0  0
  144.6012  137.6855  151.7486 H   0  0  0  0  0  0  0  0  0  0  0  0
  147.3209  136.8202  151.8257 H   0  0  0  0  0  0  0  0  0  0  0  0
  148.7813  137.7740  152.7199 H   0  0  0  0  0  0  0  0  0  0  0  0
  147.2332  140.6258  154.3955 H   0  0  0  0  0  0  0  0  0  0  0  0
  151.3617  142.9643  155.8821 H   0  0  0  0  0  0  0  0  0  0  0  0
  151.5408  140.6875  158.0201 H   0  0  0  0  0  0  0  0  0  0  0  0
  152.5223  142.2425  158.0067 H   0  0  0  0  0  0  0  0  0  0  0  0
  150.4015  143.5780  158.1343 H   0  0  0  0  0  0  0  0  0  0  0  0
  149.4263  142.0189  158.1503 H   0  0  0  0  0  0  0  0  0  0  0  0
  150.9370  138.3890  154.0881 H   0  0  0  0  0  0  0  0  0  0  0  0
  1  2  1  0  0  0  0
  1 21  1  0  0  0  0
  1 22  1  0  0  0  0
  1 23  1  0  0  0  0
  2  3  1  0  0  0  0
  3  7  1  0  0  0  0
  3  4  1  0  0  0  0
  3 24  1  0  0  0  0
  4  5  1  0  0  0  0
  4 25  1  0  0  0  0
  4 26  1  0  0  0  0
  5  6  1  0  0  0  0
  5 27  1  0  0  0  0
  5 28  1  0  0  0  0
  6  7  1  0  0  0  0
  6 29  1  0  0  0  0
  6 30  1  0  0  0  0
  7  8  1  0  0  0  0
  7 31  1  0  0  0  0
  8  9  1  0  0  0  0
  8 32  1  0  0  0  0
  9 10  2  0  0  0  0
  9 11  1  0  0  0  0
 11 12  1  0  0  0  0
 11 33  1  0  0  0  0
 12 20  1  0  0  0  0
 12 13  2  0  0  0  0
 13 14  1  0  0  0  0
 13 34  1  0  0  0  0
 14 15  2  0  0  0  0
 15 16  1  0  0  0  0
 15 19  1  0  0  0  0
 16 18  1  0  0  0  0
 16 17  1  0  0  0  0
 16 35  1  0  0  0  0
 17 18  1  0  0  0  0
 17 36  1  0  0  0  0
 17 37  1  0  0  0  0
 18 38  1  0  0  0  0
 18 39  1  0  0  0  0
 19 20  2  0  0  0  0
 20 40  1  0  0  0  0
M  END
> <s_m_source_file>
AV-unprocessed.smi

> <i_m_source_file_index>
2709

> <i_lp_mmshare_version>
43012

> <i_f3d_flags>
0

> <s_epik_input>
W0NIM11PW0NAQEhdMVtDSDJdW0NIMl1bQ0gyXVtDQEhdMVtOSF1DKD1PKVtOSF1jMltjSF1uYyhuW2NIXTIpW0NIXTNbQ0gyXVtDSDJdMw==

> <s_epik_cmdline>
J2VwaWtfcHl0aG9uJywgJy1waCcsICc3LjAnLCAnLXRuJywgJzgnLCAnLW1hJywgJzIwMCcsICctbWV0YWxfYmluZGluZycsICctaW1hZScsICc8aW5maWxlLm1hZT4nLCAnLW9tYWUnLCAnPG91dGZpbGUubWFlPic=

> <r_lp_tautomer_probability>
1

> <r_epik_Ionization_Penalty>
2.49969e-05

> <r_epik_Ionization_Penalty_Charging>
0

> <r_epik_Ionization_Penalty_Neutral>
2.49969e-05

> <r_epik_State_Penalty>
-0

> <r_epik_Charging_Adjusted_Penalty>
0

> <i_epik_Tot_Q>
0

> <i_epik_Tot_abs_Q>
0

> <r_epik_Metal_State_Penalty>
-0

> <b_epik_Metal_Only>
0

> <s_lp_Force_Field>
OPLS_2005

> <r_lp_Energy>
19.78

> <b_lp_Chiralities_Consistent>
1

> <s_lp_Variant>
AV-unprocessed.smi:2709-4

> <Gold.Version>
5.8.1

> <Gold.Id.Protein>
6NUR|6NUR_protein|mol2

> <Gold.PLP.Fitness>
38.7303

> <Gold.PLP.PLP>
-32.0148

> <Gold.PLP.part.hbond>
-4.0000

> <Gold.PLP.part.metal>
0.0000

> <Gold.PLP.part.buried>
-4.1077

> <Gold.PLP.part.nonpolar>
-25.2899

> <Gold.PLP.part.repulsive>
0.4816

> <Gold.PLP.ligand.clash>
0.0000

> <Gold.PLP.ligand.torsion>
0.1954

> <Gold.PLP.Chemscore.Hbond>
2.3260

> <Gold.PLP.Chemscore.CHOScore>
0.0000

> <Gold.PLP.Chemscore.Metal>
0.0000

> <Gold.Chemscore.Hbonds>
donor molecule, donor type, donor heavy atom, donor atom, acceptor molecule, acceptor atom, score
      L1  H     8    32       P1  7948  0.98
      L1  H    11    33       P1  7948  1.00
      P1  H  7989  7998       L1    19  0.30

> <Gold.PLP.Chemscore.Internal.Correction>
0.1284

> <Gold.Rescore>
     Score         DG    S(hbond)    S(metal)    S(lipo)     H(rot)  DE(clash)    DE(int)     intcor
     14.79     -16.39       1.95        0.00      68.53       1.41       0.03       1.57       ----

> <Gold.Chemscore.Fitness>
14.7853

> <Gold.Chemscore.DG>
-16.3853

> <Gold.Chemscore.ZeroCoef>
-5.4800

> <Gold.Chemscore.Hbond>
1.9462

> <Gold.Chemscore.Metal>
0.0000

> <Gold.Chemscore.Lipo>
68.5318

> <Gold.Chemscore.Internal_Hbond>
0.0000

> <Gold.Chemscore.DEClash>
0.0285

> <Gold.Chemscore.DEInternal>
1.5715

> <Gold.Chemscore.Rot>
1.4114

> <Gold.Chemscore.Internal.Correction>
   9.000000E+99

> <Gold.Chemscore.Hbonds>
donor molecule, donor type, donor heavy atom, donor atom, acceptor molecule, acceptor atom, score
      L1  H     8    32       P1  7948  0.93
      L1  H    11    33       P1  7948  0.95

> <Gold.Chemscore.Hbond.Weighted>
-6.5004

> <Gold.Chemscore.Metal.Weighted>
-0.0000

> <Gold.Chemscore.Lipo.Weighted>
-8.0182

> <Gold.Chemscore.Internal_Hbond.Weighted>
0.0000

> <Gold.Chemscore.DEClash.Weighted>
0.0285

> <Gold.Chemscore.DEInternal.Weighted>
1.5715

> <Gold.Chemscore.Rot.Weighted>
3.6133

> <Gold.Chemscore.Internal.Correction.Weighted>
   9.000000E+99

> <Gold.Protein.RotatedTorsions>
[ 6907 6896 6895 6894 ] final  -51.91 input  -60.11 | X-H torsion
[ 7974 7965 7964 7962 ] final  121.99 input  175.53 | X-H torsion
[ 8008 7997 7996 7995 ] final  -22.71 input   59.86 | X-H torsion
[ 10167 10162 10161 10158 ] final  128.12 input  -65.29 | X-H torsion
[ 10718 10713 10712 10709 ] final  116.49 input   66.30 | X-H torsion
[ 10763 10752 10751 10750 ] final -143.39 input  -60.55 | X-H torsion
[ 11005 11000 10999 10996 ] final  127.74 input  -57.11 | X-H torsion

> <Gold.Protein.ActiveResidues>
 VAL166  LYS551  ARG553  GLY616  TRP617  ASP618  TYR619  PRO620  LYS621  CYS622 
 ASP623  PHE694  ASN695  SER759  ASP760  ASP761  ALA762  ILE779  LEU786  VAL792 
 PHE793  MET794  SER795  GLU796  ALA797  LYS798  CYS799  TRP800  GLU811  SER814 

> <Gold.Protein.RotatedAtoms>
  150.8567  134.7908  159.7050 H   0  0  0  0  0  0  0  0  0  0  0  0  # atno 6907 bound_to 6896
  152.4617  134.5166  159.9780 H   0  0  0  0  0  0  0  0  0  0  0  0  # atno 6908 bound_to 6896
  151.5278  133.3416  159.2948 H   0  0  0  0  0  0  0  0  0  0  0  0  # atno 6909 bound_to 6896
  145.1128  139.3441  143.4754 H   0  0  0  0  0  0  0  0  0  0  0  0  # atno 7974 bound_to 7965
  154.4628  140.2000  156.0200 H   0  0  0  0  0  0  0  0  0  0  0  0  # atno 8008 bound_to 7997
  156.0871  140.3263  155.7739 H   0  0  0  0  0  0  0  0  0  0  0  0  # atno 8009 bound_to 7997
  155.5017  140.0554  157.2929 H   0  0  0  0  0  0  0  0  0  0  0  0  # atno 8010 bound_to 7997
  139.5543  144.6837  151.4229 H   0  0  0  0  0  0  0  0  0  0  0  0  # atno 10167 bound_to 10162
  157.6157  131.1026  150.7480 H   0  0  0  0  0  0  0  0  0  0  0  0  # atno 10718 bound_to 10713
  154.8471  135.3469  154.6180 H   0  0  0  0  0  0  0  0  0  0  0  0  # atno 10763 bound_to 10752
  153.6789  135.6981  153.5129 H   0  0  0  0  0  0  0  0  0  0  0  0  # atno 10764 bound_to 10752
  153.2684  135.4301  155.0919 H   0  0  0  0  0  0  0  0  0  0  0  0  # atno 10765 bound_to 10752
  139.9523  134.9619  156.8899 H   0  0  0  0  0  0  0  0  0  0  0  0  # atno 11005 bound_to 11000
  146.3525  140.1055  142.8606 LP  0  0  0  0  0  0  0  0  0  0  0  0  # atno 17320 bound_to 7965
  145.0827  140.9232  143.4816 LP  0  0  0  0  0  0  0  0  0  0  0  0  # atno 17321 bound_to 7965
  140.6813  143.8075  150.7125 LP  0  0  0  0  0  0  0  0  0  0  0  0  # atno 17342 bound_to 10162
  140.1530  143.4341  152.2119 LP  0  0  0  0  0  0  0  0  0  0  0  0  # atno 17343 bound_to 10162
  156.7848  130.4871  149.5395 LP  0  0  0  0  0  0  0  0  0  0  0  0  # atno 17370 bound_to 10713
  156.1278  130.6156  151.0289 LP  0  0  0  0  0  0  0  0  0  0  0  0  # atno 17371 bound_to 10713
  140.5689  134.0462  155.7424 LP  0  0  0  0  0  0  0  0  0  0  0  0  # atno 17394 bound_to 11000
  141.1188  133.9495  157.2769 LP  0  0  0  0  0  0  0  0  0  0  0  0  # atno 17395 bound_to 11000

$$$$
