AV-unprocessed.smi:1662|AV-procd|sdf|6663|dock7
  -GOLD-   22720 7373D 1   1.00000     0.00000
 Structure written by MMmdl.
 47 48  0  0  0  0  0  0  0  0  1 V2000
  146.5641  142.6052  154.0289 C   0  0  0  0  0  0  0  0  0  0  0  0
  147.1393  141.6255  155.0162 C   0  0  0  0  0  0  0  0  0  0  0  0
  148.3868  141.3204  154.8717 N   0  0  0  0  0  0  0  0  0  0  0  0
  149.0125  140.4283  155.7210 N   0  0  0  0  0  0  0  0  0  0  0  0
  150.4233  140.1775  155.3910 C   0  0  0  0  0  0  0  0  0  0  0  0
  151.4010  140.6133  156.4928 C   0  0  0  0  0  0  0  0  0  0  0  0
  152.3239  139.8798  156.8510 O   0  0  0  0  0  0  0  0  0  0  0  0
  151.1887  141.8325  157.0113 N   0  0  0  0  0  0  0  0  0  0  0  0
  151.9909  142.4587  158.0602 C   0  0  2  0  0  0  0  0  0  0  0  0
  152.1809  141.4730  159.2296 C   0  0  0  0  0  0  0  0  0  0  0  0
  153.0523  142.0827  160.3380 C   0  0  0  0  0  0  0  0  0  0  0  0
  152.4930  143.4303  160.8205 C   0  0  0  0  0  0  0  0  0  0  0  0
  152.2977  144.4128  159.6480 C   0  0  2  0  0  0  0  0  0  0  0  0
  151.8372  145.7970  160.1343 C   0  0  0  0  0  0  0  0  0  0  0  0
  151.3913  143.8096  158.5415 C   0  0  2  0  0  0  0  0  0  0  0  0
  149.9031  143.7049  158.9495 C   0  0  0  0  0  0  0  0  0  0  0  0
  148.4096  139.8066  156.7754 C   0  0  0  0  0  0  0  0  0  0  0  0
  149.0097  139.0249  157.5148 O   0  0  0  0  0  0  0  0  0  0  0  0
  146.9960  140.1564  156.9325 C   0  0  0  0  0  0  0  0  0  0  0  0
  146.3244  139.5223  158.0207 C   0  0  0  0  0  0  0  0  0  0  0  0
  145.7923  139.0182  158.9169 N   0  0  0  0  0  0  0  0  0  0  0  0
  146.3680  141.0230  156.0985 C   0  0  0  0  0  0  0  0  0  0  0  0
  144.9024  141.4176  156.2165 C   0  0  0  0  0  0  0  0  0  0  0  0
  146.1338  143.4658  154.5413 H   0  0  0  0  0  0  0  0  0  0  0  0
  145.7803  142.1376  153.4330 H   0  0  0  0  0  0  0  0  0  0  0  0
  147.3221  142.9804  153.3397 H   0  0  0  0  0  0  0  0  0  0  0  0
  150.5798  139.1135  155.2027 H   0  0  0  0  0  0  0  0  0  0  0  0
  150.6861  140.6799  154.4580 H   0  0  0  0  0  0  0  0  0  0  0  0
  150.4114  142.3691  156.6544 H   0  0  0  0  0  0  0  0  0  0  0  0
  152.9810  142.6562  157.6438 H   0  0  0  0  0  0  0  0  0  0  0  0
  151.2135  141.1834  159.6414 H   0  0  0  0  0  0  0  0  0  0  0  0
  152.6458  140.5542  158.8700 H   0  0  0  0  0  0  0  0  0  0  0  0
  153.1271  141.3893  161.1761 H   0  0  0  0  0  0  0  0  0  0  0  0
  154.0672  142.2243  159.9644 H   0  0  0  0  0  0  0  0  0  0  0  0
  151.5480  143.2723  161.3409 H   0  0  0  0  0  0  0  0  0  0  0  0
  153.1752  143.8602  161.5550 H   0  0  0  0  0  0  0  0  0  0  0  0
  153.2800  144.5656  159.1978 H   0  0  0  0  0  0  0  0  0  0  0  0
  150.9047  145.7404  160.6959 H   0  0  0  0  0  0  0  0  0  0  0  0
  151.6860  146.4786  159.2969 H   0  0  0  0  0  0  0  0  0  0  0  0
  152.5838  146.2450  160.7906 H   0  0  0  0  0  0  0  0  0  0  0  0
  151.4261  144.4979  157.6957 H   0  0  0  0  0  0  0  0  0  0  0  0
  149.7584  143.0588  159.8145 H   0  0  0  0  0  0  0  0  0  0  0  0
  149.2920  143.3086  158.1388 H   0  0  0  0  0  0  0  0  0  0  0  0
  149.4874  144.6817  159.1942 H   0  0  0  0  0  0  0  0  0  0  0  0
  144.3957  140.8890  157.0233 H   0  0  0  0  0  0  0  0  0  0  0  0
  144.3690  141.1903  155.2929 H   0  0  0  0  0  0  0  0  0  0  0  0
  144.8094  142.4859  156.4143 H   0  0  0  0  0  0  0  0  0  0  0  0
  1  2  1  0  0  0  0
  1 24  1  0  0  0  0
  1 25  1  0  0  0  0
  1 26  1  0  0  0  0
  2 22  1  0  0  0  0
  2  3  2  0  0  0  0
  3  4  1  0  0  0  0
  4  5  1  0  0  0  0
  4 17  1  0  0  0  0
  5  6  1  0  0  0  0
  5 27  1  0  0  0  0
  5 28  1  0  0  0  0
  6  7  2  0  0  0  0
  6  8  1  0  0  0  0
  8  9  1  0  0  0  0
  8 29  1  0  0  0  0
  9 15  1  0  0  0  0
  9 10  1  0  0  0  0
  9 30  1  0  0  0  0
 10 11  1  0  0  0  0
 10 31  1  0  0  0  0
 10 32  1  0  0  0  0
 11 12  1  0  0  0  0
 11 33  1  0  0  0  0
 11 34  1  0  0  0  0
 12 13  1  0  0  0  0
 12 35  1  0  0  0  0
 12 36  1  0  0  0  0
 13 14  1  0  0  0  0
 13 15  1  0  0  0  0
 13 37  1  0  0  0  0
 14 38  1  0  0  0  0
 14 39  1  0  0  0  0
 14 40  1  0  0  0  0
 15 16  1  0  0  0  0
 15 41  1  0  0  0  0
 16 42  1  0  0  0  0
 16 43  1  0  0  0  0
 16 44  1  0  0  0  0
 17 18  2  0  0  0  0
 17 19  1  0  0  0  0
 19 20  1  0  0  0  0
 19 22  2  0  0  0  0
 20 21  3  0  0  0  0
 22 23  1  0  0  0  0
 23 45  1  0  0  0  0
 23 46  1  0  0  0  0
 23 47  1  0  0  0  0
M  END
> <s_m_source_file>
AV-unprocessed.smi

> <i_m_source_file_index>
1662

> <i_lp_mmshare_version>
43012

> <i_f3d_flags>
0

> <s_epik_input>
TiNDYyhjMVtDSDNdKWMoPU8pbihuYzFbQ0gzXSlbQ0gyXUMoPU8pW05IXVtDQEBIXTJbQ0gyXVtDSDJdW0NIMl1bQ0BASF0oW0NIM10pW0NASF0yW0NIM10=

> <s_epik_cmdline>
J2VwaWtfcHl0aG9uJywgJy1waCcsICc3LjAnLCAnLXRuJywgJzgnLCAnLW1hJywgJzIwMCcsICctbWV0YWxfYmluZGluZycsICctaW1hZScsICc8aW5maWxlLm1hZT4nLCAnLW9tYWUnLCAnPG91dGZpbGUubWFlPic=

> <r_lp_tautomer_probability>
1

> <r_epik_Ionization_Penalty>
1.90709e-08

> <r_epik_Ionization_Penalty_Charging>
2.37982e-11

> <r_epik_Ionization_Penalty_Neutral>
1.90471e-08

> <r_epik_State_Penalty>
-0

> <r_epik_Charging_Adjusted_Penalty>
2.37982e-11

> <i_epik_Tot_Q>
0

> <i_epik_Tot_abs_Q>
0

> <r_epik_Metal_State_Penalty>
-0

> <b_epik_Metal_Only>
0

> <s_lp_Force_Field>
OPLS_2005

> <r_lp_Energy>
29.1366

> <b_lp_Chiralities_Consistent>
1

> <s_lp_Variant>
AV-unprocessed.smi:1662-7

> <Gold.Version>
5.8.1

> <Gold.Id.Protein>
6NUR|6NUR_protein|mol2

> <Gold.PLP.Fitness>
43.0260

> <Gold.PLP.PLP>
-40.5090

> <Gold.PLP.part.hbond>
-2.0000

> <Gold.PLP.part.metal>
0.0000

> <Gold.PLP.part.buried>
-4.9327

> <Gold.PLP.part.nonpolar>
-32.8530

> <Gold.PLP.part.repulsive>
0.2175

> <Gold.PLP.ligand.clash>
0.0000

> <Gold.PLP.ligand.torsion>
0.2493

> <Gold.PLP.Chemscore.Hbond>
1.0000

> <Gold.PLP.Chemscore.CHOScore>
0.0000

> <Gold.PLP.Chemscore.Metal>
0.0000

> <Gold.Chemscore.Hbonds>
donor molecule, donor type, donor heavy atom, donor atom, acceptor molecule, acceptor atom, score
      P1  H  6934  6947       L1    21  0.02
      P1  H  7997  8009       L1     7  0.93

> <Gold.PLP.Chemscore.Internal.Correction>
0.0156

> <Gold.Rescore>
     Score         DG    S(hbond)    S(metal)    S(lipo)     H(rot)  DE(clash)    DE(int)     intcor
     15.98     -17.64       0.97        0.00     107.95       1.45       0.19       1.47       ----

> <Gold.Chemscore.Fitness>
15.9835

> <Gold.Chemscore.DG>
-17.6360

> <Gold.Chemscore.ZeroCoef>
-5.4800

> <Gold.Chemscore.Hbond>
0.9696

> <Gold.Chemscore.Metal>
0.0000

> <Gold.Chemscore.Lipo>
107.9533

> <Gold.Chemscore.Internal_Hbond>
0.0000

> <Gold.Chemscore.DEClash>
0.1871

> <Gold.Chemscore.DEInternal>
1.4654

> <Gold.Chemscore.Rot>
1.4504

> <Gold.Chemscore.Internal.Correction>
   9.000000E+99

> <Gold.Chemscore.Hbonds>
donor molecule, donor type, donor heavy atom, donor atom, acceptor molecule, acceptor atom, score
      P1  H  6934  6947       L1    21  0.02
      P1  H  7997  8009       L1     7  0.88

> <Gold.Chemscore.Hbond.Weighted>
-3.2384

> <Gold.Chemscore.Metal.Weighted>
-0.0000

> <Gold.Chemscore.Lipo.Weighted>
-12.6305

> <Gold.Chemscore.Internal_Hbond.Weighted>
0.0000

> <Gold.Chemscore.DEClash.Weighted>
0.1871

> <Gold.Chemscore.DEInternal.Weighted>
1.4654

> <Gold.Chemscore.Rot.Weighted>
3.7129

> <Gold.Chemscore.Internal.Correction.Weighted>
   9.000000E+99

> <Gold.Protein.RotatedTorsions>
[ 6907 6896 6895 6894 ] final -101.92 input  -60.11 | X-H torsion
[ 7974 7965 7964 7962 ] final  120.07 input  175.53 | X-H torsion
[ 8008 7997 7996 7995 ] final -171.41 input   59.86 | X-H torsion
[ 10167 10162 10161 10158 ] final  -69.62 input  -65.29 | X-H torsion
[ 10718 10713 10712 10709 ] final   57.35 input   66.30 | X-H torsion
[ 10763 10752 10751 10750 ] final   89.39 input  -60.55 | X-H torsion
[ 11005 11000 10999 10996 ] final  128.81 input  -57.11 | X-H torsion

> <Gold.Protein.ActiveResidues>
 VAL166  LYS551  ARG553  GLY616  TRP617  ASP618  TYR619  PRO620  LYS621  CYS622 
 ASP623  PHE694  ASN695  SER759  ASP760  ASP761  ALA762  ILE779  LEU786  VAL792 
 PHE793  MET794  SER795  GLU796  ALA797  LYS798  CYS799  TRP800  GLU811  SER814 

> <Gold.Protein.RotatedAtoms>
  150.7174  134.0660  159.3847 H   0  0  0  0  0  0  0  0  0  0  0  0  # atno 6907 bound_to 6896
  151.8641  135.0511  160.0482 H   0  0  0  0  0  0  0  0  0  0  0  0  # atno 6908 bound_to 6896
  152.2694  133.5333  159.5466 H   0  0  0  0  0  0  0  0  0  0  0  0  # atno 6909 bound_to 6896
  145.1355  139.3300  143.4643 H   0  0  0  0  0  0  0  0  0  0  0  0  # atno 7974 bound_to 7965
  155.9312  140.1091  157.1131 H   0  0  0  0  0  0  0  0  0  0  0  0  # atno 8008 bound_to 7997
  154.4071  140.1237  156.4870 H   0  0  0  0  0  0  0  0  0  0  0  0  # atno 8009 bound_to 7997
  155.7078  140.3471  155.4963 H   0  0  0  0  0  0  0  0  0  0  0  0  # atno 8010 bound_to 7997
  140.5416  143.2315  151.7079 H   0  0  0  0  0  0  0  0  0  0  0  0  # atno 10167 bound_to 10162
  157.5507  130.8764  149.8959 H   0  0  0  0  0  0  0  0  0  0  0  0  # atno 10718 bound_to 10713
  153.1866  135.4472  155.0096 H   0  0  0  0  0  0  0  0  0  0  0  0  # atno 10763 bound_to 10752
  154.8064  135.3276  154.7423 H   0  0  0  0  0  0  0  0  0  0  0  0  # atno 10764 bound_to 10752
  153.7881  135.6972  153.4931 H   0  0  0  0  0  0  0  0  0  0  0  0  # atno 10765 bound_to 10752
  139.9581  134.9608  156.9056 H   0  0  0  0  0  0  0  0  0  0  0  0  # atno 11005 bound_to 11000
  146.3510  140.1371  142.8595 LP  0  0  0  0  0  0  0  0  0  0  0  0  # atno 17320 bound_to 7965
  145.0589  140.9073  143.4951 LP  0  0  0  0  0  0  0  0  0  0  0  0  # atno 17321 bound_to 7965
  139.4991  144.3960  152.0231 LP  0  0  0  0  0  0  0  0  0  0  0  0  # atno 17342 bound_to 10162
  140.3069  144.3582  150.6044 LP  0  0  0  0  0  0  0  0  0  0  0  0  # atno 17343 bound_to 10162
  156.0574  130.3706  150.1059 LP  0  0  0  0  0  0  0  0  0  0  0  0  # atno 17370 bound_to 10713
  156.9232  130.9689  151.3545 LP  0  0  0  0  0  0  0  0  0  0  0  0  # atno 17371 bound_to 10713
  140.5563  134.0578  155.7384 LP  0  0  0  0  0  0  0  0  0  0  0  0  # atno 17394 bound_to 11000
  141.1255  133.9390  157.2644 LP  0  0  0  0  0  0  0  0  0  0  0  0  # atno 17395 bound_to 11000

$$$$
