AV-unprocessed.smi:3275|AV-procd|sdf|12531|dock10
  -GOLD-   2272018443D 1   1.00000     0.00000
 Structure written by MMmdl.
 35 36  0  0  0  0  0  0  0  0  2 V2000
  151.6942  142.9206  161.9837 O   0  0  0  0  0  0  0  0  0  0  0  0
  152.5759  142.4685  160.9789 C   0  0  0  0  0  0  0  0  0  0  0  0
  152.2128  143.1126  159.6371 C   0  0  0  0  0  0  0  0  0  0  0  0
  151.0138  142.5209  159.1587 O   0  0  0  0  0  0  0  0  0  0  0  0
  151.0848  142.0420  157.8221 C   0  0  1  0  0  0  0  0  0  0  0  0
  151.9739  140.7842  157.7236 C   0  0  0  0  0  0  0  0  0  0  0  0
  151.9033  140.1872  156.3085 C   0  0  0  0  0  0  0  0  0  0  0  0
  150.4476  139.9191  155.8919 C   0  0  0  0  0  0  0  0  0  0  0  0
  149.6403  141.1273  156.0390 N   0  0  0  0  0  0  0  0  0  0  0  0
  148.4019  141.0692  155.3746 C   0  0  0  0  0  0  0  0  0  0  0  0
  148.1938  141.7338  154.1399 C   0  0  0  0  0  0  0  0  0  0  0  0
  146.9345  141.6616  153.5113 C   0  0  0  0  0  0  0  0  0  0  0  0
  145.9350  140.9616  154.0870 N   0  3  0  0  0  0  0  0  0  0  0  0
  146.0827  140.3106  155.2600 C   0  0  0  0  0  0  0  0  0  0  0  0
  147.3189  140.3444  155.9373 C   0  0  0  0  0  0  0  0  0  0  0  0
  147.4826  139.4746  157.4234 Cl  0  0  0  0  0  0  0  0  0  0  0  0
  149.6484  141.7117  157.3785 C   0  0  0  0  0  0  0  0  0  0  0  0
  152.1746  142.9944  162.7940 H   0  0  0  0  0  0  0  0  0  0  0  0
  153.5982  142.7211  161.2608 H   0  0  0  0  0  0  0  0  0  0  0  0
  152.5131  141.3823  160.9114 H   0  0  0  0  0  0  0  0  0  0  0  0
  152.0743  144.1871  159.7656 H   0  0  0  0  0  0  0  0  0  0  0  0
  153.0252  142.9661  158.9252 H   0  0  0  0  0  0  0  0  0  0  0  0
  151.4746  142.8233  157.1666 H   0  0  0  0  0  0  0  0  0  0  0  0
  153.0102  141.0173  157.9660 H   0  0  0  0  0  0  0  0  0  0  0  0
  151.6417  140.0415  158.4501 H   0  0  0  0  0  0  0  0  0  0  0  0
  152.3631  140.8769  155.5995 H   0  0  0  0  0  0  0  0  0  0  0  0
  152.4813  139.2640  156.2618 H   0  0  0  0  0  0  0  0  0  0  0  0
  150.4203  139.5569  154.8638 H   0  0  0  0  0  0  0  0  0  0  0  0
  150.0213  139.1312  156.5145 H   0  0  0  0  0  0  0  0  0  0  0  0
  148.9810  142.3069  153.6727 H   0  0  0  0  0  0  0  0  0  0  0  0
  146.6984  142.1426  152.5732 H   0  0  0  0  0  0  0  0  0  0  0  0
  145.2133  139.7793  155.6186 H   0  0  0  0  0  0  0  0  0  0  0  0
  149.2037  141.0094  158.0847 H   0  0  0  0  0  0  0  0  0  0  0  0
  149.0389  142.6164  157.3927 H   0  0  0  0  0  0  0  0  0  0  0  0
  145.0308  140.9214  153.6158 H   0  0  0  0  0  0  0  0  0  0  0  0
  1  2  1  0  0  0  0
  1 18  1  0  0  0  0
  2  3  1  0  0  0  0
  2 19  1  0  0  0  0
  2 20  1  0  0  0  0
  3  4  1  0  0  0  0
  3 21  1  0  0  0  0
  3 22  1  0  0  0  0
  4  5  1  0  0  0  0
  5 17  1  0  0  0  0
  5  6  1  0  0  0  0
  5 23  1  0  0  0  0
  6  7  1  0  0  0  0
  6 24  1  0  0  0  0
  6 25  1  0  0  0  0
  7  8  1  0  0  0  0
  7 26  1  0  0  0  0
  7 27  1  0  0  0  0
  8  9  1  0  0  0  0
  8 28  1  0  0  0  0
  8 29  1  0  0  0  0
  9 10  1  0  0  0  0
  9 17  1  0  0  0  0
 10 15  1  0  0  0  0
 10 11  2  0  0  0  0
 11 12  1  0  0  0  0
 11 30  1  0  0  0  0
 12 13  2  0  0  0  0
 12 31  1  0  0  0  0
 13 14  1  0  0  0  0
 13 35  1  0  0  0  0
 14 15  2  0  0  0  0
 14 32  1  0  0  0  0
 15 16  1  0  0  0  0
 17 33  1  0  0  0  0
 17 34  1  0  0  0  0
M  CHG  1  13   1
M  END
> <s_m_source_file>
AV-unprocessed.smi

> <i_m_source_file_index>
3275

> <i_lp_mmshare_version>
43012

> <i_f3d_flags>
0

> <s_epik_input>
W09IXVtDSDJdW0NIMl1PW0NAQEhdMVtDSDJdW0NIMl1bQ0gyXU4oW0NIMl0xKWMyW2NIXVtjSF1uW2NIXWMyQ2w=

> <s_epik_cmdline>
J2VwaWtfcHl0aG9uJywgJy1waCcsICc3LjAnLCAnLXRuJywgJzgnLCAnLW1hJywgJzIwMCcsICctbWV0YWxfYmluZGluZycsICctaW1hZScsICc8aW5maWxlLm1hZT4nLCAnLW9tYWUnLCAnPG91dGZpbGUubWFlPic=

> <r_lp_tautomer_probability>
1

> <r_epik_Ionization_Penalty>
0.0778579

> <r_epik_Ionization_Penalty_Charging>
0.0778578

> <r_epik_Ionization_Penalty_Neutral>
8.80348e-08

> <r_epik_State_Penalty>
0.0687871

> <r_epik_Charging_Adjusted_Penalty>
0.146645

> <i_epik_Tot_Q>
1

> <i_epik_Tot_abs_Q>
1

> <r_epik_Metal_State_Penalty>
2.85646

> <b_epik_Metal_Only>
0

> <s_lp_Force_Field>
OPLS_2005

> <r_lp_Energy>
26.1135

> <b_lp_Chiralities_Consistent>
1

> <s_lp_Variant>
AV-unprocessed.smi:3275-2

> <Gold.Version>
5.8.1

> <Gold.Id.Protein>
6NUR|6NUR_protein|mol2

> <Gold.PLP.Fitness>
37.8083

> <Gold.PLP.PLP>
-30.4897

> <Gold.PLP.part.hbond>
-3.0134

> <Gold.PLP.part.metal>
0.0000

> <Gold.PLP.part.buried>
-5.2546

> <Gold.PLP.part.nonpolar>
-22.1816

> <Gold.PLP.part.repulsive>
0.0855

> <Gold.PLP.ligand.clash>
0.0000

> <Gold.PLP.ligand.torsion>
0.6982

> <Gold.PLP.Chemscore.Hbond>
2.8000

> <Gold.PLP.Chemscore.CHOScore>
0.0000

> <Gold.PLP.Chemscore.Metal>
0.0000

> <Gold.Chemscore.Hbonds>
donor molecule, donor type, donor heavy atom, donor atom, acceptor molecule, acceptor atom, score
      L1  H    13    35       P1 10175  2.00
      P1  H  6933  6945       L1     1  0.80

> <Gold.PLP.Chemscore.Internal.Correction>
0.3149

> <Gold.Rescore>
     Score         DG    S(hbond)    S(metal)    S(lipo)     H(rot)  DE(clash)    DE(int)     intcor
     13.28     -14.55       1.81        0.00      72.55       2.14       0.30       0.97       ----

> <Gold.Chemscore.Fitness>
13.2760

> <Gold.Chemscore.DG>
-14.5476

> <Gold.Chemscore.ZeroCoef>
-5.4800

> <Gold.Chemscore.Hbond>
1.8137

> <Gold.Chemscore.Metal>
0.0000

> <Gold.Chemscore.Lipo>
72.5492

> <Gold.Chemscore.Internal_Hbond>
0.0000

> <Gold.Chemscore.DEClash>
0.3038

> <Gold.Chemscore.DEInternal>
0.9677

> <Gold.Chemscore.Rot>
2.1400

> <Gold.Chemscore.Internal.Correction>
   9.000000E+99

> <Gold.Chemscore.Hbonds>
donor molecule, donor type, donor heavy atom, donor atom, acceptor molecule, acceptor atom, score
      L1  H    13    35       P1 10175  0.82
      P1  H  6933  6945       L1     1  0.50

> <Gold.Chemscore.Hbond.Weighted>
-6.0576

> <Gold.Chemscore.Metal.Weighted>
-0.0000

> <Gold.Chemscore.Lipo.Weighted>
-8.4883

> <Gold.Chemscore.Internal_Hbond.Weighted>
0.0000

> <Gold.Chemscore.DEClash.Weighted>
0.3038

> <Gold.Chemscore.DEInternal.Weighted>
0.9677

> <Gold.Chemscore.Rot.Weighted>
5.4783

> <Gold.Chemscore.Internal.Correction.Weighted>
   9.000000E+99

> <Gold.Protein.RotatedTorsions>
[ 6907 6896 6895 6894 ] final  138.65 input  -60.11 | X-H torsion
[ 7974 7965 7964 7962 ] final   54.96 input  175.53 | X-H torsion
[ 8008 7997 7996 7995 ] final  -72.31 input   59.86 | X-H torsion
[ 10167 10162 10161 10158 ] final   18.97 input  -65.29 | X-H torsion
[ 10718 10713 10712 10709 ] final -143.98 input   66.30 | X-H torsion
[ 10763 10752 10751 10750 ] final -178.84 input  -60.55 | X-H torsion
[ 11005 11000 10999 10996 ] final -145.57 input  -57.11 | X-H torsion

> <Gold.Protein.ActiveResidues>
 VAL166  LYS551  ARG553  GLY616  TRP617  ASP618  TYR619  PRO620  LYS621  CYS622 
 ASP623  PHE694  ASN695  SER759  ASP760  ASP761  ALA762  ILE779  LEU786  VAL792 
 PHE793  MET794  SER795  GLU796  ALA797  LYS798  CYS799  TRP800  GLU811  SER814 

> <Gold.Protein.RotatedAtoms>
  152.2642  133.5324  159.5399 H   0  0  0  0  0  0  0  0  0  0  0  0  # atno 6907 bound_to 6896
  150.7136  134.0788  159.3899 H   0  0  0  0  0  0  0  0  0  0  0  0  # atno 6908 bound_to 6896
  151.8705  135.0491  160.0529 H   0  0  0  0  0  0  0  0  0  0  0  0  # atno 6909 bound_to 6896
  145.9554  139.4010  143.0281 H   0  0  0  0  0  0  0  0  0  0  0  0  # atno 7974 bound_to 7965
  154.5156  140.0799  156.8075 H   0  0  0  0  0  0  0  0  0  0  0  0  # atno 8008 bound_to 7997
  155.3688  140.3422  155.4224 H   0  0  0  0  0  0  0  0  0  0  0  0  # atno 8009 bound_to 7997
  156.1624  140.1593  156.8577 H   0  0  0  0  0  0  0  0  0  0  0  0  # atno 8010 bound_to 7997
  140.5614  143.9330  150.6645 H   0  0  0  0  0  0  0  0  0  0  0  0  # atno 10167 bound_to 10162
  156.3646  130.7756  151.1928 H   0  0  0  0  0  0  0  0  0  0  0  0  # atno 10718 bound_to 10713
  154.5426  135.2807  155.1081 H   0  0  0  0  0  0  0  0  0  0  0  0  # atno 10763 bound_to 10752
  154.2558  135.6331  153.5260 H   0  0  0  0  0  0  0  0  0  0  0  0  # atno 10764 bound_to 10752
  152.9983  135.5593  154.5970 H   0  0  0  0  0  0  0  0  0  0  0  0  # atno 10765 bound_to 10752
  140.7909  134.2969  157.5013 H   0  0  0  0  0  0  0  0  0  0  0  0  # atno 11005 bound_to 11000
  145.8114  140.9724  143.0947 LP  0  0  0  0  0  0  0  0  0  0  0  0  # atno 17320 bound_to 7965
  144.6804  139.9926  143.7484 LP  0  0  0  0  0  0  0  0  0  0  0  0  # atno 17321 bound_to 7965
  140.2782  143.3408  152.1175 LP  0  0  0  0  0  0  0  0  0  0  0  0  # atno 17342 bound_to 10162
  139.5072  144.6827  151.5967 LP  0  0  0  0  0  0  0  0  0  0  0  0  # atno 17343 bound_to 10162
  157.7477  131.0390  150.4530 LP  0  0  0  0  0  0  0  0  0  0  0  0  # atno 17370 bound_to 10713
  156.4746  130.4060  149.6497 LP  0  0  0  0  0  0  0  0  0  0  0  0  # atno 17371 bound_to 10713
  139.8731  134.9374  156.3686 LP  0  0  0  0  0  0  0  0  0  0  0  0  # atno 17394 bound_to 11000
  140.9390  133.7527  156.0122 LP  0  0  0  0  0  0  0  0  0  0  0  0  # atno 17395 bound_to 11000

$$$$
