AV-unprocessed.smi:2403|AV-procd|sdf|9510|dock6
  -GOLD-   2272013143D 1   1.00000     0.00000
 Structure written by MMmdl.
 48 50  0  0  0  0  0  0  0  0  2 V2000
  147.2519  133.0528  152.1295 C   0  0  0  0  0  0  0  0  0  0  0  0
  145.9366  133.5459  151.5512 C   0  0  0  0  0  0  0  0  0  0  0  0
  145.0137  132.6149  151.0246 C   0  0  0  0  0  0  0  0  0  0  0  0
  143.7954  133.0753  150.4885 C   0  0  0  0  0  0  0  0  0  0  0  0
  143.5247  134.3971  150.4786 N   0  3  0  0  0  0  0  0  0  0  0  0
  144.3746  135.3233  150.9707 C   0  0  0  0  0  0  0  0  0  0  0  0
  145.6120  134.9266  151.5373 C   0  0  0  0  0  0  0  0  0  0  0  0
  146.5532  135.8615  152.0525 N   0  0  0  0  0  0  0  0  0  0  0  0
  146.3083  136.9773  152.7601 C   0  0  0  0  0  0  0  0  0  0  0  0
  145.1902  137.3760  153.0852 O   0  0  0  0  0  0  0  0  0  0  0  0
  147.4517  137.5947  153.1063 N   0  0  0  0  0  0  0  0  0  0  0  0
  147.6095  138.8192  153.9138 C   0  0  0  0  0  0  0  0  0  0  0  0
  149.0855  139.0880  154.3274 C   0  0  0  0  0  0  0  0  0  0  0  0
  149.3691  140.0946  154.9782 O   0  0  0  0  0  0  0  0  0  0  0  0
  150.0218  138.2066  153.9387 N   0  0  0  0  0  0  0  0  0  0  0  0
  151.4404  138.3005  154.2454 C   0  0  0  0  0  0  0  0  0  0  0  0
  151.7857  137.8734  155.6565 C   0  0  0  0  0  0  0  0  0  0  0  0
  152.0325  138.9026  156.7343 C   0  0  0  0  0  0  0  0  0  0  0  0
  153.1776  138.0696  156.2096 C   0  0  0  0  0  0  0  0  0  0  0  0
  147.1051  140.0190  153.0762 C   0  0  0  0  0  0  0  0  0  0  0  0
  146.4257  140.9727  154.0564 C   0  0  0  0  0  0  0  0  0  0  0  0
  145.7519  140.0458  155.0591 C   0  0  0  0  0  0  0  0  0  0  0  0
  146.6541  138.8082  155.1491 C   0  0  0  0  0  0  0  0  0  0  0  0
  147.3160  131.9646  152.1015 H   0  0  0  0  0  0  0  0  0  0  0  0
  147.3538  133.3682  153.1684 H   0  0  0  0  0  0  0  0  0  0  0  0
  148.0915  133.4549  151.5620 H   0  0  0  0  0  0  0  0  0  0  0  0
  145.2342  131.5573  151.0283 H   0  0  0  0  0  0  0  0  0  0  0  0
  143.0375  132.4318  150.0658 H   0  0  0  0  0  0  0  0  0  0  0  0
  144.0342  136.3439  150.8791 H   0  0  0  0  0  0  0  0  0  0  0  0
  147.5244  135.6087  151.9412 H   0  0  0  0  0  0  0  0  0  0  0  0
  148.3127  137.1740  152.7890 H   0  0  0  0  0  0  0  0  0  0  0  0
  149.7229  137.4059  153.4019 H   0  0  0  0  0  0  0  0  0  0  0  0
  152.0026  137.6939  153.5337 H   0  0  0  0  0  0  0  0  0  0  0  0
  151.7690  139.3324  154.1128 H   0  0  0  0  0  0  0  0  0  0  0  0
  151.2624  136.9755  155.9807 H   0  0  0  0  0  0  0  0  0  0  0  0
  152.0056  139.9527  156.4504 H   0  0  0  0  0  0  0  0  0  0  0  0
  151.6663  138.6800  157.7346 H   0  0  0  0  0  0  0  0  0  0  0  0
  153.5733  137.2910  156.8585 H   0  0  0  0  0  0  0  0  0  0  0  0
  153.9107  138.5663  155.5769 H   0  0  0  0  0  0  0  0  0  0  0  0
  147.8954  140.5192  152.5138 H   0  0  0  0  0  0  0  0  0  0  0  0
  146.3658  139.6885  152.3442 H   0  0  0  0  0  0  0  0  0  0  0  0
  147.1741  141.5850  154.5608 H   0  0  0  0  0  0  0  0  0  0  0  0
  145.7201  141.6452  153.5677 H   0  0  0  0  0  0  0  0  0  0  0  0
  145.5995  140.5229  156.0277 H   0  0  0  0  0  0  0  0  0  0  0  0
  144.7720  139.7539  154.6790 H   0  0  0  0  0  0  0  0  0  0  0  0
  146.0273  137.9169  155.1916 H   0  0  0  0  0  0  0  0  0  0  0  0
  147.2057  138.8221  156.0904 H   0  0  0  0  0  0  0  0  0  0  0  0
  142.6405  134.7120  150.0784 H   0  0  0  0  0  0  0  0  0  0  0  0
  1  2  1  0  0  0  0
  1 24  1  0  0  0  0
  1 25  1  0  0  0  0
  1 26  1  0  0  0  0
  2  7  1  0  0  0  0
  2  3  2  0  0  0  0
  3  4  1  0  0  0  0
  3 27  1  0  0  0  0
  4  5  2  0  0  0  0
  4 28  1  0  0  0  0
  5  6  1  0  0  0  0
  5 48  1  0  0  0  0
  6  7  2  0  0  0  0
  6 29  1  0  0  0  0
  7  8  1  0  0  0  0
  8  9  1  0  0  0  0
  8 30  1  0  0  0  0
  9 10  2  0  0  0  0
  9 11  1  0  0  0  0
 11 12  1  0  0  0  0
 11 31  1  0  0  0  0
 12 23  1  0  0  0  0
 12 13  1  0  0  0  0
 12 20  1  0  0  0  0
 13 14  2  0  0  0  0
 13 15  1  0  0  0  0
 15 16  1  0  0  0  0
 15 32  1  0  0  0  0
 16 17  1  0  0  0  0
 16 33  1  0  0  0  0
 16 34  1  0  0  0  0
 17 19  1  0  0  0  0
 17 18  1  0  0  0  0
 17 35  1  0  0  0  0
 18 19  1  0  0  0  0
 18 36  1  0  0  0  0
 18 37  1  0  0  0  0
 19 38  1  0  0  0  0
 19 39  1  0  0  0  0
 20 21  1  0  0  0  0
 20 40  1  0  0  0  0
 20 41  1  0  0  0  0
 21 22  1  0  0  0  0
 21 42  1  0  0  0  0
 21 43  1  0  0  0  0
 22 23  1  0  0  0  0
 22 44  1  0  0  0  0
 22 45  1  0  0  0  0
 23 46  1  0  0  0  0
 23 47  1  0  0  0  0
M  CHG  1   5   1
M  END
> <s_m_source_file>
AV-unprocessed.smi

> <i_m_source_file_index>
2403

> <i_lp_mmshare_version>
43012

> <i_f3d_flags>
0

> <s_epik_input>
W0NIM11jMVtjSF1bY0hdbltjSF1jMVtOSF1DKD1PKVtOSF1DMihbQ0gyXVtDSDJdW0NIMl1bQ0gyXTIpQyg9TylbTkhdW0NIMl1bQ0hdM1tDSDJdW0NIMl0z

> <s_epik_cmdline>
J2VwaWtfcHl0aG9uJywgJy1waCcsICc3LjAnLCAnLXRuJywgJzgnLCAnLW1hJywgJzIwMCcsICctbWV0YWxfYmluZGluZycsICctaW1hZScsICc8aW5maWxlLm1hZT4nLCAnLW9tYWUnLCAnPG91dGZpbGUubWFlPic=

> <r_epik_Ionization_Penalty>
2.03963

> <r_epik_Ionization_Penalty_Charging>
2.03961

> <r_epik_Ionization_Penalty_Neutral>
1.99712e-05

> <r_epik_State_Penalty>
2.17125

> <r_epik_Charging_Adjusted_Penalty>
4.21085

> <i_epik_Tot_Q>
1

> <i_epik_Tot_abs_Q>
1

> <r_epik_Metal_State_Penalty>
2.19001

> <b_epik_Metal_Only>
0

> <s_lp_Force_Field>
OPLS_2005

> <r_lp_Energy>
38.2062

> <b_lp_Chiralities_Consistent>
1

> <s_lp_Variant>
AV-unprocessed.smi:2403-2

> <Gold.Version>
5.8.1

> <Gold.Id.Protein>
6NUR|6NUR_protein|mol2

> <Gold.PLP.Fitness>
44.3245

> <Gold.PLP.PLP>
-31.6695

> <Gold.PLP.part.hbond>
-3.1412

> <Gold.PLP.part.metal>
0.0000

> <Gold.PLP.part.buried>
-3.3067

> <Gold.PLP.part.nonpolar>
-26.4585

> <Gold.PLP.part.repulsive>
0.4114

> <Gold.PLP.ligand.clash>
0.0000

> <Gold.PLP.ligand.torsion>
0.9667

> <Gold.PLP.Chemscore.Hbond>
4.6440

> <Gold.PLP.Chemscore.CHOScore>
0.0000

> <Gold.PLP.Chemscore.Metal>
0.0000

> <Gold.Chemscore.Hbonds>
donor molecule, donor type, donor heavy atom, donor atom, acceptor molecule, acceptor atom, score
      L1  H     5    48       P1 10186  2.00
      L1  H     8    30       P1  7948  0.86
      L1  H    11    31       P1  7948  0.78
      L1  H    15    32       P1  7948  0.96

> <Gold.PLP.Chemscore.Internal.Correction>
0.6565

> <Gold.Rescore>
     Score         DG    S(hbond)    S(metal)    S(lipo)     H(rot)  DE(clash)    DE(int)     intcor
     18.13     -22.18       3.35        0.00      82.83       1.63       1.05       3.00       ----

> <Gold.Chemscore.Fitness>
18.1280

> <Gold.Chemscore.DG>
-22.1795

> <Gold.Chemscore.ZeroCoef>
-5.4800

> <Gold.Chemscore.Hbond>
3.3467

> <Gold.Chemscore.Metal>
0.0000

> <Gold.Chemscore.Lipo>
82.8270

> <Gold.Chemscore.Internal_Hbond>
0.0000

> <Gold.Chemscore.DEClash>
1.0467

> <Gold.Chemscore.DEInternal>
3.0049

> <Gold.Chemscore.Rot>
1.6286

> <Gold.Chemscore.Internal.Correction>
   9.000000E+99

> <Gold.Chemscore.Hbonds>
donor molecule, donor type, donor heavy atom, donor atom, acceptor molecule, acceptor atom, score
      L1  H     5    48       P1 10186  0.48
      L1  H     8    30       P1  7948  0.78
      L1  H    11    31       P1  7948  0.75
      L1  H    15    32       P1  7948  0.64

> <Gold.Chemscore.Hbond.Weighted>
-11.1780

> <Gold.Chemscore.Metal.Weighted>
-0.0000

> <Gold.Chemscore.Lipo.Weighted>
-9.6908

> <Gold.Chemscore.Internal_Hbond.Weighted>
0.0000

> <Gold.Chemscore.DEClash.Weighted>
1.0467

> <Gold.Chemscore.DEInternal.Weighted>
3.0049

> <Gold.Chemscore.Rot.Weighted>
4.1692

> <Gold.Chemscore.Internal.Correction.Weighted>
   9.000000E+99

> <Gold.Protein.RotatedTorsions>
[ 6907 6896 6895 6894 ] final   72.12 input  -60.11 | X-H torsion
[ 7974 7965 7964 7962 ] final   54.95 input  175.53 | X-H torsion
[ 8008 7997 7996 7995 ] final -132.72 input   59.86 | X-H torsion
[ 10167 10162 10161 10158 ] final  -99.22 input  -65.29 | X-H torsion
[ 10718 10713 10712 10709 ] final -129.36 input   66.30 | X-H torsion
[ 10763 10752 10751 10750 ] final  140.48 input  -60.55 | X-H torsion
[ 11005 11000 10999 10996 ] final -163.28 input  -57.11 | X-H torsion

> <Gold.Protein.ActiveResidues>
 VAL166  LYS551  ARG553  GLY616  TRP617  ASP618  TYR619  PRO620  LYS621  CYS622 
 ASP623  PHE694  ASN695  SER759  ASP760  ASP761  ALA762  ILE779  LEU786  VAL792 
 PHE793  MET794  SER795  GLU796  ALA797  LYS798  CYS799  TRP800  GLU811  SER814 

> <Gold.Protein.RotatedAtoms>
  152.4849  134.4619  159.9607 H   0  0  0  0  0  0  0  0  0  0  0  0  # atno 6907 bound_to 6896
  151.4617  133.3585  159.2818 H   0  0  0  0  0  0  0  0  0  0  0  0  # atno 6908 bound_to 6896
  150.8952  134.8384  159.7382 H   0  0  0  0  0  0  0  0  0  0  0  0  # atno 6909 bound_to 6896
  145.9555  139.4011  143.0280 H   0  0  0  0  0  0  0  0  0  0  0  0  # atno 7974 bound_to 7965
  155.3336  140.0468  157.3043 H   0  0  0  0  0  0  0  0  0  0  0  0  # atno 8008 bound_to 7997
  154.5315  140.2258  155.8762 H   0  0  0  0  0  0  0  0  0  0  0  0  # atno 8009 bound_to 7997
  156.1793  140.3078  155.9124 H   0  0  0  0  0  0  0  0  0  0  0  0  # atno 8010 bound_to 7997
  140.2647  143.3383  152.0592 H   0  0  0  0  0  0  0  0  0  0  0  0  # atno 10167 bound_to 10162
  156.2039  130.6875  151.0571 H   0  0  0  0  0  0  0  0  0  0  0  0  # atno 10718 bound_to 10713
  153.9234  135.2998  155.3447 H   0  0  0  0  0  0  0  0  0  0  0  0  # atno 10763 bound_to 10752
  154.7564  135.4955  153.9385 H   0  0  0  0  0  0  0  0  0  0  0  0  # atno 10764 bound_to 10752
  153.1130  135.6763  153.9571 H   0  0  0  0  0  0  0  0  0  0  0  0  # atno 10765 bound_to 10752
  140.5999  134.4958  157.5204 H   0  0  0  0  0  0  0  0  0  0  0  0  # atno 11005 bound_to 11000
  145.8112  140.9725  143.0948 LP  0  0  0  0  0  0  0  0  0  0  0  0  # atno 17320 bound_to 7965
  144.6804  139.9923  143.7484 LP  0  0  0  0  0  0  0  0  0  0  0  0  # atno 17321 bound_to 7965
  139.5006  144.6695  151.6275 LP  0  0  0  0  0  0  0  0  0  0  0  0  # atno 17342 bound_to 10162
  140.5937  143.9733  150.6341 LP  0  0  0  0  0  0  0  0  0  0  0  0  # atno 17343 bound_to 10162
  157.7001  131.0779  150.6847 LP  0  0  0  0  0  0  0  0  0  0  0  0  # atno 17370 bound_to 10713
  156.6905  130.4593  149.5601 LP  0  0  0  0  0  0  0  0  0  0  0  0  # atno 17371 bound_to 10713
  139.9237  134.8098  156.1133 LP  0  0  0  0  0  0  0  0  0  0  0  0  # atno 17394 bound_to 11000
  141.0879  133.6726  156.2477 LP  0  0  0  0  0  0  0  0  0  0  0  0  # atno 17395 bound_to 11000

$$$$
