AV-unprocessed.smi:3345|AV-procd|sdf|12901|dock5
  -GOLD-   2272019313D 1   1.00000     0.00000
 Structure written by MMmdl.
 40 41  0  0  0  0  0  0  0  0  1 V2000
  154.6179  140.3431  160.5047 C   0  0  0  0  0  0  0  0  0  0  0  0
  153.6825  141.2502  159.6900 C   0  0  2  0  0  0  0  0  0  0  0  0
  153.0445  142.3455  160.5723 C   0  0  0  0  0  0  0  0  0  0  0  0
  152.6162  143.5490  159.8588 N   0  0  0  0  0  0  0  0  0  0  0  0
  151.5312  143.2906  158.9145 C   0  0  0  0  0  0  0  0  0  0  0  0
  151.0782  144.5728  158.1945 C   0  0  0  0  0  0  0  0  0  0  0  0
  150.6950  145.5517  159.1547 O   0  0  0  0  0  0  0  0  0  0  0  0
  151.7440  145.8679  160.0638 C   0  0  0  0  0  0  0  0  0  0  0  0
  152.1962  144.5899  160.7913 C   0  0  0  0  0  0  0  0  0  0  0  0
  152.6374  140.4236  159.0905 N   0  0  0  0  0  0  0  0  0  0  0  0
  152.8332  139.2622  158.4460 C   0  0  0  0  0  0  0  0  0  0  0  0
  153.9457  138.7623  158.2763 O   0  0  0  0  0  0  0  0  0  0  0  0
  151.5754  138.5536  157.9240 C   0  0  1  0  0  0  0  0  0  0  0  0
  150.6151  138.1696  159.0681 C   0  0  0  0  0  0  0  0  0  0  0  0
  150.9344  139.3703  156.8994 N   0  0  0  0  0  0  0  0  0  0  0  0
  150.7244  139.1102  155.6070 C   0  0  0  0  0  0  0  0  0  0  0  0
  150.1561  140.1058  154.9410 N   0  0  0  0  0  0  0  0  0  0  0  0
  150.0480  141.0211  155.9492 C   0  0  0  0  0  0  0  0  0  0  0  0
  150.5101  140.6367  157.1386 N   0  0  0  0  0  0  0  0  0  0  0  0
  155.4312  140.9169  160.9498 H   0  0  0  0  0  0  0  0  0  0  0  0
  155.0678  139.5746  159.8753 H   0  0  0  0  0  0  0  0  0  0  0  0
  154.0828  139.8418  161.3120 H   0  0  0  0  0  0  0  0  0  0  0  0
  154.2845  141.7306  158.9160 H   0  0  0  0  0  0  0  0  0  0  0  0
  152.2185  141.9350  161.1561 H   0  0  0  0  0  0  0  0  0  0  0  0
  153.7903  142.6492  161.3081 H   0  0  0  0  0  0  0  0  0  0  0  0
  151.8482  142.5666  158.1647 H   0  0  0  0  0  0  0  0  0  0  0  0
  150.6815  142.8502  159.4384 H   0  0  0  0  0  0  0  0  0  0  0  0
  151.8787  144.9650  157.5653 H   0  0  0  0  0  0  0  0  0  0  0  0
  150.2314  144.3623  157.5411 H   0  0  0  0  0  0  0  0  0  0  0  0
  152.5774  146.3230  159.5263 H   0  0  0  0  0  0  0  0  0  0  0  0
  151.3839  146.6051  160.7814 H   0  0  0  0  0  0  0  0  0  0  0  0
  151.3783  144.2220  161.4128 H   0  0  0  0  0  0  0  0  0  0  0  0
  153.0161  144.8343  161.4675 H   0  0  0  0  0  0  0  0  0  0  0  0
  151.6894  140.7593  159.1794 H   0  0  0  0  0  0  0  0  0  0  0  0
  151.8848  137.6258  157.4393 H   0  0  0  0  0  0  0  0  0  0  0  0
  151.1055  137.5094  159.7843 H   0  0  0  0  0  0  0  0  0  0  0  0
  149.7426  137.6417  158.6823 H   0  0  0  0  0  0  0  0  0  0  0  0
  150.2576  139.0416  159.6173 H   0  0  0  0  0  0  0  0  0  0  0  0
  150.9976  138.1742  155.1424 H   0  0  0  0  0  0  0  0  0  0  0  0
  149.6219  142.0024  155.8007 H   0  0  0  0  0  0  0  0  0  0  0  0
  1  2  1  0  0  0  0
  1 20  1  0  0  0  0
  1 21  1  0  0  0  0
  1 22  1  0  0  0  0
  2  3  1  0  0  0  0
  2 10  1  0  0  0  0
  2 23  1  0  0  0  0
  3  4  1  0  0  0  0
  3 24  1  0  0  0  0
  3 25  1  0  0  0  0
  4  9  1  0  0  0  0
  4  5  1  0  0  0  0
  5  6  1  0  0  0  0
  5 26  1  0  0  0  0
  5 27  1  0  0  0  0
  6  7  1  0  0  0  0
  6 28  1  0  0  0  0
  6 29  1  0  0  0  0
  7  8  1  0  0  0  0
  8  9  1  0  0  0  0
  8 30  1  0  0  0  0
  8 31  1  0  0  0  0
  9 32  1  0  0  0  0
  9 33  1  0  0  0  0
 10 11  1  0  0  0  0
 10 34  1  0  0  0  0
 11 12  2  0  0  0  0
 11 13  1  0  0  0  0
 13 14  1  0  0  0  0
 13 15  1  0  0  0  0
 13 35  1  0  0  0  0
 14 36  1  0  0  0  0
 14 37  1  0  0  0  0
 14 38  1  0  0  0  0
 15 19  1  0  0  0  0
 15 16  1  0  0  0  0
 16 17  2  0  0  0  0
 16 39  1  0  0  0  0
 17 18  1  0  0  0  0
 18 19  2  0  0  0  0
 18 40  1  0  0  0  0
M  END
> <s_m_source_file>
AV-unprocessed.smi

> <i_m_source_file_index>
3345

> <i_lp_mmshare_version>
43012

> <i_f3d_flags>
0

> <s_epik_input>
W0NIMl0xW0NIMl1PW0NIMl1bQ0gyXU4xW0NIMl1bQ0BASF0oW0NIM10pW05IXUMoPU8pW0NASF0oW0NIM10pbjJbY0hdbltjSF1uMg==

> <s_epik_cmdline>
J2VwaWtfcHl0aG9uJywgJy1waCcsICc3LjAnLCAnLXRuJywgJzgnLCAnLW1hJywgJzIwMCcsICctbWV0YWxfYmluZGluZycsICctaW1hZScsICc8aW5maWxlLm1hZT4nLCAnLW9tYWUnLCAnPG91dGZpbGUubWFlPic=

> <r_lp_tautomer_probability>
1

> <r_epik_Ionization_Penalty>
0.211373

> <r_epik_Ionization_Penalty_Charging>
0

> <r_epik_Ionization_Penalty_Neutral>
0.211373

> <r_epik_State_Penalty>
0.201459

> <r_epik_Charging_Adjusted_Penalty>
0.201459

> <i_epik_Tot_Q>
0

> <i_epik_Tot_abs_Q>
0

> <r_epik_Metal_State_Penalty>
0.201458

> <b_epik_Metal_Only>
0

> <s_lp_Force_Field>
OPLS_2005

> <r_lp_Energy>
31.9389

> <b_lp_Chiralities_Consistent>
1

> <s_lp_Variant>
AV-unprocessed.smi:3345-3

> <Gold.Version>
5.8.1

> <Gold.Id.Protein>
6NUR|6NUR_protein|mol2

> <Gold.PLP.Fitness>
46.0534

> <Gold.PLP.PLP>
-38.1682

> <Gold.PLP.part.hbond>
-3.5450

> <Gold.PLP.part.metal>
0.0000

> <Gold.PLP.part.buried>
-3.5727

> <Gold.PLP.part.nonpolar>
-29.4831

> <Gold.PLP.part.repulsive>
0.4457

> <Gold.PLP.ligand.clash>
0.0000

> <Gold.PLP.ligand.torsion>
0.4781

> <Gold.PLP.Chemscore.Hbond>
1.9920

> <Gold.PLP.Chemscore.CHOScore>
0.9073

> <Gold.PLP.Chemscore.Metal>
0.0000

> <Gold.Chemscore.Hbonds>
donor molecule, donor type, donor heavy atom, donor atom, acceptor molecule, acceptor atom, score
      P1  H  7989  7998       L1    17  0.59
      P1  H  7997  8008       L1    12  1.00
      L1  C    18    40       P1  8028  0.28

> <Gold.PLP.Chemscore.Internal.Correction>
0.1436

> <Gold.Rescore>
     Score         DG    S(hbond)    S(metal)    S(lipo)     H(rot)  DE(clash)    DE(int)     intcor
      9.49     -12.80       1.31        0.00      80.48       2.54       0.12       3.18       ----

> <Gold.Chemscore.Fitness>
9.4913

> <Gold.Chemscore.DG>
-12.7964

> <Gold.Chemscore.ZeroCoef>
-5.4800

> <Gold.Chemscore.Hbond>
1.3145

> <Gold.Chemscore.Metal>
0.0000

> <Gold.Chemscore.Lipo>
80.4821

> <Gold.Chemscore.Internal_Hbond>
0.0000

> <Gold.Chemscore.DEClash>
0.1239

> <Gold.Chemscore.DEInternal>
3.1812

> <Gold.Chemscore.Rot>
2.5353

> <Gold.Chemscore.Internal.Correction>
   9.000000E+99

> <Gold.Chemscore.Hbonds>
donor molecule, donor type, donor heavy atom, donor atom, acceptor molecule, acceptor atom, score
      P1  H  7989  7998       L1    17  0.25
      P1  H  7997  8008       L1    12  0.30

> <Gold.Chemscore.Hbond.Weighted>
-4.3905

> <Gold.Chemscore.Metal.Weighted>
-0.0000

> <Gold.Chemscore.Lipo.Weighted>
-9.4164

> <Gold.Chemscore.Internal_Hbond.Weighted>
0.0000

> <Gold.Chemscore.DEClash.Weighted>
0.1239

> <Gold.Chemscore.DEInternal.Weighted>
3.1812

> <Gold.Chemscore.Rot.Weighted>
6.4905

> <Gold.Chemscore.Internal.Correction.Weighted>
   9.000000E+99

> <Gold.Protein.RotatedTorsions>
[ 6907 6896 6895 6894 ] final -158.31 input  -60.11 | X-H torsion
[ 7974 7965 7964 7962 ] final -153.93 input  175.53 | X-H torsion
[ 8008 7997 7996 7995 ] final  -94.16 input   59.86 | X-H torsion
[ 10167 10162 10161 10158 ] final -165.43 input  -65.29 | X-H torsion
[ 10718 10713 10712 10709 ] final  -13.31 input   66.30 | X-H torsion
[ 10763 10752 10751 10750 ] final  109.27 input  -60.55 | X-H torsion
[ 11005 11000 10999 10996 ] final  171.15 input  -57.11 | X-H torsion

> <Gold.Protein.ActiveResidues>
 VAL166  LYS551  ARG553  GLY616  TRP617  ASP618  TYR619  PRO620  LYS621  CYS622 
 ASP623  PHE694  ASN695  SER759  ASP760  ASP761  ALA762  ILE779  LEU786  VAL792 
 PHE793  MET794  SER795  GLU796  ALA797  LYS798  CYS799  TRP800  GLU811  SER814 

> <Gold.Protein.RotatedAtoms>
  151.3162  133.4059  159.2650 H   0  0  0  0  0  0  0  0  0  0  0  0  # atno 6907 bound_to 6896
  151.0073  134.9370  159.7998 H   0  0  0  0  0  0  0  0  0  0  0  0  # atno 6908 bound_to 6896
  152.5291  134.3127  159.9172 H   0  0  0  0  0  0  0  0  0  0  0  0  # atno 6909 bound_to 6896
  144.7715  140.4458  143.5903 H   0  0  0  0  0  0  0  0  0  0  0  0  # atno 7974 bound_to 7965
  154.7449  140.0492  157.0843 H   0  0  0  0  0  0  0  0  0  0  0  0  # atno 8008 bound_to 7997
  155.0131  140.3138  155.4803 H   0  0  0  0  0  0  0  0  0  0  0  0  # atno 8009 bound_to 7997
  156.2872  140.2180  156.5246 H   0  0  0  0  0  0  0  0  0  0  0  0  # atno 8010 bound_to 7997
  139.6183  144.0676  152.1908 H   0  0  0  0  0  0  0  0  0  0  0  0  # atno 10167 bound_to 10162
  156.6321  130.4904  149.6125 H   0  0  0  0  0  0  0  0  0  0  0  0  # atno 10718 bound_to 10713
  153.4324  135.3785  155.2178 H   0  0  0  0  0  0  0  0  0  0  0  0  # atno 10763 bound_to 10752
  154.8750  135.3843  154.4252 H   0  0  0  0  0  0  0  0  0  0  0  0  # atno 10764 bound_to 10752
  153.4786  135.7088  153.6014 H   0  0  0  0  0  0  0  0  0  0  0  0  # atno 10765 bound_to 10752
  140.3160  134.7477  157.4027 H   0  0  0  0  0  0  0  0  0  0  0  0  # atno 11005 bound_to 11000
  145.6309  139.1536  143.2969 LP  0  0  0  0  0  0  0  0  0  0  0  0  # atno 17320 bound_to 7965
  146.1865  140.6413  142.9165 LP  0  0  0  0  0  0  0  0  0  0  0  0  # atno 17321 bound_to 7965
  140.0312  144.6080  150.7487 LP  0  0  0  0  0  0  0  0  0  0  0  0  # atno 17342 bound_to 10162
  140.7365  143.2754  151.3758 LP  0  0  0  0  0  0  0  0  0  0  0  0  # atno 17343 bound_to 10162
  156.2227  130.6746  151.1384 LP  0  0  0  0  0  0  0  0  0  0  0  0  # atno 17370 bound_to 10713
  157.7197  131.0689  150.6186 LP  0  0  0  0  0  0  0  0  0  0  0  0  # atno 17371 bound_to 10713
  140.0983  134.5507  155.8377 LP  0  0  0  0  0  0  0  0  0  0  0  0  # atno 17394 bound_to 11000
  141.2097  133.6687  156.6461 LP  0  0  0  0  0  0  0  0  0  0  0  0  # atno 17395 bound_to 11000

$$$$
