AV-unprocessed.smi:1251|AV-procd|sdf|5263|dock1
  -GOLD-   22720 4373D 1   1.00000     0.00000
 Structure written by MMmdl.
 38 39  0  0  0  0  0  0  0  0  2 V2000
  147.6396  141.4055  153.9038 C   0  0  0  0  0  0  0  0  0  0  0  0
  148.9353  141.2791  154.7125 C   0  0  0  0  0  0  0  0  0  0  0  0
  149.5171  139.8589  154.6731 C   0  0  0  0  0  0  0  0  0  0  0  0
  150.7789  139.7343  155.4602 C   0  0  0  0  0  0  0  0  0  0  0  0
  151.9575  139.4517  154.8994 N   0  0  0  0  0  0  0  0  0  0  0  0
  152.9745  139.3605  155.8383 N   0  0  0  0  0  0  0  0  0  0  0  0
  152.5485  139.5507  157.0951 C   0  0  0  0  0  0  0  0  0  0  0  0
  153.3776  139.5034  158.1509 N   0  5  0  0  0  0  0  0  0  0  0  0
  152.9389  139.8835  159.3724 C   0  0  0  0  0  0  0  0  0  0  0  0
  152.4602  139.1459  160.2368 O   0  0  0  0  0  0  0  0  0  0  0  0
  153.0564  141.2004  159.5988 N   0  0  0  0  0  0  0  0  0  0  0  0
  152.6660  141.9210  160.8107 C   0  0  1  0  0  0  0  0  0  0  0  0
  153.6742  141.5975  161.9227 C   0  0  0  0  0  0  0  0  0  0  0  0
  152.5884  143.4364  160.5325 C   0  0  1  0  0  0  0  0  0  0  0  0
  152.1197  143.8170  159.1268 C   0  0  0  0  0  0  0  0  0  0  0  0
  151.5530  145.2164  159.3055 C   0  0  0  0  0  0  0  0  0  0  0  0
  151.3604  145.3499  160.8189 C   0  0  0  0  0  0  0  0  0  0  0  0
  151.5987  144.0511  161.3436 O   0  0  0  0  0  0  0  0  0  0  0  0
  150.8207  139.8845  157.2088 S   0  0  0  0  0  0  0  0  0  0  0  0
  147.2501  142.4227  153.9507 H   0  0  0  0  0  0  0  0  0  0  0  0
  146.8694  140.7357  154.2875 H   0  0  0  0  0  0  0  0  0  0  0  0
  147.8056  141.1606  152.8543 H   0  0  0  0  0  0  0  0  0  0  0  0
  149.6702  141.9861  154.3257 H   0  0  0  0  0  0  0  0  0  0  0  0
  148.7440  141.5677  155.7469 H   0  0  0  0  0  0  0  0  0  0  0  0
  148.7901  139.1441  155.0608 H   0  0  0  0  0  0  0  0  0  0  0  0
  149.7221  139.5671  153.6426 H   0  0  0  0  0  0  0  0  0  0  0  0
  153.4532  141.7555  158.8551 H   0  0  0  0  0  0  0  0  0  0  0  0
  151.6866  141.5789  161.1490 H   0  0  0  0  0  0  0  0  0  0  0  0
  153.4010  142.0876  162.8574 H   0  0  0  0  0  0  0  0  0  0  0  0
  154.6795  141.9255  161.6562 H   0  0  0  0  0  0  0  0  0  0  0  0
  153.7136  140.5248  162.1152 H   0  0  0  0  0  0  0  0  0  0  0  0
  153.5517  143.9078  160.7379 H   0  0  0  0  0  0  0  0  0  0  0  0
  152.9211  143.7739  158.3885 H   0  0  0  0  0  0  0  0  0  0  0  0
  151.3264  143.1431  158.8004 H   0  0  0  0  0  0  0  0  0  0  0  0
  152.2447  145.9758  158.9391 H   0  0  0  0  0  0  0  0  0  0  0  0
  150.6128  145.3289  158.7648 H   0  0  0  0  0  0  0  0  0  0  0  0
  152.0895  146.0449  161.2375 H   0  0  0  0  0  0  0  0  0  0  0  0
  150.3633  145.7019  161.0845 H   0  0  0  0  0  0  0  0  0  0  0  0
  1  2  1  0  0  0  0
  1 20  1  0  0  0  0
  1 21  1  0  0  0  0
  1 22  1  0  0  0  0
  2  3  1  0  0  0  0
  2 23  1  0  0  0  0
  2 24  1  0  0  0  0
  3  4  1  0  0  0  0
  3 25  1  0  0  0  0
  3 26  1  0  0  0  0
  4 19  1  0  0  0  0
  4  5  2  0  0  0  0
  5  6  1  0  0  0  0
  6  7  2  0  0  0  0
  7  8  1  0  0  0  0
  7 19  1  0  0  0  0
  8  9  1  0  0  0  0
  9 10  2  0  0  0  0
  9 11  1  0  0  0  0
 11 12  1  0  0  0  0
 11 27  1  0  0  0  0
 12 13  1  0  0  0  0
 12 14  1  0  0  0  0
 12 28  1  0  0  0  0
 13 29  1  0  0  0  0
 13 30  1  0  0  0  0
 13 31  1  0  0  0  0
 14 18  1  0  0  0  0
 14 15  1  0  0  0  0
 14 32  1  0  0  0  0
 15 16  1  0  0  0  0
 15 33  1  0  0  0  0
 15 34  1  0  0  0  0
 16 17  1  0  0  0  0
 16 35  1  0  0  0  0
 16 36  1  0  0  0  0
 17 18  1  0  0  0  0
 17 37  1  0  0  0  0
 17 38  1  0  0  0  0
M  CHG  1   8  -1
M  END
> <s_m_source_file>
AV-unprocessed.smi

> <i_m_source_file_index>
1251

> <i_lp_mmshare_version>
43012

> <i_f3d_flags>
0

> <s_epik_input>
W0NIM11bQ0gyXVtDSDJdYzFubmMoczEpW05IXUMoPU8pW05IXVtDQEhdKFtDSDNdKVtDQEBIXTJbQ0gyXVtDSDJdW0NIMl1PMg==

> <s_epik_cmdline>
J2VwaWtfcHl0aG9uJywgJy1waCcsICc3LjAnLCAnLXRuJywgJzgnLCAnLW1hJywgJzIwMCcsICctbWV0YWxfYmluZGluZycsICctaW1hZScsICc8aW5maWxlLm1hZT4nLCAnLW9tYWUnLCAnPG91dGZpbGUubWFlPic=

> <r_lp_tautomer_probability>
1

> <r_epik_Ionization_Penalty>
4.22551

> <r_epik_Ionization_Penalty_Charging>
4.21437

> <r_epik_Ionization_Penalty_Neutral>
0.0111434

> <r_epik_State_Penalty>
4.21389

> <r_epik_Charging_Adjusted_Penalty>
8.42826

> <i_epik_Tot_Q>
-1

> <i_epik_Tot_abs_Q>
1

> <r_epik_Metal_State_Penalty>
0.69377

> <b_epik_Metal_Only>
1

> <s_lp_Force_Field>
OPLS_2005

> <r_lp_Energy>
11.5683

> <b_lp_Chiralities_Consistent>
1

> <s_lp_Variant>
AV-unprocessed.smi:1251-8

> <Gold.Version>
5.8.1

> <Gold.Id.Protein>
6NUR|6NUR_protein|mol2

> <Gold.PLP.Fitness>
49.8994

> <Gold.PLP.PLP>
-43.8591

> <Gold.PLP.part.hbond>
-2.7937

> <Gold.PLP.part.metal>
0.0000

> <Gold.PLP.part.buried>
-2.3198

> <Gold.PLP.part.nonpolar>
-37.5181

> <Gold.PLP.part.repulsive>
0.3281

> <Gold.PLP.ligand.clash>
0.0000

> <Gold.PLP.ligand.torsion>
1.6604

> <Gold.PLP.Chemscore.Hbond>
3.0000

> <Gold.PLP.Chemscore.CHOScore>
0.0000

> <Gold.PLP.Chemscore.Metal>
0.0000

> <Gold.Chemscore.Hbonds>
donor molecule, donor type, donor heavy atom, donor atom, acceptor molecule, acceptor atom, score
      P1  H  7989  7998       L1     5  0.53
      P1  H  7997  8009       L1     8  0.80

> <Gold.PLP.Chemscore.Internal.Correction>
0.3611

> <Gold.Rescore>
     Score         DG    S(hbond)    S(metal)    S(lipo)     H(rot)  DE(clash)    DE(int)     intcor
     13.97     -15.37       0.74        0.00      97.20       1.55       0.12       1.29       ----

> <Gold.Chemscore.Fitness>
13.9660

> <Gold.Chemscore.DG>
-15.3717

> <Gold.Chemscore.ZeroCoef>
-5.4800

> <Gold.Chemscore.Hbond>
0.7422

> <Gold.Chemscore.Metal>
0.0000

> <Gold.Chemscore.Lipo>
97.2019

> <Gold.Chemscore.Internal_Hbond>
0.0000

> <Gold.Chemscore.DEClash>
0.1172

> <Gold.Chemscore.DEInternal>
1.2885

> <Gold.Chemscore.Rot>
1.5469

> <Gold.Chemscore.Internal.Correction>
   9.000000E+99

> <Gold.Chemscore.Hbonds>
donor molecule, donor type, donor heavy atom, donor atom, acceptor molecule, acceptor atom, score
      P1  H  7989  7998       L1     5  0.03
      P1  H  7997  8009       L1     8  0.01
      P1  H  7997  8010       L1     6  0.02

> <Gold.Chemscore.Hbond.Weighted>
-2.4791

> <Gold.Chemscore.Metal.Weighted>
-0.0000

> <Gold.Chemscore.Lipo.Weighted>
-11.3726

> <Gold.Chemscore.Internal_Hbond.Weighted>
0.0000

> <Gold.Chemscore.DEClash.Weighted>
0.1172

> <Gold.Chemscore.DEInternal.Weighted>
1.2885

> <Gold.Chemscore.Rot.Weighted>
3.9600

> <Gold.Chemscore.Internal.Correction.Weighted>
   9.000000E+99

> <Gold.Protein.RotatedTorsions>
[ 6907 6896 6895 6894 ] final -110.33 input  -60.11 | X-H torsion
[ 7974 7965 7964 7962 ] final   22.15 input  175.53 | X-H torsion
[ 8008 7997 7996 7995 ] final  149.19 input   59.86 | X-H torsion
[ 10167 10162 10161 10158 ] final -132.36 input  -65.29 | X-H torsion
[ 10718 10713 10712 10709 ] final   21.67 input   66.30 | X-H torsion
[ 10763 10752 10751 10750 ] final -112.70 input  -60.55 | X-H torsion
[ 11005 11000 10999 10996 ] final  134.54 input  -57.11 | X-H torsion

> <Gold.Protein.ActiveResidues>
 VAL166  LYS551  ARG553  GLY616  TRP617  ASP618  TYR619  PRO620  LYS621  CYS622 
 ASP623  PHE694  ASN695  SER759  ASP760  ASP761  ALA762  ILE779  LEU786  VAL792 
 PHE793  MET794  SER795  GLU796  ALA797  LYS798  CYS799  TRP800  GLU811  SER814 

> <Gold.Protein.RotatedAtoms>
  150.7618  133.9398  159.3452 H   0  0  0  0  0  0  0  0  0  0  0  0  # atno 6907 bound_to 6896
  151.7305  135.0874  160.0308 H   0  0  0  0  0  0  0  0  0  0  0  0  # atno 6908 bound_to 6896
  152.3593  133.6239  159.6038 H   0  0  0  0  0  0  0  0  0  0  0  0  # atno 6909 bound_to 6896
  146.2041  139.7926  142.8739 H   0  0  0  0  0  0  0  0  0  0  0  0  # atno 7974 bound_to 7965
  156.2764  140.2108  156.5818 H   0  0  0  0  0  0  0  0  0  0  0  0  # atno 8008 bound_to 7997
  154.7052  140.0517  157.0520 H   0  0  0  0  0  0  0  0  0  0  0  0  # atno 8009 bound_to 7997
  155.0680  140.3173  155.4642 H   0  0  0  0  0  0  0  0  0  0  0  0  # atno 8010 bound_to 7997
  139.9094  143.6512  152.2578 H   0  0  0  0  0  0  0  0  0  0  0  0  # atno 10167 bound_to 10162
  157.1417  130.6635  149.5983 H   0  0  0  0  0  0  0  0  0  0  0  0  # atno 10718 bound_to 10713
  154.8362  135.4481  154.1235 H   0  0  0  0  0  0  0  0  0  0  0  0  # atno 10763 bound_to 10752
  153.2465  135.6922  153.7732 H   0  0  0  0  0  0  0  0  0  0  0  0  # atno 10764 bound_to 10752
  153.7061  135.3364  155.3211 H   0  0  0  0  0  0  0  0  0  0  0  0  # atno 10765 bound_to 10752
  139.9921  134.9511  156.9880 H   0  0  0  0  0  0  0  0  0  0  0  0  # atno 11005 bound_to 11000
  145.3381  141.0281  143.3408 LP  0  0  0  0  0  0  0  0  0  0  0  0  # atno 17320 bound_to 7965
  144.8751  139.4982  143.6749 LP  0  0  0  0  0  0  0  0  0  0  0  0  # atno 17321 bound_to 7965
  139.6956  144.7642  151.1362 LP  0  0  0  0  0  0  0  0  0  0  0  0  # atno 17342 bound_to 10162
  140.7689  143.5528  150.9185 LP  0  0  0  0  0  0  0  0  0  0  0  0  # atno 17343 bound_to 10162
  155.9787  130.4775  150.6673 LP  0  0  0  0  0  0  0  0  0  0  0  0  # atno 17370 bound_to 10713
  157.4301  131.0848  151.1047 LP  0  0  0  0  0  0  0  0  0  0  0  0  # atno 17371 bound_to 10713
  140.4888  134.1214  155.7229 LP  0  0  0  0  0  0  0  0  0  0  0  0  # atno 17394 bound_to 11000
  141.1574  133.8856  157.1939 LP  0  0  0  0  0  0  0  0  0  0  0  0  # atno 17395 bound_to 11000

$$$$
