AV-unprocessed.smi:2686|AV-procd|sdf|10384|dock5
  -GOLD-   2272014413D 1   1.00000     0.00000
 Structure written by MMmdl.
 32 32  0  0  0  0  0  0  0  0  1 V2000
  145.0755  144.4672  153.5149 C   0  0  0  0  0  0  0  0  0  0  0  0
  145.9350  143.3333  153.8186 N   0  0  0  0  0  0  0  0  0  0  0  0
  146.1333  142.8450  155.0509 C   0  0  0  0  0  0  0  0  0  0  0  0
  145.5831  143.3034  156.0532 O   0  0  0  0  0  0  0  0  0  0  0  0
  147.0811  141.6434  155.1575 C   0  0  0  0  0  0  0  0  0  0  0  0
  148.4785  142.0352  155.3255 N   0  0  0  0  0  0  0  0  0  0  0  0
  149.4621  141.2250  155.7468 C   0  0  0  0  0  0  0  0  0  0  0  0
  149.2746  140.0481  156.0604 O   0  0  0  0  0  0  0  0  0  0  0  0
  150.8619  141.8528  155.8134 C   0  0  0  0  0  0  0  0  0  0  0  0
  151.4236  141.8972  157.1739 N   0  0  0  0  0  0  0  0  0  0  0  0
  151.1946  143.0703  157.9192 C   0  0  0  0  0  0  0  0  0  0  0  0
  151.6452  143.2400  159.1770 C   0  0  0  0  0  0  0  0  0  0  0  0
  151.4347  144.5426  159.9330 C   0  0  0  0  0  0  0  0  0  0  0  0
  150.1365  144.8121  160.0732 F   0  0  0  0  0  0  0  0  0  0  0  0
  151.9852  144.4906  161.1465 F   0  0  0  0  0  0  0  0  0  0  0  0
  151.9974  145.5492  159.2656 F   0  0  0  0  0  0  0  0  0  0  0  0
  152.4225  142.1511  159.7355 C   0  0  0  0  0  0  0  0  0  0  0  0
  152.6631  141.0280  159.0309 C   0  0  0  0  0  0  0  0  0  0  0  0
  152.1516  140.8521  157.6697 C   0  0  0  0  0  0  0  0  0  0  0  0
  152.3661  139.8309  157.0162 O   0  0  0  0  0  0  0  0  0  0  0  0
  145.0201  144.6134  152.4362 H   0  0  0  0  0  0  0  0  0  0  0  0
  145.4695  145.3799  153.9633 H   0  0  0  0  0  0  0  0  0  0  0  0
  144.0639  144.3044  153.8896 H   0  0  0  0  0  0  0  0  0  0  0  0
  146.4193  142.8997  153.0458 H   0  0  0  0  0  0  0  0  0  0  0  0
  146.7866  141.0463  156.0207 H   0  0  0  0  0  0  0  0  0  0  0  0
  146.9768  141.0004  154.2814 H   0  0  0  0  0  0  0  0  0  0  0  0
  148.7170  142.9857  155.0820 H   0  0  0  0  0  0  0  0  0  0  0  0
  151.5252  141.2894  155.1552 H   0  0  0  0  0  0  0  0  0  0  0  0
  150.8183  142.8541  155.3814 H   0  0  0  0  0  0  0  0  0  0  0  0
  150.6351  143.8317  157.3949 H   0  0  0  0  0  0  0  0  0  0  0  0
  152.8169  142.2360  160.7373 H   0  0  0  0  0  0  0  0  0  0  0  0
  153.2458  140.2371  159.4796 H   0  0  0  0  0  0  0  0  0  0  0  0
  1  2  1  0  0  0  0
  1 21  1  0  0  0  0
  1 22  1  0  0  0  0
  1 23  1  0  0  0  0
  2  3  1  0  0  0  0
  2 24  1  0  0  0  0
  3  4  2  0  0  0  0
  3  5  1  0  0  0  0
  5  6  1  0  0  0  0
  5 25  1  0  0  0  0
  5 26  1  0  0  0  0
  6  7  1  0  0  0  0
  6 27  1  0  0  0  0
  7  8  2  0  0  0  0
  7  9  1  0  0  0  0
  9 10  1  0  0  0  0
  9 28  1  0  0  0  0
  9 29  1  0  0  0  0
 10 19  1  0  0  0  0
 10 11  1  0  0  0  0
 11 12  2  0  0  0  0
 11 30  1  0  0  0  0
 12 13  1  0  0  0  0
 12 17  1  0  0  0  0
 13 14  1  0  0  0  0
 13 15  1  0  0  0  0
 13 16  1  0  0  0  0
 17 18  2  0  0  0  0
 17 31  1  0  0  0  0
 18 19  1  0  0  0  0
 18 32  1  0  0  0  0
 19 20  2  0  0  0  0
M  END
> <s_m_source_file>
AV-unprocessed.smi

> <i_m_source_file_index>
2686

> <i_lp_mmshare_version>
43012

> <i_f3d_flags>
0

> <s_epik_input>
W0NIM11bTkhdQyg9TylbQ0gyXVtOSF1DKD1PKVtDSDJdbjFbY0hdYyhDKEYpKEYpRilbY0hdW2NIXWMxPU8=

> <s_epik_cmdline>
J2VwaWtfcHl0aG9uJywgJy1waCcsICc3LjAnLCAnLXRuJywgJzgnLCAnLW1hJywgJzIwMCcsICctbWV0YWxfYmluZGluZycsICctaW1hZScsICc8aW5maWxlLm1hZT4nLCAnLW9tYWUnLCAnPG91dGZpbGUubWFlPic=

> <r_lp_tautomer_probability>
1

> <r_epik_Ionization_Penalty>
8.267e-08

> <r_epik_Ionization_Penalty_Charging>
1.5129e-08

> <r_epik_Ionization_Penalty_Neutral>
6.7541e-08

> <r_epik_State_Penalty>
-0

> <r_epik_Charging_Adjusted_Penalty>
1.5129e-08

> <i_epik_Tot_Q>
0

> <i_epik_Tot_abs_Q>
0

> <r_epik_Metal_State_Penalty>
-0

> <b_epik_Metal_Only>
0

> <s_lp_Force_Field>
OPLS_2005

> <r_lp_Energy>
10.5627

> <b_lp_Chiralities_Consistent>
1

> <s_lp_Variant>
AV-unprocessed.smi:2686-1

> <Gold.Version>
5.8.1

> <Gold.Id.Protein>
6NUR|6NUR_protein|mol2

> <Gold.PLP.Fitness>
47.4687

> <Gold.PLP.PLP>
-40.3718

> <Gold.PLP.part.hbond>
-2.0000

> <Gold.PLP.part.metal>
0.0000

> <Gold.PLP.part.buried>
-5.7998

> <Gold.PLP.part.nonpolar>
-32.2591

> <Gold.PLP.part.repulsive>
0.4095

> <Gold.PLP.ligand.clash>
0.0000

> <Gold.PLP.ligand.torsion>
0.8778

> <Gold.PLP.Chemscore.Hbond>
1.9600

> <Gold.PLP.Chemscore.CHOScore>
0.9757

> <Gold.PLP.Chemscore.Metal>
0.0000

> <Gold.Chemscore.Hbonds>
donor molecule, donor type, donor heavy atom, donor atom, acceptor molecule, acceptor atom, score
      L1  H     6    27       P1  8028  0.94
      P1  H  7997  8009       L1    20  0.93
      L1  C    11    30       P1  8028  0.83

> <Gold.PLP.Chemscore.Internal.Correction>
0.0455

> <Gold.Rescore>
     Score         DG    S(hbond)    S(metal)    S(lipo)     H(rot)  DE(clash)    DE(int)     intcor
     12.94     -13.98       1.91        0.00      68.75       2.32       0.18       0.86       ----

> <Gold.Chemscore.Fitness>
12.9404

> <Gold.Chemscore.DG>
-13.9803

> <Gold.Chemscore.ZeroCoef>
-5.4800

> <Gold.Chemscore.Hbond>
1.9136

> <Gold.Chemscore.Metal>
0.0000

> <Gold.Chemscore.Lipo>
68.7513

> <Gold.Chemscore.Internal_Hbond>
0.0000

> <Gold.Chemscore.DEClash>
0.1801

> <Gold.Chemscore.DEInternal>
0.8598

> <Gold.Chemscore.Rot>
2.3184

> <Gold.Chemscore.Internal.Correction>
   9.000000E+99

> <Gold.Chemscore.Hbonds>
donor molecule, donor type, donor heavy atom, donor atom, acceptor molecule, acceptor atom, score
      L1  H     6    27       P1  8028  0.91
      P1  H  7997  8009       L1    20  0.27

> <Gold.Chemscore.Hbond.Weighted>
-6.3916

> <Gold.Chemscore.Metal.Weighted>
-0.0000

> <Gold.Chemscore.Lipo.Weighted>
-8.0439

> <Gold.Chemscore.Internal_Hbond.Weighted>
0.0000

> <Gold.Chemscore.DEClash.Weighted>
0.1801

> <Gold.Chemscore.DEInternal.Weighted>
0.8598

> <Gold.Chemscore.Rot.Weighted>
5.9352

> <Gold.Chemscore.Internal.Correction.Weighted>
   9.000000E+99

> <Gold.Protein.RotatedTorsions>
[ 6907 6896 6895 6894 ] final  113.91 input  -60.11 | X-H torsion
[ 7974 7965 7964 7962 ] final   30.95 input  175.53 | X-H torsion
[ 8008 7997 7996 7995 ] final -171.67 input   59.86 | X-H torsion
[ 10167 10162 10161 10158 ] final  141.70 input  -65.29 | X-H torsion
[ 10718 10713 10712 10709 ] final  161.65 input   66.30 | X-H torsion
[ 10763 10752 10751 10750 ] final -173.38 input  -60.55 | X-H torsion
[ 11005 11000 10999 10996 ] final  -36.37 input  -57.11 | X-H torsion

> <Gold.Protein.ActiveResidues>
 VAL166  LYS551  ARG553  GLY616  TRP617  ASP618  TYR619  PRO620  LYS621  CYS622 
 ASP623  PHE694  ASN695  SER759  ASP760  ASP761  ALA762  ILE779  LEU786  VAL792 
 PHE793  MET794  SER795  GLU796  ALA797  LYS798  CYS799  TRP800  GLU811  SER814 

> <Gold.Protein.RotatedAtoms>
  152.4833  133.8309  159.7102 H   0  0  0  0  0  0  0  0  0  0  0  0  # atno 6907 bound_to 6896
  150.8900  133.7247  159.2914 H   0  0  0  0  0  0  0  0  0  0  0  0  # atno 6908 bound_to 6896
  151.4723  135.1050  159.9807 H   0  0  0  0  0  0  0  0  0  0  0  0  # atno 6909 bound_to 6896
  146.1581  139.6721  142.9053 H   0  0  0  0  0  0  0  0  0  0  0  0  # atno 7974 bound_to 7965
  155.9345  140.1097  157.1105 H   0  0  0  0  0  0  0  0  0  0  0  0  # atno 8008 bound_to 7997
  154.4077  140.1231  156.4912 H   0  0  0  0  0  0  0  0  0  0  0  0  # atno 8009 bound_to 7997
  155.7038  140.3471  155.4947 H   0  0  0  0  0  0  0  0  0  0  0  0  # atno 8010 bound_to 7997
  139.5013  144.6154  151.6175 H   0  0  0  0  0  0  0  0  0  0  0  0  # atno 10167 bound_to 10162
  157.1336  131.0523  151.2360 H   0  0  0  0  0  0  0  0  0  0  0  0  # atno 10718 bound_to 10713
  154.6085  135.2862  155.0458 H   0  0  0  0  0  0  0  0  0  0  0  0  # atno 10763 bound_to 10752
  154.1697  135.6474  153.5010 H   0  0  0  0  0  0  0  0  0  0  0  0  # atno 10764 bound_to 10752
  153.0185  135.5398  154.6830 H   0  0  0  0  0  0  0  0  0  0  0  0  # atno 10765 bound_to 10752
  140.9869  133.7025  156.1782 H   0  0  0  0  0  0  0  0  0  0  0  0  # atno 11005 bound_to 11000
  145.4659  141.0434  143.2726 LP  0  0  0  0  0  0  0  0  0  0  0  0  # atno 17320 bound_to 7965
  144.7989  139.6179  143.7080 LP  0  0  0  0  0  0  0  0  0  0  0  0  # atno 17321 bound_to 7965
  140.5841  143.9895  150.6285 LP  0  0  0  0  0  0  0  0  0  0  0  0  # atno 17342 bound_to 10162
  140.3054  143.3233  152.0931 LP  0  0  0  0  0  0  0  0  0  0  0  0  # atno 17343 bound_to 10162
  157.4370  130.7523  149.7038 LP  0  0  0  0  0  0  0  0  0  0  0  0  # atno 17370 bound_to 10713
  155.9803  130.4031  150.3538 LP  0  0  0  0  0  0  0  0  0  0  0  0  # atno 17371 bound_to 10713
  140.7100  134.4472  157.5582 LP  0  0  0  0  0  0  0  0  0  0  0  0  # atno 17394 bound_to 11000
  139.8975  134.8636  156.2043 LP  0  0  0  0  0  0  0  0  0  0  0  0  # atno 17395 bound_to 11000

$$$$
