#       Name:                AV-unprocessed.smi:2595
#       Creating user name   scv26
#       Creation time:       Fri Mar 27 14:18:21 2020


#       File generated by GOLD software.
#

@<TRIPOS>MOLECULE
AV-unprocessed.smi:2595
    35    36     1
SMALL
NO_CHARGES


@<TRIPOS>ATOM
      1 ****        -5.1619   3.5101   2.1083 C.3            1 S1                 0.0000
      2 ****        -4.6472   2.1349   2.1739 C.1            1 S1                 0.0000
      3 ****        -4.2091   0.9960   2.2192 C.1            1 S1                 0.0000
      4 ****        -3.6668  -0.3729   2.2554 C.3            1 S1                 0.0000
      5 ****        -2.2141  -0.4094   2.1252 N.am           1 S1                 0.0000
      6 ****        -1.5394  -0.4072   0.9659 C.2            1 S1                 0.0000
      7 ****        -2.0845  -0.3764  -0.1370 O.2            1 S1                 0.0000
      8 ****        -0.2132  -0.4575   1.1764 N.am           1 S1                 0.0000
      9 ****         0.8319  -0.4637   0.2145 C.ar           1 S1                 0.0000
     10 ****         0.7057  -0.0336  -1.1296 C.ar           1 S1                 0.0000
     11 ****         1.7537  -0.0528  -1.9814 N.ar           1 S1                 0.0000
     12 ****         2.9168  -0.5023  -1.5024 C.ar           1 S1                 0.0000
     13 ****         4.0819  -0.4858  -2.4425 C.3            1 S1                 0.0000
     14 ****         4.0070  -1.1886  -3.7827 C.3            1 S1                 0.0000
     15 ****         4.8906  -1.7409  -2.6990 C.3            1 S1                 0.0000
     16 ****         3.1590  -0.9099  -0.2535 N.ar           1 S1                 0.0000
     17 ****         2.1178  -0.8917   0.6058 C.ar           1 S1                 0.0000
     18 ****        -4.5856   4.1517   2.7749 H              1 S1                 0.0000
     19 ****        -6.2086   3.5271   2.4117 H              1 S1                 0.0000
     20 ****        -5.0784   3.8869   1.0888 H              1 S1                 0.0000
     21 ****        -3.9464  -0.8202   3.2092 H              1 S1                 0.0000
     22 ****        -4.1476  -0.9604   1.4718 H              1 S1                 0.0000
     23 ****        -1.6832  -0.4383   2.9833 H              1 S1                 0.0000
     24 ****         0.0816  -0.5499   2.1375 H              1 S1                 0.0000
     25 ****        -0.2165   0.3496  -1.5373 H              1 S1                 0.0000
     26 ****         4.6158   0.4613  -2.3938 H              1 S1                 0.0000
     27 ****         3.0987  -1.7407  -4.0171 H              1 S1                 0.0000
     28 ****         4.4896  -0.7040  -4.6288 H              1 S1                 0.0000
     29 ****         5.9660  -1.6278  -2.8193 H              1 S1                 0.0000
     30 ****         4.5703  -2.6605  -2.2132 H              1 S1                 0.0000
     31 ****         2.3147  -1.2238   1.6147 H              1 S1                 0.0000
     32 ****        -3.0821  -0.3512  -0.2011 LP             1 S1                 0.0000
     33 ****        -1.5298  -0.3765  -0.9690 LP             1 S1                 0.0000
     34 ****         1.6630   0.2557  -2.9283 LP             1 S1                 0.0000
     35 ****         4.0681  -1.2140   0.0314 LP             1 S1                 0.0000
@<TRIPOS>BOND
    1    1    2 1     
    2    1   18 1     
    3    1   19 1     
    4    1   20 1     
    5    2    3 3     
    6    3    4 1     
    7    4    5 1     
    8    4   21 1     
    9    4   22 1     
   10    5    6 am    
   11    5   23 1     
   12    6    7 2     
   13    6    8 am    
   14    8    9 1     
   15    8   24 1     
   16    9   17 ar    
   17    9   10 ar    
   18   10   11 ar    
   19   10   25 1     
   20   11   12 ar    
   21   12   13 1     
   22   12   16 ar    
   23   13   15 1     
   24   13   14 1     
   25   13   26 1     
   26   14   15 1     
   27   14   27 1     
   28   14   28 1     
   29   15   29 1     
   30   15   30 1     
   31   16   17 ar    
   32   17   31 1     
   33    7   32 1     
   34    7   33 1     
   35   11   34 1     
   36   16   35 1     
@<TRIPOS>SUBSTRUCTURE
      1 S1             1
@<TRIPOS>SET
LONE_PAIRS      STATIC     ATOMS    <user>   **** ""
4 32 33 34 35
DONOR_HYDROGENS      STATIC     ATOMS    <user>   **** ""
2 23 24
ATOM$BLUE        STATIC     ATOMS    COLORGROUP SYSTEM
4 32 33 34 35
ATOM$RED        STATIC     ATOMS    COLORGROUP SYSTEM
2 23 24
