AV-unprocessed.smi:3127|AV-procd|sdf|11914|dock9
  -GOLD-   2272017293D 1   1.00000     0.00000
 Structure written by MMmdl.
 34 35  0  0  0  0  0  0  0  0  2 V2000
  152.2629  144.5337  157.8652 C   0  0  0  0  0  0  0  0  0  0  0  0
  151.4430  143.5409  158.7171 C   0  0  0  0  0  0  0  0  0  0  0  0
  152.4297  142.7205  159.5713 C   0  0  0  0  0  0  0  0  0  0  0  0
  150.5097  144.3571  159.6328 C   0  0  0  0  0  0  0  0  0  0  0  0
  150.6245  142.6136  157.8409 C   0  0  0  0  0  0  0  0  0  0  0  0
  149.2708  142.3703  157.8929 C   0  0  0  0  0  0  0  0  0  0  0  0
  148.7583  141.2174  156.6917 S   0  0  0  0  0  0  0  0  0  0  0  0
  150.4198  141.1092  156.1305 C   0  0  0  0  0  0  0  0  0  0  0  0
  150.8478  140.1994  155.0243 C   0  0  2  0  0  0  0  0  0  0  0  0
  149.6743  139.3863  154.4458 C   0  0  0  0  0  0  0  0  0  0  0  0
  150.1694  138.4433  153.4242 N   0  3  0  0  0  0  0  0  0  0  0  0
  151.2420  137.5807  153.9586 C   0  0  0  0  0  0  0  0  0  0  0  0
  152.3656  138.4431  154.5605 C   0  0  0  0  0  0  0  0  0  0  0  0
  151.8275  139.3089  155.5546 O   0  0  0  0  0  0  0  0  0  0  0  0
  151.2591  141.8740  156.8340 N   0  0  0  0  0  0  0  0  0  0  0  0
  152.8549  145.2008  158.4929 H   0  0  0  0  0  0  0  0  0  0  0  0
  151.6186  145.1604  157.2471 H   0  0  0  0  0  0  0  0  0  0  0  0
  152.9568  144.0144  157.2028 H   0  0  0  0  0  0  0  0  0  0  0  0
  153.1017  142.1328  158.9447 H   0  0  0  0  0  0  0  0  0  0  0  0
  151.9094  142.0282  160.2341 H   0  0  0  0  0  0  0  0  0  0  0  0
  153.0454  143.3665  160.1979 H   0  0  0  0  0  0  0  0  0  0  0  0
  151.0734  145.0478  160.2609 H   0  0  0  0  0  0  0  0  0  0  0  0
  149.9336  143.7128  160.2979 H   0  0  0  0  0  0  0  0  0  0  0  0
  149.8005  144.9462  159.0502 H   0  0  0  0  0  0  0  0  0  0  0  0
  148.5399  142.7941  158.5657 H   0  0  0  0  0  0  0  0  0  0  0  0
  151.3031  140.8098  154.2423 H   0  0  0  0  0  0  0  0  0  0  0  0
  149.1738  138.8239  155.2357 H   0  0  0  0  0  0  0  0  0  0  0  0
  148.9302  140.0461  153.9987 H   0  0  0  0  0  0  0  0  0  0  0  0
  149.4053  137.8674  153.0998 H   0  0  0  0  0  0  0  0  0  0  0  0
  150.8255  136.9206  154.7206 H   0  0  0  0  0  0  0  0  0  0  0  0
  151.6290  136.9474  153.1602 H   0  0  0  0  0  0  0  0  0  0  0  0
  153.1241  137.8078  155.0180 H   0  0  0  0  0  0  0  0  0  0  0  0
  152.8652  139.0279  153.7863 H   0  0  0  0  0  0  0  0  0  0  0  0
  150.5366  138.9724  152.6461 H   0  0  0  0  0  0  0  0  0  0  0  0
  1  2  1  0  0  0  0
  1 16  1  0  0  0  0
  1 17  1  0  0  0  0
  1 18  1  0  0  0  0
  2  3  1  0  0  0  0
  2  4  1  0  0  0  0
  2  5  1  0  0  0  0
  3 19  1  0  0  0  0
  3 20  1  0  0  0  0
  3 21  1  0  0  0  0
  4 22  1  0  0  0  0
  4 23  1  0  0  0  0
  4 24  1  0  0  0  0
  5 15  1  0  0  0  0
  5  6  2  0  0  0  0
  6  7  1  0  0  0  0
  6 25  1  0  0  0  0
  7  8  1  0  0  0  0
  8  9  1  0  0  0  0
  8 15  2  0  0  0  0
  9 14  1  0  0  0  0
  9 10  1  0  0  0  0
  9 26  1  0  0  0  0
 10 11  1  0  0  0  0
 10 27  1  0  0  0  0
 10 28  1  0  0  0  0
 11 12  1  0  0  0  0
 11 29  1  0  0  0  0
 11 34  1  0  0  0  0
 12 13  1  0  0  0  0
 12 30  1  0  0  0  0
 12 31  1  0  0  0  0
 13 14  1  0  0  0  0
 13 32  1  0  0  0  0
 13 33  1  0  0  0  0
M  CHG  1  11   1
M  END
> <s_m_source_file>
AV-unprocessed.smi

> <i_m_source_file_index>
3127

> <i_lp_mmshare_version>
43012

> <i_f3d_flags>
0

> <s_epik_input>
W0NIM11DKFtDSDNdKShbQ0gzXSljMVtjSF1zYyhuMSlbQ0BASF0yW0NIMl1bTkhdW0NIMl1bQ0gyXU8y

> <s_epik_cmdline>
J2VwaWtfcHl0aG9uJywgJy1waCcsICc3LjAnLCAnLXRuJywgJzgnLCAnLW1hJywgJzIwMCcsICctbWV0YWxfYmluZGluZycsICctaW1hZScsICc8aW5maWxlLm1hZT4nLCAnLW9tYWUnLCAnPG91dGZpbGUubWFlPic=

> <r_epik_Ionization_Penalty>
0.125708

> <r_epik_Ionization_Penalty_Charging>
0.125708

> <r_epik_Ionization_Penalty_Neutral>
5.37588e-07

> <r_epik_State_Penalty>
0.0155352

> <r_epik_Charging_Adjusted_Penalty>
0.141243

> <i_epik_Tot_Q>
1

> <i_epik_Tot_abs_Q>
1

> <r_epik_Metal_State_Penalty>
0.0155796

> <b_epik_Metal_Only>
0

> <s_lp_Force_Field>
OPLS_2005

> <r_lp_Energy>
5.69116

> <b_lp_Chiralities_Consistent>
1

> <s_lp_Variant>
AV-unprocessed.smi:3127-1

> <Gold.Version>
5.8.1

> <Gold.Id.Protein>
6NUR|6NUR_protein|mol2

> <Gold.PLP.Fitness>
38.3652

> <Gold.PLP.PLP>
-31.9098

> <Gold.PLP.part.hbond>
-2.2423

> <Gold.PLP.part.metal>
0.0000

> <Gold.PLP.part.buried>
0.5581

> <Gold.PLP.part.nonpolar>
-29.7954

> <Gold.PLP.part.repulsive>
0.1464

> <Gold.PLP.ligand.clash>
0.0000

> <Gold.PLP.ligand.torsion>
0.1215

> <Gold.PLP.Chemscore.Hbond>
2.2287

> <Gold.PLP.Chemscore.CHOScore>
0.0000

> <Gold.PLP.Chemscore.Metal>
0.0000

> <Gold.Chemscore.Hbonds>
donor molecule, donor type, donor heavy atom, donor atom, acceptor molecule, acceptor atom, score
      L1  H    11    29       P1  7948  1.51
      L1  H    11    34       P1  7957  0.62

> <Gold.PLP.Chemscore.Internal.Correction>
0.0123

> <Gold.Rescore>
     Score         DG    S(hbond)    S(metal)    S(lipo)     H(rot)  DE(clash)    DE(int)     intcor
     17.04     -17.86       0.98        0.00     102.66       1.14       0.72       0.10       ----

> <Gold.Chemscore.Fitness>
17.0419

> <Gold.Chemscore.DG>
-17.8565

> <Gold.Chemscore.ZeroCoef>
-5.4800

> <Gold.Chemscore.Hbond>
0.9826

> <Gold.Chemscore.Metal>
0.0000

> <Gold.Chemscore.Lipo>
102.6605

> <Gold.Chemscore.Internal_Hbond>
0.0000

> <Gold.Chemscore.DEClash>
0.7156

> <Gold.Chemscore.DEInternal>
0.0990

> <Gold.Chemscore.Rot>
1.1393

> <Gold.Chemscore.Internal.Correction>
   9.000000E+99

> <Gold.Chemscore.Hbonds>
donor molecule, donor type, donor heavy atom, donor atom, acceptor molecule, acceptor atom, score
      L1  H    11    29       P1  7948  0.67
      L1  H    11    34       P1  7957  0.13

> <Gold.Chemscore.Hbond.Weighted>
-3.2820

> <Gold.Chemscore.Metal.Weighted>
-0.0000

> <Gold.Chemscore.Lipo.Weighted>
-12.0113

> <Gold.Chemscore.Internal_Hbond.Weighted>
0.0000

> <Gold.Chemscore.DEClash.Weighted>
0.7156

> <Gold.Chemscore.DEInternal.Weighted>
0.0990

> <Gold.Chemscore.Rot.Weighted>
2.9167

> <Gold.Chemscore.Internal.Correction.Weighted>
   9.000000E+99

> <Gold.Protein.RotatedTorsions>
[ 6907 6896 6895 6894 ] final   23.96 input  -60.11 | X-H torsion
[ 7974 7965 7964 7962 ] final -144.11 input  175.53 | X-H torsion
[ 8008 7997 7996 7995 ] final  -47.74 input   59.86 | X-H torsion
[ 10167 10162 10161 10158 ] final   39.00 input  -65.29 | X-H torsion
[ 10718 10713 10712 10709 ] final   96.83 input   66.30 | X-H torsion
[ 10763 10752 10751 10750 ] final  -68.66 input  -60.55 | X-H torsion
[ 11005 11000 10999 10996 ] final -105.28 input  -57.11 | X-H torsion

> <Gold.Protein.ActiveResidues>
 VAL166  LYS551  ARG553  GLY616  TRP617  ASP618  TYR619  PRO620  LYS621  CYS622 
 ASP623  PHE694  ASN695  SER759  ASP760  ASP761  ALA762  ILE779  LEU786  VAL792 
 PHE793  MET794  SER795  GLU796  ALA797  LYS798  CYS799  TRP800  GLU811  SER814 

> <Gold.Protein.RotatedAtoms>
  151.9503  135.0172  160.0541 H   0  0  0  0  0  0  0  0  0  0  0  0  # atno 6907 bound_to 6896
  152.1959  133.4801  159.5041 H   0  0  0  0  0  0  0  0  0  0  0  0  # atno 6908 bound_to 6896
  150.6944  134.1570  159.4205 H   0  0  0  0  0  0  0  0  0  0  0  0  # atno 6909 bound_to 6896
  144.8321  140.5751  143.5508 H   0  0  0  0  0  0  0  0  0  0  0  0  # atno 7974 bound_to 7965
  154.4020  140.1339  156.4225 H   0  0  0  0  0  0  0  0  0  0  0  0  # atno 8008 bound_to 7997
  155.7629  140.3485  155.5187 H   0  0  0  0  0  0  0  0  0  0  0  0  # atno 8009 bound_to 7997
  155.8842  140.0992  157.1454 H   0  0  0  0  0  0  0  0  0  0  0  0  # atno 8010 bound_to 7997
  140.3882  144.1888  150.6130 H   0  0  0  0  0  0  0  0  0  0  0  0  # atno 10167 bound_to 10162
  157.6921  131.0590  150.4551 H   0  0  0  0  0  0  0  0  0  0  0  0  # atno 10718 bound_to 10713
  154.3923  135.6050  153.5850 H   0  0  0  0  0  0  0  0  0  0  0  0  # atno 10763 bound_to 10752
  152.9787  135.5886  154.4283 H   0  0  0  0  0  0  0  0  0  0  0  0  # atno 10764 bound_to 10752
  154.4069  135.2843  155.2039 H   0  0  0  0  0  0  0  0  0  0  0  0  # atno 10765 bound_to 10752
  141.1061  133.8794  157.1715 H   0  0  0  0  0  0  0  0  0  0  0  0  # atno 11005 bound_to 11000
  145.4873  139.1491  143.3729 LP  0  0  0  0  0  0  0  0  0  0  0  0  # atno 17320 bound_to 7965
  146.2623  140.5010  142.8848 LP  0  0  0  0  0  0  0  0  0  0  0  0  # atno 17321 bound_to 7965
  140.4867  143.2361  151.8878 LP  0  0  0  0  0  0  0  0  0  0  0  0  # atno 17342 bound_to 10162
  139.4790  144.5211  151.8800 LP  0  0  0  0  0  0  0  0  0  0  0  0  # atno 17343 bound_to 10162
  156.4900  130.4093  149.6412 LP  0  0  0  0  0  0  0  0  0  0  0  0  # atno 17370 bound_to 10713
  156.3426  130.7390  151.2337 LP  0  0  0  0  0  0  0  0  0  0  0  0  # atno 17371 bound_to 10713
  139.9932  135.0057  157.0022 LP  0  0  0  0  0  0  0  0  0  0  0  0  # atno 17394 bound_to 11000
  140.4899  134.1204  155.7231 LP  0  0  0  0  0  0  0  0  0  0  0  0  # atno 17395 bound_to 11000

$$$$
