AV-unprocessed.smi:103|AV-procd|sdf|981|dock10
  -GOLD-   2262017543D 1   1.00000     0.00000
 Structure written by MMmdl.
 53 55  0  0  0  0  0  0  0  0  1 V2000
  147.4149  135.6909  162.7707 C   0  0  0  0  0  0  0  0  0  0  0  0
  147.5960  136.1539  161.3313 C   0  0  0  0  0  0  0  0  0  0  0  0
  147.9655  137.2988  161.0703 O   0  0  0  0  0  0  0  0  0  0  0  0
  147.3189  135.1846  160.4419 O   0  0  0  0  0  0  0  0  0  0  0  0
  147.7640  135.2869  159.0967 C   0  0  0  0  0  0  0  0  0  0  0  0
  148.1821  133.9040  158.5723 C   0  0  2  0  0  0  0  0  0  0  0  0
  148.2648  133.9125  157.1510 O   0  0  0  0  0  0  0  0  0  0  0  0
  147.0678  133.4578  156.6236 C   0  0  1  0  0  0  0  0  0  0  0  0
  147.2901  133.0788  155.1768 N   0  0  0  0  0  0  0  0  0  0  0  0
  148.2472  132.2231  154.6488 C   0  0  0  0  0  0  0  0  0  0  0  0
  149.5120  131.3031  155.5321 S   0  0  0  0  0  0  0  0  0  0  0  0
  149.8642  129.9005  154.3953 C   0  0  0  0  0  0  0  0  0  0  0  0
  150.6974  132.1649  155.6394 O   0  0  0  0  0  0  0  0  0  0  0  0
  148.8774  130.7694  156.7481 O   0  0  0  0  0  0  0  0  0  0  0  0
  148.2786  132.1011  153.3508 N   0  0  0  0  0  0  0  0  0  0  0  0
  147.2634  132.9373  152.9258 C   0  0  0  0  0  0  0  0  0  0  0  0
  146.7559  133.2822  151.6476 C   0  0  0  0  0  0  0  0  0  0  0  0
  147.2417  132.7734  150.5069 N   0  0  0  0  0  0  0  0  0  0  0  0
  145.7381  134.1687  151.5716 N   0  0  0  0  0  0  0  0  0  0  0  0
  145.2436  134.6942  152.6945 C   0  0  0  0  0  0  0  0  0  0  0  0
  145.6177  134.4653  153.9549 N   0  0  0  0  0  0  0  0  0  0  0  0
  146.6409  133.5636  154.0452 C   0  0  0  0  0  0  0  0  0  0  0  0
  146.6564  132.3165  157.5543 C   0  0  2  0  0  0  0  0  0  0  0  0
  145.2438  132.1516  157.5352 O   0  0  0  0  0  0  0  0  0  0  0  0
  144.6474  131.3267  158.4134 C   0  0  0  0  0  0  0  0  0  0  0  0
  143.1363  131.2817  158.2323 C   0  0  0  0  0  0  0  0  0  0  0  0
  145.2118  130.6596  159.2803 O   0  0  0  0  0  0  0  0  0  0  0  0
  147.1325  132.8303  158.9078 C   0  0  1  0  0  0  0  0  0  0  0  0
  147.7008  131.7545  159.6435 O   0  0  0  0  0  0  0  0  0  0  0  0
  147.9189  131.8771  160.9631 C   0  0  0  0  0  0  0  0  0  0  0  0
  148.6402  130.6693  161.5453 C   0  0  0  0  0  0  0  0  0  0  0  0
  147.5961  132.8355  161.6651 O   0  0  0  0  0  0  0  0  0  0  0  0
  148.3505  135.2820  163.1526 H   0  0  0  0  0  0  0  0  0  0  0  0
  146.6470  134.9196  162.8349 H   0  0  0  0  0  0  0  0  0  0  0  0
  147.1178  136.5264  163.4047 H   0  0  0  0  0  0  0  0  0  0  0  0
  146.9255  135.6580  158.5070 H   0  0  0  0  0  0  0  0  0  0  0  0
  148.5732  136.0070  158.9677 H   0  0  0  0  0  0  0  0  0  0  0  0
  149.1596  133.6387  158.9776 H   0  0  0  0  0  0  0  0  0  0  0  0
  146.3319  134.2607  156.5967 H   0  0  0  0  0  0  0  0  0  0  0  0
  150.5824  129.2300  154.8664 H   0  0  0  0  0  0  0  0  0  0  0  0
  150.2843  130.2684  153.4621 H   0  0  0  0  0  0  0  0  0  0  0  0
  148.9417  129.3575  154.1924 H   0  0  0  0  0  0  0  0  0  0  0  0
  148.0045  132.1120  150.5360 H   0  0  0  0  0  0  0  0  0  0  0  0
  146.8419  133.0488  149.6216 H   0  0  0  0  0  0  0  0  0  0  0  0
  144.4336  135.3971  152.5669 H   0  0  0  0  0  0  0  0  0  0  0  0
  147.2103  131.4166  157.2857 H   0  0  0  0  0  0  0  0  0  0  0  0
  142.8844  130.7956  157.2898 H   0  0  0  0  0  0  0  0  0  0  0  0
  142.7242  132.2909  158.2246 H   0  0  0  0  0  0  0  0  0  0  0  0
  142.6698  130.7245  159.0447 H   0  0  0  0  0  0  0  0  0  0  0  0
  146.2928  133.2751  159.4454 H   0  0  0  0  0  0  0  0  0  0  0  0
  147.9948  129.7914  161.5098 H   0  0  0  0  0  0  0  0  0  0  0  0
  148.9191  130.8528  162.5831 H   0  0  0  0  0  0  0  0  0  0  0  0
  149.5460  130.4573  160.9769 H   0  0  0  0  0  0  0  0  0  0  0  0
  1  2  1  0  0  0  0
  1 33  1  0  0  0  0
  1 34  1  0  0  0  0
  1 35  1  0  0  0  0
  2  3  2  0  0  0  0
  2  4  1  0  0  0  0
  4  5  1  0  0  0  0
  5  6  1  0  0  0  0
  5 36  1  0  0  0  0
  5 37  1  0  0  0  0
  6 28  1  0  0  0  0
  6  7  1  0  0  0  0
  6 38  1  0  0  0  0
  7  8  1  0  0  0  0
  8  9  1  0  0  0  0
  8 23  1  0  0  0  0
  8 39  1  0  0  0  0
  9 22  1  0  0  0  0
  9 10  1  0  0  0  0
 10 11  1  0  0  0  0
 10 15  2  0  0  0  0
 11 12  1  0  0  0  0
 11 13  2  0  0  0  0
 11 14  2  0  0  0  0
 12 40  1  0  0  0  0
 12 41  1  0  0  0  0
 12 42  1  0  0  0  0
 15 16  1  0  0  0  0
 16 22  2  0  0  0  0
 16 17  1  0  0  0  0
 17 18  1  0  0  0  0
 17 19  2  0  0  0  0
 18 43  1  0  0  0  0
 18 44  1  0  0  0  0
 19 20  1  0  0  0  0
 20 21  2  0  0  0  0
 20 45  1  0  0  0  0
 21 22  1  0  0  0  0
 23 24  1  0  0  0  0
 23 28  1  0  0  0  0
 23 46  1  0  0  0  0
 24 25  1  0  0  0  0
 25 26  1  0  0  0  0
 25 27  2  0  0  0  0
 26 47  1  0  0  0  0
 26 48  1  0  0  0  0
 26 49  1  0  0  0  0
 28 29  1  0  0  0  0
 28 50  1  0  0  0  0
 29 30  1  0  0  0  0
 30 31  1  0  0  0  0
 30 32  2  0  0  0  0
 31 51  1  0  0  0  0
 31 52  1  0  0  0  0
 31 53  1  0  0  0  0
M  END
> <s_m_source_file>
AV-unprocessed.smi

> <i_m_source_file_index>
103

> <i_lp_mmshare_version>
43012

> <i_f3d_flags>
0

> <s_epik_input>
W0NIM11DKD1PKU9bQ0gyXVtDQEBIXTFPW0NASF0oW0NAQEhdKE9DKD1PKVtDSDNdKVtDQEhdMU9DKD1PKVtDSDNdKW4oYyhuMilTKD1PKSg9TylbQ0gzXSljKGMyMyluW2NIXW5jM1tOSDJd

> <s_epik_cmdline>
J2VwaWtfcHl0aG9uJywgJy1waCcsICc3LjAnLCAnLXRuJywgJzgnLCAnLW1hJywgJzIwMCcsICctbWV0YWxfYmluZGluZycsICctaW1hZScsICc8aW5maWxlLm1hZT4nLCAnLW9tYWUnLCAnPG91dGZpbGUubWFlPic=

> <r_lp_tautomer_probability>
1

> <r_epik_Ionization_Penalty>
1.51338e-05

> <r_epik_Ionization_Penalty_Charging>
0

> <r_epik_Ionization_Penalty_Neutral>
1.51338e-05

> <r_epik_State_Penalty>
-0

> <r_epik_Charging_Adjusted_Penalty>
0

> <i_epik_Tot_Q>
0

> <i_epik_Tot_abs_Q>
0

> <r_epik_Metal_State_Penalty>
-0

> <b_epik_Metal_Only>
0

> <s_epik_Chemistry_Notes>
This compound has an ester and may undergo hydrolysis at high or low pH. This compound contains an acetal/aminal-like group ( X-CH(R)-Y where X, Y are N, S, or O) that may be acid/base labile, releasing an aldehyde.

> <s_lp_Force_Field>
OPLS_2005

> <r_lp_Energy>
16.7775

> <b_lp_Chiralities_Consistent>
1

> <s_lp_Variant>
AV-unprocessed.smi:103-5

> <Gold.Version>
5.8.1

> <Gold.Id.Protein>
6NUR|6NUR_protein|mol2

> <Gold.PLP.Fitness>
38.6146

> <Gold.PLP.PLP>
-32.1079

> <Gold.PLP.part.hbond>
-3.0000

> <Gold.PLP.part.metal>
0.0000

> <Gold.PLP.part.buried>
-6.7238

> <Gold.PLP.part.nonpolar>
-23.0867

> <Gold.PLP.part.repulsive>
0.5307

> <Gold.PLP.ligand.clash>
0.0000

> <Gold.PLP.ligand.torsion>
2.0164

> <Gold.PLP.Chemscore.Hbond>
2.7920

> <Gold.PLP.Chemscore.CHOScore>
0.0000

> <Gold.PLP.Chemscore.Metal>
0.0000

> <Gold.Chemscore.Hbonds>
donor molecule, donor type, donor heavy atom, donor atom, acceptor molecule, acceptor atom, score
      L1  H    18    43       P1 10747  1.00
      P1  H  6931  6943       L1     3  0.91
      P1  H  6934  6947       L1     3  0.72

> <Gold.PLP.Chemscore.Internal.Correction>
2.1634

> <Gold.Rescore>
     Score         DG    S(hbond)    S(metal)    S(lipo)     H(rot)  DE(clash)    DE(int)     intcor
      2.11      -8.13       2.79        0.00      35.82       4.25       0.00       6.02       ----

> <Gold.Chemscore.Fitness>
2.1132

> <Gold.Chemscore.DG>
-8.1332

> <Gold.Chemscore.ZeroCoef>
-5.4800

> <Gold.Chemscore.Hbond>
2.7936

> <Gold.Chemscore.Metal>
0.0000

> <Gold.Chemscore.Lipo>
35.8242

> <Gold.Chemscore.Internal_Hbond>
0.0000

> <Gold.Chemscore.DEClash>
0.0013

> <Gold.Chemscore.DEInternal>
6.0188

> <Gold.Chemscore.Rot>
4.2456

> <Gold.Chemscore.Internal.Correction>
   9.000000E+99

> <Gold.Chemscore.Hbonds>
donor molecule, donor type, donor heavy atom, donor atom, acceptor molecule, acceptor atom, score
      L1  H    18    43       P1 10747  0.99
      P1  H  6931  6943       L1     3  0.89
      P1  H  6934  6947       L1     3  0.72

> <Gold.Chemscore.Hbond.Weighted>
-9.3305

> <Gold.Chemscore.Metal.Weighted>
-0.0000

> <Gold.Chemscore.Lipo.Weighted>
-4.1914

> <Gold.Chemscore.Internal_Hbond.Weighted>
0.0000

> <Gold.Chemscore.DEClash.Weighted>
0.0013

> <Gold.Chemscore.DEInternal.Weighted>
6.0188

> <Gold.Chemscore.Rot.Weighted>
10.8687

> <Gold.Chemscore.Internal.Correction.Weighted>
   9.000000E+99

> <Gold.Protein.RotatedTorsions>
[ 6907 6896 6895 6894 ] final  134.61 input  -60.11 | X-H torsion
[ 7974 7965 7964 7962 ] final  -56.68 input  175.53 | X-H torsion
[ 8008 7997 7996 7995 ] final  171.42 input   59.86 | X-H torsion
[ 10167 10162 10161 10158 ] final  -32.28 input  -65.29 | X-H torsion
[ 10718 10713 10712 10709 ] final -163.36 input   66.30 | X-H torsion
[ 10763 10752 10751 10750 ] final  131.18 input  -60.55 | X-H torsion
[ 11005 11000 10999 10996 ] final  116.20 input  -57.11 | X-H torsion

> <Gold.Protein.ActiveResidues>
 VAL166  LYS551  ARG553  GLY616  TRP617  ASP618  TYR619  PRO620  LYS621  CYS622 
 ASP623  PHE694  ASN695  SER759  ASP760  ASP761  ALA762  ILE779  LEU786  VAL792 
 PHE793  MET794  SER795  GLU796  ALA797  LYS798  CYS799  TRP800  GLU811  SER814 

> <Gold.Protein.RotatedAtoms>
  152.3094  133.5737  159.5670 H   0  0  0  0  0  0  0  0  0  0  0  0  # atno 6907 bound_to 6896
  150.7316  134.0174  159.3699 H   0  0  0  0  0  0  0  0  0  0  0  0  # atno 6908 bound_to 6896
  151.8068  135.0693  160.0458 H   0  0  0  0  0  0  0  0  0  0  0  0  # atno 6909 bound_to 6896
  145.8598  140.8293  142.9942 H   0  0  0  0  0  0  0  0  0  0  0  0  # atno 7974 bound_to 7965
  156.1273  140.1512  156.9117 H   0  0  0  0  0  0  0  0  0  0  0  0  # atno 8008 bound_to 7997
  154.4881  140.0859  156.7574 H   0  0  0  0  0  0  0  0  0  0  0  0  # atno 8009 bound_to 7997
  155.4320  140.3427  155.4283 H   0  0  0  0  0  0  0  0  0  0  0  0  # atno 8010 bound_to 7997
  140.7223  143.3707  151.1784 H   0  0  0  0  0  0  0  0  0  0  0  0  # atno 10167 bound_to 10162
  156.6236  130.8900  151.2963 H   0  0  0  0  0  0  0  0  0  0  0  0  # atno 10718 bound_to 10713
  153.7701  135.3183  155.3350 H   0  0  0  0  0  0  0  0  0  0  0  0  # atno 10763 bound_to 10752
  154.8199  135.4610  154.0752 H   0  0  0  0  0  0  0  0  0  0  0  0  # atno 10764 bound_to 10752
  153.2009  135.6922  153.8316 H   0  0  0  0  0  0  0  0  0  0  0  0  # atno 10765 bound_to 10752
  139.9033  134.9595  156.7161 H   0  0  0  0  0  0  0  0  0  0  0  0  # atno 11005 bound_to 11000
  144.6727  140.1079  143.7457 LP  0  0  0  0  0  0  0  0  0  0  0  0  # atno 17320 bound_to 7965
  145.9261  139.2576  143.1353 LP  0  0  0  0  0  0  0  0  0  0  0  0  # atno 17321 bound_to 7965
  139.7277  143.9122  152.3008 LP  0  0  0  0  0  0  0  0  0  0  0  0  # atno 17342 bound_to 10162
  139.8900  144.6970  150.8781 LP  0  0  0  0  0  0  0  0  0  0  0  0  # atno 17343 bound_to 10162
  157.7220  130.9572  150.1479 LP  0  0  0  0  0  0  0  0  0  0  0  0  # atno 17370 bound_to 10713
  156.2292  130.3680  149.8465 LP  0  0  0  0  0  0  0  0  0  0  0  0  # atno 17371 bound_to 10713
  140.7037  133.9284  155.8040 LP  0  0  0  0  0  0  0  0  0  0  0  0  # atno 17394 bound_to 11000
  141.0352  134.0699  157.3967 LP  0  0  0  0  0  0  0  0  0  0  0  0  # atno 17395 bound_to 11000

$$$$
