#       Name:                AV-unprocessed.smi:111
#       Creating user name   scv26
#       Creation time:       Thu Mar 26 18:17:01 2020


#       File generated by GOLD software.
#

@<TRIPOS>MOLECULE
AV-unprocessed.smi:111
    54    56     1
SMALL
NO_CHARGES


@<TRIPOS>ATOM
      1 ****        -0.1879  -0.4947  -3.3454 O.2            1 S1                 0.0000
      2 ****        -0.7004  -0.1100  -2.2928 C.2            1 S1                 0.0000
      3 ****        -0.8352   1.2979  -1.9371 C.2            1 S1                 0.0000
      4 ****        -0.3719   2.2423  -2.7733 F              1 S1                 0.0000
      5 ****        -1.4135   1.6706  -0.7756 C.2            1 S1                 0.0000
      6 ****        -1.9141   0.7647   0.1434 N.am           1 S1                 0.0000
      7 ****        -2.5585   1.2342   1.4281 C.3            1 S1                 0.0000
      8 ****        -1.5027   1.3924   2.5281 C.3            1 S1                 0.0000
      9 ****        -1.2134   2.8772   2.4772 C.3            1 S1                 0.0000
     10 ****        -2.5787   3.4424   2.1059 C.3            1 S1                 0.0000
     11 ****        -3.1407   2.4874   1.2112 O.3            1 S1                 0.0000
     12 ****        -1.8025  -0.6211  -0.1042 C.2            1 S1                 0.0000
     13 ****        -2.2069  -1.4408   0.7234 O.2            1 S1                 0.0000
     14 ****        -1.2014  -1.0163  -1.3249 N.am           1 S1                 0.0000
     15 ****        -1.0671  -2.4392  -1.6120 C.3            1 S1                 0.0000
     16 ****         0.3683  -2.9890  -1.4385 C.3            1 S1                 0.0000
     17 ****         0.4112  -4.2956  -1.9742 O.3            1 S1                 0.0000
     18 ****         0.8768  -3.0238   0.0226 C.3            1 S1                 0.0000
     19 ****         2.3071  -2.4829   0.1913 C.3            1 S1                 0.0000
     20 ****         2.4039  -0.9908  -0.0810 C.ar           1 S1                 0.0000
     21 ****         2.9702  -0.5178  -1.2839 C.ar           1 S1                 0.0000
     22 ****         3.0360   0.8657  -1.5396 C.ar           1 S1                 0.0000
     23 ****         2.5425   1.7821  -0.5912 C.ar           1 S1                 0.0000
     24 ****         1.9842   1.3143   0.6136 C.ar           1 S1                 0.0000
     25 ****         1.9139  -0.0688   0.8676 C.ar           1 S1                 0.0000
     26 ****        -1.4784   2.7274  -0.5638 H              1 S1                 0.0000
     27 ****        -3.3394   0.5113   1.6685 H              1 S1                 0.0000
     28 ****        -1.9545   1.1248   3.4840 H              1 S1                 0.0000
     29 ****        -0.6303   0.7602   2.3618 H              1 S1                 0.0000
     30 ****        -0.8288   3.2711   3.4182 H              1 S1                 0.0000
     31 ****        -0.4897   3.0970   1.6923 H              1 S1                 0.0000
     32 ****        -3.2144   3.5141   2.9894 H              1 S1                 0.0000
     33 ****        -2.5159   4.4301   1.6489 H              1 S1                 0.0000
     34 ****        -1.7835  -2.9982  -1.0095 H              1 S1                 0.0000
     35 ****        -1.4123  -2.5658  -2.6403 H              1 S1                 0.0000
     36 ****         1.0468  -2.4012  -2.0542 H              1 S1                 0.0000
     37 ****         1.3017  -4.6088  -1.9313 H              1 S1                 0.0000
     38 ****         0.2198  -2.4541   0.6764 H              1 S1                 0.0000
     39 ****         0.8309  -4.0438   0.4074 H              1 S1                 0.0000
     40 ****         2.6467  -2.6656   1.2113 H              1 S1                 0.0000
     41 ****         2.9933  -3.0265  -0.4594 H              1 S1                 0.0000
     42 ****         3.3457  -1.2142  -2.0193 H              1 S1                 0.0000
     43 ****         3.4635   1.2236  -2.4646 H              1 S1                 0.0000
     44 ****         2.5919   2.8428  -0.7883 H              1 S1                 0.0000
     45 ****         1.6080   2.0161   1.3423 H              1 S1                 0.0000
     46 ****         1.4782  -0.4219   1.7907 H              1 S1                 0.0000
     47 ****        -0.1156  -1.4733  -3.5379 LP             1 S1                 0.0000
     48 ****         0.1557   0.1718  -4.0070 LP             1 S1                 0.0000
     49 ****        -4.1266   2.4268   1.3669 LP             1 S1                 0.0000
     50 ****        -2.9691   2.7744   0.2688 LP             1 S1                 0.0000
     51 ****        -2.6182  -1.1262   1.5789 LP             1 S1                 0.0000
     52 ****        -2.1235  -2.4201   0.5391 LP             1 S1                 0.0000
     53 ****         0.1048  -4.2800  -2.9259 LP             1 S1                 0.0000
     54 ****        -0.1840  -4.8978  -1.4422 LP             1 S1                 0.0000
@<TRIPOS>BOND
    1    1    2 2     
    2    2   14 am    
    3    2    3 1     
    4    3    4 1     
    5    3    5 2     
    6    5    6 1     
    7    5   26 1     
    8    6    7 1     
    9    6   12 am    
   10    7   11 1     
   11    7    8 1     
   12    7   27 1     
   13    8    9 1     
   14    8   28 1     
   15    8   29 1     
   16    9   10 1     
   17    9   30 1     
   18    9   31 1     
   19   10   11 1     
   20   10   32 1     
   21   10   33 1     
   22   12   13 2     
   23   12   14 am    
   24   14   15 1     
   25   15   16 1     
   26   15   34 1     
   27   15   35 1     
   28   16   17 1     
   29   16   18 1     
   30   16   36 1     
   31   17   37 1     
   32   18   19 1     
   33   18   38 1     
   34   18   39 1     
   35   19   20 1     
   36   19   40 1     
   37   19   41 1     
   38   20   25 ar    
   39   20   21 ar    
   40   21   22 ar    
   41   21   42 1     
   42   22   23 ar    
   43   22   43 1     
   44   23   24 ar    
   45   23   44 1     
   46   24   25 ar    
   47   24   45 1     
   48   25   46 1     
   49    1   47 1     
   50    1   48 1     
   51   11   49 1     
   52   11   50 1     
   53   13   51 1     
   54   13   52 1     
   55   17   53 1     
   56   17   54 1     
@<TRIPOS>SUBSTRUCTURE
      1 S1             1
@<TRIPOS>SET
LONE_PAIRS      STATIC     ATOMS    <user>   **** ""
8 47 48 49 50 51 52 53 54
DONOR_HYDROGENS      STATIC     ATOMS    <user>   **** ""
1 37
ATOM$BLUE        STATIC     ATOMS    COLORGROUP SYSTEM
8 47 48 49 50 51 52 53 54
ATOM$RED        STATIC     ATOMS    COLORGROUP SYSTEM
1 37
