AV-unprocessed.smi:3284|AV-procd|sdf|12573|dock1
  -GOLD-   2272018493D 1   1.00000     0.00000
 Structure written by MMmdl.
 44 45  0  0  0  0  0  0  0  0  2 V2000
  151.0670  145.2710  159.5125 C   0  0  0  0  0  0  0  0  0  0  0  0
  151.6878  144.0044  160.0779 C   0  0  0  0  0  0  0  0  0  0  0  0
  152.2046  144.0117  161.3216 C   0  0  0  0  0  0  0  0  0  0  0  0
  152.9134  142.8382  161.9573 C   0  0  0  0  0  0  0  0  0  0  0  0
  153.4138  141.8577  160.8943 C   0  0  0  0  0  0  0  0  0  0  0  0
  152.3035  141.4980  159.8935 C   0  0  2  0  0  0  0  0  0  0  0  0
  152.8313  140.4430  158.9017 C   0  0  0  0  0  0  0  0  0  0  0  0
  151.7199  142.7542  159.1747 C   0  0  1  0  0  0  0  0  0  0  0  0
  150.3335  142.4184  158.5636 C   0  0  0  0  0  0  0  0  0  0  0  0
  150.2795  142.6237  157.1015 N   0  3  0  0  0  0  0  0  0  0  0  0
  149.9193  141.4132  156.3387 C   0  0  0  0  0  0  0  0  0  0  0  0
  149.5865  141.7551  154.8808 C   0  0  0  0  0  0  0  0  0  0  0  0
  148.6371  140.7713  154.2710 C   0  0  0  0  0  0  0  0  0  0  0  0
  148.9304  139.4881  154.0853 N   0  0  0  0  0  0  0  0  0  0  0  0
  147.8000  138.9493  153.4797 C   0  0  0  0  0  0  0  0  0  0  0  0
  146.8589  139.9364  153.3127 C   0  0  0  0  0  0  0  0  0  0  0  0
  147.4121  141.1048  153.8198 N   0  0  0  0  0  0  0  0  0  0  0  0
  146.7742  142.4069  153.8444 C   0  0  0  0  0  0  0  0  0  0  0  0
  151.4841  145.4960  158.5307 H   0  0  0  0  0  0  0  0  0  0  0  0
  151.2618  146.1291  160.1570 H   0  0  0  0  0  0  0  0  0  0  0  0
  149.9852  145.1704  159.4258 H   0  0  0  0  0  0  0  0  0  0  0  0
  152.1387  144.9037  161.9278 H   0  0  0  0  0  0  0  0  0  0  0  0
  153.7554  143.2048  162.5449 H   0  0  0  0  0  0  0  0  0  0  0  0
  152.2281  142.3473  162.6489 H   0  0  0  0  0  0  0  0  0  0  0  0
  154.2572  142.2985  160.3606 H   0  0  0  0  0  0  0  0  0  0  0  0
  153.7936  140.9595  161.3826 H   0  0  0  0  0  0  0  0  0  0  0  0
  151.5000  141.0362  160.4701 H   0  0  0  0  0  0  0  0  0  0  0  0
  153.6324  140.8487  158.2829 H   0  0  0  0  0  0  0  0  0  0  0  0
  152.0549  140.0712  158.2347 H   0  0  0  0  0  0  0  0  0  0  0  0
  153.2327  139.5779  159.4304 H   0  0  0  0  0  0  0  0  0  0  0  0
  152.4011  143.0036  158.3597 H   0  0  0  0  0  0  0  0  0  0  0  0
  150.0671  141.3788  158.7465 H   0  0  0  0  0  0  0  0  0  0  0  0
  149.5625  143.0205  159.0465 H   0  0  0  0  0  0  0  0  0  0  0  0
  149.5944  143.3402  156.9071 H   0  0  0  0  0  0  0  0  0  0  0  0
  150.7479  140.7047  156.3768 H   0  0  0  0  0  0  0  0  0  0  0  0
  149.0617  140.9333  156.8123 H   0  0  0  0  0  0  0  0  0  0  0  0
  149.1331  142.7459  154.8282 H   0  0  0  0  0  0  0  0  0  0  0  0
  150.4970  141.8062  154.2831 H   0  0  0  0  0  0  0  0  0  0  0  0
  147.7527  137.9041  153.2117 H   0  0  0  0  0  0  0  0  0  0  0  0
  145.8685  139.9041  152.8827 H   0  0  0  0  0  0  0  0  0  0  0  0
  145.8459  142.3811  153.2730 H   0  0  0  0  0  0  0  0  0  0  0  0
  147.4349  143.1545  153.4050 H   0  0  0  0  0  0  0  0  0  0  0  0
  146.5474  142.6860  154.8736 H   0  0  0  0  0  0  0  0  0  0  0  0
  151.1835  142.9476  156.7884 H   0  0  0  0  0  0  0  0  0  0  0  0
  1  2  1  0  0  0  0
  1 19  1  0  0  0  0
  1 20  1  0  0  0  0
  1 21  1  0  0  0  0
  2  8  1  0  0  0  0
  2  3  2  0  0  0  0
  3  4  1  0  0  0  0
  3 22  1  0  0  0  0
  4  5  1  0  0  0  0
  4 23  1  0  0  0  0
  4 24  1  0  0  0  0
  5  6  1  0  0  0  0
  5 25  1  0  0  0  0
  5 26  1  0  0  0  0
  6  7  1  0  0  0  0
  6  8  1  0  0  0  0
  6 27  1  0  0  0  0
  7 28  1  0  0  0  0
  7 29  1  0  0  0  0
  7 30  1  0  0  0  0
  8  9  1  0  0  0  0
  8 31  1  0  0  0  0
  9 10  1  0  0  0  0
  9 32  1  0  0  0  0
  9 33  1  0  0  0  0
 10 11  1  0  0  0  0
 10 34  1  0  0  0  0
 10 44  1  0  0  0  0
 11 12  1  0  0  0  0
 11 35  1  0  0  0  0
 11 36  1  0  0  0  0
 12 13  1  0  0  0  0
 12 37  1  0  0  0  0
 12 38  1  0  0  0  0
 13 17  1  0  0  0  0
 13 14  2  0  0  0  0
 14 15  1  0  0  0  0
 15 16  2  0  0  0  0
 15 39  1  0  0  0  0
 16 17  1  0  0  0  0
 16 40  1  0  0  0  0
 17 18  1  0  0  0  0
 18 41  1  0  0  0  0
 18 42  1  0  0  0  0
 18 43  1  0  0  0  0
M  CHG  1  10   1
M  END
> <s_m_source_file>
AV-unprocessed.smi

> <i_m_source_file_index>
3284

> <i_lp_mmshare_version>
43012

> <i_f3d_flags>
0

> <s_epik_input>
W0NIM11DMT1bQ0hdW0NIMl1bQ0gyXVtDQEBIXShbQ0gzXSlbQ0BIXTFbQ0gyXVtOSF1bQ0gyXVtDSDJdYzJuW2NIXVtjSF1uMltDSDNd

> <s_epik_cmdline>
J2VwaWtfcHl0aG9uJywgJy1waCcsICc3LjAnLCAnLXRuJywgJzgnLCAnLW1hJywgJzIwMCcsICctbWV0YWxfYmluZGluZycsICctaW1hZScsICc8aW5maWxlLm1hZT4nLCAnLW9tYWUnLCAnPG91dGZpbGUubWFlPic=

> <r_lp_tautomer_probability>
1

> <r_epik_Ionization_Penalty>
0.150779

> <r_epik_Ionization_Penalty_Charging>
0.150779

> <r_epik_Ionization_Penalty_Neutral>
1.39452e-13

> <r_epik_State_Penalty>
0.349447

> <r_epik_Charging_Adjusted_Penalty>
0.500226

> <i_epik_Tot_Q>
1

> <i_epik_Tot_abs_Q>
1

> <r_epik_Metal_State_Penalty>
0.000470967

> <b_epik_Metal_Only>
0

> <s_lp_Force_Field>
OPLS_2005

> <r_lp_Energy>
12.7039

> <b_lp_Chiralities_Consistent>
1

> <s_lp_Variant>
AV-unprocessed.smi:3284-2

> <Gold.Version>
5.8.1

> <Gold.Id.Protein>
6NUR|6NUR_protein|mol2

> <Gold.PLP.Fitness>
54.6686

> <Gold.PLP.PLP>
-45.2433

> <Gold.PLP.part.hbond>
-1.0000

> <Gold.PLP.part.metal>
0.0000

> <Gold.PLP.part.buried>
-4.3732

> <Gold.PLP.part.nonpolar>
-39.9950

> <Gold.PLP.part.repulsive>
0.4104

> <Gold.PLP.ligand.clash>
0.0000

> <Gold.PLP.ligand.torsion>
1.3152

> <Gold.PLP.Chemscore.Hbond>
2.0000

> <Gold.PLP.Chemscore.CHOScore>
2.0000

> <Gold.PLP.Chemscore.Metal>
0.0000

> <Gold.Chemscore.Hbonds>
donor molecule, donor type, donor heavy atom, donor atom, acceptor molecule, acceptor atom, score
      L1  H    10    34       P1  8028  1.95
      L1  C    15    39       P1  7948  1.00
      L1  C    16    40       P1 10175  1.00

> <Gold.PLP.Chemscore.Internal.Correction>
0.0557

> <Gold.Rescore>
     Score         DG    S(hbond)    S(metal)    S(lipo)     H(rot)  DE(clash)    DE(int)     intcor
     17.82     -19.18       0.98        0.00     124.22       1.61       0.06       1.29       ----

> <Gold.Chemscore.Fitness>
17.8232

> <Gold.Chemscore.DG>
-19.1797

> <Gold.Chemscore.ZeroCoef>
-5.4800

> <Gold.Chemscore.Hbond>
0.9847

> <Gold.Chemscore.Metal>
0.0000

> <Gold.Chemscore.Lipo>
124.2200

> <Gold.Chemscore.Internal_Hbond>
0.0000

> <Gold.Chemscore.DEClash>
0.0616

> <Gold.Chemscore.DEInternal>
1.2949

> <Gold.Chemscore.Rot>
1.6105

> <Gold.Chemscore.Internal.Correction>
   9.000000E+99

> <Gold.Chemscore.Hbonds>
donor molecule, donor type, donor heavy atom, donor atom, acceptor molecule, acceptor atom, score
      L1  H    10    34       P1  8028  0.90

> <Gold.Chemscore.Hbond.Weighted>
-3.2890

> <Gold.Chemscore.Metal.Weighted>
-0.0000

> <Gold.Chemscore.Lipo.Weighted>
-14.5337

> <Gold.Chemscore.Internal_Hbond.Weighted>
0.0000

> <Gold.Chemscore.DEClash.Weighted>
0.0616

> <Gold.Chemscore.DEInternal.Weighted>
1.2949

> <Gold.Chemscore.Rot.Weighted>
4.1230

> <Gold.Chemscore.Internal.Correction.Weighted>
   9.000000E+99

> <Gold.Protein.RotatedTorsions>
[ 6907 6896 6895 6894 ] final   51.08 input  -60.11 | X-H torsion
[ 7974 7965 7964 7962 ] final  -63.52 input  175.53 | X-H torsion
[ 8008 7997 7996 7995 ] final -123.04 input   59.86 | X-H torsion
[ 10167 10162 10161 10158 ] final   85.22 input  -65.29 | X-H torsion
[ 10718 10713 10712 10709 ] final   22.58 input   66.30 | X-H torsion
[ 10763 10752 10751 10750 ] final  -95.45 input  -60.55 | X-H torsion
[ 11005 11000 10999 10996 ] final   16.92 input  -57.11 | X-H torsion

> <Gold.Protein.ActiveResidues>
 VAL166  LYS551  ARG553  GLY616  TRP617  ASP618  TYR619  PRO620  LYS621  CYS622 
 ASP623  PHE694  ASN695  SER759  ASP760  ASP761  ALA762  ILE779  LEU786  VAL792 
 PHE793  MET794  SER795  GLU796  ALA797  LYS798  CYS799  TRP800  GLU811  SER814 

> <Gold.Protein.RotatedAtoms>
  152.3088  134.7522  160.0340 H   0  0  0  0  0  0  0  0  0  0  0  0  # atno 6907 bound_to 6896
  151.8010  133.3365  159.3535 H   0  0  0  0  0  0  0  0  0  0  0  0  # atno 6908 bound_to 6896
  150.7310  134.5683  159.5922 H   0  0  0  0  0  0  0  0  0  0  0  0  # atno 6909 bound_to 6896
  145.7780  140.8777  143.0345 H   0  0  0  0  0  0  0  0  0  0  0  0  # atno 7974 bound_to 7965
  155.1741  140.0409  157.2869 H   0  0  0  0  0  0  0  0  0  0  0  0  # atno 8008 bound_to 7997
  154.6249  140.2510  155.7477 H   0  0  0  0  0  0  0  0  0  0  0  0  # atno 8009 bound_to 7997
  156.2454  140.2887  156.0574 H   0  0  0  0  0  0  0  0  0  0  0  0  # atno 8010 bound_to 7997
  139.9000  144.6335  150.8647 H   0  0  0  0  0  0  0  0  0  0  0  0  # atno 10167 bound_to 10162
  157.1542  130.6688  149.6022 H   0  0  0  0  0  0  0  0  0  0  0  0  # atno 10718 bound_to 10713
  154.7149  135.5120  153.8722 H   0  0  0  0  0  0  0  0  0  0  0  0  # atno 10763 bound_to 10752
  153.0812  135.6632  154.0051 H   0  0  0  0  0  0  0  0  0  0  0  0  # atno 10764 bound_to 10752
  153.9885  135.3022  155.3393 H   0  0  0  0  0  0  0  0  0  0  0  0  # atno 10765 bound_to 10752
  140.4417  134.1315  155.7691 H   0  0  0  0  0  0  0  0  0  0  0  0  # atno 11005 bound_to 11000
  144.6801  139.9949  143.7484 LP  0  0  0  0  0  0  0  0  0  0  0  0  # atno 17320 bound_to 7965
  146.0102  139.3164  143.0874 LP  0  0  0  0  0  0  0  0  0  0  0  0  # atno 17321 bound_to 7965
  140.7709  143.3444  151.2141 LP  0  0  0  0  0  0  0  0  0  0  0  0  # atno 17342 bound_to 10162
  139.7034  143.9496  152.2916 LP  0  0  0  0  0  0  0  0  0  0  0  0  # atno 17343 bound_to 10162
  155.9765  130.4734  150.6532 LP  0  0  0  0  0  0  0  0  0  0  0  0  # atno 17370 bound_to 10713
  157.4192  131.0834  151.1147 LP  0  0  0  0  0  0  0  0  0  0  0  0  # atno 17371 bound_to 10713
  141.1702  133.8623  157.1592 LP  0  0  0  0  0  0  0  0  0  0  0  0  # atno 17394 bound_to 11000
  140.0065  135.0006  157.0304 LP  0  0  0  0  0  0  0  0  0  0  0  0  # atno 17395 bound_to 11000

$$$$
