AV-unprocessed.smi:1854|AV-procd|sdf|7530|dock6
  -GOLD-   22720 9243D 1   1.00000     0.00000
 Structure written by MMmdl.
 40 42  0  0  0  0  0  0  0  0  2 V2000
  150.4203  135.8748  156.2666 O   0  0  0  0  0  0  0  0  0  0  0  0
  150.6057  135.5496  155.0951 C   0  0  0  0  0  0  0  0  0  0  0  0
  151.0807  136.3726  154.1492 N   0  0  0  0  0  0  0  0  0  0  0  0
  151.4980  137.7532  154.3761 C   0  0  0  0  0  0  0  0  0  0  0  0
  150.3798  138.7526  154.3436 C   0  0  0  0  0  0  0  0  0  0  0  0
  149.2462  138.6958  153.5849 N   0  3  0  0  0  0  0  0  0  0  0  0
  148.4513  139.8155  153.8322 C   0  0  0  0  0  0  0  0  0  0  0  0
  147.2217  140.1968  153.3040 C   0  0  0  0  0  0  0  0  0  0  0  0
  146.6818  141.4129  153.7722 C   0  0  0  0  0  0  0  0  0  0  0  0
  147.3597  142.1979  154.7279 C   0  0  0  0  0  0  0  0  0  0  0  0
  148.6047  141.7994  155.2578 C   0  0  0  0  0  0  0  0  0  0  0  0
  149.1300  140.5952  154.7900 C   0  0  0  0  0  0  0  0  0  0  0  0
  150.3079  139.8985  155.0798 N   0  0  0  0  0  0  0  0  0  0  0  0
  151.2449  140.4539  156.0643 C   0  0  0  0  0  0  0  0  0  0  0  0
  150.8792  140.0475  157.4968 C   0  0  0  0  0  0  0  0  0  0  0  0
  151.9048  140.5058  158.3648 O   0  0  0  0  0  0  0  0  0  0  0  0
  151.9631  141.8520  158.6598 C   0  0  0  0  0  0  0  0  0  0  0  0
  151.3402  142.8598  157.8796 C   0  0  0  0  0  0  0  0  0  0  0  0
  151.4453  144.2153  158.2470 C   0  0  0  0  0  0  0  0  0  0  0  0
  152.1719  144.5822  159.3941 C   0  0  0  0  0  0  0  0  0  0  0  0
  152.7937  143.5909  160.1748 C   0  0  0  0  0  0  0  0  0  0  0  0
  152.6894  142.2342  159.8102 C   0  0  0  0  0  0  0  0  0  0  0  0
  153.4618  141.0374  160.7873 Cl  0  0  0  0  0  0  0  0  0  0  0  0
  150.4021  134.5498  154.6817 H   0  0  0  0  0  0  0  0  0  0  0  0
  151.1929  136.0083  153.2140 H   0  0  0  0  0  0  0  0  0  0  0  0
  152.0229  137.8373  155.3292 H   0  0  0  0  0  0  0  0  0  0  0  0
  152.2201  138.0148  153.6022 H   0  0  0  0  0  0  0  0  0  0  0  0
  146.7013  139.5974  152.5716 H   0  0  0  0  0  0  0  0  0  0  0  0
  145.7292  141.7510  153.3902 H   0  0  0  0  0  0  0  0  0  0  0  0
  146.9162  143.1247  155.0618 H   0  0  0  0  0  0  0  0  0  0  0  0
  149.1171  142.4075  155.9886 H   0  0  0  0  0  0  0  0  0  0  0  0
  152.2560  140.1344  155.8097 H   0  0  0  0  0  0  0  0  0  0  0  0
  151.2295  141.5397  155.9660 H   0  0  0  0  0  0  0  0  0  0  0  0
  149.9223  140.4931  157.7735 H   0  0  0  0  0  0  0  0  0  0  0  0
  150.7846  138.9626  157.5638 H   0  0  0  0  0  0  0  0  0  0  0  0
  150.7745  142.6200  156.9925 H   0  0  0  0  0  0  0  0  0  0  0  0
  150.9673  144.9752  157.6463 H   0  0  0  0  0  0  0  0  0  0  0  0
  152.2527  145.6221  159.6745 H   0  0  0  0  0  0  0  0  0  0  0  0
  153.3518  143.8722  161.0557 H   0  0  0  0  0  0  0  0  0  0  0  0
  149.0341  137.9389  152.9476 H   0  0  0  0  0  0  0  0  0  0  0  0
  1  2  2  0  0  0  0
  2  3  1  0  0  0  0
  2 24  1  0  0  0  0
  3  4  1  0  0  0  0
  3 25  1  0  0  0  0
  4  5  1  0  0  0  0
  4 26  1  0  0  0  0
  4 27  1  0  0  0  0
  5 13  1  0  0  0  0
  5  6  2  0  0  0  0
  6  7  1  0  0  0  0
  6 40  1  0  0  0  0
  7 12  2  0  0  0  0
  7  8  1  0  0  0  0
  8  9  2  0  0  0  0
  8 28  1  0  0  0  0
  9 10  1  0  0  0  0
  9 29  1  0  0  0  0
 10 11  2  0  0  0  0
 10 30  1  0  0  0  0
 11 12  1  0  0  0  0
 11 31  1  0  0  0  0
 12 13  1  0  0  0  0
 13 14  1  0  0  0  0
 14 15  1  0  0  0  0
 14 32  1  0  0  0  0
 14 33  1  0  0  0  0
 15 16  1  0  0  0  0
 15 34  1  0  0  0  0
 15 35  1  0  0  0  0
 16 17  1  0  0  0  0
 17 22  1  0  0  0  0
 17 18  2  0  0  0  0
 18 19  1  0  0  0  0
 18 36  1  0  0  0  0
 19 20  2  0  0  0  0
 19 37  1  0  0  0  0
 20 21  1  0  0  0  0
 20 38  1  0  0  0  0
 21 22  2  0  0  0  0
 21 39  1  0  0  0  0
 22 23  1  0  0  0  0
M  CHG  1   6   1
M  END
> <s_m_source_file>
AV-unprocessed.smi

> <i_m_source_file_index>
1854

> <i_lp_mmshare_version>
43012

> <i_f3d_flags>
0

> <s_epik_input>
Tz1bQ0hdW05IXVtDSDJdYyhuMSluKGMoYzEyKVtjSF1bY0hdW2NIXVtjSF0yKVtDSDJdW0NIMl1PYzNbY0hdW2NIXVtjSF1bY0hdYzNDbA==

> <s_epik_cmdline>
J2VwaWtfcHl0aG9uJywgJy1waCcsICc3LjAnLCAnLXRuJywgJzgnLCAnLW1hJywgJzIwMCcsICctbWV0YWxfYmluZGluZycsICctaW1hZScsICc8aW5maWxlLm1hZT4nLCAnLW9tYWUnLCAnPG91dGZpbGUubWFlPic=

> <r_lp_tautomer_probability>
1

> <r_epik_Ionization_Penalty>
1.43948

> <r_epik_Ionization_Penalty_Charging>
1.43948

> <r_epik_Ionization_Penalty_Neutral>
7.38905e-08

> <r_epik_State_Penalty>
1.52475

> <r_epik_Charging_Adjusted_Penalty>
2.96423

> <i_epik_Tot_Q>
1

> <i_epik_Tot_abs_Q>
1

> <r_epik_Metal_State_Penalty>
1.5754

> <b_epik_Metal_Only>
0

> <s_lp_Force_Field>
OPLS_2005

> <r_lp_Energy>
16.1695

> <b_lp_Chiralities_Consistent>
1

> <s_lp_Variant>
AV-unprocessed.smi:1854-2

> <Gold.Version>
5.8.1

> <Gold.Id.Protein>
6NUR|6NUR_protein|mol2

> <Gold.PLP.Fitness>
61.9676

> <Gold.PLP.PLP>
-55.3982

> <Gold.PLP.part.hbond>
-3.7487

> <Gold.PLP.part.metal>
0.0000

> <Gold.PLP.part.buried>
0.4848

> <Gold.PLP.part.nonpolar>
-53.0492

> <Gold.PLP.part.repulsive>
0.7057

> <Gold.PLP.ligand.clash>
0.0000

> <Gold.PLP.ligand.torsion>
1.2268

> <Gold.PLP.Chemscore.Hbond>
3.0000

> <Gold.PLP.Chemscore.CHOScore>
0.0000

> <Gold.PLP.Chemscore.Metal>
0.0000

> <Gold.Chemscore.Hbonds>
donor molecule, donor type, donor heavy atom, donor atom, acceptor molecule, acceptor atom, score
      L1  H     3    25       P1  7949  1.00
      L1  H     6    40       P1  7948  2.00

> <Gold.PLP.Chemscore.Internal.Correction>
0.0230

> <Gold.Rescore>
     Score         DG    S(hbond)    S(metal)    S(lipo)     H(rot)  DE(clash)    DE(int)     intcor
     16.77     -19.49       1.18        0.00     140.58       2.49       1.52       1.20       ----

> <Gold.Chemscore.Fitness>
16.7692

> <Gold.Chemscore.DG>
-19.4906

> <Gold.Chemscore.ZeroCoef>
-5.4800

> <Gold.Chemscore.Hbond>
1.1752

> <Gold.Chemscore.Metal>
0.0000

> <Gold.Chemscore.Lipo>
140.5817

> <Gold.Chemscore.Internal_Hbond>
0.0000

> <Gold.Chemscore.DEClash>
1.5233

> <Gold.Chemscore.DEInternal>
1.1981

> <Gold.Chemscore.Rot>
2.4854

> <Gold.Chemscore.Internal.Correction>
   9.000000E+99

> <Gold.Chemscore.Hbonds>
donor molecule, donor type, donor heavy atom, donor atom, acceptor molecule, acceptor atom, score
      L1  H     3    25       P1  7949  0.39
      L1  H     6    40       P1  7948  0.96

> <Gold.Chemscore.Hbond.Weighted>
-3.9252

> <Gold.Chemscore.Metal.Weighted>
-0.0000

> <Gold.Chemscore.Lipo.Weighted>
-16.4481

> <Gold.Chemscore.Internal_Hbond.Weighted>
0.0000

> <Gold.Chemscore.DEClash.Weighted>
1.5233

> <Gold.Chemscore.DEInternal.Weighted>
1.1981

> <Gold.Chemscore.Rot.Weighted>
6.3627

> <Gold.Chemscore.Internal.Correction.Weighted>
   9.000000E+99

> <Gold.Protein.RotatedTorsions>
[ 6907 6896 6895 6894 ] final  114.95 input  -60.11 | X-H torsion
[ 7974 7965 7964 7962 ] final  -34.76 input  175.53 | X-H torsion
[ 8008 7997 7996 7995 ] final   96.57 input   59.86 | X-H torsion
[ 10167 10162 10161 10158 ] final  -21.12 input  -65.29 | X-H torsion
[ 10718 10713 10712 10709 ] final    6.57 input   66.30 | X-H torsion
[ 10763 10752 10751 10750 ] final -166.14 input  -60.55 | X-H torsion
[ 11005 11000 10999 10996 ] final  -73.32 input  -57.11 | X-H torsion

> <Gold.Protein.ActiveResidues>
 VAL166  LYS551  ARG553  GLY616  TRP617  ASP618  TYR619  PRO620  LYS621  CYS622 
 ASP623  PHE694  ASN695  SER759  ASP760  ASP761  ALA762  ILE779  LEU786  VAL792 
 PHE793  MET794  SER795  GLU796  ALA797  LYS798  CYS799  TRP800  GLU811  SER814 

> <Gold.Protein.RotatedAtoms>
  152.4771  133.8165  159.7030 H   0  0  0  0  0  0  0  0  0  0  0  0  # atno 6907 bound_to 6896
  150.8796  133.7382  159.2943 H   0  0  0  0  0  0  0  0  0  0  0  0  # atno 6908 bound_to 6896
  151.4890  135.1060  159.9850 H   0  0  0  0  0  0  0  0  0  0  0  0  # atno 6909 bound_to 6896
  146.0803  140.6078  142.8911 H   0  0  0  0  0  0  0  0  0  0  0  0  # atno 7974 bound_to 7965
  156.0810  140.3271  155.7693 H   0  0  0  0  0  0  0  0  0  0  0  0  # atno 8008 bound_to 7997
  155.5153  140.0580  157.2933 H   0  0  0  0  0  0  0  0  0  0  0  0  # atno 8009 bound_to 7997
  154.4582  140.1953  156.0336 H   0  0  0  0  0  0  0  0  0  0  0  0  # atno 8010 bound_to 7997
  140.7280  143.4657  151.0316 H   0  0  0  0  0  0  0  0  0  0  0  0  # atno 10167 bound_to 10162
  156.9241  130.5801  149.5648 H   0  0  0  0  0  0  0  0  0  0  0  0  # atno 10718 bound_to 10713
  154.6862  135.2963  154.9544 H   0  0  0  0  0  0  0  0  0  0  0  0  # atno 10763 bound_to 10752
  154.0522  135.6643  153.4805 H   0  0  0  0  0  0  0  0  0  0  0  0  # atno 10764 bound_to 10752
  153.0581  135.5132  154.7931 H   0  0  0  0  0  0  0  0  0  0  0  0  # atno 10765 bound_to 10752
  141.1621  133.6874  156.7194 H   0  0  0  0  0  0  0  0  0  0  0  0  # atno 11005 bound_to 11000
  144.7288  140.4609  143.6953 LP  0  0  0  0  0  0  0  0  0  0  0  0  # atno 17320 bound_to 7965
  145.6231  139.1526  143.3011 LP  0  0  0  0  0  0  0  0  0  0  0  0  # atno 17321 bound_to 7965
  139.8345  143.7646  152.3180 LP  0  0  0  0  0  0  0  0  0  0  0  0  # atno 17342 bound_to 10162
  139.7773  144.7456  151.0138 LP  0  0  0  0  0  0  0  0  0  0  0  0  # atno 17343 bound_to 10162
  156.0477  130.5551  150.8919 LP  0  0  0  0  0  0  0  0  0  0  0  0  # atno 17370 bound_to 10713
  157.5889  131.0945  150.9151 LP  0  0  0  0  0  0  0  0  0  0  0  0  # atno 17371 bound_to 10713
  140.2827  134.8304  157.3947 LP  0  0  0  0  0  0  0  0  0  0  0  0  # atno 17394 bound_to 11000
  140.1418  134.4962  155.8025 LP  0  0  0  0  0  0  0  0  0  0  0  0  # atno 17395 bound_to 11000

$$$$
