AV-unprocessed.smi:1434|AV-procd|sdf|5849|dock1
  -GOLD-   22720 5513D 1   1.00000     0.00000
 Structure written by MMmdl.
 44 45  0  0  0  0  0  0  0  0  1 V2000
  151.2480  132.4026  155.9725 C   0  0  0  0  0  0  0  0  0  0  0  0
  150.0895  133.8243  156.0908 S   0  0  0  0  0  0  0  0  0  0  0  0
  148.9646  133.5868  155.1735 O   0  0  0  0  0  0  0  0  0  0  0  0
  149.8361  134.1201  157.5088 O   0  0  0  0  0  0  0  0  0  0  0  0
  151.0273  135.1234  155.4516 N   0  0  0  0  0  0  0  0  0  0  0  0
  150.4946  136.4837  155.5447 C   0  0  2  0  0  0  0  0  0  0  0  0
  149.0536  136.5353  154.9921 C   0  0  0  0  0  0  0  0  0  0  0  0
  148.5342  137.9815  154.8868 C   0  0  0  0  0  0  0  0  0  0  0  0
  149.5469  138.8774  154.1524 C   0  0  0  0  0  0  0  0  0  0  0  0
  150.8388  138.8056  154.8571 N   0  0  0  0  0  0  0  0  0  0  0  0
  151.4021  139.7836  155.6108 C   0  0  0  0  0  0  0  0  0  0  0  0
  152.5218  139.6848  156.1141 O   0  0  0  0  0  0  0  0  0  0  0  0
  150.6390  140.8790  155.7701 N   0  0  0  0  0  0  0  0  0  0  0  0
  151.0169  142.0913  156.4925 C   0  0  0  0  0  0  0  0  0  0  0  0
  151.1143  141.8531  158.0110 C   0  0  0  0  0  0  0  0  0  0  0  0
  151.4476  143.1057  158.8033 C   0  0  0  0  0  0  0  0  0  0  0  0
  151.8712  144.2825  158.1486 C   0  0  0  0  0  0  0  0  0  0  0  0
  152.1928  145.4071  158.9325 C   0  0  0  0  0  0  0  0  0  0  0  0
  152.0764  145.3132  160.3326 C   0  0  0  0  0  0  0  0  0  0  0  0
  151.6415  144.0938  160.8890 C   0  0  0  0  0  0  0  0  0  0  0  0
  151.3312  143.0094  160.1467 N   0  0  0  0  0  0  0  0  0  0  0  0
  151.4120  137.4560  154.7765 C   0  0  0  0  0  0  0  0  0  0  0  0
  150.7586  131.5049  156.3502 H   0  0  0  0  0  0  0  0  0  0  0  0
  152.1388  132.6059  156.5666 H   0  0  0  0  0  0  0  0  0  0  0  0
  151.5315  132.2493  154.9313 H   0  0  0  0  0  0  0  0  0  0  0  0
  151.9870  135.0841  155.7941 H   0  0  0  0  0  0  0  0  0  0  0  0
  150.4854  136.7813  156.5949 H   0  0  0  0  0  0  0  0  0  0  0  0
  149.0309  136.0818  154.0001 H   0  0  0  0  0  0  0  0  0  0  0  0
  148.3813  135.9452  155.6150 H   0  0  0  0  0  0  0  0  0  0  0  0
  147.5744  137.9957  154.3696 H   0  0  0  0  0  0  0  0  0  0  0  0
  148.3543  138.3791  155.8864 H   0  0  0  0  0  0  0  0  0  0  0  0
  149.6799  138.5242  153.1287 H   0  0  0  0  0  0  0  0  0  0  0  0
  149.1493  139.8875  154.0548 H   0  0  0  0  0  0  0  0  0  0  0  0
  149.7274  140.8781  155.3366 H   0  0  0  0  0  0  0  0  0  0  0  0
  151.9845  142.4203  156.1139 H   0  0  0  0  0  0  0  0  0  0  0  0
  150.3192  142.9042  156.2850 H   0  0  0  0  0  0  0  0  0  0  0  0
  150.1747  141.4385  158.3786 H   0  0  0  0  0  0  0  0  0  0  0  0
  151.8747  141.0974  158.2127 H   0  0  0  0  0  0  0  0  0  0  0  0
  151.9580  144.3205  157.0727 H   0  0  0  0  0  0  0  0  0  0  0  0
  152.5246  146.3241  158.4683 H   0  0  0  0  0  0  0  0  0  0  0  0
  152.3148  146.1550  160.9657 H   0  0  0  0  0  0  0  0  0  0  0  0
  151.5396  143.9866  161.9587 H   0  0  0  0  0  0  0  0  0  0  0  0
  152.4270  137.4052  155.1736 H   0  0  0  0  0  0  0  0  0  0  0  0
  151.4896  137.1598  153.7291 H   0  0  0  0  0  0  0  0  0  0  0  0
  1  2  1  0  0  0  0
  1 23  1  0  0  0  0
  1 24  1  0  0  0  0
  1 25  1  0  0  0  0
  2  3  2  0  0  0  0
  2  4  2  0  0  0  0
  2  5  1  0  0  0  0
  5  6  1  0  0  0  0
  5 26  1  0  0  0  0
  6 22  1  0  0  0  0
  6  7  1  0  0  0  0
  6 27  1  0  0  0  0
  7  8  1  0  0  0  0
  7 28  1  0  0  0  0
  7 29  1  0  0  0  0
  8  9  1  0  0  0  0
  8 30  1  0  0  0  0
  8 31  1  0  0  0  0
  9 10  1  0  0  0  0
  9 32  1  0  0  0  0
  9 33  1  0  0  0  0
 10 11  1  0  0  0  0
 10 22  1  0  0  0  0
 11 12  2  0  0  0  0
 11 13  1  0  0  0  0
 13 14  1  0  0  0  0
 13 34  1  0  0  0  0
 14 15  1  0  0  0  0
 14 35  1  0  0  0  0
 14 36  1  0  0  0  0
 15 16  1  0  0  0  0
 15 37  1  0  0  0  0
 15 38  1  0  0  0  0
 16 21  1  0  0  0  0
 16 17  2  0  0  0  0
 17 18  1  0  0  0  0
 17 39  1  0  0  0  0
 18 19  2  0  0  0  0
 18 40  1  0  0  0  0
 19 20  1  0  0  0  0
 19 41  1  0  0  0  0
 20 21  2  0  0  0  0
 20 42  1  0  0  0  0
 22 43  1  0  0  0  0
 22 44  1  0  0  0  0
M  END
> <s_m_source_file>
AV-unprocessed.smi

> <i_m_source_file_index>
1434

> <i_lp_mmshare_version>
43012

> <i_f3d_flags>
0

> <s_epik_input>
W0NIM11TKD1PKSg9TylbTkhdW0NAQEhdMVtDSDJdW0NIMl1bQ0gyXU4oW0NIMl0xKUMoPU8pW05IXVtDSDJdW0NIMl1jMltjSF1bY0hdW2NIXVtjSF1uMg==

> <s_epik_cmdline>
J2VwaWtfcHl0aG9uJywgJy1waCcsICc3LjAnLCAnLXRuJywgJzgnLCAnLW1hJywgJzIwMCcsICctbWV0YWxfYmluZGluZycsICctaW1hZScsICc8aW5maWxlLm1hZT4nLCAnLW9tYWUnLCAnPG91dGZpbGUubWFlPic=

> <r_epik_Ionization_Penalty>
0.0449488

> <r_epik_Ionization_Penalty_Charging>
0

> <r_epik_Ionization_Penalty_Neutral>
0.0449488

> <r_epik_State_Penalty>
0.0380669

> <r_epik_Charging_Adjusted_Penalty>
0.0380669

> <i_epik_Tot_Q>
0

> <i_epik_Tot_abs_Q>
0

> <r_epik_Metal_State_Penalty>
0.0441384

> <b_epik_Metal_Only>
0

> <s_lp_Force_Field>
OPLS_2005

> <r_lp_Energy>
23.2159

> <b_lp_Chiralities_Consistent>
1

> <s_lp_Variant>
AV-unprocessed.smi:1434-1

> <Gold.Version>
5.8.1

> <Gold.Id.Protein>
6NUR|6NUR_protein|mol2

> <Gold.PLP.Fitness>
49.7420

> <Gold.PLP.PLP>
-44.2512

> <Gold.PLP.part.hbond>
-3.8675

> <Gold.PLP.part.metal>
0.0000

> <Gold.PLP.part.buried>
-6.1732

> <Gold.PLP.part.nonpolar>
-34.5024

> <Gold.PLP.part.repulsive>
0.2082

> <Gold.PLP.ligand.clash>
0.0000

> <Gold.PLP.ligand.torsion>
0.3320

> <Gold.PLP.Chemscore.Hbond>
1.9920

> <Gold.PLP.Chemscore.CHOScore>
0.0000

> <Gold.PLP.Chemscore.Metal>
0.0000

> <Gold.Chemscore.Hbonds>
donor molecule, donor type, donor heavy atom, donor atom, acceptor molecule, acceptor atom, score
      P1  H  6896  6909       L1     4  0.99
      P1  H  7997  8008       L1    12  1.00

> <Gold.PLP.Chemscore.Internal.Correction>
0.1789

> <Gold.Rescore>
     Score         DG    S(hbond)    S(metal)    S(lipo)     H(rot)  DE(clash)    DE(int)     intcor
     17.54     -19.22       1.92        0.00     107.12       2.03       0.19       1.49       ----

> <Gold.Chemscore.Fitness>
17.5416

> <Gold.Chemscore.DG>
-19.2169

> <Gold.Chemscore.ZeroCoef>
-5.4800

> <Gold.Chemscore.Hbond>
1.9193

> <Gold.Chemscore.Metal>
0.0000

> <Gold.Chemscore.Lipo>
107.1224

> <Gold.Chemscore.Internal_Hbond>
0.0000

> <Gold.Chemscore.DEClash>
0.1885

> <Gold.Chemscore.DEInternal>
1.4867

> <Gold.Chemscore.Rot>
2.0340

> <Gold.Chemscore.Internal.Correction>
   9.000000E+99

> <Gold.Chemscore.Hbonds>
donor molecule, donor type, donor heavy atom, donor atom, acceptor molecule, acceptor atom, score
      P1  H  6896  6909       L1     4  0.89
      P1  H  7997  8008       L1    12  1.00

> <Gold.Chemscore.Hbond.Weighted>
-6.4106

> <Gold.Chemscore.Metal.Weighted>
-0.0000

> <Gold.Chemscore.Lipo.Weighted>
-12.5333

> <Gold.Chemscore.Internal_Hbond.Weighted>
0.0000

> <Gold.Chemscore.DEClash.Weighted>
0.1885

> <Gold.Chemscore.DEInternal.Weighted>
1.4867

> <Gold.Chemscore.Rot.Weighted>
5.2071

> <Gold.Chemscore.Internal.Correction.Weighted>
   9.000000E+99

> <Gold.Protein.RotatedTorsions>
[ 6907 6896 6895 6894 ] final    1.81 input  -60.11 | X-H torsion
[ 7974 7965 7964 7962 ] final -133.62 input  175.53 | X-H torsion
[ 8008 7997 7996 7995 ] final  -34.11 input   59.86 | X-H torsion
[ 10167 10162 10161 10158 ] final  -28.42 input  -65.29 | X-H torsion
[ 10718 10713 10712 10709 ] final   68.31 input   66.30 | X-H torsion
[ 10763 10752 10751 10750 ] final  165.35 input  -60.55 | X-H torsion
[ 11005 11000 10999 10996 ] final -157.11 input  -57.11 | X-H torsion

> <Gold.Protein.ActiveResidues>
 VAL166  LYS551  ARG553  GLY616  TRP617  ASP618  TYR619  PRO620  LYS621  CYS622 
 ASP623  PHE694  ASN695  SER759  ASP760  ASP761  ALA762  ILE779  LEU786  VAL792 
 PHE793  MET794  SER795  GLU796  ALA797  LYS798  CYS799  TRP800  GLU811  SER814 

> <Gold.Protein.RotatedAtoms>
  151.5986  135.1049  160.0054 H   0  0  0  0  0  0  0  0  0  0  0  0  # atno 6907 bound_to 6896
  152.4269  133.7207  159.6542 H   0  0  0  0  0  0  0  0  0  0  0  0  # atno 6908 bound_to 6896
  150.8159  133.8266  159.3183 H   0  0  0  0  0  0  0  0  0  0  0  0  # atno 6909 bound_to 6896
  144.9176  140.6974  143.4985 H   0  0  0  0  0  0  0  0  0  0  0  0  # atno 7974 bound_to 7965
  154.4130  140.1692  156.1997 H   0  0  0  0  0  0  0  0  0  0  0  0  # atno 8008 bound_to 7997
  155.9534  140.3399  155.6404 H   0  0  0  0  0  0  0  0  0  0  0  0  # atno 8009 bound_to 7997
  155.6840  140.0726  157.2464 H   0  0  0  0  0  0  0  0  0  0  0  0  # atno 8010 bound_to 7997
  140.7270  143.4012  151.1262 H   0  0  0  0  0  0  0  0  0  0  0  0  # atno 10167 bound_to 10162
  157.6281  130.9366  150.0359 H   0  0  0  0  0  0  0  0  0  0  0  0  # atno 10718 bound_to 10713
  154.3227  135.2755  155.2512 H   0  0  0  0  0  0  0  0  0  0  0  0  # atno 10763 bound_to 10752
  154.4858  135.5846  153.6426 H   0  0  0  0  0  0  0  0  0  0  0  0  # atno 10764 bound_to 10752
  152.9875  135.6122  154.3412 H   0  0  0  0  0  0  0  0  0  0  0  0  # atno 10765 bound_to 10752
  140.6682  134.4276  157.5232 H   0  0  0  0  0  0  0  0  0  0  0  0  # atno 11005 bound_to 11000
  145.3349  139.1749  143.4517 LP  0  0  0  0  0  0  0  0  0  0  0  0  # atno 17320 bound_to 7965
  146.3189  140.3383  142.8646 LP  0  0  0  0  0  0  0  0  0  0  0  0  # atno 17321 bound_to 7965
  139.7632  143.8604  152.3105 LP  0  0  0  0  0  0  0  0  0  0  0  0  # atno 17342 bound_to 10162
  139.8497  144.7170  150.9229 LP  0  0  0  0  0  0  0  0  0  0  0  0  # atno 17343 bound_to 10162
  156.1467  130.3642  149.9500 LP  0  0  0  0  0  0  0  0  0  0  0  0  # atno 17370 bound_to 10713
  156.7529  130.9122  151.3638 LP  0  0  0  0  0  0  0  0  0  0  0  0  # atno 17371 bound_to 10713
  139.8990  134.8600  156.1977 LP  0  0  0  0  0  0  0  0  0  0  0  0  # atno 17394 bound_to 11000
  141.0413  133.6936  156.1602 LP  0  0  0  0  0  0  0  0  0  0  0  0  # atno 17395 bound_to 11000

$$$$
