AV-unprocessed.smi:3255|AV-procd|sdf|12458|dock1
  -GOLD-   2272018353D 1   1.00000     0.00000
 Structure written by MMmdl.
 39 40  0  0  0  0  0  0  0  0  2 V2000
  148.3056  140.3618  154.0261 C   0  0  0  0  0  0  0  0  0  0  0  0
  148.9635  139.0994  154.6018 C   0  0  1  0  0  0  0  0  0  0  0  0
  148.2830  137.9185  154.0721 N   0  0  0  0  0  0  0  0  0  0  0  0
  147.4122  137.1560  154.7476 C   0  0  0  0  0  0  0  0  0  0  0  0
  147.0466  137.3770  155.9025 O   0  0  0  0  0  0  0  0  0  0  0  0
  146.9969  136.1094  154.0210 N   0  0  0  0  0  0  0  0  0  0  0  0
  146.0771  135.0858  154.5017 C   0  0  0  0  0  0  0  0  0  0  0  0
  146.0069  133.8938  153.5324 C   0  0  0  0  0  0  0  0  0  0  0  0
  145.2563  134.2260  152.3214 N   0  0  0  0  0  0  0  0  0  0  0  0
  145.6134  135.1064  151.3328 C   0  0  0  0  0  0  0  0  0  0  0  0
  144.5994  135.0879  150.4095 C   0  0  0  0  0  0  0  0  0  0  0  0
  143.6673  134.1989  150.8744 N   0  3  0  0  0  0  0  0  0  0  0  0
  144.0686  133.6760  152.0376 C   0  0  0  0  0  0  0  0  0  0  0  0
  150.4839  139.0630  154.3195 C   0  0  2  0  0  0  0  0  0  0  0  0
  151.2431  137.8330  154.8359 C   0  0  0  0  0  0  0  0  0  0  0  0
  152.6314  138.3922  155.0488 C   0  0  0  0  0  0  0  0  0  0  0  0
  152.3164  139.7848  155.5818 C   0  0  0  0  0  0  0  0  0  0  0  0
  151.1392  140.1935  154.8936 O   0  0  0  0  0  0  0  0  0  0  0  0
  148.7671  141.2629  154.4308 H   0  0  0  0  0  0  0  0  0  0  0  0
  147.2441  140.3987  154.2731 H   0  0  0  0  0  0  0  0  0  0  0  0
  148.3960  140.4005  152.9402 H   0  0  0  0  0  0  0  0  0  0  0  0
  148.8214  139.1334  155.6836 H   0  0  0  0  0  0  0  0  0  0  0  0
  148.5152  137.6496  153.1273 H   0  0  0  0  0  0  0  0  0  0  0  0
  147.3489  136.0081  153.0801 H   0  0  0  0  0  0  0  0  0  0  0  0
  146.3829  134.7551  155.4960 H   0  0  0  0  0  0  0  0  0  0  0  0
  145.0899  135.5347  154.6147 H   0  0  0  0  0  0  0  0  0  0  0  0
  147.0077  133.5778  153.2350 H   0  0  0  0  0  0  0  0  0  0  0  0
  145.5249  133.0329  153.9990 H   0  0  0  0  0  0  0  0  0  0  0  0
  146.5374  135.6660  151.3592 H   0  0  0  0  0  0  0  0  0  0  0  0
  144.4741  135.6269  149.4817 H   0  0  0  0  0  0  0  0  0  0  0  0
  143.5379  132.9531  152.6317 H   0  0  0  0  0  0  0  0  0  0  0  0
  150.6469  139.1402  153.2433 H   0  0  0  0  0  0  0  0  0  0  0  0
  150.8461  137.4819  155.7885 H   0  0  0  0  0  0  0  0  0  0  0  0
  151.2232  136.9989  154.1342 H   0  0  0  0  0  0  0  0  0  0  0  0
  153.2342  137.7985  155.7367 H   0  0  0  0  0  0  0  0  0  0  0  0
  153.1607  138.4616  154.0976 H   0  0  0  0  0  0  0  0  0  0  0  0
  152.0966  139.7425  156.6494 H   0  0  0  0  0  0  0  0  0  0  0  0
  153.1345  140.4892  155.4298 H   0  0  0  0  0  0  0  0  0  0  0  0
  142.7986  133.9686  150.4079 H   0  0  0  0  0  0  0  0  0  0  0  0
  1  2  1  0  0  0  0
  1 19  1  0  0  0  0
  1 20  1  0  0  0  0
  1 21  1  0  0  0  0
  2  3  1  0  0  0  0
  2 14  1  0  0  0  0
  2 22  1  0  0  0  0
  3  4  1  0  0  0  0
  3 23  1  0  0  0  0
  4  5  2  0  0  0  0
  4  6  1  0  0  0  0
  6  7  1  0  0  0  0
  6 24  1  0  0  0  0
  7  8  1  0  0  0  0
  7 25  1  0  0  0  0
  7 26  1  0  0  0  0
  8  9  1  0  0  0  0
  8 27  1  0  0  0  0
  8 28  1  0  0  0  0
  9 13  1  0  0  0  0
  9 10  1  0  0  0  0
 10 11  2  0  0  0  0
 10 29  1  0  0  0  0
 11 12  1  0  0  0  0
 11 30  1  0  0  0  0
 12 13  2  0  0  0  0
 12 39  1  0  0  0  0
 13 31  1  0  0  0  0
 14 18  1  0  0  0  0
 14 15  1  0  0  0  0
 14 32  1  0  0  0  0
 15 16  1  0  0  0  0
 15 33  1  0  0  0  0
 15 34  1  0  0  0  0
 16 17  1  0  0  0  0
 16 35  1  0  0  0  0
 16 36  1  0  0  0  0
 17 18  1  0  0  0  0
 17 37  1  0  0  0  0
 17 38  1  0  0  0  0
M  CHG  1  12   1
M  END
> <s_m_source_file>
AV-unprocessed.smi

> <i_m_source_file_index>
3255

> <i_lp_mmshare_version>
43012

> <i_f3d_flags>
0

> <s_epik_input>
TzFbQ0gyXVtDSDJdW0NIMl1bQ0BIXTFbQ0BIXShbQ0gzXSlbTkhdQyg9TylbTkhdW0NIMl1bQ0gyXW4yW2NIXVtjSF1uW2NIXTI=

> <s_epik_cmdline>
J2VwaWtfcHl0aG9uJywgJy1waCcsICc3LjAnLCAnLXRuJywgJzgnLCAnLW1hJywgJzIwMCcsICctbWV0YWxfYmluZGluZycsICctaW1hZScsICc8aW5maWxlLm1hZT4nLCAnLW9tYWUnLCAnPG91dGZpbGUubWFlPic=

> <r_lp_tautomer_probability>
1

> <r_epik_Ionization_Penalty>
0.256241

> <r_epik_Ionization_Penalty_Charging>
0

> <r_epik_Ionization_Penalty_Neutral>
0.256241

> <r_epik_State_Penalty>
0.247735

> <r_epik_Charging_Adjusted_Penalty>
0.247735

> <i_epik_Tot_Q>
1

> <i_epik_Tot_abs_Q>
1

> <r_epik_Metal_State_Penalty>
0.537184

> <b_epik_Metal_Only>
0

> <s_lp_Force_Field>
OPLS_2005

> <r_lp_Energy>
18.6285

> <b_lp_Chiralities_Consistent>
1

> <s_lp_Variant>
AV-unprocessed.smi:3255-2

> <Gold.Version>
5.8.1

> <Gold.Id.Protein>
6NUR|6NUR_protein|mol2

> <Gold.PLP.Fitness>
49.1630

> <Gold.PLP.PLP>
-29.2359

> <Gold.PLP.part.hbond>
-4.0000

> <Gold.PLP.part.metal>
0.0000

> <Gold.PLP.part.buried>
-2.6415

> <Gold.PLP.part.nonpolar>
-23.0502

> <Gold.PLP.part.repulsive>
0.0793

> <Gold.PLP.ligand.clash>
0.0000

> <Gold.PLP.ligand.torsion>
0.3245

> <Gold.PLP.Chemscore.Hbond>
4.8312

> <Gold.PLP.Chemscore.CHOScore>
1.9916

> <Gold.PLP.Chemscore.Metal>
0.0000

> <Gold.Chemscore.Hbonds>
donor molecule, donor type, donor heavy atom, donor atom, acceptor molecule, acceptor atom, score
      L1  H     3    23       P1  7948  0.99
      L1  H     6    24       P1  7948  0.93
      L1  H    12    39       P1 10186  1.98
      P1  H  7989  7998       L1    18  0.90
      L1  C    10    29       P1  7948  1.00
      L1  C    13    31       P1 10957  0.85

> <Gold.PLP.Chemscore.Internal.Correction>
0.1076

> <Gold.Rescore>
     Score         DG    S(hbond)    S(metal)    S(lipo)     H(rot)  DE(clash)    DE(int)     intcor
     16.41     -17.21       3.18        0.00      58.93       2.26       0.45       0.35       ----

> <Gold.Chemscore.Fitness>
16.4110

> <Gold.Chemscore.DG>
-17.2087

> <Gold.Chemscore.ZeroCoef>
-5.4800

> <Gold.Chemscore.Hbond>
3.1824

> <Gold.Chemscore.Metal>
0.0000

> <Gold.Chemscore.Lipo>
58.9322

> <Gold.Chemscore.Internal_Hbond>
0.0000

> <Gold.Chemscore.DEClash>
0.4520

> <Gold.Chemscore.DEInternal>
0.3456

> <Gold.Chemscore.Rot>
2.2640

> <Gold.Chemscore.Internal.Correction>
   9.000000E+99

> <Gold.Chemscore.Hbonds>
donor molecule, donor type, donor heavy atom, donor atom, acceptor molecule, acceptor atom, score
      L1  H     3    23       P1  7948  0.93
      L1  H     6    24       P1  7948  0.85
      L1  H    12    39       P1 10186  0.85
      P1  H  7989  7998       L1    18  0.10

> <Gold.Chemscore.Hbond.Weighted>
-10.6294

> <Gold.Chemscore.Metal.Weighted>
-0.0000

> <Gold.Chemscore.Lipo.Weighted>
-6.8951

> <Gold.Chemscore.Internal_Hbond.Weighted>
0.0000

> <Gold.Chemscore.DEClash.Weighted>
0.4520

> <Gold.Chemscore.DEInternal.Weighted>
0.3456

> <Gold.Chemscore.Rot.Weighted>
5.7958

> <Gold.Chemscore.Internal.Correction.Weighted>
   9.000000E+99

> <Gold.Protein.RotatedTorsions>
[ 6907 6896 6895 6894 ] final   65.53 input  -60.11 | X-H torsion
[ 7974 7965 7964 7962 ] final  -51.41 input  175.53 | X-H torsion
[ 8008 7997 7996 7995 ] final -170.83 input   59.86 | X-H torsion
[ 10167 10162 10161 10158 ] final  -31.96 input  -65.29 | X-H torsion
[ 10718 10713 10712 10709 ] final -155.80 input   66.30 | X-H torsion
[ 10763 10752 10751 10750 ] final  -26.38 input  -60.55 | X-H torsion
[ 11005 11000 10999 10996 ] final   39.84 input  -57.11 | X-H torsion

> <Gold.Protein.ActiveResidues>
 VAL166  LYS551  ARG553  GLY616  TRP617  ASP618  TYR619  PRO620  LYS621  CYS622 
 ASP623  PHE694  ASN695  SER759  ASP760  ASP761  ALA762  ILE779  LEU786  VAL792 
 PHE793  MET794  SER795  GLU796  ALA797  LYS798  CYS799  TRP800  GLU811  SER814 

> <Gold.Protein.RotatedAtoms>
  152.4414  134.5583  159.9886 H   0  0  0  0  0  0  0  0  0  0  0  0  # atno 6907 bound_to 6896
  151.5680  133.3388  159.2992 H   0  0  0  0  0  0  0  0  0  0  0  0  # atno 6908 bound_to 6896
  150.8321  134.7612  159.6926 H   0  0  0  0  0  0  0  0  0  0  0  0  # atno 6909 bound_to 6896
  145.9193  140.7847  142.9655 H   0  0  0  0  0  0  0  0  0  0  0  0  # atno 7974 bound_to 7965
  155.9235  140.1078  157.1188 H   0  0  0  0  0  0  0  0  0  0  0  0  # atno 8008 bound_to 7997
  154.4058  140.1251  156.4776 H   0  0  0  0  0  0  0  0  0  0  0  0  # atno 8009 bound_to 7997
  155.7167  140.3470  155.5000 H   0  0  0  0  0  0  0  0  0  0  0  0  # atno 8010 bound_to 7997
  140.7228  143.3731  151.1741 H   0  0  0  0  0  0  0  0  0  0  0  0  # atno 10167 bound_to 10162
  156.5178  130.8464  151.2671 H   0  0  0  0  0  0  0  0  0  0  0  0  # atno 10718 bound_to 10713
  153.7151  135.6948  153.5027 H   0  0  0  0  0  0  0  0  0  0  0  0  # atno 10763 bound_to 10752
  153.2244  135.4358  155.0525 H   0  0  0  0  0  0  0  0  0  0  0  0  # atno 10764 bound_to 10752
  154.8302  135.3468  154.6686 H   0  0  0  0  0  0  0  0  0  0  0  0  # atno 10765 bound_to 10752
  140.1988  134.3895  155.8107 H   0  0  0  0  0  0  0  0  0  0  0  0  # atno 11005 bound_to 11000
  144.6751  140.1950  143.7393 LP  0  0  0  0  0  0  0  0  0  0  0  0  # atno 17320 bound_to 7965
  145.8571  139.2204  143.1738 LP  0  0  0  0  0  0  0  0  0  0  0  0  # atno 17321 bound_to 7965
  139.7305  143.9079  152.3018 LP  0  0  0  0  0  0  0  0  0  0  0  0  # atno 17342 bound_to 10162
  139.8867  144.6988  150.8816 LP  0  0  0  0  0  0  0  0  0  0  0  0  # atno 17343 bound_to 10162
  157.7441  130.9927  150.2647 LP  0  0  0  0  0  0  0  0  0  0  0  0  # atno 17370 bound_to 10713
  156.3178  130.3781  149.7602 LP  0  0  0  0  0  0  0  0  0  0  0  0  # atno 17371 bound_to 10713
  141.2227  133.7083  156.8223 LP  0  0  0  0  0  0  0  0  0  0  0  0  # atno 17394 bound_to 11000
  140.2077  134.8851  157.3239 LP  0  0  0  0  0  0  0  0  0  0  0  0  # atno 17395 bound_to 11000

$$$$
