AV-unprocessed.smi:1740|AV-procd|sdf|7014|dock8
  -GOLD-   22720 8233D 1   1.00000     0.00000
 Structure written by MMmdl.
 52 54  0  0  0  0  0  0  0  0  4 V2000
  154.2501  135.3536  165.1099 N   0  5  0  0  0  0  0  0  0  0  0  0
  154.4775  134.3311  164.2608 C   0  0  0  0  0  0  0  0  0  0  0  0
  154.0781  133.1726  164.3493 O   0  0  0  0  0  0  0  0  0  0  0  0
  155.3453  134.7455  163.0674 C   0  0  0  0  0  0  0  0  0  0  0  0
  154.6420  135.7456  162.2240 N   0  3  2  0  0  0  0  0  0  0  0  0
  155.0023  135.6567  160.7830 C   0  0  0  0  0  0  0  0  0  0  0  0
  154.1566  136.6229  159.9361 C   0  0  0  0  0  0  0  0  0  0  0  0
  154.2933  138.0699  160.4432 C   0  0  1  0  0  0  0  0  0  0  0  0
  153.4217  138.9716  159.6953 N   0  0  0  0  0  0  0  0  0  0  0  0
  153.4351  140.3092  159.7849 C   0  0  0  0  0  0  0  0  0  0  0  0
  154.2131  140.9363  160.5036 O   0  0  0  0  0  0  0  0  0  0  0  0
  152.5103  140.8612  158.9818 N   0  0  0  0  0  0  0  0  0  0  0  0
  152.2365  142.2441  158.7802 C   0  0  0  0  0  0  0  0  0  0  0  0
  152.8083  143.2364  159.6182 C   0  0  0  0  0  0  0  0  0  0  0  0
  152.4627  144.5895  159.4431 C   0  0  0  0  0  0  0  0  0  0  0  0
  151.5368  144.9309  158.4428 C   0  0  0  0  0  0  0  0  0  0  0  0
  151.0009  143.9639  157.6702 N   0  3  0  0  0  0  0  0  0  0  0  0
  151.3045  142.6461  157.7791 C   0  0  0  0  0  0  0  0  0  0  0  0
  150.6710  141.7477  156.8905 N   0  0  0  0  0  0  0  0  0  0  0  0
  151.4410  141.0601  155.8601 C   0  0  0  0  0  0  0  0  0  0  0  0
  150.5272  139.9434  155.3623 C   0  0  0  0  0  0  0  0  0  0  0  0
  149.7845  139.5373  156.6316 C   0  0  0  0  0  0  0  0  0  0  0  0
  149.6367  140.8536  157.4018 C   0  0  0  0  0  0  0  0  0  0  0  0
  153.9405  138.1225  161.9380 C   0  0  0  0  0  0  0  0  0  0  0  0
  154.7921  137.1279  162.7445 C   0  0  0  0  0  0  0  0  0  0  0  0
  154.7445  136.2407  164.9549 H   0  0  0  0  0  0  0  0  0  0  0  0
  156.2737  135.1643  163.4598 H   0  0  0  0  0  0  0  0  0  0  0  0
  155.6246  133.8748  162.4721 H   0  0  0  0  0  0  0  0  0  0  0  0
  156.0628  135.8809  160.6581 H   0  0  0  0  0  0  0  0  0  0  0  0
  154.8512  134.6400  160.4192 H   0  0  0  0  0  0  0  0  0  0  0  0
  154.4644  136.5574  158.8918 H   0  0  0  0  0  0  0  0  0  0  0  0
  153.1109  136.3134  159.9706 H   0  0  0  0  0  0  0  0  0  0  0  0
  155.3296  138.3935  160.3249 H   0  0  0  0  0  0  0  0  0  0  0  0
  152.7527  138.5424  159.0728 H   0  0  0  0  0  0  0  0  0  0  0  0
  152.0101  140.2262  158.3770 H   0  0  0  0  0  0  0  0  0  0  0  0
  153.4918  142.9787  160.4130 H   0  0  0  0  0  0  0  0  0  0  0  0
  152.8919  145.3518  160.0768 H   0  0  0  0  0  0  0  0  0  0  0  0
  151.2061  145.9396  158.2412 H   0  0  0  0  0  0  0  0  0  0  0  0
  151.7265  141.7387  155.0555 H   0  0  0  0  0  0  0  0  0  0  0  0
  152.3481  140.6279  156.2849 H   0  0  0  0  0  0  0  0  0  0  0  0
  149.8220  140.3360  154.6282 H   0  0  0  0  0  0  0  0  0  0  0  0
  151.0732  139.1190  154.9031 H   0  0  0  0  0  0  0  0  0  0  0  0
  148.8282  139.0538  156.4305 H   0  0  0  0  0  0  0  0  0  0  0  0
  150.3976  138.8420  157.2067 H   0  0  0  0  0  0  0  0  0  0  0  0
  149.7217  140.6954  158.4778 H   0  0  0  0  0  0  0  0  0  0  0  0
  148.6611  141.2954  157.1987 H   0  0  0  0  0  0  0  0  0  0  0  0
  154.0903  139.1317  162.3237 H   0  0  0  0  0  0  0  0  0  0  0  0
  152.8836  137.8903  162.0801 H   0  0  0  0  0  0  0  0  0  0  0  0
  154.4845  137.1616  163.7904 H   0  0  0  0  0  0  0  0  0  0  0  0
  155.8436  137.4174  162.7123 H   0  0  0  0  0  0  0  0  0  0  0  0
  153.6611  135.5138  162.3004 H   0  0  0  0  0  0  0  0  0  0  0  0
  150.3305  144.2436  156.9540 H   0  0  0  0  0  0  0  0  0  0  0  0
  1  2  1  0  0  0  0
  1 26  1  0  0  0  0
  2  3  2  0  0  0  0
  2  4  1  0  0  0  0
  4  5  1  0  0  0  0
  4 27  1  0  0  0  0
  4 28  1  0  0  0  0
  5 25  1  0  0  0  0
  5  6  1  0  0  0  0
  5 51  1  0  0  0  0
  6  7  1  0  0  0  0
  6 29  1  0  0  0  0
  6 30  1  0  0  0  0
  7  8  1  0  0  0  0
  7 31  1  0  0  0  0
  7 32  1  0  0  0  0
  8  9  1  0  0  0  0
  8 24  1  0  0  0  0
  8 33  1  0  0  0  0
  9 10  1  0  0  0  0
  9 34  1  0  0  0  0
 10 11  2  0  0  0  0
 10 12  1  0  0  0  0
 12 13  1  0  0  0  0
 12 35  1  0  0  0  0
 13 18  1  0  0  0  0
 13 14  2  0  0  0  0
 14 15  1  0  0  0  0
 14 36  1  0  0  0  0
 15 16  2  0  0  0  0
 15 37  1  0  0  0  0
 16 17  1  0  0  0  0
 16 38  1  0  0  0  0
 17 18  2  0  0  0  0
 17 52  1  0  0  0  0
 18 19  1  0  0  0  0
 19 23  1  0  0  0  0
 19 20  1  0  0  0  0
 20 21  1  0  0  0  0
 20 39  1  0  0  0  0
 20 40  1  0  0  0  0
 21 22  1  0  0  0  0
 21 41  1  0  0  0  0
 21 42  1  0  0  0  0
 22 23  1  0  0  0  0
 22 43  1  0  0  0  0
 22 44  1  0  0  0  0
 23 45  1  0  0  0  0
 23 46  1  0  0  0  0
 24 25  1  0  0  0  0
 24 47  1  0  0  0  0
 24 48  1  0  0  0  0
 25 49  1  0  0  0  0
 25 50  1  0  0  0  0
M  CHG  1   1  -1
M  CHG  1   5   1
M  CHG  1  17   1
M  END
> <s_m_source_file>
AV-unprocessed.smi

> <i_m_source_file_index>
1740

> <i_lp_mmshare_version>
43012

> <i_f3d_flags>
0

> <s_epik_input>
W05IMl1DKD1PKVtDSDJdTjFbQ0gyXVtDSDJdW0NIXShbQ0gyXVtDSDJdMSlbTkhdQyg9TylbTkhdYzJbY0hdW2NIXVtjSF1uYzJOM1tDSDJdW0NIMl1bQ0gyXVtDSDJdMw==

> <s_epik_cmdline>
J2VwaWtfcHl0aG9uJywgJy1waCcsICc3LjAnLCAnLXRuJywgJzgnLCAnLW1hJywgJzIwMCcsICctbWV0YWxfYmluZGluZycsICctaW1hZScsICc8aW5maWxlLm1hZT4nLCAnLW9tYWUnLCAnPG91dGZpbGUubWFlPic=

> <r_lp_tautomer_probability>
0.999994

> <r_epik_Ionization_Penalty>
6.97817

> <r_epik_Ionization_Penalty_Charging>
6.97815

> <r_epik_Ionization_Penalty_Neutral>
1.88285e-05

> <r_epik_State_Penalty>
7.80985

> <r_epik_Charging_Adjusted_Penalty>
14.788

> <i_epik_Tot_Q>
1

> <i_epik_Tot_abs_Q>
3

> <r_epik_Metal_State_Penalty>
3.85728

> <b_epik_Metal_Only>
1

> <s_lp_Force_Field>
OPLS_2005

> <r_lp_Energy>
44.3343

> <b_lp_Chiralities_Consistent>
1

> <s_lp_Variant>
AV-unprocessed.smi:1740-9

> <Gold.Version>
5.8.1

> <Gold.Id.Protein>
6NUR|6NUR_protein|mol2

> <Gold.PLP.Fitness>
46.7911

> <Gold.PLP.PLP>
-41.6014

> <Gold.PLP.part.hbond>
-2.0000

> <Gold.PLP.part.metal>
0.0000

> <Gold.PLP.part.buried>
-7.9736

> <Gold.PLP.part.nonpolar>
-30.7890

> <Gold.PLP.part.repulsive>
0.3743

> <Gold.PLP.ligand.clash>
0.0000

> <Gold.PLP.ligand.torsion>
0.6260

> <Gold.PLP.Chemscore.Hbond>
2.0000

> <Gold.PLP.Chemscore.CHOScore>
0.0000

> <Gold.PLP.Chemscore.Metal>
0.0000

> <Gold.Chemscore.Hbonds>
donor molecule, donor type, donor heavy atom, donor atom, acceptor molecule, acceptor atom, score
      L1  H    17    52       P1  8028  2.00

> <Gold.PLP.Chemscore.Internal.Correction>
0.4417

> <Gold.Rescore>
     Score         DG    S(hbond)    S(metal)    S(lipo)     H(rot)  DE(clash)    DE(int)     intcor
     10.63     -13.99       0.94        0.00      93.56       2.18       0.41       2.95       ----

> <Gold.Chemscore.Fitness>
10.6298

> <Gold.Chemscore.DG>
-13.9918

> <Gold.Chemscore.ZeroCoef>
-5.4800

> <Gold.Chemscore.Hbond>
0.9445

> <Gold.Chemscore.Metal>
0.0000

> <Gold.Chemscore.Lipo>
93.5574

> <Gold.Chemscore.Internal_Hbond>
0.0000

> <Gold.Chemscore.DEClash>
0.4139

> <Gold.Chemscore.DEInternal>
2.9482

> <Gold.Chemscore.Rot>
2.1832

> <Gold.Chemscore.Internal.Correction>
   9.000000E+99

> <Gold.Chemscore.Hbonds>
donor molecule, donor type, donor heavy atom, donor atom, acceptor molecule, acceptor atom, score
      L1  H    17    52       P1  8028  0.93

> <Gold.Chemscore.Hbond.Weighted>
-3.1547

> <Gold.Chemscore.Metal.Weighted>
-0.0000

> <Gold.Chemscore.Lipo.Weighted>
-10.9462

> <Gold.Chemscore.Internal_Hbond.Weighted>
0.0000

> <Gold.Chemscore.DEClash.Weighted>
0.4139

> <Gold.Chemscore.DEInternal.Weighted>
2.9482

> <Gold.Chemscore.Rot.Weighted>
5.5891

> <Gold.Chemscore.Internal.Correction.Weighted>
   9.000000E+99

> <Gold.Protein.RotatedTorsions>
[ 6907 6896 6895 6894 ] final -156.69 input  -60.11 | X-H torsion
[ 7974 7965 7964 7962 ] final   91.02 input  175.53 | X-H torsion
[ 8008 7997 7996 7995 ] final  135.29 input   59.86 | X-H torsion
[ 10167 10162 10161 10158 ] final   31.29 input  -65.29 | X-H torsion
[ 10718 10713 10712 10709 ] final    0.79 input   66.30 | X-H torsion
[ 10763 10752 10751 10750 ] final  141.00 input  -60.55 | X-H torsion
[ 11005 11000 10999 10996 ] final   79.46 input  -57.11 | X-H torsion

> <Gold.Protein.ActiveResidues>
 VAL166  LYS551  ARG553  GLY616  TRP617  ASP618  TYR619  PRO620  LYS621  CYS622 
 ASP623  PHE694  ASN695  SER759  ASP760  ASP761  ALA762  ILE779  LEU786  VAL792 
 PHE793  MET794  SER795  GLU796  ALA797  LYS798  CYS799  TRP800  GLU811  SER814 

> <Gold.Protein.RotatedAtoms>
  151.2915  133.4163  159.2633 H   0  0  0  0  0  0  0  0  0  0  0  0  # atno 6907 bound_to 6896
  151.0273  134.9514  159.8102 H   0  0  0  0  0  0  0  0  0  0  0  0  # atno 6908 bound_to 6896
  152.5338  134.2877  159.9084 H   0  0  0  0  0  0  0  0  0  0  0  0  # atno 6909 bound_to 6896
  145.5112  139.2277  143.2723 H   0  0  0  0  0  0  0  0  0  0  0  0  # atno 7974 bound_to 7965
  156.3002  140.2474  156.3556 H   0  0  0  0  0  0  0  0  0  0  0  0  # atno 8008 bound_to 7997
  154.8924  140.0409  157.1866 H   0  0  0  0  0  0  0  0  0  0  0  0  # atno 8009 bound_to 7997
  154.8584  140.2916  155.5559 H   0  0  0  0  0  0  0  0  0  0  0  0  # atno 8010 bound_to 7997
  140.4601  144.0919  150.6211 H   0  0  0  0  0  0  0  0  0  0  0  0  # atno 10167 bound_to 10162
  156.8386  130.5513  149.5680 H   0  0  0  0  0  0  0  0  0  0  0  0  # atno 10718 bound_to 10713
  153.9319  135.2989  155.3445 H   0  0  0  0  0  0  0  0  0  0  0  0  # atno 10763 bound_to 10752
  154.7522  135.4975  153.9313 H   0  0  0  0  0  0  0  0  0  0  0  0  # atno 10764 bound_to 10752
  153.1087  135.6753  153.9645 H   0  0  0  0  0  0  0  0  0  0  0  0  # atno 10765 bound_to 10752
  139.9172  134.7844  156.1782 H   0  0  0  0  0  0  0  0  0  0  0  0  # atno 11005 bound_to 11000
  146.2165  140.5919  142.9036 LP  0  0  0  0  0  0  0  0  0  0  0  0  # atno 17320 bound_to 7965
  144.7726  140.5671  143.6659 LP  0  0  0  0  0  0  0  0  0  0  0  0  # atno 17321 bound_to 7965
  140.4103  143.2660  151.9840 LP  0  0  0  0  0  0  0  0  0  0  0  0  # atno 17342 bound_to 10162
  139.4805  144.5921  151.7754 LP  0  0  0  0  0  0  0  0  0  0  0  0  # atno 17343 bound_to 10162
  156.0893  130.5883  150.9704 LP  0  0  0  0  0  0  0  0  0  0  0  0  # atno 17370 bound_to 10713
  157.6368  131.0915  150.8333 LP  0  0  0  0  0  0  0  0  0  0  0  0  # atno 17371 bound_to 10713
  141.0658  133.6820  156.2043 LP  0  0  0  0  0  0  0  0  0  0  0  0  # atno 17394 bound_to 11000
  140.6587  134.4991  157.5582 LP  0  0  0  0  0  0  0  0  0  0  0  0  # atno 17395 bound_to 11000

$$$$
