AV-unprocessed.smi:1230|AV-procd|sdf|5157|dock7
  -GOLD-   22720 4233D 1   1.00000     0.00000
 Structure written by MMmdl.
 39 40  0  0  0  0  0  0  0  0  1 V2000
  153.2516  141.1758  160.4756 C   0  0  0  0  0  0  0  0  0  0  0  0
  152.4911  142.3494  159.8383 C   0  0  1  0  0  0  0  0  0  0  0  0
  153.4491  143.3826  159.2113 C   0  0  0  0  0  0  0  0  0  0  0  0
  152.6817  144.5714  158.6106 C   0  0  0  0  0  0  0  0  0  0  0  0
  151.6300  144.1021  157.5938 C   0  0  0  0  0  0  0  0  0  0  0  0
  150.6735  143.0730  158.2180 C   0  0  0  0  0  0  0  0  0  0  0  0
  151.4384  141.8710  158.8131 C   0  0  1  0  0  0  0  0  0  0  0  0
  152.1076  141.1434  157.7880 O   0  0  0  0  0  0  0  0  0  0  0  0
  151.2817  140.2501  157.0577 C   0  0  0  0  0  0  0  0  0  0  0  0
  152.1857  139.2346  156.3431 C   0  0  0  0  0  0  0  0  0  0  0  0
  151.4674  138.0773  155.8710 N   0  0  0  0  0  0  0  0  0  0  0  0
  151.5664  136.8384  156.4859 C   0  0  0  0  0  0  0  0  0  0  0  0
  150.9053  135.7441  156.0394 C   0  0  0  0  0  0  0  0  0  0  0  0
  151.0162  134.4762  156.6820 C   0  0  0  0  0  0  0  0  0  0  0  0
  151.1282  133.4432  157.1920 N   0  0  0  0  0  0  0  0  0  0  0  0
  150.0419  135.8211  154.8621 C   0  0  0  0  0  0  0  0  0  0  0  0
  149.4000  134.8891  154.3810 O   0  0  0  0  0  0  0  0  0  0  0  0
  149.9824  137.0885  154.2731 N   0  0  0  0  0  0  0  0  0  0  0  0
  150.6587  138.2256  154.7193 C   0  0  0  0  0  0  0  0  0  0  0  0
  150.5354  139.2899  154.1129 O   0  0  0  0  0  0  0  0  0  0  0  0
  149.4020  137.1897  153.4531 H   0  0  0  0  0  0  0  0  0  0  0  0
  153.8382  140.6302  159.7360 H   0  0  0  0  0  0  0  0  0  0  0  0
  152.5640  140.4696  160.9415 H   0  0  0  0  0  0  0  0  0  0  0  0
  153.9368  141.5263  161.2476 H   0  0  0  0  0  0  0  0  0  0  0  0
  151.9545  142.8516  160.6447 H   0  0  0  0  0  0  0  0  0  0  0  0
  154.1501  143.7454  159.9636 H   0  0  0  0  0  0  0  0  0  0  0  0
  154.0509  142.9079  158.4351 H   0  0  0  0  0  0  0  0  0  0  0  0
  152.1925  145.1305  159.4094 H   0  0  0  0  0  0  0  0  0  0  0  0
  153.3784  145.2611  158.1333 H   0  0  0  0  0  0  0  0  0  0  0  0
  151.0642  144.9573  157.2234 H   0  0  0  0  0  0  0  0  0  0  0  0
  152.1274  143.6633  156.7279 H   0  0  0  0  0  0  0  0  0  0  0  0
  150.0978  143.5558  159.0087 H   0  0  0  0  0  0  0  0  0  0  0  0
  149.9441  142.7459  157.4781 H   0  0  0  0  0  0  0  0  0  0  0  0
  150.7347  141.2147  159.3286 H   0  0  0  0  0  0  0  0  0  0  0  0
  150.5960  139.7413  157.7364 H   0  0  0  0  0  0  0  0  0  0  0  0
  150.6811  140.7892  156.3253 H   0  0  0  0  0  0  0  0  0  0  0  0
  152.6500  139.6854  155.4647 H   0  0  0  0  0  0  0  0  0  0  0  0
  153.0040  138.8831  156.9756 H   0  0  0  0  0  0  0  0  0  0  0  0
  152.1975  136.7351  157.3577 H   0  0  0  0  0  0  0  0  0  0  0  0
  1  2  1  0  0  0  0
  1 22  1  0  0  0  0
  1 23  1  0  0  0  0
  1 24  1  0  0  0  0
  2  7  1  0  0  0  0
  2  3  1  0  0  0  0
  2 25  1  0  0  0  0
  3  4  1  0  0  0  0
  3 26  1  0  0  0  0
  3 27  1  0  0  0  0
  4  5  1  0  0  0  0
  4 28  1  0  0  0  0
  4 29  1  0  0  0  0
  5  6  1  0  0  0  0
  5 30  1  0  0  0  0
  5 31  1  0  0  0  0
  6  7  1  0  0  0  0
  6 32  1  0  0  0  0
  6 33  1  0  0  0  0
  7  8  1  0  0  0  0
  7 34  1  0  0  0  0
  8  9  1  0  0  0  0
  9 10  1  0  0  0  0
  9 35  1  0  0  0  0
  9 36  1  0  0  0  0
 10 11  1  0  0  0  0
 10 37  1  0  0  0  0
 10 38  1  0  0  0  0
 11 19  1  0  0  0  0
 11 12  1  0  0  0  0
 12 13  2  0  0  0  0
 12 39  1  0  0  0  0
 13 14  1  0  0  0  0
 13 16  1  0  0  0  0
 14 15  3  0  0  0  0
 16 17  2  0  0  0  0
 16 18  1  0  0  0  0
 18 21  1  0  0  0  0
 18 19  1  0  0  0  0
 19 20  2  0  0  0  0
M  END
> <s_m_source_file>
AV-unprocessed.smi

> <i_m_source_file_index>
1230

> <i_lp_mmshare_version>
43012

> <i_f3d_flags>
0

> <s_epik_input>
W0NIM11bQ0BASF0xW0NIMl1bQ0gyXVtDSDJdW0NIMl1bQ0BIXTFPW0NIMl1bQ0gyXW4yW2NIXWMoQyNOKWMoPU8pW25IXWMyPU8=

> <s_epik_cmdline>
J2VwaWtfcHl0aG9uJywgJy1waCcsICc3LjAnLCAnLXRuJywgJzgnLCAnLW1hJywgJzIwMCcsICctbWV0YWxfYmluZGluZycsICctaW1hZScsICc8aW5maWxlLm1hZT4nLCAnLW9tYWUnLCAnPG91dGZpbGUubWFlPic=

> <r_epik_Ionization_Penalty>
0.421541

> <r_epik_Ionization_Penalty_Charging>
0.421541

> <r_epik_Ionization_Penalty_Neutral>
2.29267e-11

> <r_epik_State_Penalty>
0.422277

> <r_epik_Charging_Adjusted_Penalty>
0.843818

> <i_epik_Tot_Q>
0

> <i_epik_Tot_abs_Q>
0

> <r_epik_Metal_State_Penalty>
4.11629

> <b_epik_Metal_Only>
0

> <s_lp_Force_Field>
OPLS_2005

> <r_lp_Energy>
14.8101

> <b_lp_Chiralities_Consistent>
1

> <s_lp_Variant>
AV-unprocessed.smi:1230-6

> <Gold.Version>
5.8.1

> <Gold.Id.Protein>
6NUR|6NUR_protein|mol2

> <Gold.PLP.Fitness>
43.7331

> <Gold.PLP.PLP>
-37.2402

> <Gold.PLP.part.hbond>
-3.5428

> <Gold.PLP.part.metal>
0.0000

> <Gold.PLP.part.buried>
-2.3932

> <Gold.PLP.part.nonpolar>
-33.1358

> <Gold.PLP.part.repulsive>
1.6010

> <Gold.PLP.ligand.clash>
0.0000

> <Gold.PLP.ligand.torsion>
0.5198

> <Gold.PLP.Chemscore.Hbond>
2.5040

> <Gold.PLP.Chemscore.CHOScore>
0.0000

> <Gold.PLP.Chemscore.Metal>
0.0000

> <Gold.Chemscore.Hbonds>
donor molecule, donor type, donor heavy atom, donor atom, acceptor molecule, acceptor atom, score
      L1  H    18    21       P1  7948  0.78
      P1  H  6896  6908       L1    15  0.69
      P1  H  7989  7998       L1    20  1.00

> <Gold.PLP.Chemscore.Internal.Correction>
0.0206

> <Gold.Rescore>
     Score         DG    S(hbond)    S(metal)    S(lipo)     H(rot)  DE(clash)    DE(int)     intcor
     19.15     -19.93       2.36        0.00      98.63       1.94       0.22       0.56       ----

> <Gold.Chemscore.Fitness>
19.1491

> <Gold.Chemscore.DG>
-19.9344

> <Gold.Chemscore.ZeroCoef>
-5.4800

> <Gold.Chemscore.Hbond>
2.3585

> <Gold.Chemscore.Metal>
0.0000

> <Gold.Chemscore.Lipo>
98.6278

> <Gold.Chemscore.Internal_Hbond>
0.0000

> <Gold.Chemscore.DEClash>
0.2205

> <Gold.Chemscore.DEInternal>
0.5649

> <Gold.Chemscore.Rot>
1.9385

> <Gold.Chemscore.Internal.Correction>
   9.000000E+99

> <Gold.Chemscore.Hbonds>
donor molecule, donor type, donor heavy atom, donor atom, acceptor molecule, acceptor atom, score
      L1  H    18    21       P1  7948  0.73
      P1  H  6896  6908       L1    15  0.63
      P1  H  7989  7998       L1    20  0.95

> <Gold.Chemscore.Hbond.Weighted>
-7.8775

> <Gold.Chemscore.Metal.Weighted>
-0.0000

> <Gold.Chemscore.Lipo.Weighted>
-11.5394

> <Gold.Chemscore.Internal_Hbond.Weighted>
0.0000

> <Gold.Chemscore.DEClash.Weighted>
0.2205

> <Gold.Chemscore.DEInternal.Weighted>
0.5649

> <Gold.Chemscore.Rot.Weighted>
4.9625

> <Gold.Chemscore.Internal.Correction.Weighted>
   9.000000E+99

> <Gold.Protein.RotatedTorsions>
[ 6907 6896 6895 6894 ] final   82.62 input  -60.11 | X-H torsion
[ 7974 7965 7964 7962 ] final  -31.06 input  175.53 | X-H torsion
[ 8008 7997 7996 7995 ] final   75.58 input   59.86 | X-H torsion
[ 10167 10162 10161 10158 ] final -170.92 input  -65.29 | X-H torsion
[ 10718 10713 10712 10709 ] final -109.48 input   66.30 | X-H torsion
[ 10763 10752 10751 10750 ] final  -95.98 input  -60.55 | X-H torsion
[ 11005 11000 10999 10996 ] final   -0.10 input  -57.11 | X-H torsion

> <Gold.Protein.ActiveResidues>
 VAL166  LYS551  ARG553  GLY616  TRP617  ASP618  TYR619  PRO620  LYS621  CYS622 
 ASP623  PHE694  ASN695  SER759  ASP760  ASP761  ALA762  ILE779  LEU786  VAL792 
 PHE793  MET794  SER795  GLU796  ALA797  LYS798  CYS799  TRP800  GLU811  SER814 

> <Gold.Protein.RotatedAtoms>
  152.5304  134.3021  159.9082 H   0  0  0  0  0  0  0  0  0  0  0  0  # atno 6907 bound_to 6896
  151.2972  133.4132  159.2645 H   0  0  0  0  0  0  0  0  0  0  0  0  # atno 6908 bound_to 6896
  151.0150  134.9442  159.8085 H   0  0  0  0  0  0  0  0  0  0  0  0  # atno 6909 bound_to 6896
  146.1096  140.5619  142.8784 H   0  0  0  0  0  0  0  0  0  0  0  0  # atno 7974 bound_to 7965
  155.8150  140.3472  155.5480 H   0  0  0  0  0  0  0  0  0  0  0  0  # atno 8008 bound_to 7997
  155.8401  140.0940  157.1760 H   0  0  0  0  0  0  0  0  0  0  0  0  # atno 8009 bound_to 7997
  154.4005  140.1396  156.3706 H   0  0  0  0  0  0  0  0  0  0  0  0  # atno 8010 bound_to 7997
  139.5833  144.1375  152.1543 H   0  0  0  0  0  0  0  0  0  0  0  0  # atno 10167 bound_to 10162
  156.0539  130.5766  150.8106 H   0  0  0  0  0  0  0  0  0  0  0  0  # atno 10718 bound_to 10713
  154.7198  135.5100  153.8793 H   0  0  0  0  0  0  0  0  0  0  0  0  # atno 10763 bound_to 10752
  153.0852  135.6643  153.9973 H   0  0  0  0  0  0  0  0  0  0  0  0  # atno 10764 bound_to 10752
  153.9798  135.3030  155.3400 H   0  0  0  0  0  0  0  0  0  0  0  0  # atno 10765 bound_to 10752
  140.6325  133.9562  155.8282 H   0  0  0  0  0  0  0  0  0  0  0  0  # atno 11005 bound_to 11000
  144.7500  140.5166  143.6808 LP  0  0  0  0  0  0  0  0  0  0  0  0  # atno 17320 bound_to 7965
  145.5691  139.1482  143.3298 LP  0  0  0  0  0  0  0  0  0  0  0  0  # atno 17321 bound_to 7965
  140.0933  144.5602  150.7039 LP  0  0  0  0  0  0  0  0  0  0  0  0  # atno 17342 bound_to 10162
  140.7108  143.2504  151.4586 LP  0  0  0  0  0  0  0  0  0  0  0  0  # atno 17343 bound_to 10162
  157.5492  131.0943  150.9719 LP  0  0  0  0  0  0  0  0  0  0  0  0  # atno 17370 bound_to 10713
  156.9983  130.5590  149.5309 LP  0  0  0  0  0  0  0  0  0  0  0  0  # atno 17371 bound_to 10713
  141.0665  134.0269  157.3586 LP  0  0  0  0  0  0  0  0  0  0  0  0  # atno 17394 bound_to 11000
  139.9110  135.0190  156.7693 LP  0  0  0  0  0  0  0  0  0  0  0  0  # atno 17395 bound_to 11000

$$$$
