AV-unprocessed.smi:2362|AV-procd|sdf|9413|dock7
  -GOLD-   2272013 53D 1   1.00000     0.00000
 Structure written by MMmdl.
 45 46  0  0  0  0  0  0  0  0  2 V2000
  153.9972  141.7021  160.7744 C   0  0  0  0  0  0  0  0  0  0  0  0
  152.9065  141.9300  159.7488 C   0  0  0  0  0  0  0  0  0  0  0  0
  152.6056  143.2220  159.2771 C   0  0  0  0  0  0  0  0  0  0  0  0
  151.5798  143.3745  158.3243 C   0  0  0  0  0  0  0  0  0  0  0  0
  150.8813  142.2351  157.8656 C   0  0  0  0  0  0  0  0  0  0  0  0
  149.8640  142.4970  156.9090 N   0  0  0  0  0  0  0  0  0  0  0  0
  149.1145  141.6090  156.2326 C   0  0  0  0  0  0  0  0  0  0  0  0
  149.2189  140.3847  156.3089 O   0  0  0  0  0  0  0  0  0  0  0  0
  148.2099  142.2240  155.4549 N   0  0  0  0  0  0  0  0  0  0  0  0
  147.2494  141.5627  154.5696 C   0  0  2  0  0  0  0  0  0  0  0  0
  148.0099  140.6473  153.6006 C   0  0  0  0  0  0  0  0  0  0  0  0
  146.3827  142.5898  153.8038 C   0  0  0  0  0  0  0  0  0  0  0  0
  145.6176  143.4955  154.6991 N   0  3  0  0  0  0  0  0  0  0  0  0
  144.7066  144.4045  153.9570 C   0  0  0  0  0  0  0  0  0  0  0  0
  144.0593  145.4301  154.9036 C   0  0  0  0  0  0  0  0  0  0  0  0
  143.3219  144.7315  156.0535 C   0  0  0  0  0  0  0  0  0  0  0  0
  144.2721  143.7690  156.7780 C   0  0  0  0  0  0  0  0  0  0  0  0
  144.9067  142.7769  155.7897 C   0  0  0  0  0  0  0  0  0  0  0  0
  151.1772  140.9946  158.3277 N   0  0  0  0  0  0  0  0  0  0  0  0
  152.1607  140.8491  159.2405 C   0  0  0  0  0  0  0  0  0  0  0  0
  154.5040  142.6336  161.0288 H   0  0  0  0  0  0  0  0  0  0  0  0
  154.7405  141.0045  160.3878 H   0  0  0  0  0  0  0  0  0  0  0  0
  153.5743  141.2829  161.6875 H   0  0  0  0  0  0  0  0  0  0  0  0
  153.1482  144.0840  159.6365 H   0  0  0  0  0  0  0  0  0  0  0  0
  151.3365  144.3593  157.9525 H   0  0  0  0  0  0  0  0  0  0  0  0
  149.6789  143.4731  156.7305 H   0  0  0  0  0  0  0  0  0  0  0  0
  148.1983  143.2338  155.4569 H   0  0  0  0  0  0  0  0  0  0  0  0
  146.6021  140.9177  155.1652 H   0  0  0  0  0  0  0  0  0  0  0  0
  147.3204  140.1007  152.9565 H   0  0  0  0  0  0  0  0  0  0  0  0
  148.6063  139.9109  154.1405 H   0  0  0  0  0  0  0  0  0  0  0  0
  148.6832  141.2164  152.9586 H   0  0  0  0  0  0  0  0  0  0  0  0
  147.0462  143.1841  153.1734 H   0  0  0  0  0  0  0  0  0  0  0  0
  145.6951  142.0844  153.1237 H   0  0  0  0  0  0  0  0  0  0  0  0
  145.2636  144.9369  153.1852 H   0  0  0  0  0  0  0  0  0  0  0  0
  143.9387  143.8187  153.4495 H   0  0  0  0  0  0  0  0  0  0  0  0
  144.8285  146.0887  155.3095 H   0  0  0  0  0  0  0  0  0  0  0  0
  143.3683  146.0660  154.3495 H   0  0  0  0  0  0  0  0  0  0  0  0
  142.9266  145.4691  156.7525 H   0  0  0  0  0  0  0  0  0  0  0  0
  142.4659  144.1803  155.6621 H   0  0  0  0  0  0  0  0  0  0  0  0
  145.0568  144.3359  157.2813 H   0  0  0  0  0  0  0  0  0  0  0  0
  143.7332  143.2280  157.5564 H   0  0  0  0  0  0  0  0  0  0  0  0
  144.1393  142.1294  155.3625 H   0  0  0  0  0  0  0  0  0  0  0  0
  145.5977  142.1309  156.3305 H   0  0  0  0  0  0  0  0  0  0  0  0
  152.3560  139.8404  159.5743 H   0  0  0  0  0  0  0  0  0  0  0  0
  146.3020  144.0905  155.1445 H   0  0  0  0  0  0  0  0  0  0  0  0
  1  2  1  0  0  0  0
  1 21  1  0  0  0  0
  1 22  1  0  0  0  0
  1 23  1  0  0  0  0
  2 20  1  0  0  0  0
  2  3  2  0  0  0  0
  3  4  1  0  0  0  0
  3 24  1  0  0  0  0
  4  5  2  0  0  0  0
  4 25  1  0  0  0  0
  5  6  1  0  0  0  0
  5 19  1  0  0  0  0
  6  7  1  0  0  0  0
  6 26  1  0  0  0  0
  7  8  2  0  0  0  0
  7  9  1  0  0  0  0
  9 10  1  0  0  0  0
  9 27  1  0  0  0  0
 10 11  1  0  0  0  0
 10 12  1  0  0  0  0
 10 28  1  0  0  0  0
 11 29  1  0  0  0  0
 11 30  1  0  0  0  0
 11 31  1  0  0  0  0
 12 13  1  0  0  0  0
 12 32  1  0  0  0  0
 12 33  1  0  0  0  0
 13 18  1  0  0  0  0
 13 14  1  0  0  0  0
 13 45  1  0  0  0  0
 14 15  1  0  0  0  0
 14 34  1  0  0  0  0
 14 35  1  0  0  0  0
 15 16  1  0  0  0  0
 15 36  1  0  0  0  0
 15 37  1  0  0  0  0
 16 17  1  0  0  0  0
 16 38  1  0  0  0  0
 16 39  1  0  0  0  0
 17 18  1  0  0  0  0
 17 40  1  0  0  0  0
 17 41  1  0  0  0  0
 18 42  1  0  0  0  0
 18 43  1  0  0  0  0
 19 20  2  0  0  0  0
 20 44  1  0  0  0  0
M  CHG  1  13   1
M  END
> <s_m_source_file>
AV-unprocessed.smi

> <i_m_source_file_index>
2362

> <i_lp_mmshare_version>
43012

> <i_f3d_flags>
0

> <s_epik_input>
W0NIM11jMVtjSF1bY0hdYyhuW2NIXTEpW05IXUMoPU8pW05IXVtDQEhdKFtDSDNdKVtDSDJdTjJbQ0gyXVtDSDJdW0NIMl1bQ0gyXVtDSDJdMg==

> <s_epik_cmdline>
J2VwaWtfcHl0aG9uJywgJy1waCcsICc3LjAnLCAnLXRuJywgJzgnLCAnLW1hJywgJzIwMCcsICctbWV0YWxfYmluZGluZycsICctaW1hZScsICc8aW5maWxlLm1hZT4nLCAnLW9tYWUnLCAnPG91dGZpbGUubWFlPic=

> <r_epik_Ionization_Penalty>
0.00215987

> <r_epik_Ionization_Penalty_Charging>
0.00211816

> <r_epik_Ionization_Penalty_Neutral>
4.17101e-05

> <r_epik_State_Penalty>
0.00145254

> <r_epik_Charging_Adjusted_Penalty>
0.0035707

> <i_epik_Tot_Q>
1

> <i_epik_Tot_abs_Q>
1

> <r_epik_Metal_State_Penalty>
-0

> <b_epik_Metal_Only>
0

> <s_lp_Force_Field>
OPLS_2005

> <r_lp_Energy>
24.6446

> <b_lp_Chiralities_Consistent>
1

> <s_lp_Variant>
AV-unprocessed.smi:2362-1

> <Gold.Version>
5.8.1

> <Gold.Id.Protein>
6NUR|6NUR_protein|mol2

> <Gold.PLP.Fitness>
43.8978

> <Gold.PLP.PLP>
-38.0588

> <Gold.PLP.part.hbond>
-2.0000

> <Gold.PLP.part.metal>
0.0000

> <Gold.PLP.part.buried>
-4.2844

> <Gold.PLP.part.nonpolar>
-31.5814

> <Gold.PLP.part.repulsive>
0.2201

> <Gold.PLP.ligand.clash>
0.0000

> <Gold.PLP.ligand.torsion>
0.0622

> <Gold.PLP.Chemscore.Hbond>
1.9760

> <Gold.PLP.Chemscore.CHOScore>
0.0000

> <Gold.PLP.Chemscore.Metal>
0.0000

> <Gold.Chemscore.Hbonds>
donor molecule, donor type, donor heavy atom, donor atom, acceptor molecule, acceptor atom, score
      L1  H     6    26       P1  8028  0.98
      L1  H     9    27       P1  8028  1.00

> <Gold.PLP.Chemscore.Internal.Correction>
0.0354

> <Gold.Rescore>
     Score         DG    S(hbond)    S(metal)    S(lipo)     H(rot)  DE(clash)    DE(int)     intcor
     17.19     -18.93       1.95        0.00      90.71       1.44       0.39       1.36       ----

> <Gold.Chemscore.Fitness>
17.1875

> <Gold.Chemscore.DG>
-18.9345

> <Gold.Chemscore.ZeroCoef>
-5.4800

> <Gold.Chemscore.Hbond>
1.9549

> <Gold.Chemscore.Metal>
0.0000

> <Gold.Chemscore.Lipo>
90.7054

> <Gold.Chemscore.Internal_Hbond>
0.0000

> <Gold.Chemscore.DEClash>
0.3900

> <Gold.Chemscore.DEInternal>
1.3570

> <Gold.Chemscore.Rot>
1.4404

> <Gold.Chemscore.Internal.Correction>
   9.000000E+99

> <Gold.Chemscore.Hbonds>
donor molecule, donor type, donor heavy atom, donor atom, acceptor molecule, acceptor atom, score
      L1  H     6    26       P1  8028  0.92
      L1  H     9    27       P1  8028  0.88

> <Gold.Chemscore.Hbond.Weighted>
-6.5295

> <Gold.Chemscore.Metal.Weighted>
-0.0000

> <Gold.Chemscore.Lipo.Weighted>
-10.6125

> <Gold.Chemscore.Internal_Hbond.Weighted>
0.0000

> <Gold.Chemscore.DEClash.Weighted>
0.3900

> <Gold.Chemscore.DEInternal.Weighted>
1.3570

> <Gold.Chemscore.Rot.Weighted>
3.6875

> <Gold.Chemscore.Internal.Correction.Weighted>
   9.000000E+99

> <Gold.Protein.RotatedTorsions>
[ 6907 6896 6895 6894 ] final  121.12 input  -60.11 | X-H torsion
[ 7974 7965 7964 7962 ] final  -12.09 input  175.53 | X-H torsion
[ 8008 7997 7996 7995 ] final   59.51 input   59.86 | X-H torsion
[ 10167 10162 10161 10158 ] final   76.34 input  -65.29 | X-H torsion
[ 10718 10713 10712 10709 ] final  100.10 input   66.30 | X-H torsion
[ 10763 10752 10751 10750 ] final  167.18 input  -60.55 | X-H torsion
[ 11005 11000 10999 10996 ] final  -35.94 input  -57.11 | X-H torsion

> <Gold.Protein.ActiveResidues>
 VAL166  LYS551  ARG553  GLY616  TRP617  ASP618  TYR619  PRO620  LYS621  CYS622 
 ASP623  PHE694  ASN695  SER759  ASP760  ASP761  ALA762  ILE779  LEU786  VAL792 
 PHE793  MET794  SER795  GLU796  ALA797  LYS798  CYS799  TRP800  GLU811  SER814 

> <Gold.Protein.RotatedAtoms>
  152.4346  133.7338  159.6602 H   0  0  0  0  0  0  0  0  0  0  0  0  # atno 6907 bound_to 6896
  150.8228  133.8212  159.3137 H   0  0  0  0  0  0  0  0  0  0  0  0  # atno 6908 bound_to 6896
  151.5889  135.1057  160.0086 H   0  0  0  0  0  0  0  0  0  0  0  0  # atno 6909 bound_to 6896
  146.2164  140.3006  142.8375 H   0  0  0  0  0  0  0  0  0  0  0  0  # atno 7974 bound_to 7965
  155.5673  140.3489  155.4506 H   0  0  0  0  0  0  0  0  0  0  0  0  # atno 8008 bound_to 7997
  156.0470  140.1309  157.0118 H   0  0  0  0  0  0  0  0  0  0  0  0  # atno 8009 bound_to 7997
  154.4417  140.1012  156.6306 H   0  0  0  0  0  0  0  0  0  0  0  0  # atno 8010 bound_to 7997
  139.9933  144.5740  150.7799 H   0  0  0  0  0  0  0  0  0  0  0  0  # atno 10167 bound_to 10162
  157.6861  131.0689  150.5049 H   0  0  0  0  0  0  0  0  0  0  0  0  # atno 10718 bound_to 10713
  154.3500  135.2753  155.2377 H   0  0  0  0  0  0  0  0  0  0  0  0  # atno 10763 bound_to 10752
  154.4610  135.5907  153.6259 H   0  0  0  0  0  0  0  0  0  0  0  0  # atno 10764 bound_to 10752
  152.9850  135.6065  154.3710 H   0  0  0  0  0  0  0  0  0  0  0  0  # atno 10765 bound_to 10752
  140.9836  133.7043  156.1726 H   0  0  0  0  0  0  0  0  0  0  0  0  # atno 11005 bound_to 11000
  144.9060  140.7700  143.5837 LP  0  0  0  0  0  0  0  0  0  0  0  0  # atno 17320 bound_to 7965
  145.2934  139.1875  143.4728 LP  0  0  0  0  0  0  0  0  0  0  0  0  # atno 17321 bound_to 7965
  140.7446  143.2863  151.3453 LP  0  0  0  0  0  0  0  0  0  0  0  0  # atno 17342 bound_to 10162
  139.6324  144.0695  152.2487 LP  0  0  0  0  0  0  0  0  0  0  0  0  # atno 17343 bound_to 10162
  156.5369  130.4198  149.6173 LP  0  0  0  0  0  0  0  0  0  0  0  0  # atno 17370 bound_to 10713
  156.3019  130.7182  151.2055 LP  0  0  0  0  0  0  0  0  0  0  0  0  # atno 17371 bound_to 10713
  140.7149  134.4421  157.5579 LP  0  0  0  0  0  0  0  0  0  0  0  0  # atno 17394 bound_to 11000
  139.8960  134.8668  156.2104 LP  0  0  0  0  0  0  0  0  0  0  0  0  # atno 17395 bound_to 11000

$$$$
