#       Name:                AV-unprocessed.smi:2340
#       Creating user name   scv26
#       Creation time:       Fri Mar 27 12:57:08 2020


#       File generated by GOLD software.
#

@<TRIPOS>MOLECULE
AV-unprocessed.smi:2340
    45    46     1
SMALL
NO_CHARGES


@<TRIPOS>ATOM
      1 ****        -3.9351  -1.1182   2.1242 C.3            1 S1                 0.0000
      2 ****        -3.0793   0.1037   2.2389 C.2            1 S1                 0.0000
      3 ****        -2.5876   0.6637   3.3915 C.2            1 S1                 0.0000
      4 ****        -1.6310   2.0828   3.0667 S.3            1 S1                 0.0000
      5 ****        -1.9390   1.8608   1.3463 C.2            1 S1                 0.0000
      6 ****        -1.3861   2.7599   0.2811 C.3            1 S1                 0.0000
      7 ****        -1.9383   4.1877   0.3956 C.3            1 S1                 0.0000
      8 ****         0.1570   2.7331   0.2126 C.3            1 S1                 0.0000
      9 ****         0.7002   1.3778   0.1867 N.am           1 S1                 0.0000
     10 ****         0.7022   0.5714  -0.8830 C.2            1 S1                 0.0000
     11 ****         0.2728   0.8939  -1.9905 O.2            1 S1                 0.0000
     12 ****         1.2253  -0.6285  -0.5959 N.am           1 S1                 0.0000
     13 ****         1.3549  -1.7437  -1.5337 C.3            1 S1                 0.0000
     14 ****         1.0820  -3.0705  -0.8272 C.3            1 S1                 0.0000
     15 ****         2.2646  -3.9511  -1.2163 C.3            1 S1                 0.0000
     16 ****         3.3189  -3.0217  -1.3917 O.3            1 S1                 0.0000
     17 ****         2.7839  -1.9133  -2.1001 C.3            1 S1                 0.0000
     18 ****         3.7371  -0.7115  -1.9980 C.3            1 S1                 0.0000
     19 ****        -2.7024   0.7956   1.0850 N.2            1 S1                 0.0000
     20 ****        -4.1888  -1.5215   3.1049 H              1 S1                 0.0000
     21 ****        -3.4250  -1.9042   1.5666 H              1 S1                 0.0000
     22 ****        -4.8696  -0.8976   1.6078 H              1 S1                 0.0000
     23 ****        -2.7284   0.3287   4.4085 H              1 S1                 0.0000
     24 ****        -1.7492   2.3710  -0.6717 H              1 S1                 0.0000
     25 ****        -3.0278   4.1912   0.3529 H              1 S1                 0.0000
     26 ****        -1.5742   4.8150  -0.4185 H              1 S1                 0.0000
     27 ****        -1.6403   4.6563   1.3337 H              1 S1                 0.0000
     28 ****         0.5123   3.2964  -0.6518 H              1 S1                 0.0000
     29 ****         0.5707   3.2284   1.0915 H              1 S1                 0.0000
     30 ****         1.0764   1.0210   1.0529 H              1 S1                 0.0000
     31 ****         1.5538  -0.7897   0.3448 H              1 S1                 0.0000
     32 ****         0.6543  -1.6245  -2.3623 H              1 S1                 0.0000
     33 ****         1.0715  -2.9424   0.2563 H              1 S1                 0.0000
     34 ****         0.1277  -3.5118  -1.1154 H              1 S1                 0.0000
     35 ****         2.5043  -4.6952  -0.4564 H              1 S1                 0.0000
     36 ****         2.0727  -4.4684  -2.1578 H              1 S1                 0.0000
     37 ****         2.7059  -2.2066  -3.1486 H              1 S1                 0.0000
     38 ****         3.3347   0.1550  -2.5232 H              1 S1                 0.0000
     39 ****         4.7035  -0.9471  -2.4436 H              1 S1                 0.0000
     40 ****         3.9165  -0.4270  -0.9611 H              1 S1                 0.0000
     41 ****        -0.1075   1.8078  -2.1327 LP             1 S1                 0.0000
     42 ****         0.3042   0.2421  -2.7482 LP             1 S1                 0.0000
     43 ****         4.0604  -3.4391  -1.9170 LP             1 S1                 0.0000
     44 ****         3.6664  -2.7251  -0.5022 LP             1 S1                 0.0000
     45 ****        -2.9748   0.5228   0.1622 LP             1 S1                 0.0000
@<TRIPOS>BOND
    1    1    2 1     
    2    1   20 1     
    3    1   21 1     
    4    1   22 1     
    5    2   19 1     
    6    2    3 2     
    7    3    4 1     
    8    3   23 1     
    9    4    5 1     
   10    5    6 1     
   11    5   19 2     
   12    6    7 1     
   13    6    8 1     
   14    6   24 1     
   15    7   25 1     
   16    7   26 1     
   17    7   27 1     
   18    8    9 1     
   19    8   28 1     
   20    8   29 1     
   21    9   10 am    
   22    9   30 1     
   23   10   11 2     
   24   10   12 am    
   25   12   13 1     
   26   12   31 1     
   27   13   17 1     
   28   13   14 1     
   29   13   32 1     
   30   14   15 1     
   31   14   33 1     
   32   14   34 1     
   33   15   16 1     
   34   15   35 1     
   35   15   36 1     
   36   16   17 1     
   37   17   18 1     
   38   17   37 1     
   39   18   38 1     
   40   18   39 1     
   41   18   40 1     
   42   11   41 1     
   43   11   42 1     
   44   16   43 1     
   45   16   44 1     
   46   19   45 1     
@<TRIPOS>SUBSTRUCTURE
      1 S1             1
@<TRIPOS>SET
LONE_PAIRS      STATIC     ATOMS    <user>   **** ""
5 41 42 43 44 45
DONOR_HYDROGENS      STATIC     ATOMS    <user>   **** ""
2 30 31
ATOM$BLUE        STATIC     ATOMS    COLORGROUP SYSTEM
5 41 42 43 44 45
ATOM$RED        STATIC     ATOMS    COLORGROUP SYSTEM
2 30 31
