AV-unprocessed.smi:1047|AV-procd|sdf|4589|dock3
  -GOLD-   22720 3 63D 1   1.00000     0.00000
 Structure written by MMmdl.
 57 59  0  0  0  0  0  0  0  0  3 V2000
  145.1011  135.3657  151.2447 C   0  0  0  0  0  0  0  0  0  0  0  0
  145.1111  133.9701  151.8843 C   0  0  0  0  0  0  0  0  0  0  0  0
  146.4086  133.5372  152.4006 N   0  0  0  0  0  0  0  0  0  0  0  0
  146.3580  132.1451  152.8342 C   0  0  0  0  0  0  0  0  0  0  0  0
  147.7106  131.6651  153.3859 C   0  0  0  0  0  0  0  0  0  0  0  0
  148.1168  132.5196  154.4498 O   0  0  0  0  0  0  0  0  0  0  0  0
  148.2355  133.8831  154.0519 C   0  0  2  0  0  0  0  0  0  0  0  0
  148.7075  134.7017  155.2609 C   0  0  0  0  0  0  0  0  0  0  0  0
  148.9766  136.0928  154.8555 N   0  3  0  0  0  0  0  0  0  0  0  0
  149.9232  136.8298  155.7147 C   0  0  0  0  0  0  0  0  0  0  0  0
  150.7287  137.8566  154.8908 C   0  0  2  0  0  0  0  0  0  0  0  0
  151.5292  137.1601  153.9599 O   0  0  0  0  0  0  0  0  0  0  0  0
  151.6606  138.7849  155.7098 C   0  0  0  0  0  0  0  0  0  0  0  0
  151.1138  140.1247  155.9702 N   0  0  0  0  0  0  0  0  0  0  0  0
  150.1703  140.8295  155.2867 C   0  0  0  0  0  0  0  0  0  0  0  0
  150.0238  142.0311  155.9104 N   0  3  0  0  0  0  0  0  0  0  0  0
  150.8738  142.0889  157.0168 C   0  0  0  0  0  0  0  0  0  0  0  0
  151.0893  143.0979  157.9473 C   0  0  0  0  0  0  0  0  0  0  0  0
  152.0359  142.8444  158.9651 C   0  0  0  0  0  0  0  0  0  0  0  0
  152.3028  143.9306  159.9932 C   0  0  0  0  0  0  0  0  0  0  0  0
  152.7239  141.6049  159.0306 C   0  0  0  0  0  0  0  0  0  0  0  0
  153.7381  141.3431  160.1312 C   0  0  0  0  0  0  0  0  0  0  0  0
  152.4869  140.5887  158.0774 C   0  0  0  0  0  0  0  0  0  0  0  0
  151.5616  140.8609  157.0731 C   0  0  0  0  0  0  0  0  0  0  0  0
  146.8746  134.3640  153.5115 C   0  0  0  0  0  0  0  0  0  0  0  0
  144.1316  135.5695  150.7901 H   0  0  0  0  0  0  0  0  0  0  0  0
  145.8555  135.4454  150.4616 H   0  0  0  0  0  0  0  0  0  0  0  0
  145.2858  136.1523  151.9757 H   0  0  0  0  0  0  0  0  0  0  0  0
  144.3626  133.9274  152.6768 H   0  0  0  0  0  0  0  0  0  0  0  0
  144.7815  133.2610  151.1237 H   0  0  0  0  0  0  0  0  0  0  0  0
  145.5927  132.0245  153.6027 H   0  0  0  0  0  0  0  0  0  0  0  0
  146.0631  131.5076  151.9999 H   0  0  0  0  0  0  0  0  0  0  0  0
  147.6282  130.6445  153.7596 H   0  0  0  0  0  0  0  0  0  0  0  0
  148.4702  131.6597  152.6024 H   0  0  0  0  0  0  0  0  0  0  0  0
  148.9826  133.9590  153.2593 H   0  0  0  0  0  0  0  0  0  0  0  0
  147.9321  134.6989  156.0281 H   0  0  0  0  0  0  0  0  0  0  0  0
  149.6046  134.2651  155.7016 H   0  0  0  0  0  0  0  0  0  0  0  0
  149.3305  136.0890  153.9091 H   0  0  0  0  0  0  0  0  0  0  0  0
  149.3953  137.3248  156.5309 H   0  0  0  0  0  0  0  0  0  0  0  0
  150.5938  136.0962  156.1652 H   0  0  0  0  0  0  0  0  0  0  0  0
  150.0335  138.4591  154.3058 H   0  0  0  0  0  0  0  0  0  0  0  0
  151.0035  136.9435  153.2047 H   0  0  0  0  0  0  0  0  0  0  0  0
  151.8612  138.3385  156.6853 H   0  0  0  0  0  0  0  0  0  0  0  0
  152.6280  138.8980  155.2182 H   0  0  0  0  0  0  0  0  0  0  0  0
  149.6423  140.5010  154.4026 H   0  0  0  0  0  0  0  0  0  0  0  0
  150.5581  144.0374  157.8950 H   0  0  0  0  0  0  0  0  0  0  0  0
  153.3484  144.2376  159.9629 H   0  0  0  0  0  0  0  0  0  0  0  0
  152.0755  143.5725  160.9975 H   0  0  0  0  0  0  0  0  0  0  0  0
  151.6909  144.8143  159.8090 H   0  0  0  0  0  0  0  0  0  0  0  0
  154.1791  140.3500  160.0413 H   0  0  0  0  0  0  0  0  0  0  0  0
  153.2658  141.4098  161.1115 H   0  0  0  0  0  0  0  0  0  0  0  0
  154.5475  142.0719  160.0863 H   0  0  0  0  0  0  0  0  0  0  0  0
  153.0090  139.6445  158.1291 H   0  0  0  0  0  0  0  0  0  0  0  0
  146.9728  135.4010  153.1921 H   0  0  0  0  0  0  0  0  0  0  0  0
  146.1371  134.3525  154.3157 H   0  0  0  0  0  0  0  0  0  0  0  0
  148.1004  136.5946  154.8675 H   0  0  0  0  0  0  0  0  0  0  0  0
  149.3834  142.7537  155.6056 H   0  0  0  0  0  0  0  0  0  0  0  0
  1  2  1  0  0  0  0
  1 26  1  0  0  0  0
  1 27  1  0  0  0  0
  1 28  1  0  0  0  0
  2  3  1  0  0  0  0
  2 29  1  0  0  0  0
  2 30  1  0  0  0  0
  3 25  1  0  0  0  0
  3  4  1  0  0  0  0
  4  5  1  0  0  0  0
  4 31  1  0  0  0  0
  4 32  1  0  0  0  0
  5  6  1  0  0  0  0
  5 33  1  0  0  0  0
  5 34  1  0  0  0  0
  6  7  1  0  0  0  0
  7  8  1  0  0  0  0
  7 25  1  0  0  0  0
  7 35  1  0  0  0  0
  8  9  1  0  0  0  0
  8 36  1  0  0  0  0
  8 37  1  0  0  0  0
  9 10  1  0  0  0  0
  9 38  1  0  0  0  0
  9 56  1  0  0  0  0
 10 11  1  0  0  0  0
 10 39  1  0  0  0  0
 10 40  1  0  0  0  0
 11 12  1  0  0  0  0
 11 13  1  0  0  0  0
 11 41  1  0  0  0  0
 12 42  1  0  0  0  0
 13 14  1  0  0  0  0
 13 43  1  0  0  0  0
 13 44  1  0  0  0  0
 14 24  1  0  0  0  0
 14 15  1  0  0  0  0
 15 16  2  0  0  0  0
 15 45  1  0  0  0  0
 16 17  1  0  0  0  0
 16 57  1  0  0  0  0
 17 24  2  0  0  0  0
 17 18  1  0  0  0  0
 18 19  2  0  0  0  0
 18 46  1  0  0  0  0
 19 20  1  0  0  0  0
 19 21  1  0  0  0  0
 20 47  1  0  0  0  0
 20 48  1  0  0  0  0
 20 49  1  0  0  0  0
 21 22  1  0  0  0  0
 21 23  2  0  0  0  0
 22 50  1  0  0  0  0
 22 51  1  0  0  0  0
 22 52  1  0  0  0  0
 23 24  1  0  0  0  0
 23 53  1  0  0  0  0
 25 54  1  0  0  0  0
 25 55  1  0  0  0  0
M  CHG  1   9   1
M  CHG  1  16   1
M  END
> <s_m_source_file>
AV-unprocessed.smi

> <i_m_source_file_index>
1047

> <i_lp_mmshare_version>
43012

> <i_f3d_flags>
0

> <s_epik_input>
W0NIM11bQ0gyXU4xW0NIMl1bQ0gyXU9bQ0BIXShbQ0gyXTEpW0NIMl1bTkhdW0NIMl1bQ0BIXShbT0hdKVtDSDJdbihbY0hdbjIpYyhjMjMpW2NIXWMoW0NIM10pYyhbY0hdMylbQ0gzXQ==

> <s_epik_cmdline>
J2VwaWtfcHl0aG9uJywgJy1waCcsICc3LjAnLCAnLXRuJywgJzgnLCAnLW1hJywgJzIwMCcsICctbWV0YWxfYmluZGluZycsICctaW1hZScsICc8aW5maWxlLm1hZT4nLCAnLW9tYWUnLCAnPG91dGZpbGUubWFlPic=

> <r_epik_Ionization_Penalty>
1.75732

> <r_epik_Ionization_Penalty_Charging>
1.18089

> <r_epik_Ionization_Penalty_Neutral>
0.576429

> <r_epik_State_Penalty>
1.69377

> <r_epik_Charging_Adjusted_Penalty>
2.87466

> <i_epik_Tot_Q>
2

> <i_epik_Tot_abs_Q>
2

> <r_epik_Metal_State_Penalty>
5.70174

> <b_epik_Metal_Only>
0

> <s_lp_Force_Field>
OPLS_2005

> <r_lp_Energy>
41.9229

> <b_lp_Chiralities_Consistent>
1

> <s_lp_Variant>
AV-unprocessed.smi:1047-30

> <Gold.Version>
5.8.1

> <Gold.Id.Protein>
6NUR|6NUR_protein|mol2

> <Gold.PLP.Fitness>
62.0147

> <Gold.PLP.PLP>
-47.4750

> <Gold.PLP.part.hbond>
-4.0000

> <Gold.PLP.part.metal>
0.0000

> <Gold.PLP.part.buried>
-2.6070

> <Gold.PLP.part.nonpolar>
-40.2466

> <Gold.PLP.part.repulsive>
0.3275

> <Gold.PLP.ligand.clash>
0.0000

> <Gold.PLP.ligand.torsion>
1.2969

> <Gold.PLP.Chemscore.Hbond>
5.6080

> <Gold.PLP.Chemscore.CHOScore>
0.0000

> <Gold.PLP.Chemscore.Metal>
0.0000

> <Gold.Chemscore.Hbonds>
donor molecule, donor type, donor heavy atom, donor atom, acceptor molecule, acceptor atom, score
      L1  H     9    38       P1  7948  1.85
      L1  H    12    42       P1  7949  0.80
      L1  H    16    57       P1  8028  1.89
      P1  H 10752 10764       L1    12  0.89

> <Gold.PLP.Chemscore.Internal.Correction>
0.3096

> <Gold.Rescore>
     Score         DG    S(hbond)    S(metal)    S(lipo)     H(rot)  DE(clash)    DE(int)     intcor
     20.35     -21.84       2.72        0.00     120.98       2.69       0.25       1.24       ----

> <Gold.Chemscore.Fitness>
20.3539

> <Gold.Chemscore.DG>
-21.8375

> <Gold.Chemscore.ZeroCoef>
-5.4800

> <Gold.Chemscore.Hbond>
2.7225

> <Gold.Chemscore.Metal>
0.0000

> <Gold.Chemscore.Lipo>
120.9839

> <Gold.Chemscore.Internal_Hbond>
0.0000

> <Gold.Chemscore.DEClash>
0.2457

> <Gold.Chemscore.DEInternal>
1.2379

> <Gold.Chemscore.Rot>
2.6917

> <Gold.Chemscore.Internal.Correction>
   9.000000E+99

> <Gold.Chemscore.Hbonds>
donor molecule, donor type, donor heavy atom, donor atom, acceptor molecule, acceptor atom, score
      L1  H     9    38       P1  7948  0.69
      L1  H    12    42       P1  7949  0.23
      L1  H    16    57       P1  8028  0.85
      P1  H 10752 10764       L1    12  0.48

> <Gold.Chemscore.Hbond.Weighted>
-9.0930

> <Gold.Chemscore.Metal.Weighted>
-0.0000

> <Gold.Chemscore.Lipo.Weighted>
-14.1551

> <Gold.Chemscore.Internal_Hbond.Weighted>
0.0000

> <Gold.Chemscore.DEClash.Weighted>
0.2457

> <Gold.Chemscore.DEInternal.Weighted>
1.2379

> <Gold.Chemscore.Rot.Weighted>
6.8907

> <Gold.Chemscore.Internal.Correction.Weighted>
   9.000000E+99

> <Gold.Protein.RotatedTorsions>
[ 6907 6896 6895 6894 ] final   23.60 input  -60.11 | X-H torsion
[ 7974 7965 7964 7962 ] final  150.04 input  175.53 | X-H torsion
[ 8008 7997 7996 7995 ] final  -25.96 input   59.86 | X-H torsion
[ 10167 10162 10161 10158 ] final -119.02 input  -65.29 | X-H torsion
[ 10718 10713 10712 10709 ] final -118.90 input   66.30 | X-H torsion
[ 10763 10752 10751 10750 ] final  -89.49 input  -60.55 | X-H torsion
[ 11005 11000 10999 10996 ] final -145.61 input  -57.11 | X-H torsion

> <Gold.Protein.ActiveResidues>
 VAL166  LYS551  ARG553  GLY616  TRP617  ASP618  TYR619  PRO620  LYS621  CYS622 
 ASP623  PHE694  ASN695  SER759  ASP760  ASP761  ALA762  ILE779  LEU786  VAL792 
 PHE793  MET794  SER795  GLU796  ALA797  LYS798  CYS799  TRP800  GLU811  SER814 

> <Gold.Protein.RotatedAtoms>
  151.9448  135.0196  160.0537 H   0  0  0  0  0  0  0  0  0  0  0  0  # atno 6907 bound_to 6896
  152.2005  133.4833  159.5064 H   0  0  0  0  0  0  0  0  0  0  0  0  # atno 6908 bound_to 6896
  150.6953  134.1514  159.4184 H   0  0  0  0  0  0  0  0  0  0  0  0  # atno 6909 bound_to 6896
  144.8393  139.6357  143.6023 H   0  0  0  0  0  0  0  0  0  0  0  0  # atno 7974 bound_to 7965
  154.4449  140.1912  156.0701 H   0  0  0  0  0  0  0  0  0  0  0  0  # atno 8008 bound_to 7997
  156.0517  140.3307  155.7332 H   0  0  0  0  0  0  0  0  0  0  0  0  # atno 8009 bound_to 7997
  155.5547  140.0598  157.2833 H   0  0  0  0  0  0  0  0  0  0  0  0  # atno 8010 bound_to 7997
  140.0511  143.5059  152.2081 H   0  0  0  0  0  0  0  0  0  0  0  0  # atno 10167 bound_to 10162
  156.1141  130.6271  150.9349 H   0  0  0  0  0  0  0  0  0  0  0  0  # atno 10718 bound_to 10713
  154.6558  135.5339  153.7957 H   0  0  0  0  0  0  0  0  0  0  0  0  # atno 10763 bound_to 10752
  153.0412  135.6493  154.0947 H   0  0  0  0  0  0  0  0  0  0  0  0  # atno 10764 bound_to 10752
  154.0861  135.2943  155.3261 H   0  0  0  0  0  0  0  0  0  0  0  0  # atno 10765 bound_to 10752
  140.7904  134.2974  157.5015 H   0  0  0  0  0  0  0  0  0  0  0  0  # atno 11005 bound_to 11000
  146.2688  139.6585  142.9310 LP  0  0  0  0  0  0  0  0  0  0  0  0  # atno 17320 bound_to 7965
  145.4727  141.0436  143.2690 LP  0  0  0  0  0  0  0  0  0  0  0  0  # atno 17321 bound_to 7965
  139.5952  144.7564  151.3303 LP  0  0  0  0  0  0  0  0  0  0  0  0  # atno 17342 bound_to 10162
  140.7216  143.7120  150.7762 LP  0  0  0  0  0  0  0  0  0  0  0  0  # atno 17343 bound_to 10162
  157.6323  131.0920  150.8417 LP  0  0  0  0  0  0  0  0  0  0  0  0  # atno 17370 bound_to 10713
  156.8523  130.5084  149.5311 LP  0  0  0  0  0  0  0  0  0  0  0  0  # atno 17371 bound_to 10713
  139.8732  134.9371  156.3679 LP  0  0  0  0  0  0  0  0  0  0  0  0  # atno 17394 bound_to 11000
  140.9395  133.7524  156.0127 LP  0  0  0  0  0  0  0  0  0  0  0  0  # atno 17395 bound_to 11000

$$$$
