AV-unprocessed.smi:3330|AV-procd|sdf|12808|dock1
  -GOLD-   2272019173D 1   1.00000     0.00000
 Structure written by MMmdl.
 38 39  0  0  0  0  0  0  0  0  1 V2000
  150.5890  140.2575  156.2788 C   0  0  0  0  0  0  0  0  0  0  0  0
  150.3184  139.6645  157.6751 C   0  0  1  0  0  0  0  0  0  0  0  0
  150.4897  138.2160  157.6144 N   0  0  0  0  0  0  0  0  0  0  0  0
  150.0026  137.5538  158.8155 C   0  0  0  0  0  0  0  0  0  0  0  0
  148.4679  137.4611  158.7669 C   0  0  0  0  0  0  0  0  0  0  0  0
  147.9648  136.3122  159.5304 N   0  0  0  0  0  0  0  0  0  0  0  0
  148.2918  135.0359  159.2865 C   0  0  0  0  0  0  0  0  0  0  0  0
  149.0511  134.6086  158.4174 O   0  0  0  0  0  0  0  0  0  0  0  0
  147.5717  134.1564  160.2852 C   0  0  0  0  0  0  0  0  0  0  0  0
  146.8855  135.1779  161.0453 N   0  0  0  0  0  0  0  0  0  0  0  0
  147.1322  136.4106  160.5834 C   0  0  0  0  0  0  0  0  0  0  0  0
  146.6702  137.4485  161.0552 O   0  0  0  0  0  0  0  0  0  0  0  0
  151.2687  140.2235  158.7695 C   0  0  1  0  0  0  0  0  0  0  0  0
  152.6806  139.6116  158.7107 C   0  0  0  0  0  0  0  0  0  0  0  0
  151.3652  141.6796  158.7108 N   0  0  0  0  0  0  0  0  0  0  0  0
  152.4025  142.4807  159.1413 C   0  0  0  0  0  0  0  0  0  0  0  0
  152.0551  143.7752  158.8813 C   0  0  0  0  0  0  0  0  0  0  0  0
  150.7710  143.6660  158.2789 C   0  0  0  0  0  0  0  0  0  0  0  0
  150.3611  142.4128  158.1767 N   0  0  0  0  0  0  0  0  0  0  0  0
  150.4242  141.3342  156.2632 H   0  0  0  0  0  0  0  0  0  0  0  0
  149.9273  139.8333  155.5239 H   0  0  0  0  0  0  0  0  0  0  0  0
  151.6158  140.0728  155.9613 H   0  0  0  0  0  0  0  0  0  0  0  0
  149.2929  139.8944  157.9681 H   0  0  0  0  0  0  0  0  0  0  0  0
  151.4775  138.0216  157.5291 H   0  0  0  0  0  0  0  0  0  0  0  0
  150.4315  136.5553  158.9107 H   0  0  0  0  0  0  0  0  0  0  0  0
  150.3119  138.1235  159.6917 H   0  0  0  0  0  0  0  0  0  0  0  0
  148.0436  138.3744  159.1871 H   0  0  0  0  0  0  0  0  0  0  0  0
  148.1171  137.4293  157.7337 H   0  0  0  0  0  0  0  0  0  0  0  0
  146.8707  133.4811  159.7941 H   0  0  0  0  0  0  0  0  0  0  0  0
  148.2667  133.5914  160.9062 H   0  0  0  0  0  0  0  0  0  0  0  0
  146.2893  134.9712  161.8337 H   0  0  0  0  0  0  0  0  0  0  0  0
  150.8464  139.9750  159.7448 H   0  0  0  0  0  0  0  0  0  0  0  0
  152.6672  138.5452  158.9331 H   0  0  0  0  0  0  0  0  0  0  0  0
  153.3400  140.0799  159.4421 H   0  0  0  0  0  0  0  0  0  0  0  0
  153.1316  139.7427  157.7265 H   0  0  0  0  0  0  0  0  0  0  0  0
  153.2911  142.0675  159.5955 H   0  0  0  0  0  0  0  0  0  0  0  0
  152.6300  144.6649  159.0913 H   0  0  0  0  0  0  0  0  0  0  0  0
  150.1278  144.4549  157.9184 H   0  0  0  0  0  0  0  0  0  0  0  0
  1  2  1  0  0  0  0
  1 20  1  0  0  0  0
  1 21  1  0  0  0  0
  1 22  1  0  0  0  0
  2  3  1  0  0  0  0
  2 13  1  0  0  0  0
  2 23  1  0  0  0  0
  3  4  1  0  0  0  0
  3 24  1  0  0  0  0
  4  5  1  0  0  0  0
  4 25  1  0  0  0  0
  4 26  1  0  0  0  0
  5  6  1  0  0  0  0
  5 27  1  0  0  0  0
  5 28  1  0  0  0  0
  6 11  1  0  0  0  0
  6  7  1  0  0  0  0
  7  8  2  0  0  0  0
  7  9  1  0  0  0  0
  9 10  1  0  0  0  0
  9 29  1  0  0  0  0
  9 30  1  0  0  0  0
 10 11  1  0  0  0  0
 10 31  1  0  0  0  0
 11 12  2  0  0  0  0
 13 14  1  0  0  0  0
 13 15  1  0  0  0  0
 13 32  1  0  0  0  0
 14 33  1  0  0  0  0
 14 34  1  0  0  0  0
 14 35  1  0  0  0  0
 15 19  1  0  0  0  0
 15 16  1  0  0  0  0
 16 17  2  0  0  0  0
 16 36  1  0  0  0  0
 17 18  1  0  0  0  0
 17 37  1  0  0  0  0
 18 19  2  0  0  0  0
 18 38  1  0  0  0  0
M  END
> <s_m_source_file>
AV-unprocessed.smi

> <i_m_source_file_index>
3330

> <i_lp_mmshare_version>
43012

> <i_f3d_flags>
0

> <s_epik_input>
bjFbY0hdW2NIXVtjSF1uMVtDQEBIXShbQ0gzXSlbQ0BIXShbQ0gzXSlbTkhdW0NIMl1bQ0gyXU4yQyg9TylbQ0gyXVtOSF1DMj1P

> <s_epik_cmdline>
J2VwaWtfcHl0aG9uJywgJy1waCcsICc3LjAnLCAnLXRuJywgJzgnLCAnLW1hJywgJzIwMCcsICctbWV0YWxfYmluZGluZycsICctaW1hZScsICc8aW5maWxlLm1hZT4nLCAnLW9tYWUnLCAnPG91dGZpbGUubWFlPic=

> <r_lp_tautomer_probability>
1

> <r_epik_Ionization_Penalty>
2.2997

> <r_epik_Ionization_Penalty_Charging>
0

> <r_epik_Ionization_Penalty_Neutral>
2.2997

> <r_epik_State_Penalty>
2.44917

> <r_epik_Charging_Adjusted_Penalty>
2.44917

> <i_epik_Tot_Q>
0

> <i_epik_Tot_abs_Q>
0

> <r_epik_Metal_State_Penalty>
2.52438

> <b_epik_Metal_Only>
0

> <s_lp_Force_Field>
OPLS_2005

> <r_lp_Energy>
27.2157

> <b_lp_Chiralities_Consistent>
1

> <s_lp_Variant>
AV-unprocessed.smi:3330-8

> <Gold.Version>
5.8.1

> <Gold.Id.Protein>
6NUR|6NUR_protein|mol2

> <Gold.PLP.Fitness>
35.6339

> <Gold.PLP.PLP>
-28.6816

> <Gold.PLP.part.hbond>
-2.2609

> <Gold.PLP.part.metal>
0.0000

> <Gold.PLP.part.buried>
-4.7322

> <Gold.PLP.part.nonpolar>
-23.3587

> <Gold.PLP.part.repulsive>
0.1434

> <Gold.PLP.ligand.clash>
0.0000

> <Gold.PLP.ligand.torsion>
1.2149

> <Gold.PLP.Chemscore.Hbond>
2.0000

> <Gold.PLP.Chemscore.CHOScore>
1.0853

> <Gold.PLP.Chemscore.Metal>
0.0000

> <Gold.Chemscore.Hbonds>
donor molecule, donor type, donor heavy atom, donor atom, acceptor molecule, acceptor atom, score
      P1  H  6896  6909       L1     8  0.95
      P1  H  6934  6947       L1    12  1.00
      L1  C    18    38       P1  8028  0.82
      L1  C    18    38       P1  8029  0.20

> <Gold.PLP.Chemscore.Internal.Correction>
0.1261

> <Gold.Rescore>
     Score         DG    S(hbond)    S(metal)    S(lipo)     H(rot)  DE(clash)    DE(int)     intcor
     12.34     -12.85       1.94        0.00      64.30       2.60       0.00       0.51       ----

> <Gold.Chemscore.Fitness>
12.3444

> <Gold.Chemscore.DG>
-12.8533

> <Gold.Chemscore.ZeroCoef>
-5.4800

> <Gold.Chemscore.Hbond>
1.9443

> <Gold.Chemscore.Metal>
0.0000

> <Gold.Chemscore.Lipo>
64.2998

> <Gold.Chemscore.Internal_Hbond>
0.0000

> <Gold.Chemscore.DEClash>
0.0000

> <Gold.Chemscore.DEInternal>
0.5090

> <Gold.Chemscore.Rot>
2.5952

> <Gold.Chemscore.Internal.Correction>
   9.000000E+99

> <Gold.Chemscore.Hbonds>
donor molecule, donor type, donor heavy atom, donor atom, acceptor molecule, acceptor atom, score
      P1  H  6896  6909       L1     8  0.21
      P1  H  6934  6947       L1    12  1.00

> <Gold.Chemscore.Hbond.Weighted>
-6.4940

> <Gold.Chemscore.Metal.Weighted>
-0.0000

> <Gold.Chemscore.Lipo.Weighted>
-7.5231

> <Gold.Chemscore.Internal_Hbond.Weighted>
0.0000

> <Gold.Chemscore.DEClash.Weighted>
0.0000

> <Gold.Chemscore.DEInternal.Weighted>
0.5090

> <Gold.Chemscore.Rot.Weighted>
6.6437

> <Gold.Chemscore.Internal.Correction.Weighted>
   9.000000E+99

> <Gold.Protein.RotatedTorsions>
[ 6907 6896 6895 6894 ] final   39.24 input  -60.11 | X-H torsion
[ 7974 7965 7964 7962 ] final  160.73 input  175.53 | X-H torsion
[ 8008 7997 7996 7995 ] final  -20.04 input   59.86 | X-H torsion
[ 10167 10162 10161 10158 ] final  -61.08 input  -65.29 | X-H torsion
[ 10718 10713 10712 10709 ] final  -34.97 input   66.30 | X-H torsion
[ 10763 10752 10751 10750 ] final    3.64 input  -60.55 | X-H torsion
[ 11005 11000 10999 10996 ] final  -44.70 input  -57.11 | X-H torsion

> <Gold.Protein.ActiveResidues>
 VAL166  LYS551  ARG553  GLY616  TRP617  ASP618  TYR619  PRO620  LYS621  CYS622 
 ASP623  PHE694  ASN695  SER759  ASP760  ASP761  ALA762  ILE779  LEU786  VAL792 
 PHE793  MET794  SER795  GLU796  ALA797  LYS798  CYS799  TRP800  GLU811  SER814 

> <Gold.Protein.RotatedAtoms>
  152.1670  134.8865  160.0537 H   0  0  0  0  0  0  0  0  0  0  0  0  # atno 6907 bound_to 6896
  151.9840  133.3762  159.4126 H   0  0  0  0  0  0  0  0  0  0  0  0  # atno 6908 bound_to 6896
  150.6896  134.3931  159.5129 H   0  0  0  0  0  0  0  0  0  0  0  0  # atno 6909 bound_to 6896
  144.7722  139.7798  143.6292 H   0  0  0  0  0  0  0  0  0  0  0  0  # atno 7974 bound_to 7965
  154.4796  140.2072  155.9795 H   0  0  0  0  0  0  0  0  0  0  0  0  # atno 8008 bound_to 7997
  156.1144  140.3224  155.8088 H   0  0  0  0  0  0  0  0  0  0  0  0  # atno 8009 bound_to 7997
  155.4578  140.0522  157.2985 H   0  0  0  0  0  0  0  0  0  0  0  0  # atno 8010 bound_to 7997
  140.6029  143.2366  151.5887 H   0  0  0  0  0  0  0  0  0  0  0  0  # atno 10167 bound_to 10162
  156.3442  130.4298  149.7761 H   0  0  0  0  0  0  0  0  0  0  0  0  # atno 10718 bound_to 10713
  153.2808  135.6940  153.7387 H   0  0  0  0  0  0  0  0  0  0  0  0  # atno 10763 bound_to 10752
  153.6375  135.3399  155.3062 H   0  0  0  0  0  0  0  0  0  0  0  0  # atno 10764 bound_to 10752
  154.8494  135.4424  154.1861 H   0  0  0  0  0  0  0  0  0  0  0  0  # atno 10765 bound_to 10752
  141.0467  133.6758  156.2909 H   0  0  0  0  0  0  0  0  0  0  0  0  # atno 11005 bound_to 11000
  146.1876  139.5100  142.9826 LP  0  0  0  0  0  0  0  0  0  0  0  0  # atno 17320 bound_to 7965
  145.6291  141.0308  143.1873 LP  0  0  0  0  0  0  0  0  0  0  0  0  # atno 17321 bound_to 7965
  139.5304  144.2933  152.1134 LP  0  0  0  0  0  0  0  0  0  0  0  0  # atno 17342 bound_to 10162
  140.2117  144.4556  150.6383 LP  0  0  0  0  0  0  0  0  0  0  0  0  # atno 17343 bound_to 10162
  156.4986  130.8118  151.3123 LP  0  0  0  0  0  0  0  0  0  0  0  0  # atno 17370 bound_to 10713
  157.7451  130.9952  150.2735 LP  0  0  0  0  0  0  0  0  0  0  0  0  # atno 17371 bound_to 10713
  140.6132  134.5437  157.5537 LP  0  0  0  0  0  0  0  0  0  0  0  0  # atno 17394 bound_to 11000
  139.9318  134.7950  156.0911 LP  0  0  0  0  0  0  0  0  0  0  0  0  # atno 17395 bound_to 11000

$$$$
