#       Name:                AV-unprocessed.smi:2037
#       Creating user name   scv26
#       Creation time:       Fri Mar 27 10:54:38 2020


#       File generated by GOLD software.
#

@<TRIPOS>MOLECULE
AV-unprocessed.smi:2037
    42    43     1
SMALL
NO_CHARGES


@<TRIPOS>ATOM
      1 ****        -3.4858   4.5920   0.2855 C.3            1 S1                 0.0000
      2 ****        -3.0006   3.1838  -0.0856 C.3            1 S1                 0.0000
      3 ****        -3.2637   2.1736   1.0430 C.3            1 S1                 0.0000
      4 ****        -2.7536   0.7725   0.6664 C.3            1 S1                 0.0000
      5 ****        -1.3076   0.7954   0.3236 N.4            1 S1                 1.0000
      6 ****        -0.7760  -0.5684   0.0748 C.3            1 S1                 0.0000
      7 ****         0.7509  -0.6463   0.2297 C.3            1 S1                 0.0000
      8 ****         1.2064  -2.0155   0.0352 N.am           1 S1                 0.0000
      9 ****         2.4870  -2.4022  -0.0249 C.2            1 S1                 0.0000
     10 ****         3.3863  -1.5663   0.0893 O.2            1 S1                 0.0000
     11 ****         2.6426  -3.7318  -0.2131 N.pl3          1 S1                -1.0000
     12 ****         3.8743  -4.2584  -0.3105 C.2            1 S1                 0.0000
     13 ****         4.4317  -4.5932  -1.4796 N.2            1 S1                 0.0000
     14 ****         5.7131  -5.1320  -1.3499 C.2            1 S1                 0.0000
     15 ****         6.1386  -5.2158  -0.0508 C.2            1 S1                 0.0000
     16 ****         4.9345  -4.6187   1.0554 S.3            1 S1                 0.0000
     17 ****        -1.0251   1.7485  -0.7832 C.3            1 S1                 0.0000
     18 ****        -1.5032   3.1683  -0.4337 C.3            1 S1                 0.0000
     19 ****        -2.9699   4.9713   1.1681 H              1 S1                 0.0000
     20 ****        -4.5553   4.5947   0.4983 H              1 S1                 0.0000
     21 ****        -3.3119   5.2947  -0.5300 H              1 S1                 0.0000
     22 ****        -3.5582   2.8632  -0.9670 H              1 S1                 0.0000
     23 ****        -2.7740   2.5052   1.9600 H              1 S1                 0.0000
     24 ****        -4.3311   2.1278   1.2622 H              1 S1                 0.0000
     25 ****        -2.9232   0.0956   1.5049 H              1 S1                 0.0000
     26 ****        -3.3221   0.3796  -0.1780 H              1 S1                 0.0000
     27 ****        -1.2212  -1.2614   0.7905 H              1 S1                 0.0000
     28 ****        -1.0826  -0.9094  -0.9156 H              1 S1                 0.0000
     29 ****         1.2509  -0.0050  -0.4963 H              1 S1                 0.0000
     30 ****         1.0485  -0.3077   1.2232 H              1 S1                 0.0000
     31 ****         0.5007  -2.7309  -0.0624 H              1 S1                 0.0000
     32 ****         6.2505  -5.4302  -2.2377 H              1 S1                 0.0000
     33 ****         7.0797  -5.5912   0.3214 H              1 S1                 0.0000
     34 ****         0.0430   1.7838  -0.9929 H              1 S1                 0.0000
     35 ****        -1.5139   1.4032  -1.6956 H              1 S1                 0.0000
     36 ****        -1.3081   3.8365  -1.2731 H              1 S1                 0.0000
     37 ****        -0.9225   3.5517   0.4067 H              1 S1                 0.0000
     38 ****        -0.8286   1.1425   1.1423 H              1 S1                 0.0000
     39 ****         3.1584  -0.6023   0.2264 LP             1 S1                 0.0000
     40 ****         4.3435  -1.8524   0.0448 LP             1 S1                 0.0000
     41 ****         1.8396  -4.3240  -0.2799 LP             1 S1                 0.0000
     42 ****         3.9750  -4.4696  -2.3606 LP             1 S1                 0.0000
@<TRIPOS>BOND
    1    1    2 1     
    2    1   19 1     
    3    1   20 1     
    4    1   21 1     
    5    2   18 1     
    6    2    3 1     
    7    2   22 1     
    8    3    4 1     
    9    3   23 1     
   10    3   24 1     
   11    4    5 1     
   12    4   25 1     
   13    4   26 1     
   14    5    6 1     
   15    5   17 1     
   16    5   38 1     
   17    6    7 1     
   18    6   27 1     
   19    6   28 1     
   20    7    8 1     
   21    7   29 1     
   22    7   30 1     
   23    8    9 am    
   24    8   31 1     
   25    9   10 2     
   26    9   11 1     
   27   11   12 1     
   28   12   16 1     
   29   12   13 2     
   30   13   14 1     
   31   14   15 2     
   32   14   32 1     
   33   15   16 1     
   34   15   33 1     
   35   17   18 1     
   36   17   34 1     
   37   17   35 1     
   38   18   36 1     
   39   18   37 1     
   40   10   39 1     
   41   10   40 1     
   42   11   41 1     
   43   13   42 1     
@<TRIPOS>SUBSTRUCTURE
      1 S1             1
@<TRIPOS>SET
LONE_PAIRS      STATIC     ATOMS    <user>   **** ""
4 39 40 41 42
DONOR_HYDROGENS      STATIC     ATOMS    <user>   **** ""
2 38 31
ATOM$BLUE        STATIC     ATOMS    COLORGROUP SYSTEM
4 39 40 41 42
ATOM$RED        STATIC     ATOMS    COLORGROUP SYSTEM
2 38 31
