#       Name:                AV-unprocessed.smi:726
#       Creating user name   scv26
#       Creation time:       Fri Mar 27 00:51:14 2020


#       File generated by GOLD software.
#

@<TRIPOS>MOLECULE
AV-unprocessed.smi:726
    32    32     1
SMALL
NO_CHARGES


@<TRIPOS>ATOM
      1 ****         0.0224   2.3740  -0.5060 C.3            1 S1                 0.0000
      2 ****        -0.7630   1.0937  -0.2529 C.2            1 S1                 0.0000
      3 ****        -2.1152   1.1394  -0.2819 C.2            1 S1                 0.0000
      4 ****        -2.9179  -0.0505   0.0437 C.2            1 S1                 0.0000
      5 ****        -4.1440  -0.0585  -0.0485 O.2            1 S1                 0.0000
      6 ****        -2.1613  -1.2206   0.5068 C.2            1 S1                 0.0000
      7 ****        -0.8151  -1.1748   0.4990 C.2            1 S1                 0.0000
      8 ****        -0.0892  -2.1990   0.9698 O.3            1 S1                 0.0000
      9 ****        -0.0392  -0.0849   0.0447 N.pl3          1 S1                 0.0000
     10 ****         1.4029  -0.1967  -0.2784 C.3            1 S1                 0.0000
     11 ****         2.2970  -0.1936   0.9794 C.3            1 S1                 0.0000
     12 ****         1.7216  -1.3165  -1.2885 C.2            1 S1                 0.0000
     13 ****         2.4207  -2.2806  -0.9039 O.co2          1 S1                 0.0000
     14 ****         1.2553  -1.1813  -2.4412 O.co2          1 S1                -1.0000
     15 ****        -0.5965   3.2513  -0.3150 H              1 S1                 0.0000
     16 ****         0.3536   2.4192  -1.5439 H              1 S1                 0.0000
     17 ****         0.8895   2.4541   0.1500 H              1 S1                 0.0000
     18 ****        -2.6376   2.0574  -0.5092 H              1 S1                 0.0000
     19 ****        -2.7005  -2.0837   0.8690 H              1 S1                 0.0000
     20 ****         1.7127   0.6806  -0.8403 H              1 S1                 0.0000
     21 ****         3.3534  -0.1931   0.7089 H              1 S1                 0.0000
     22 ****         2.1242  -1.0596   1.6172 H              1 S1                 0.0000
     23 ****         2.1166   0.6980   1.5798 H              1 S1                 0.0000
     24 ****        -0.6914  -2.8742   1.2410 H              1 S1                 0.0000
     25 ****        -4.6278   0.7619  -0.3532 LP             1 S1                 0.0000
     26 ****        -4.6573  -0.8854   0.1812 LP             1 S1                 0.0000
     27 ****         0.4597  -1.8981   1.7497 LP             1 S1                 0.0000
     28 ****         0.5140  -2.5478   0.2525 LP             1 S1                 0.0000
     29 ****         2.6453  -3.0200  -1.5386 LP             1 S1                 0.0000
     30 ****         2.7548  -2.3116   0.0382 LP             1 S1                 0.0000
     31 ****         1.4334  -1.8768  -3.1373 LP             1 S1                 0.0000
     32 ****         0.7045  -0.3777  -2.6666 LP             1 S1                 0.0000
@<TRIPOS>BOND
    1    1    2 1     
    2    1   15 1     
    3    1   16 1     
    4    1   17 1     
    5    2    9 1     
    6    2    3 2     
    7    3    4 1     
    8    3   18 1     
    9    4    5 2     
   10    4    6 1     
   11    6    7 2     
   12    6   19 1     
   13    7    8 1     
   14    7    9 1     
   15    8   24 1     
   16    9   10 1     
   17   10   11 1     
   18   10   12 1     
   19   10   20 1     
   20   11   21 1     
   21   11   22 1     
   22   11   23 1     
   23   12   13 ar    
   24   12   14 ar    
   25    5   25 1     
   26    5   26 1     
   27    8   27 1     
   28    8   28 1     
   29   13   29 1     
   30   13   30 1     
   31   14   31 1     
   32   14   32 1     
@<TRIPOS>SUBSTRUCTURE
      1 S1             1
@<TRIPOS>SET
LONE_PAIRS      STATIC     ATOMS    <user>   **** ""
8 25 26 27 28 29 30 31 32
DONOR_HYDROGENS      STATIC     ATOMS    <user>   **** ""
1 24
ATOM$BLUE        STATIC     ATOMS    COLORGROUP SYSTEM
8 25 26 27 28 29 30 31 32
ATOM$RED        STATIC     ATOMS    COLORGROUP SYSTEM
1 24
