AV-unprocessed.smi:999|AV-procd|sdf|4351|dock2
  -GOLD-   22720 2253D 1   1.00000     0.00000
 Structure written by MMmdl.
 37 38  0  0  0  0  0  0  0  0  2 V2000
  151.5637  144.8730  158.7666 C   0  0  0  0  0  0  0  0  0  0  0  0
  152.2139  143.4986  159.0274 C   0  0  2  0  0  0  0  0  0  0  0  0
  151.3697  142.3279  158.4980 C   0  0  0  0  0  0  0  0  0  0  0  0
  150.2007  142.1806  158.8568 O   0  0  0  0  0  0  0  0  0  0  0  0
  151.9825  141.5011  157.6359 N   0  0  0  0  0  0  0  0  0  0  0  0
  151.3852  140.3191  157.0231 C   0  0  2  0  0  0  0  0  0  0  0  0
  151.0713  139.2807  158.1142 C   0  0  0  0  0  0  0  0  0  0  0  0
  150.4841  137.9926  157.5157 C   0  0  0  0  0  0  0  0  0  0  0  0
  151.4197  137.3846  156.4434 C   0  0  1  0  0  0  0  0  0  0  0  0
  150.8318  136.1022  155.8183 C   0  0  0  0  0  0  0  0  0  0  0  0
  149.6595  135.7806  156.1156 O   0  0  0  0  0  0  0  0  0  0  0  0
  151.5774  135.4390  155.0637 O   0  5  0  0  0  0  0  0  0  0  0  0
  151.7482  138.4320  155.3542 C   0  0  0  0  0  0  0  0  0  0  0  0
  152.3275  139.7200  155.9609 C   0  0  0  0  0  0  0  0  0  0  0  0
  152.5341  143.2971  160.4362 N   0  0  0  0  0  0  0  0  0  0  0  0
  153.2192  142.2434  161.0071 C   0  0  0  0  0  0  0  0  0  0  0  0
  153.2484  142.4538  162.3559 C   0  0  0  0  0  0  0  0  0  0  0  0
  152.5343  143.6723  162.5227 C   0  0  0  0  0  0  0  0  0  0  0  0
  152.1008  144.1695  161.3762 N   0  0  0  0  0  0  0  0  0  0  0  0
  151.3905  145.0295  157.7013 H   0  0  0  0  0  0  0  0  0  0  0  0
  152.2103  145.6795  159.1130 H   0  0  0  0  0  0  0  0  0  0  0  0
  150.6044  144.9776  159.2750 H   0  0  0  0  0  0  0  0  0  0  0  0
  153.1582  143.4846  158.4807 H   0  0  0  0  0  0  0  0  0  0  0  0
  152.9425  141.6985  157.3942 H   0  0  0  0  0  0  0  0  0  0  0  0
  150.4460  140.6029  156.5439 H   0  0  0  0  0  0  0  0  0  0  0  0
  151.9797  139.0387  158.6680 H   0  0  0  0  0  0  0  0  0  0  0  0
  150.3706  139.6992  158.8378 H   0  0  0  0  0  0  0  0  0  0  0  0
  150.3098  137.2765  158.3202 H   0  0  0  0  0  0  0  0  0  0  0  0
  149.5088  138.2126  157.0783 H   0  0  0  0  0  0  0  0  0  0  0  0
  152.3515  137.0931  156.9301 H   0  0  0  0  0  0  0  0  0  0  0  0
  152.4635  138.0295  154.6357 H   0  0  0  0  0  0  0  0  0  0  0  0
  150.8462  138.6736  154.7897 H   0  0  0  0  0  0  0  0  0  0  0  0
  152.5095  140.4442  155.1661 H   0  0  0  0  0  0  0  0  0  0  0  0
  153.2984  139.5027  156.4085 H   0  0  0  0  0  0  0  0  0  0  0  0
  153.6252  141.4392  160.4115 H   0  0  0  0  0  0  0  0  0  0  0  0
  153.7061  141.8298  163.1091 H   0  0  0  0  0  0  0  0  0  0  0  0
  152.3161  144.2049  163.4366 H   0  0  0  0  0  0  0  0  0  0  0  0
  1  2  1  0  0  0  0
  1 20  1  0  0  0  0
  1 21  1  0  0  0  0
  1 22  1  0  0  0  0
  2  3  1  0  0  0  0
  2 15  1  0  0  0  0
  2 23  1  0  0  0  0
  3  4  2  0  0  0  0
  3  5  1  0  0  0  0
  5  6  1  0  0  0  0
  5 24  1  0  0  0  0
  6 14  1  0  0  0  0
  6  7  1  0  0  0  0
  6 25  1  0  0  0  0
  7  8  1  0  0  0  0
  7 26  1  0  0  0  0
  7 27  1  0  0  0  0
  8  9  1  0  0  0  0
  8 28  1  0  0  0  0
  8 29  1  0  0  0  0
  9 10  1  0  0  0  0
  9 13  1  0  0  0  0
  9 30  1  0  0  0  0
 10 11  2  0  0  0  0
 10 12  1  0  0  0  0
 13 14  1  0  0  0  0
 13 31  1  0  0  0  0
 13 32  1  0  0  0  0
 14 33  1  0  0  0  0
 14 34  1  0  0  0  0
 15 19  1  0  0  0  0
 15 16  1  0  0  0  0
 16 17  2  0  0  0  0
 16 35  1  0  0  0  0
 17 18  1  0  0  0  0
 17 36  1  0  0  0  0
 18 19  2  0  0  0  0
 18 37  1  0  0  0  0
M  CHG  1  12  -1
M  END
> <s_m_source_file>
AV-unprocessed.smi

> <i_m_source_file_index>
999

> <i_lp_mmshare_version>
43012

> <i_f3d_flags>
0

> <s_epik_input>
bjFbY0hdW2NIXVtjSF1uMVtDQEhdKFtDSDNdKUMoPU8pW05IXVtDQEBIXTJbQ0gyXVtDSDJdW0NAQEhdKEMoPU8pW09IXSlbQ0gyXVtDSDJdMg==

> <s_epik_cmdline>
J2VwaWtfcHl0aG9uJywgJy1waCcsICc3LjAnLCAnLXRuJywgJzgnLCAnLW1hJywgJzIwMCcsICctbWV0YWxfYmluZGluZycsICctaW1hZScsICc8aW5maWxlLm1hZT4nLCAnLW9tYWUnLCAnPG91dGZpbGUubWFlPic=

> <r_lp_tautomer_probability>
1

> <r_epik_Ionization_Penalty>
0.00221712

> <r_epik_Ionization_Penalty_Charging>
0.00217268

> <r_epik_Ionization_Penalty_Neutral>
4.44343e-05

> <r_epik_State_Penalty>
0.0014925

> <r_epik_Charging_Adjusted_Penalty>
0.00366518

> <i_epik_Tot_Q>
-1

> <i_epik_Tot_abs_Q>
1

> <r_epik_Metal_State_Penalty>
-0

> <b_epik_Metal_Only>
0

> <s_lp_Force_Field>
OPLS_2005

> <r_lp_Energy>
14.6475

> <b_lp_Chiralities_Consistent>
1

> <s_lp_Variant>
AV-unprocessed.smi:999-1

> <Gold.Version>
5.8.1

> <Gold.Id.Protein>
6NUR|6NUR_protein|mol2

> <Gold.PLP.Fitness>
45.2223

> <Gold.PLP.PLP>
-39.6649

> <Gold.PLP.part.hbond>
-1.8779

> <Gold.PLP.part.metal>
0.0000

> <Gold.PLP.part.buried>
-4.5195

> <Gold.PLP.part.nonpolar>
-33.3677

> <Gold.PLP.part.repulsive>
0.5130

> <Gold.PLP.ligand.clash>
0.0000

> <Gold.PLP.ligand.torsion>
0.2908

> <Gold.PLP.Chemscore.Hbond>
2.0000

> <Gold.PLP.Chemscore.CHOScore>
0.0000

> <Gold.PLP.Chemscore.Metal>
0.0000

> <Gold.Chemscore.Hbonds>
donor molecule, donor type, donor heavy atom, donor atom, acceptor molecule, acceptor atom, score
      P1  H 10752 10763       L1    12  1.53

> <Gold.PLP.Chemscore.Internal.Correction>
0.1390

> <Gold.Rescore>
     Score         DG    S(hbond)    S(metal)    S(lipo)     H(rot)  DE(clash)    DE(int)     intcor
     13.28     -14.50       0.99        0.00      91.97       1.98       0.15       1.07       ----

> <Gold.Chemscore.Fitness>
13.2773

> <Gold.Chemscore.DG>
-14.4975

> <Gold.Chemscore.ZeroCoef>
-5.4800

> <Gold.Chemscore.Hbond>
0.9937

> <Gold.Chemscore.Metal>
0.0000

> <Gold.Chemscore.Lipo>
91.9708

> <Gold.Chemscore.Internal_Hbond>
0.0000

> <Gold.Chemscore.DEClash>
0.1533

> <Gold.Chemscore.DEInternal>
1.0669

> <Gold.Chemscore.Rot>
1.9774

> <Gold.Chemscore.Internal.Correction>
   9.000000E+99

> <Gold.Chemscore.Hbonds>
donor molecule, donor type, donor heavy atom, donor atom, acceptor molecule, acceptor atom, score
      P1  H 10752 10763       L1    12  0.71

> <Gold.Chemscore.Hbond.Weighted>
-3.3190

> <Gold.Chemscore.Metal.Weighted>
-0.0000

> <Gold.Chemscore.Lipo.Weighted>
-10.7606

> <Gold.Chemscore.Internal_Hbond.Weighted>
0.0000

> <Gold.Chemscore.DEClash.Weighted>
0.1533

> <Gold.Chemscore.DEInternal.Weighted>
1.0669

> <Gold.Chemscore.Rot.Weighted>
5.0620

> <Gold.Chemscore.Internal.Correction.Weighted>
   9.000000E+99

> <Gold.Protein.RotatedTorsions>
[ 6907 6896 6895 6894 ] final   90.69 input  -60.11 | X-H torsion
[ 7974 7965 7964 7962 ] final  -67.60 input  175.53 | X-H torsion
[ 8008 7997 7996 7995 ] final -145.32 input   59.86 | X-H torsion
[ 10167 10162 10161 10158 ] final  -45.60 input  -65.29 | X-H torsion
[ 10718 10713 10712 10709 ] final  -52.60 input   66.30 | X-H torsion
[ 10763 10752 10751 10750 ] final   58.36 input  -60.55 | X-H torsion
[ 11005 11000 10999 10996 ] final  103.24 input  -57.11 | X-H torsion

> <Gold.Protein.ActiveResidues>
 VAL166  LYS551  ARG553  GLY616  TRP617  ASP618  TYR619  PRO620  LYS621  CYS622 
 ASP623  PHE694  ASN695  SER759  ASP760  ASP761  ALA762  ILE779  LEU786  VAL792 
 PHE793  MET794  SER795  GLU796  ALA797  LYS798  CYS799  TRP800  GLU811  SER814 

> <Gold.Protein.RotatedAtoms>
  152.5446  134.1773  159.8620 H   0  0  0  0  0  0  0  0  0  0  0  0  # atno 6907 bound_to 6896
  151.1778  133.4737  159.2601 H   0  0  0  0  0  0  0  0  0  0  0  0  # atno 6908 bound_to 6896
  151.1209  135.0090  159.8593 H   0  0  0  0  0  0  0  0  0  0  0  0  # atno 6909 bound_to 6896
  145.7272  140.9013  143.0599 H   0  0  0  0  0  0  0  0  0  0  0  0  # atno 7974 bound_to 7965
  155.5413  140.0608  157.2869 H   0  0  0  0  0  0  0  0  0  0  0  0  # atno 8008 bound_to 7997
  154.4451  140.1919  156.0637 H   0  0  0  0  0  0  0  0  0  0  0  0  # atno 8009 bound_to 7997
  156.0583  140.3275  155.7435 H   0  0  0  0  0  0  0  0  0  0  0  0  # atno 8010 bound_to 7997
  140.6851  143.2871  151.3662 H   0  0  0  0  0  0  0  0  0  0  0  0  # atno 10167 bound_to 10162
  156.1607  130.4150  149.9797 H   0  0  0  0  0  0  0  0  0  0  0  0  # atno 10718 bound_to 10713
  152.9869  135.5609  154.5540 H   0  0  0  0  0  0  0  0  0  0  0  0  # atno 10763 bound_to 10752
  154.4972  135.2795  155.1452 H   0  0  0  0  0  0  0  0  0  0  0  0  # atno 10764 bound_to 10752
  154.2897  135.6328  153.5433 H   0  0  0  0  0  0  0  0  0  0  0  0  # atno 10765 bound_to 10752
  139.8782  134.9255  156.5180 H   0  0  0  0  0  0  0  0  0  0  0  0  # atno 11005 bound_to 11000
  144.6902  139.9281  143.7470 LP  0  0  0  0  0  0  0  0  0  0  0  0  # atno 17320 bound_to 7965
  146.0571  139.3567  143.0604 LP  0  0  0  0  0  0  0  0  0  0  0  0  # atno 17321 bound_to 7965
  139.6204  144.0919  152.2385 LP  0  0  0  0  0  0  0  0  0  0  0  0  # atno 17342 bound_to 10162
  140.0361  144.6043  150.7448 LP  0  0  0  0  0  0  0  0  0  0  0  0  # atno 17343 bound_to 10162
  156.7628  130.9157  151.3642 LP  0  0  0  0  0  0  0  0  0  0  0  0  # atno 17370 bound_to 10713
  157.6730  130.9068  150.0085 LP  0  0  0  0  0  0  0  0  0  0  0  0  # atno 17371 bound_to 10713
  140.8471  133.8160  155.9132 LP  0  0  0  0  0  0  0  0  0  0  0  0  # atno 17394 bound_to 11000
  140.9180  134.2177  157.4944 LP  0  0  0  0  0  0  0  0  0  0  0  0  # atno 17395 bound_to 11000

$$$$
