#       Name:                AV-unprocessed.smi:829
#       Creating user name   scv26
#       Creation time:       Fri Mar 27 01:31:59 2020


#       File generated by GOLD software.
#

@<TRIPOS>MOLECULE
AV-unprocessed.smi:829
    52    54     1
SMALL
NO_CHARGES


@<TRIPOS>ATOM
      1 ****        -0.9462   3.8158   0.4359 O.2            1 S1                 0.0000
      2 ****        -1.2669   3.0393  -0.4634 C.2            1 S1                 0.0000
      3 ****        -2.4746   2.9821  -1.0515 N.am           1 S1                 0.0000
      4 ****        -3.6273   3.7721  -0.7903 C.ar           1 S1                 0.0000
      5 ****        -4.8780   3.2609  -1.1938 C.ar           1 S1                 0.0000
      6 ****        -6.0347   4.0311  -0.9591 C.ar           1 S1                 0.0000
      7 ****        -6.0100   5.2463  -0.3727 N.ar           1 S1                 0.0000
      8 ****        -4.8103   5.7410  -0.0009 C.ar           1 S1                 0.0000
      9 ****        -3.5945   5.0533  -0.1886 C.ar           1 S1                 0.0000
     10 ****        -0.4375   2.1128  -0.9665 N.am           1 S1                 0.0000
     11 ****         0.9443   1.8960  -0.5379 C.3            1 S1                 0.0000
     12 ****         1.7246   1.1088  -1.6057 C.3            1 S1                 0.0000
     13 ****         1.2961  -0.3695  -1.6698 C.3            1 S1                 0.0000
     14 ****         1.4098  -1.0213  -0.3393 N.4            1 S1                 1.0000
     15 ****         1.1554  -2.4846  -0.3862 C.3            1 S1                 0.0000
     16 ****         2.1855  -3.2766   0.4433 C.3            1 S1                 0.0000
     17 ****         2.1109  -4.7877   0.2118 C.3            1 S1                 0.0000
     18 ****         2.8590  -5.4012   1.3979 C.3            1 S1                 0.0000
     19 ****         2.7186  -4.3973   2.5504 C.3            1 S1                 0.0000
     20 ****         2.0303  -3.1585   1.9642 C.3            1 S1                 0.0000
     21 ****         0.5894  -0.3175   0.6804 C.3            1 S1                 0.0000
     22 ****         1.0184   1.1535   0.8117 C.3            1 S1                 0.0000
     23 ****        -2.6057   2.2411  -1.7241 H              1 S1                 0.0000
     24 ****        -4.9570   2.2943  -1.6694 H              1 S1                 0.0000
     25 ****        -7.0059   3.6610  -1.2527 H              1 S1                 0.0000
     26 ****        -4.8178   6.7194   0.4559 H              1 S1                 0.0000
     27 ****        -2.6733   5.5238   0.1180 H              1 S1                 0.0000
     28 ****        -0.7846   1.5189  -1.7054 H              1 S1                 0.0000
     29 ****         1.4161   2.8742  -0.4276 H              1 S1                 0.0000
     30 ****         1.6071   1.5772  -2.5838 H              1 S1                 0.0000
     31 ****         2.7899   1.1573  -1.3751 H              1 S1                 0.0000
     32 ****         0.2705  -0.4551  -2.0326 H              1 S1                 0.0000
     33 ****         1.9307  -0.8893  -2.3887 H              1 S1                 0.0000
     34 ****         0.1345  -2.7126  -0.0753 H              1 S1                 0.0000
     35 ****         1.2308  -2.8314  -1.4180 H              1 S1                 0.0000
     36 ****         3.1905  -2.9491   0.1705 H              1 S1                 0.0000
     37 ****         1.0708  -5.1173   0.2274 H              1 S1                 0.0000
     38 ****         2.5382  -5.0869  -0.7461 H              1 S1                 0.0000
     39 ****         2.4704  -6.3862   1.6579 H              1 S1                 0.0000
     40 ****         3.9136  -5.5218   1.1466 H              1 S1                 0.0000
     41 ****         2.1357  -4.8115   3.3737 H              1 S1                 0.0000
     42 ****         3.7023  -4.1411   2.9456 H              1 S1                 0.0000
     43 ****         2.4555  -2.2338   2.3555 H              1 S1                 0.0000
     44 ****         0.9731  -3.1768   2.2329 H              1 S1                 0.0000
     45 ****        -0.4657  -0.3809   0.4095 H              1 S1                 0.0000
     46 ****         0.6896  -0.8033   1.6495 H              1 S1                 0.0000
     47 ****         2.0429   1.1917   1.1844 H              1 S1                 0.0000
     48 ****         0.4086   1.6547   1.5641 H              1 S1                 0.0000
     49 ****         2.3753  -0.9155  -0.0624 H              1 S1                 0.0000
     50 ****        -1.6104   4.4756   0.7873 LP             1 S1                 0.0000
     51 ****        -0.0214   3.7869   0.8153 LP             1 S1                 0.0000
     52 ****        -6.8522   5.7630  -0.2188 LP             1 S1                 0.0000
@<TRIPOS>BOND
    1    1    2 2     
    2    2    3 am    
    3    2   10 am    
    4    3    4 1     
    5    3   23 1     
    6    4    9 ar    
    7    4    5 ar    
    8    5    6 ar    
    9    5   24 1     
   10    6    7 ar    
   11    6   25 1     
   12    7    8 ar    
   13    8    9 ar    
   14    8   26 1     
   15    9   27 1     
   16   10   11 1     
   17   10   28 1     
   18   11   22 1     
   19   11   12 1     
   20   11   29 1     
   21   12   13 1     
   22   12   30 1     
   23   12   31 1     
   24   13   14 1     
   25   13   32 1     
   26   13   33 1     
   27   14   15 1     
   28   14   21 1     
   29   14   49 1     
   30   15   16 1     
   31   15   34 1     
   32   15   35 1     
   33   16   20 1     
   34   16   17 1     
   35   16   36 1     
   36   17   18 1     
   37   17   37 1     
   38   17   38 1     
   39   18   19 1     
   40   18   39 1     
   41   18   40 1     
   42   19   20 1     
   43   19   41 1     
   44   19   42 1     
   45   20   43 1     
   46   20   44 1     
   47   21   22 1     
   48   21   45 1     
   49   21   46 1     
   50   22   47 1     
   51   22   48 1     
   52    1   50 1     
   53    1   51 1     
   54    7   52 1     
@<TRIPOS>SUBSTRUCTURE
      1 S1             1
@<TRIPOS>SET
LONE_PAIRS      STATIC     ATOMS    <user>   **** ""
3 50 51 52
DONOR_HYDROGENS      STATIC     ATOMS    <user>   **** ""
3 23 28 49
ATOM$BLUE        STATIC     ATOMS    COLORGROUP SYSTEM
3 50 51 52
ATOM$RED        STATIC     ATOMS    COLORGROUP SYSTEM
3 23 28 49
