#       Name:                AV-unprocessed.smi:3183
#       Creating user name   scv26
#       Creation time:       Fri Mar 27 17:59:06 2020


#       File generated by GOLD software.
#

@<TRIPOS>MOLECULE
AV-unprocessed.smi:3183
    44    45     1
SMALL
NO_CHARGES


@<TRIPOS>ATOM
      1 ****        -3.6671   3.8760   0.2570 C.3            1 S1                 0.0000
      2 ****        -3.0493   2.4676   0.2014 C.3            1 S1                 0.0000
      3 ****        -2.2027   2.2198   1.4670 C.3            1 S1                 0.0000
      4 ****        -1.5666   0.8230   1.4716 C.3            1 S1                 0.0000
      5 ****        -0.7075   0.6072   0.2170 C.3            1 S1                 0.0000
      6 ****        -0.1283  -0.7535   0.2195 N.4            1 S1                 1.0000
      7 ****         1.3478  -0.7972   0.2071 C.3            1 S1                 0.0000
      8 ****         1.8570  -2.2462   0.2126 C.3            1 S1                 0.0000
      9 ****         3.3503  -2.3764   0.2038 C.2            1 S1                 0.0000
     10 ****         4.3330  -1.4237   0.1994 C.2            1 S1                 0.0000
     11 ****         5.5433  -2.1694   0.1926 C.2            1 S1                 0.0000
     12 ****         5.3337  -3.4735   0.1929 N.2            1 S1                 0.0000
     13 ****         3.9907  -3.6046   0.1997 N.pl3          1 S1                 0.0000
     14 ****         3.4285  -4.9424   0.2020 C.3            1 S1                 0.0000
     15 ****        -1.5539   0.8268  -1.0482 C.3            1 S1                 0.0000
     16 ****        -2.2054   2.2259  -1.0790 C.3            1 S1                 0.0000
     17 ****        -3.0196   2.3939  -2.3746 C.3            1 S1                 0.0000
     18 ****        -2.9009   4.6488   0.1880 H              1 S1                 0.0000
     19 ****        -4.2070   4.0284   1.1920 H              1 S1                 0.0000
     20 ****        -4.3823   4.0382  -0.5488 H              1 S1                 0.0000
     21 ****        -3.8708   1.7494   0.2074 H              1 S1                 0.0000
     22 ****        -1.4186   2.9751   1.5384 H              1 S1                 0.0000
     23 ****        -2.8213   2.3367   2.3575 H              1 S1                 0.0000
     24 ****        -0.9573   0.7023   2.3680 H              1 S1                 0.0000
     25 ****        -2.3505   0.0660   1.5246 H              1 S1                 0.0000
     26 ****         0.0979   1.3441   0.2227 H              1 S1                 0.0000
     27 ****        -0.4544  -1.2352   1.0453 H              1 S1                 0.0000
     28 ****         1.7119  -0.2754  -0.6794 H              1 S1                 0.0000
     29 ****         1.7265  -0.2638   1.0803 H              1 S1                 0.0000
     30 ****         1.4630  -2.7591   1.0909 H              1 S1                 0.0000
     31 ****         1.4512  -2.7696  -0.6542 H              1 S1                 0.0000
     32 ****         4.2113  -0.3507   0.2011 H              1 S1                 0.0000
     33 ****         6.5598  -1.8045   0.1878 H              1 S1                 0.0000
     34 ****         2.3396  -4.9090   0.2012 H              1 S1                 0.0000
     35 ****         3.7613  -5.4786   1.0913 H              1 S1                 0.0000
     36 ****         3.7624  -5.4821  -0.6847 H              1 S1                 0.0000
     37 ****        -0.9266   0.6955  -1.9310 H              1 S1                 0.0000
     38 ****        -2.3308   0.0628  -1.1075 H              1 S1                 0.0000
     39 ****        -1.4023   2.9643  -1.1000 H              1 S1                 0.0000
     40 ****        -3.8883   1.7348  -2.3872 H              1 S1                 0.0000
     41 ****        -2.4138   2.1590  -3.2502 H              1 S1                 0.0000
     42 ****        -3.3725   3.4169  -2.5020 H              1 S1                 0.0000
     43 ****        -0.4705  -1.2460  -0.5933 H              1 S1                 0.0000
     44 ****         6.0185  -4.2022   0.1890 LP             1 S1                 0.0000
@<TRIPOS>BOND
    1    1    2 1     
    2    1   18 1     
    3    1   19 1     
    4    1   20 1     
    5    2   16 1     
    6    2    3 1     
    7    2   21 1     
    8    3    4 1     
    9    3   22 1     
   10    3   23 1     
   11    4    5 1     
   12    4   24 1     
   13    4   25 1     
   14    5    6 1     
   15    5   15 1     
   16    5   26 1     
   17    6    7 1     
   18    6   27 1     
   19    6   43 1     
   20    7    8 1     
   21    7   28 1     
   22    7   29 1     
   23    8    9 1     
   24    8   30 1     
   25    8   31 1     
   26    9   13 1     
   27    9   10 2     
   28   10   11 1     
   29   10   32 1     
   30   11   12 2     
   31   11   33 1     
   32   12   13 1     
   33   13   14 1     
   34   14   34 1     
   35   14   35 1     
   36   14   36 1     
   37   15   16 1     
   38   15   37 1     
   39   15   38 1     
   40   16   17 1     
   41   16   39 1     
   42   17   40 1     
   43   17   41 1     
   44   17   42 1     
   45   12   44 1     
@<TRIPOS>SUBSTRUCTURE
      1 S1             1
@<TRIPOS>SET
LONE_PAIRS      STATIC     ATOMS    <user>   **** ""
1 44
DONOR_HYDROGENS      STATIC     ATOMS    <user>   **** ""
2 27 43
ATOM$BLUE        STATIC     ATOMS    COLORGROUP SYSTEM
1 44
ATOM$RED        STATIC     ATOMS    COLORGROUP SYSTEM
2 27 43
