AV-unprocessed.smi:1071|AV-procd|sdf|4681|dock3
  -GOLD-   22720 3193D 1   1.00000     0.00000
 Structure written by MMmdl.
 46 47  0  0  0  0  0  0  0  0  1 V2000
  150.9361  143.2663  157.6113 C   0  0  0  0  0  0  0  0  0  0  0  0
  150.8758  143.9616  158.8442 O   0  0  0  0  0  0  0  0  0  0  0  0
  152.1552  144.3644  159.3042 C   0  0  0  0  0  0  0  0  0  0  0  0
  152.7946  143.2113  160.0835 C   0  0  0  0  0  0  0  0  0  0  0  0
  153.0415  142.1319  159.1873 O   0  0  0  0  0  0  0  0  0  0  0  0
  153.6924  141.0134  159.6657 C   0  0  0  0  0  0  0  0  0  0  0  0
  154.3181  141.0865  160.9259 C   0  0  0  0  0  0  0  0  0  0  0  0
  154.9862  139.9511  161.4225 C   0  0  0  0  0  0  0  0  0  0  0  0
  155.0151  138.7758  160.6345 C   0  0  0  0  0  0  0  0  0  0  0  0
  155.6371  137.5605  161.0289 N   0  0  0  0  0  0  0  0  0  0  0  0
  155.2144  136.2949  160.8390 C   0  0  0  0  0  0  0  0  0  0  0  0
  154.2374  135.9948  160.1539 O   0  0  0  0  0  0  0  0  0  0  0  0
  156.0551  135.3789  161.3799 N   0  0  0  0  0  0  0  0  0  0  0  0
  156.7003  135.6222  162.6800 C   0  0  0  0  0  0  0  0  0  0  0  0
  155.8345  134.9915  163.7912 C   0  0  0  0  0  0  0  0  0  0  0  0
  155.6877  133.5524  163.5607 N   0  0  0  0  0  0  0  0  0  0  0  0
  154.8445  132.9723  164.5957 C   0  0  0  0  0  0  0  0  0  0  0  0
  155.1030  133.2893  162.2430 C   0  0  0  0  0  0  0  0  0  0  0  0
  155.9879  133.9214  161.1473 C   0  0  1  0  0  0  0  0  0  0  0  0
  155.5585  133.4975  159.7273 C   0  0  0  0  0  0  0  0  0  0  0  0
  154.3441  138.8008  159.3943 C   0  0  0  0  0  0  0  0  0  0  0  0
  153.7022  139.8857  158.9124 N   0  0  0  0  0  0  0  0  0  0  0  0
  149.9303  142.9829  157.3017 H   0  0  0  0  0  0  0  0  0  0  0  0
  151.5300  142.3557  157.7009 H   0  0  0  0  0  0  0  0  0  0  0  0
  151.3666  143.8901  156.8267 H   0  0  0  0  0  0  0  0  0  0  0  0
  152.7947  144.6647  158.4727 H   0  0  0  0  0  0  0  0  0  0  0  0
  152.0436  145.2287  159.9607 H   0  0  0  0  0  0  0  0  0  0  0  0
  153.7400  143.5492  160.5107 H   0  0  0  0  0  0  0  0  0  0  0  0
  152.1442  142.9069  160.9057 H   0  0  0  0  0  0  0  0  0  0  0  0
  154.2826  141.9978  161.5048 H   0  0  0  0  0  0  0  0  0  0  0  0
  155.4462  140.0033  162.3967 H   0  0  0  0  0  0  0  0  0  0  0  0
  156.4508  137.6637  161.6178 H   0  0  0  0  0  0  0  0  0  0  0  0
  157.7013  135.1877  162.6843 H   0  0  0  0  0  0  0  0  0  0  0  0
  156.8421  136.6821  162.8944 H   0  0  0  0  0  0  0  0  0  0  0  0
  156.3022  135.1574  164.7624 H   0  0  0  0  0  0  0  0  0  0  0  0
  154.8536  135.4695  163.8205 H   0  0  0  0  0  0  0  0  0  0  0  0
  154.7473  131.8958  164.4507 H   0  0  0  0  0  0  0  0  0  0  0  0
  153.8455  133.4108  164.5864 H   0  0  0  0  0  0  0  0  0  0  0  0
  155.2811  133.1366  165.5814 H   0  0  0  0  0  0  0  0  0  0  0  0
  155.0360  132.2112  162.0906 H   0  0  0  0  0  0  0  0  0  0  0  0
  154.0879  133.6866  162.1903 H   0  0  0  0  0  0  0  0  0  0  0  0
  157.0016  133.5329  161.2651 H   0  0  0  0  0  0  0  0  0  0  0  0
  155.7386  132.4326  159.5786 H   0  0  0  0  0  0  0  0  0  0  0  0
  156.1260  134.0323  158.9652 H   0  0  0  0  0  0  0  0  0  0  0  0
  154.4974  133.6634  159.5435 H   0  0  0  0  0  0  0  0  0  0  0  0
  154.3253  137.9237  158.7638 H   0  0  0  0  0  0  0  0  0  0  0  0
  1  2  1  0  0  0  0
  1 23  1  0  0  0  0
  1 24  1  0  0  0  0
  1 25  1  0  0  0  0
  2  3  1  0  0  0  0
  3  4  1  0  0  0  0
  3 26  1  0  0  0  0
  3 27  1  0  0  0  0
  4  5  1  0  0  0  0
  4 28  1  0  0  0  0
  4 29  1  0  0  0  0
  5  6  1  0  0  0  0
  6 22  1  0  0  0  0
  6  7  2  0  0  0  0
  7  8  1  0  0  0  0
  7 30  1  0  0  0  0
  8  9  2  0  0  0  0
  8 31  1  0  0  0  0
  9 10  1  0  0  0  0
  9 21  1  0  0  0  0
 10 11  1  0  0  0  0
 10 32  1  0  0  0  0
 11 12  2  0  0  0  0
 11 13  1  0  0  0  0
 13 19  1  0  0  0  0
 13 14  1  0  0  0  0
 14 15  1  0  0  0  0
 14 33  1  0  0  0  0
 14 34  1  0  0  0  0
 15 16  1  0  0  0  0
 15 35  1  0  0  0  0
 15 36  1  0  0  0  0
 16 17  1  0  0  0  0
 16 18  1  0  0  0  0
 17 37  1  0  0  0  0
 17 38  1  0  0  0  0
 17 39  1  0  0  0  0
 18 19  1  0  0  0  0
 18 40  1  0  0  0  0
 18 41  1  0  0  0  0
 19 20  1  0  0  0  0
 19 42  1  0  0  0  0
 20 43  1  0  0  0  0
 20 44  1  0  0  0  0
 20 45  1  0  0  0  0
 21 22  2  0  0  0  0
 21 46  1  0  0  0  0
M  END
> <s_m_source_file>
AV-unprocessed.smi

> <i_m_source_file_index>
1071

> <i_lp_mmshare_version>
43012

> <i_f3d_flags>
0

> <s_epik_input>
W0NIM11PW0NIMl1bQ0gyXU9jMVtjSF1bY0hdYyhbY0hdbjEpW05IXUMoPU8pTjJbQ0gyXVtDSDJdTihbQ0gzXSlbQ0gyXVtDQEhdMltDSDNd

> <s_epik_cmdline>
J2VwaWtfcHl0aG9uJywgJy1waCcsICc3LjAnLCAnLXRuJywgJzgnLCAnLW1hJywgJzIwMCcsICctbWV0YWxfYmluZGluZycsICctaW1hZScsICc8aW5maWxlLm1hZT4nLCAnLW9tYWUnLCAnPG91dGZpbGUubWFlPic=

> <r_lp_tautomer_probability>
1

> <r_epik_Ionization_Penalty>
0.623446

> <r_epik_Ionization_Penalty_Charging>
0

> <r_epik_Ionization_Penalty_Neutral>
0.623446

> <r_epik_State_Penalty>
0.639577

> <r_epik_Charging_Adjusted_Penalty>
0.639577

> <i_epik_Tot_Q>
0

> <i_epik_Tot_abs_Q>
0

> <r_epik_Metal_State_Penalty>
0.639567

> <b_epik_Metal_Only>
0

> <s_lp_Force_Field>
OPLS_2005

> <r_lp_Energy>
47.7745

> <b_lp_Chiralities_Consistent>
1

> <s_lp_Variant>
AV-unprocessed.smi:1071-5

> <Gold.Version>
5.8.1

> <Gold.Id.Protein>
6NUR|6NUR_protein|mol2

> <Gold.PLP.Fitness>
38.3237

> <Gold.PLP.PLP>
-33.7323

> <Gold.PLP.part.hbond>
-1.9754

> <Gold.PLP.part.metal>
0.0000

> <Gold.PLP.part.buried>
-4.2664

> <Gold.PLP.part.nonpolar>
-27.3418

> <Gold.PLP.part.repulsive>
0.1408

> <Gold.PLP.ligand.clash>
0.1124

> <Gold.PLP.ligand.torsion>
0.8607

> <Gold.PLP.Chemscore.Hbond>
1.9588

> <Gold.PLP.Chemscore.CHOScore>
0.0000

> <Gold.PLP.Chemscore.Metal>
0.0000

> <Gold.Chemscore.Hbonds>
donor molecule, donor type, donor heavy atom, donor atom, acceptor molecule, acceptor atom, score
      P1  H  6896  6909       L1    12  0.52
      P1  H  7997  8010       L1    22  0.68

> <Gold.PLP.Chemscore.Internal.Correction>
0.5489

> <Gold.Rescore>
     Score         DG    S(hbond)    S(metal)    S(lipo)     H(rot)  DE(clash)    DE(int)     intcor
     14.58     -18.25       1.79        0.00      92.56       1.57       0.23       3.44       ----

> <Gold.Chemscore.Fitness>
14.5795

> <Gold.Chemscore.DG>
-18.2465

> <Gold.Chemscore.ZeroCoef>
-5.4800

> <Gold.Chemscore.Hbond>
1.7864

> <Gold.Chemscore.Metal>
0.0000

> <Gold.Chemscore.Lipo>
92.5645

> <Gold.Chemscore.Internal_Hbond>
0.0000

> <Gold.Chemscore.DEClash>
0.2315

> <Gold.Chemscore.DEInternal>
3.4355

> <Gold.Chemscore.Rot>
1.5743

> <Gold.Chemscore.Internal.Correction>
   9.000000E+99

> <Gold.Chemscore.Hbonds>
donor molecule, donor type, donor heavy atom, donor atom, acceptor molecule, acceptor atom, score
      P1  H  6896  6909       L1    12  0.52
      P1  H  7997  8010       L1    22  0.06

> <Gold.Chemscore.Hbond.Weighted>
-5.9665

> <Gold.Chemscore.Metal.Weighted>
-0.0000

> <Gold.Chemscore.Lipo.Weighted>
-10.8300

> <Gold.Chemscore.Internal_Hbond.Weighted>
0.0000

> <Gold.Chemscore.DEClash.Weighted>
0.2315

> <Gold.Chemscore.DEInternal.Weighted>
3.4355

> <Gold.Chemscore.Rot.Weighted>
4.0301

> <Gold.Chemscore.Internal.Correction.Weighted>
   9.000000E+99

> <Gold.Protein.RotatedTorsions>
[ 6907 6896 6895 6894 ] final  175.47 input  -60.11 | X-H torsion
[ 7974 7965 7964 7962 ] final  153.19 input  175.53 | X-H torsion
[ 8008 7997 7996 7995 ] final   13.37 input   59.86 | X-H torsion
[ 10167 10162 10161 10158 ] final  -80.74 input  -65.29 | X-H torsion
[ 10718 10713 10712 10709 ] final   36.63 input   66.30 | X-H torsion
[ 10763 10752 10751 10750 ] final  123.09 input  -60.55 | X-H torsion
[ 11005 11000 10999 10996 ] final  -68.20 input  -57.11 | X-H torsion

> <Gold.Protein.ActiveResidues>
 VAL166  LYS551  ARG553  GLY616  TRP617  ASP618  TYR619  PRO620  LYS621  CYS622 
 ASP623  PHE694  ASN695  SER759  ASP760  ASP761  ALA762  ILE779  LEU786  VAL792 
 PHE793  MET794  SER795  GLU796  ALA797  LYS798  CYS799  TRP800  GLU811  SER814 

> <Gold.Protein.RotatedAtoms>
  151.7357  133.3319  159.3351 H   0  0  0  0  0  0  0  0  0  0  0  0  # atno 6907 bound_to 6896
  150.7594  134.6323  159.6202 H   0  0  0  0  0  0  0  0  0  0  0  0  # atno 6908 bound_to 6896
  152.3563  134.6938  160.0273 H   0  0  0  0  0  0  0  0  0  0  0  0  # atno 6909 bound_to 6896
  144.8171  139.6767  143.6116 H   0  0  0  0  0  0  0  0  0  0  0  0  # atno 7974 bound_to 7965
  154.8336  140.2903  155.5706 H   0  0  0  0  0  0  0  0  0  0  0  0  # atno 8008 bound_to 7997
  156.3007  140.2527  156.3196 H   0  0  0  0  0  0  0  0  0  0  0  0  # atno 8009 bound_to 7997
  154.9204  140.0386  157.1984 H   0  0  0  0  0  0  0  0  0  0  0  0  # atno 8010 bound_to 7997
  140.4475  143.2494  151.8537 H   0  0  0  0  0  0  0  0  0  0  0  0  # atno 10167 bound_to 10162
  157.3373  130.7529  149.6887 H   0  0  0  0  0  0  0  0  0  0  0  0  # atno 10718 bound_to 10713
  153.6400  135.3381  155.3068 H   0  0  0  0  0  0  0  0  0  0  0  0  # atno 10763 bound_to 10752
  154.8561  135.4316  154.2015 H   0  0  0  0  0  0  0  0  0  0  0  0  # atno 10764 bound_to 10752
  153.2931  135.7018  153.7348 H   0  0  0  0  0  0  0  0  0  0  0  0  # atno 10765 bound_to 10752
  141.1526  133.6735  156.6410 H   0  0  0  0  0  0  0  0  0  0  0  0  # atno 11005 bound_to 11000
  146.2475  139.6129  142.9449 LP  0  0  0  0  0  0  0  0  0  0  0  0  # atno 17320 bound_to 7965
  145.5188  141.0433  143.2447 LP  0  0  0  0  0  0  0  0  0  0  0  0  # atno 17321 bound_to 7965
  139.4794  144.5158  151.8870 LP  0  0  0  0  0  0  0  0  0  0  0  0  # atno 17342 bound_to 10162
  140.4246  144.2197  150.5887 LP  0  0  0  0  0  0  0  0  0  0  0  0  # atno 17343 bound_to 10162
  155.9703  130.4178  150.4296 LP  0  0  0  0  0  0  0  0  0  0  0  0  # atno 17370 bound_to 10713
  157.2338  131.0510  151.2477 LP  0  0  0  0  0  0  0  0  0  0  0  0  # atno 17371 bound_to 10713
  140.3393  134.7862  157.4386 LP  0  0  0  0  0  0  0  0  0  0  0  0  # atno 17394 bound_to 11000
  140.0951  134.5548  155.8406 LP  0  0  0  0  0  0  0  0  0  0  0  0  # atno 17395 bound_to 11000

$$$$
