AV-unprocessed.smi:798|AV-procd|sdf|3778|dock10
  -GOLD-   22720 1213D 1   1.00000     0.00000
 Structure written by MMmdl.
 33 35  0  0  0  0  0  0  0  0  2 V2000
  151.5717  139.0023  159.0421 O   0  0  0  0  0  0  0  0  0  0  0  0
  152.4265  139.4937  158.3016 C   0  0  0  0  0  0  0  0  0  0  0  0
  153.1704  138.8319  157.3865 N   0  5  0  0  0  0  0  0  0  0  0  0
  152.5894  138.3327  156.2833 C   0  0  0  0  0  0  0  0  0  0  0  0
  152.5374  137.0146  156.0327 N   0  0  0  0  0  0  0  0  0  0  0  0
  151.8903  136.7100  154.8428 N   0  0  0  0  0  0  0  0  0  0  0  0
  151.4609  137.8118  154.2277 C   0  0  0  0  0  0  0  0  0  0  0  0
  151.8059  139.3203  155.0467 S   0  0  0  0  0  0  0  0  0  0  0  0
  152.6833  140.8086  158.3543 N   0  0  0  0  0  0  0  0  0  0  0  0
  152.0401  141.7813  159.2399 C   0  0  1  0  0  0  0  0  0  0  0  0
  153.0705  142.8271  159.7183 C   0  0  2  0  0  0  0  0  0  0  0  0
  152.4933  143.5866  160.9265 C   0  0  0  0  0  0  0  0  0  0  0  0
  151.4017  144.4609  160.2800 C   0  0  0  0  0  0  0  0  0  0  0  0
  151.5023  144.0886  158.7870 C   0  0  1  0  0  0  0  0  0  0  0  0
  153.0035  143.8873  158.6259 C   0  0  0  0  0  0  0  0  0  0  0  0
  150.9390  142.6617  158.5727 C   0  0  1  0  0  0  0  0  0  0  0  0
  150.6167  142.3478  157.0935 C   0  0  0  0  0  0  0  0  0  0  0  0
  149.2684  142.6527  156.8037 O   0  0  0  0  0  0  0  0  0  0  0  0
  150.9351  137.7353  153.2877 H   0  0  0  0  0  0  0  0  0  0  0  0
  153.3900  141.1645  157.7277 H   0  0  0  0  0  0  0  0  0  0  0  0
  151.6324  141.2540  160.1045 H   0  0  0  0  0  0  0  0  0  0  0  0
  154.0646  142.4183  159.9041 H   0  0  0  0  0  0  0  0  0  0  0  0
  152.0962  142.9172  161.6904 H   0  0  0  0  0  0  0  0  0  0  0  0
  153.2566  144.2103  161.3932 H   0  0  0  0  0  0  0  0  0  0  0  0
  150.4111  144.2646  160.6919 H   0  0  0  0  0  0  0  0  0  0  0  0
  151.6211  145.5187  160.4306 H   0  0  0  0  0  0  0  0  0  0  0  0
  151.0693  144.8434  158.1300 H   0  0  0  0  0  0  0  0  0  0  0  0
  153.5872  144.7810  158.8538 H   0  0  0  0  0  0  0  0  0  0  0  0
  153.2928  143.5166  157.6416 H   0  0  0  0  0  0  0  0  0  0  0  0
  150.0110  142.5481  159.1353 H   0  0  0  0  0  0  0  0  0  0  0  0
  151.2632  142.9041  156.4146 H   0  0  0  0  0  0  0  0  0  0  0  0
  150.7640  141.2877  156.8871 H   0  0  0  0  0  0  0  0  0  0  0  0
  149.2022  143.5808  156.6396 H   0  0  0  0  0  0  0  0  0  0  0  0
  1  2  2  0  0  0  0
  2  3  1  0  0  0  0
  2  9  1  0  0  0  0
  3  4  1  0  0  0  0
  4  8  1  0  0  0  0
  4  5  2  0  0  0  0
  5  6  1  0  0  0  0
  6  7  2  0  0  0  0
  7  8  1  0  0  0  0
  7 19  1  0  0  0  0
  9 10  1  0  0  0  0
  9 20  1  0  0  0  0
 10 16  1  0  0  0  0
 10 11  1  0  0  0  0
 10 21  1  0  0  0  0
 11 15  1  0  0  0  0
 11 12  1  0  0  0  0
 11 22  1  0  0  0  0
 12 13  1  0  0  0  0
 12 23  1  0  0  0  0
 12 24  1  0  0  0  0
 13 14  1  0  0  0  0
 13 25  1  0  0  0  0
 13 26  1  0  0  0  0
 14 15  1  0  0  0  0
 14 16  1  0  0  0  0
 14 27  1  0  0  0  0
 15 28  1  0  0  0  0
 15 29  1  0  0  0  0
 16 17  1  0  0  0  0
 16 30  1  0  0  0  0
 17 18  1  0  0  0  0
 17 31  1  0  0  0  0
 17 32  1  0  0  0  0
 18 33  1  0  0  0  0
M  CHG  1   3  -1
M  END
> <s_m_source_file>
AV-unprocessed.smi

> <i_m_source_file_index>
798

> <i_lp_mmshare_version>
43012

> <i_f3d_flags>
0

> <s_epik_input>
W0NIMl0xW0NIMl1bQ0BASF0oW0NIMl0yKVtDQEBIXShbQ0gyXVtPSF0pW0NAQEhdKFtDQEhdMTIpW05IXUMoPU8pW05IXWMzbm5bY0hdczM=

> <s_epik_cmdline>
J2VwaWtfcHl0aG9uJywgJy1waCcsICc3LjAnLCAnLXRuJywgJzgnLCAnLW1hJywgJzIwMCcsICctbWV0YWxfYmluZGluZycsICctaW1hZScsICc8aW5maWxlLm1hZT4nLCAnLW9tYWUnLCAnPG91dGZpbGUubWFlPic=

> <r_lp_tautomer_probability>
1

> <r_epik_Ionization_Penalty>
4.53732

> <r_epik_Ionization_Penalty_Charging>
4.48632

> <r_epik_Ionization_Penalty_Neutral>
0.0510007

> <r_epik_State_Penalty>
4.48602

> <r_epik_Charging_Adjusted_Penalty>
8.97234

> <i_epik_Tot_Q>
-1

> <i_epik_Tot_abs_Q>
1

> <r_epik_Metal_State_Penalty>
0.812492

> <b_epik_Metal_Only>
1

> <s_lp_Force_Field>
OPLS_2005

> <r_lp_Energy>
47.4454

> <b_lp_Chiralities_Consistent>
1

> <s_lp_Variant>
AV-unprocessed.smi:798-10

> <Gold.Version>
5.8.1

> <Gold.Id.Protein>
6NUR|6NUR_protein|mol2

> <Gold.PLP.Fitness>
50.0882

> <Gold.PLP.PLP>
-38.6384

> <Gold.PLP.part.hbond>
-3.5708

> <Gold.PLP.part.metal>
0.0000

> <Gold.PLP.part.buried>
-4.6408

> <Gold.PLP.part.nonpolar>
-31.0018

> <Gold.PLP.part.repulsive>
0.2039

> <Gold.PLP.ligand.clash>
0.0000

> <Gold.PLP.ligand.torsion>
1.9408

> <Gold.PLP.Chemscore.Hbond>
4.0000

> <Gold.PLP.Chemscore.CHOScore>
1.1028

> <Gold.PLP.Chemscore.Metal>
0.0000

> <Gold.Chemscore.Hbonds>
donor molecule, donor type, donor heavy atom, donor atom, acceptor molecule, acceptor atom, score
      L1  H    18    33       P1  8028  0.98
      P1  H  7997  8010       L1     3  2.00
      P1  H 10752 10765       L1     6  0.80
      L1  C     7    19       P1  7948  0.10
      L1  C     7    19       P1  7949  0.98

> <Gold.PLP.Chemscore.Internal.Correction>
0.0230

> <Gold.Rescore>
     Score         DG    S(hbond)    S(metal)    S(lipo)     H(rot)  DE(clash)    DE(int)     intcor
     17.28     -19.20       2.13        0.00      98.50       1.92       0.00       1.92       ----

> <Gold.Chemscore.Fitness>
17.2779

> <Gold.Chemscore.DG>
-19.1971

> <Gold.Chemscore.ZeroCoef>
-5.4800

> <Gold.Chemscore.Hbond>
2.1285

> <Gold.Chemscore.Metal>
0.0000

> <Gold.Chemscore.Lipo>
98.5039

> <Gold.Chemscore.Internal_Hbond>
0.0000

> <Gold.Chemscore.DEClash>
0.0000

> <Gold.Chemscore.DEInternal>
1.9192

> <Gold.Chemscore.Rot>
1.9207

> <Gold.Chemscore.Internal.Correction>
   9.000000E+99

> <Gold.Chemscore.Hbonds>
donor molecule, donor type, donor heavy atom, donor atom, acceptor molecule, acceptor atom, score
      L1  H    18    33       P1  8028  0.84
      P1  H  7997  8010       L1     3  0.37
      P1  H 10752 10765       L1     6  0.11

> <Gold.Chemscore.Hbond.Weighted>
-7.1090

> <Gold.Chemscore.Metal.Weighted>
-0.0000

> <Gold.Chemscore.Lipo.Weighted>
-11.5250

> <Gold.Chemscore.Internal_Hbond.Weighted>
0.0000

> <Gold.Chemscore.DEClash.Weighted>
0.0000

> <Gold.Chemscore.DEInternal.Weighted>
1.9192

> <Gold.Chemscore.Rot.Weighted>
4.9169

> <Gold.Chemscore.Internal.Correction.Weighted>
   9.000000E+99

> <Gold.Protein.RotatedTorsions>
[ 6907 6896 6895 6894 ] final -122.57 input  -60.11 | X-H torsion
[ 7974 7965 7964 7962 ] final  168.50 input  175.53 | X-H torsion
[ 8008 7997 7996 7995 ] final   41.41 input   59.86 | X-H torsion
[ 10167 10162 10161 10158 ] final   22.50 input  -65.29 | X-H torsion
[ 10718 10713 10712 10709 ] final   70.82 input   66.30 | X-H torsion
[ 10763 10752 10751 10750 ] final  164.20 input  -60.55 | X-H torsion
[ 11005 11000 10999 10996 ] final  162.16 input  -57.11 | X-H torsion

> <Gold.Protein.ActiveResidues>
 VAL166  LYS551  ARG553  GLY616  TRP617  ASP618  TYR619  PRO620  LYS621  CYS622 
 ASP623  PHE694  ASN695  SER759  ASP760  ASP761  ALA762  ILE779  LEU786  VAL792 
 PHE793  MET794  SER795  GLU796  ALA797  LYS798  CYS799  TRP800  GLU811  SER814 

> <Gold.Protein.RotatedAtoms>
  150.8588  133.7674  159.2999 H   0  0  0  0  0  0  0  0  0  0  0  0  # atno 6907 bound_to 6896
  151.5323  135.1067  159.9915 H   0  0  0  0  0  0  0  0  0  0  0  0  # atno 6908 bound_to 6896
  152.4610  133.7779  159.6890 H   0  0  0  0  0  0  0  0  0  0  0  0  # atno 6909 bound_to 6896
  144.7386  139.8916  143.6403 H   0  0  0  0  0  0  0  0  0  0  0  0  # atno 7974 bound_to 7965
  155.2691  140.3364  155.4266 H   0  0  0  0  0  0  0  0  0  0  0  0  # atno 8008 bound_to 7997
  156.2141  140.1781  156.7672 H   0  0  0  0  0  0  0  0  0  0  0  0  # atno 8009 bound_to 7997
  154.5727  140.0667  156.8973 H   0  0  0  0  0  0  0  0  0  0  0  0  # atno 8010 bound_to 7997
  140.5343  143.9787  150.6483 H   0  0  0  0  0  0  0  0  0  0  0  0  # atno 10167 bound_to 10162
  157.6420  130.9497  150.0704 H   0  0  0  0  0  0  0  0  0  0  0  0  # atno 10718 bound_to 10713
  154.3053  135.2758  155.2592 H   0  0  0  0  0  0  0  0  0  0  0  0  # atno 10763 bound_to 10752
  154.5010  135.5808  153.6535 H   0  0  0  0  0  0  0  0  0  0  0  0  # atno 10764 bound_to 10752
  152.9895  135.6158  154.3227 H   0  0  0  0  0  0  0  0  0  0  0  0  # atno 10765 bound_to 10752
  140.2230  134.8182  157.3240 H   0  0  0  0  0  0  0  0  0  0  0  0  # atno 11005 bound_to 11000
  146.1137  139.4145  143.0271 LP  0  0  0  0  0  0  0  0  0  0  0  0  # atno 17320 bound_to 7965
  145.7406  141.0009  143.1303 LP  0  0  0  0  0  0  0  0  0  0  0  0  # atno 17321 bound_to 7965
  140.3171  143.3161  152.0821 LP  0  0  0  0  0  0  0  0  0  0  0  0  # atno 17342 bound_to 10162
  139.4965  144.6598  151.6489 LP  0  0  0  0  0  0  0  0  0  0  0  0  # atno 17343 bound_to 10162
  156.1710  130.3646  149.9165 LP  0  0  0  0  0  0  0  0  0  0  0  0  # atno 17370 bound_to 10713
  156.7141  130.8981  151.3612 LP  0  0  0  0  0  0  0  0  0  0  0  0  # atno 17371 bound_to 10713
  140.1830  134.4466  155.7761 LP  0  0  0  0  0  0  0  0  0  0  0  0  # atno 17394 bound_to 11000
  141.2222  133.6992  156.7900 LP  0  0  0  0  0  0  0  0  0  0  0  0  # atno 17395 bound_to 11000

$$$$
