AV-unprocessed.smi:420|AV-procd|sdf|2533|dock2
  -GOLD-   2262022493D 1   1.00000     0.00000
 Structure written by MMmdl.
 36 38  0  0  0  0  0  0  0  0  1 V2000
  153.8671  140.9052  160.2556 C   0  0  0  0  0  0  0  0  0  0  0  0
  152.9310  141.5305  159.3290 N   0  0  0  0  0  0  0  0  0  0  0  0
  152.4167  140.9904  158.1996 C   0  0  0  0  0  0  0  0  0  0  0  0
  152.6544  139.8656  157.7596 O   0  0  0  0  0  0  0  0  0  0  0  0
  151.5866  141.9021  157.6389 N   0  0  0  0  0  0  0  0  0  0  0  0
  150.8163  141.7343  156.4075 C   0  0  0  0  0  0  0  0  0  0  0  0
  149.3373  141.4075  156.6951 C   0  0  1  0  0  0  0  0  0  0  0  0
  148.6803  142.5968  157.0876 O   0  0  0  0  0  0  0  0  0  0  0  0
  148.6735  140.7764  155.4804 C   0  0  0  0  0  0  0  0  0  0  0  0
  147.7120  141.4886  154.7290 C   0  0  0  0  0  0  0  0  0  0  0  0
  147.1121  140.8968  153.6005 C   0  0  0  0  0  0  0  0  0  0  0  0
  147.4727  139.5918  153.2134 C   0  0  0  0  0  0  0  0  0  0  0  0
  146.8977  139.0239  152.1271 F   0  0  0  0  0  0  0  0  0  0  0  0
  148.4335  138.8788  153.9558 C   0  0  0  0  0  0  0  0  0  0  0  0
  149.0325  139.4697  155.0855 C   0  0  0  0  0  0  0  0  0  0  0  0
  151.5632  143.0546  158.4380 C   0  0  0  0  0  0  0  0  0  0  0  0
  150.8600  144.2647  158.3026 C   0  0  0  0  0  0  0  0  0  0  0  0
  151.0598  145.2444  159.3034 C   0  0  0  0  0  0  0  0  0  0  0  0
  151.9351  145.0022  160.3941 C   0  0  0  0  0  0  0  0  0  0  0  0
  152.6276  143.7739  160.5084 C   0  0  0  0  0  0  0  0  0  0  0  0
  152.4109  142.8195  159.5001 C   0  0  0  0  0  0  0  0  0  0  0  0
  154.1639  139.9077  159.9293 H   0  0  0  0  0  0  0  0  0  0  0  0
  153.4149  140.8157  161.2436 H   0  0  0  0  0  0  0  0  0  0  0  0
  154.7684  141.5118  160.3460 H   0  0  0  0  0  0  0  0  0  0  0  0
  150.9091  142.6057  155.7583 H   0  0  0  0  0  0  0  0  0  0  0  0
  151.2673  140.9085  155.8542 H   0  0  0  0  0  0  0  0  0  0  0  0
  149.2655  140.7032  157.5251 H   0  0  0  0  0  0  0  0  0  0  0  0
  148.7306  143.2148  156.3746 H   0  0  0  0  0  0  0  0  0  0  0  0
  147.4326  142.4926  155.0135 H   0  0  0  0  0  0  0  0  0  0  0  0
  146.3764  141.4448  153.0306 H   0  0  0  0  0  0  0  0  0  0  0  0
  148.7125  137.8787  153.6584 H   0  0  0  0  0  0  0  0  0  0  0  0
  149.7715  138.9158  155.6461 H   0  0  0  0  0  0  0  0  0  0  0  0
  150.1916  144.4435  157.4736 H   0  0  0  0  0  0  0  0  0  0  0  0
  150.5388  146.1882  159.2368 H   0  0  0  0  0  0  0  0  0  0  0  0
  152.0728  145.7642  161.1471 H   0  0  0  0  0  0  0  0  0  0  0  0
  153.2935  143.5803  161.3362 H   0  0  0  0  0  0  0  0  0  0  0  0
  1  2  1  0  0  0  0
  1 22  1  0  0  0  0
  1 23  1  0  0  0  0
  1 24  1  0  0  0  0
  2 21  1  0  0  0  0
  2  3  1  0  0  0  0
  3  4  2  0  0  0  0
  3  5  1  0  0  0  0
  5  6  1  0  0  0  0
  5 16  1  0  0  0  0
  6  7  1  0  0  0  0
  6 25  1  0  0  0  0
  6 26  1  0  0  0  0
  7  8  1  0  0  0  0
  7  9  1  0  0  0  0
  7 27  1  0  0  0  0
  8 28  1  0  0  0  0
  9 15  1  0  0  0  0
  9 10  2  0  0  0  0
 10 11  1  0  0  0  0
 10 29  1  0  0  0  0
 11 12  2  0  0  0  0
 11 30  1  0  0  0  0
 12 13  1  0  0  0  0
 12 14  1  0  0  0  0
 14 15  2  0  0  0  0
 14 31  1  0  0  0  0
 15 32  1  0  0  0  0
 16 21  2  0  0  0  0
 16 17  1  0  0  0  0
 17 18  2  0  0  0  0
 17 33  1  0  0  0  0
 18 19  1  0  0  0  0
 18 34  1  0  0  0  0
 19 20  2  0  0  0  0
 19 35  1  0  0  0  0
 20 21  1  0  0  0  0
 20 36  1  0  0  0  0
M  END
> <s_m_source_file>
AV-unprocessed.smi

> <i_m_source_file_index>
420

> <i_lp_mmshare_version>
43012

> <i_f3d_flags>
0

> <s_epik_input>
W2NIXTFbY0hdW2NIXVtjSF1jKGMxMiluKFtDSDNdKWMoPU8pbjJbQ0gyXVtDQEhdKFtPSF0pYzNbY0hdW2NIXWMoRilbY0hdW2NIXTM=

> <s_epik_cmdline>
J2VwaWtfcHl0aG9uJywgJy1waCcsICc3LjAnLCAnLXRuJywgJzgnLCAnLW1hJywgJzIwMCcsICctbWV0YWxfYmluZGluZycsICctaW1hZScsICc8aW5maWxlLm1hZT4nLCAnLW9tYWUnLCAnPG91dGZpbGUubWFlPic=

> <r_lp_tautomer_probability>
1

> <r_epik_Ionization_Penalty>
1.79795e-06

> <r_epik_Ionization_Penalty_Charging>
2.57375e-09

> <r_epik_Ionization_Penalty_Neutral>
1.79538e-06

> <r_epik_State_Penalty>
-0

> <r_epik_Charging_Adjusted_Penalty>
2.57375e-09

> <i_epik_Tot_Q>
0

> <i_epik_Tot_abs_Q>
0

> <r_epik_Metal_State_Penalty>
-0

> <b_epik_Metal_Only>
0

> <s_lp_Force_Field>
OPLS_2005

> <r_lp_Energy>
43.03

> <b_lp_Chiralities_Consistent>
1

> <s_lp_Variant>
AV-unprocessed.smi:420-2

> <Gold.Version>
5.8.1

> <Gold.Id.Protein>
6NUR|6NUR_protein|mol2

> <Gold.PLP.Fitness>
52.4776

> <Gold.PLP.PLP>
-47.7152

> <Gold.PLP.part.hbond>
-2.0000

> <Gold.PLP.part.metal>
0.0000

> <Gold.PLP.part.buried>
-2.7674

> <Gold.PLP.part.nonpolar>
-43.0485

> <Gold.PLP.part.repulsive>
0.0000

> <Gold.PLP.ligand.clash>
0.0000

> <Gold.PLP.ligand.torsion>
0.6294

> <Gold.PLP.Chemscore.Hbond>
2.0000

> <Gold.PLP.Chemscore.CHOScore>
0.0000

> <Gold.PLP.Chemscore.Metal>
0.0000

> <Gold.Chemscore.Hbonds>
donor molecule, donor type, donor heavy atom, donor atom, acceptor molecule, acceptor atom, score
      L1  H     8    28       P1  8028  1.00
      P1  H  7997  8009       L1     4  1.00

> <Gold.PLP.Chemscore.Internal.Correction>
0.0212

> <Gold.Rescore>
     Score         DG    S(hbond)    S(metal)    S(lipo)     H(rot)  DE(clash)    DE(int)     intcor
     19.58     -20.79       1.64        0.00     124.50       1.85       0.36       0.85       ----

> <Gold.Chemscore.Fitness>
19.5846

> <Gold.Chemscore.DG>
-20.7879

> <Gold.Chemscore.ZeroCoef>
-5.4800

> <Gold.Chemscore.Hbond>
1.6373

> <Gold.Chemscore.Metal>
0.0000

> <Gold.Chemscore.Lipo>
124.4990

> <Gold.Chemscore.Internal_Hbond>
0.0000

> <Gold.Chemscore.DEClash>
0.3550

> <Gold.Chemscore.DEInternal>
0.8483

> <Gold.Chemscore.Rot>
1.8465

> <Gold.Chemscore.Internal.Correction>
   9.000000E+99

> <Gold.Chemscore.Hbonds>
donor molecule, donor type, donor heavy atom, donor atom, acceptor molecule, acceptor atom, score
      L1  H     8    28       P1  8028  0.93
      P1  H  7997  8009       L1     4  0.42

> <Gold.Chemscore.Hbond.Weighted>
-5.4685

> <Gold.Chemscore.Metal.Weighted>
-0.0000

> <Gold.Chemscore.Lipo.Weighted>
-14.5664

> <Gold.Chemscore.Internal_Hbond.Weighted>
0.0000

> <Gold.Chemscore.DEClash.Weighted>
0.3550

> <Gold.Chemscore.DEInternal.Weighted>
0.8483

> <Gold.Chemscore.Rot.Weighted>
4.7270

> <Gold.Chemscore.Internal.Correction.Weighted>
   9.000000E+99

> <Gold.Protein.RotatedTorsions>
[ 6907 6896 6895 6894 ] final -106.98 input  -60.11 | X-H torsion
[ 7974 7965 7964 7962 ] final   84.27 input  175.53 | X-H torsion
[ 8008 7997 7996 7995 ] final  170.27 input   59.86 | X-H torsion
[ 10167 10162 10161 10158 ] final  -98.02 input  -65.29 | X-H torsion
[ 10718 10713 10712 10709 ] final  -97.00 input   66.30 | X-H torsion
[ 10763 10752 10751 10750 ] final  106.17 input  -60.55 | X-H torsion
[ 11005 11000 10999 10996 ] final -129.15 input  -57.11 | X-H torsion

> <Gold.Protein.ActiveResidues>
 VAL166  LYS551  ARG553  GLY616  TRP617  ASP618  TYR619  PRO620  LYS621  CYS622 
 ASP623  PHE694  ASN695  SER759  ASP760  ASP761  ALA762  ILE779  LEU786  VAL792 
 PHE793  MET794  SER795  GLU796  ALA797  LYS798  CYS799  TRP800  GLU811  SER814 

> <Gold.Protein.RotatedAtoms>
  150.7419  133.9894  159.3601 H   0  0  0  0  0  0  0  0  0  0  0  0  # atno 6907 bound_to 6896
  151.7841  135.0751  160.0387 H   0  0  0  0  0  0  0  0  0  0  0  0  # atno 6908 bound_to 6896
  152.3253  133.5862  159.5809 H   0  0  0  0  0  0  0  0  0  0  0  0  # atno 6909 bound_to 6896
  145.6009  139.2352  143.2246 H   0  0  0  0  0  0  0  0  0  0  0  0  # atno 7974 bound_to 7965
  156.1381  140.1542  156.8963 H   0  0  0  0  0  0  0  0  0  0  0  0  # atno 8008 bound_to 7997
  154.4964  140.0837  156.7745 H   0  0  0  0  0  0  0  0  0  0  0  0  # atno 8009 bound_to 7997
  155.4130  140.3419  155.4267 H   0  0  0  0  0  0  0  0  0  0  0  0  # atno 8010 bound_to 7997
  140.2774  143.3304  152.0475 H   0  0  0  0  0  0  0  0  0  0  0  0  # atno 10167 bound_to 10162
  156.0074  130.5175  150.6309 H   0  0  0  0  0  0  0  0  0  0  0  0  # atno 10718 bound_to 10713
  153.3894  135.3885  155.1912 H   0  0  0  0  0  0  0  0  0  0  0  0  # atno 10763 bound_to 10752
  154.8717  135.3744  154.4757 H   0  0  0  0  0  0  0  0  0  0  0  0  # atno 10764 bound_to 10752
  153.5242  135.7086  153.5777 H   0  0  0  0  0  0  0  0  0  0  0  0  # atno 10765 bound_to 10752
  140.9456  134.1135  157.4111 H   0  0  0  0  0  0  0  0  0  0  0  0  # atno 11005 bound_to 11000
  146.1577  140.6834  142.9292 LP  0  0  0  0  0  0  0  0  0  0  0  0  # atno 17320 bound_to 7965
  144.7310  140.4672  143.6938 LP  0  0  0  0  0  0  0  0  0  0  0  0  # atno 17321 bound_to 7965
  139.4972  144.6615  151.6453 LP  0  0  0  0  0  0  0  0  0  0  0  0  # atno 17342 bound_to 10162
  140.5840  143.9896  150.6285 LP  0  0  0  0  0  0  0  0  0  0  0  0  # atno 17343 bound_to 10162
  157.4107  131.0823  151.1223 LP  0  0  0  0  0  0  0  0  0  0  0  0  # atno 17370 bound_to 10713
  157.1855  130.6328  149.5686 LP  0  0  0  0  0  0  0  0  0  0  0  0  # atno 17371 bound_to 10713
  139.8832  135.0050  156.6286 LP  0  0  0  0  0  0  0  0  0  0  0  0  # atno 17394 bound_to 11000
  140.7674  133.8766  155.8465 LP  0  0  0  0  0  0  0  0  0  0  0  0  # atno 17395 bound_to 11000

$$$$
