AV-unprocessed.smi:1915|AV-procd|sdf|7761|dock4
  -GOLD-   22720 9503D 1   1.00000     0.00000
 Structure written by MMmdl.
 44 45  0  0  0  0  0  0  0  0  1 V2000
  153.1276  142.3258  159.6536 C   0  0  0  0  0  0  0  0  0  0  0  0
  152.2853  142.9049  158.5037 C   0  0  0  0  0  0  0  0  0  0  0  0
  151.7024  144.2687  158.9033 C   0  0  0  0  0  0  0  0  0  0  0  0
  151.1626  141.9557  158.0279 C   0  0  0  0  0  0  0  0  0  0  0  0
  151.2257  141.6633  156.5957 N   0  0  0  0  0  0  0  0  0  0  0  0
  150.1232  142.0299  155.7209 C   0  0  0  0  0  0  0  0  0  0  0  0
  150.4196  141.3526  154.3654 C   0  0  2  0  0  0  0  0  0  0  0  0
  149.4415  140.2111  154.0483 C   0  0  0  0  0  0  0  0  0  0  0  0
  149.8478  139.0525  153.9532 O   0  0  0  0  0  0  0  0  0  0  0  0
  148.1580  140.5568  153.8686 N   0  0  0  0  0  0  0  0  0  0  0  0
  147.0894  139.6413  153.4803 C   0  0  0  0  0  0  0  0  0  0  0  0
  146.8505  139.6151  151.9566 C   0  0  0  0  0  0  0  0  0  0  0  0
  146.3591  138.2722  151.4427 C   0  0  0  0  0  0  0  0  0  0  0  0
  145.8490  137.3023  152.3325 C   0  0  0  0  0  0  0  0  0  0  0  0
  145.4253  136.0663  151.8081 C   0  0  0  0  0  0  0  0  0  0  0  0
  145.5255  135.8491  150.4206 C   0  0  0  0  0  0  0  0  0  0  0  0
  146.0462  136.8824  149.6162 C   0  0  0  0  0  0  0  0  0  0  0  0
  146.4572  138.0707  150.1094 N   0  0  0  0  0  0  0  0  0  0  0  0
  151.8650  140.8312  154.4840 C   0  0  0  0  0  0  0  0  0  0  0  0
  152.1980  141.0031  155.9559 C   0  0  0  0  0  0  0  0  0  0  0  0
  153.2328  140.5673  156.4583 O   0  0  0  0  0  0  0  0  0  0  0  0
  152.5032  142.0659  160.5089 H   0  0  0  0  0  0  0  0  0  0  0  0
  153.8744  143.0437  159.9931 H   0  0  0  0  0  0  0  0  0  0  0  0
  153.6657  141.4295  159.3466 H   0  0  0  0  0  0  0  0  0  0  0  0
  152.9560  143.0772  157.6611 H   0  0  0  0  0  0  0  0  0  0  0  0
  151.0186  144.1751  159.7475 H   0  0  0  0  0  0  0  0  0  0  0  0
  151.1517  144.7197  158.0771 H   0  0  0  0  0  0  0  0  0  0  0  0
  152.4907  144.9656  159.1892 H   0  0  0  0  0  0  0  0  0  0  0  0
  151.1938  141.0250  158.5973 H   0  0  0  0  0  0  0  0  0  0  0  0
  150.1909  142.4011  158.2447 H   0  0  0  0  0  0  0  0  0  0  0  0
  149.1689  141.7215  156.1516 H   0  0  0  0  0  0  0  0  0  0  0  0
  150.0973  143.1149  155.6123 H   0  0  0  0  0  0  0  0  0  0  0  0
  150.3641  142.0981  153.5700 H   0  0  0  0  0  0  0  0  0  0  0  0
  147.9100  141.5307  153.9667 H   0  0  0  0  0  0  0  0  0  0  0  0
  147.2980  138.6366  153.8507 H   0  0  0  0  0  0  0  0  0  0  0  0
  146.1802  139.9721  153.9828 H   0  0  0  0  0  0  0  0  0  0  0  0
  146.1249  140.3828  151.6852 H   0  0  0  0  0  0  0  0  0  0  0  0
  147.7717  139.8800  151.4364 H   0  0  0  0  0  0  0  0  0  0  0  0
  145.7904  137.4967  153.3933 H   0  0  0  0  0  0  0  0  0  0  0  0
  145.0330  135.2985  152.4585 H   0  0  0  0  0  0  0  0  0  0  0  0
  145.2107  134.9133  149.9830 H   0  0  0  0  0  0  0  0  0  0  0  0
  146.1372  136.7503  148.5483 H   0  0  0  0  0  0  0  0  0  0  0  0
  151.9830  139.7884  154.1847 H   0  0  0  0  0  0  0  0  0  0  0  0
  152.5496  141.4320  153.8849 H   0  0  0  0  0  0  0  0  0  0  0  0
  1  2  1  0  0  0  0
  1 22  1  0  0  0  0
  1 23  1  0  0  0  0
  1 24  1  0  0  0  0
  2  3  1  0  0  0  0
  2  4  1  0  0  0  0
  2 25  1  0  0  0  0
  3 26  1  0  0  0  0
  3 27  1  0  0  0  0
  3 28  1  0  0  0  0
  4  5  1  0  0  0  0
  4 29  1  0  0  0  0
  4 30  1  0  0  0  0
  5 20  1  0  0  0  0
  5  6  1  0  0  0  0
  6  7  1  0  0  0  0
  6 31  1  0  0  0  0
  6 32  1  0  0  0  0
  7  8  1  0  0  0  0
  7 19  1  0  0  0  0
  7 33  1  0  0  0  0
  8  9  2  0  0  0  0
  8 10  1  0  0  0  0
 10 11  1  0  0  0  0
 10 34  1  0  0  0  0
 11 12  1  0  0  0  0
 11 35  1  0  0  0  0
 11 36  1  0  0  0  0
 12 13  1  0  0  0  0
 12 37  1  0  0  0  0
 12 38  1  0  0  0  0
 13 18  1  0  0  0  0
 13 14  2  0  0  0  0
 14 15  1  0  0  0  0
 14 39  1  0  0  0  0
 15 16  2  0  0  0  0
 15 40  1  0  0  0  0
 16 17  1  0  0  0  0
 16 41  1  0  0  0  0
 17 18  2  0  0  0  0
 17 42  1  0  0  0  0
 19 20  1  0  0  0  0
 19 43  1  0  0  0  0
 19 44  1  0  0  0  0
 20 21  2  0  0  0  0
M  END
> <s_m_source_file>
AV-unprocessed.smi

> <i_m_source_file_index>
1915

> <i_lp_mmshare_version>
43012

> <i_f3d_flags>
0

> <s_epik_input>
W0NIM11bQ0hdKFtDSDNdKVtDSDJdTjFbQ0gyXVtDQEhdKFtDSDJdQzE9TylDKD1PKVtOSF1bQ0gyXVtDSDJdYzJbY0hdW2NIXVtjSF1bY0hdbjI=

> <s_epik_cmdline>
J2VwaWtfcHl0aG9uJywgJy1waCcsICc3LjAnLCAnLXRuJywgJzgnLCAnLW1hJywgJzIwMCcsICctbWV0YWxfYmluZGluZycsICctaW1hZScsICc8aW5maWxlLm1hZT4nLCAnLW9tYWUnLCAnPG91dGZpbGUubWFlPic=

> <r_epik_Ionization_Penalty>
0.0252359

> <r_epik_Ionization_Penalty_Charging>
0

> <r_epik_Ionization_Penalty_Neutral>
0.0252359

> <r_epik_State_Penalty>
0.020532

> <r_epik_Charging_Adjusted_Penalty>
0.020532

> <i_epik_Tot_Q>
0

> <i_epik_Tot_abs_Q>
0

> <r_epik_Metal_State_Penalty>
0.0196901

> <b_epik_Metal_Only>
0

> <s_lp_Force_Field>
OPLS_2005

> <r_lp_Energy>
14.5856

> <b_lp_Chiralities_Consistent>
1

> <s_lp_Variant>
AV-unprocessed.smi:1915-2

> <Gold.Version>
5.8.1

> <Gold.Id.Protein>
6NUR|6NUR_protein|mol2

> <Gold.PLP.Fitness>
46.3477

> <Gold.PLP.PLP>
-39.9501

> <Gold.PLP.part.hbond>
-2.9785

> <Gold.PLP.part.metal>
0.0000

> <Gold.PLP.part.buried>
5.2088

> <Gold.PLP.part.nonpolar>
-43.6737

> <Gold.PLP.part.repulsive>
2.6712

> <Gold.PLP.ligand.clash>
0.0000

> <Gold.PLP.ligand.torsion>
1.3434

> <Gold.PLP.Chemscore.Hbond>
1.9825

> <Gold.PLP.Chemscore.CHOScore>
1.0000

> <Gold.PLP.Chemscore.Metal>
0.0000

> <Gold.Chemscore.Hbonds>
donor molecule, donor type, donor heavy atom, donor atom, acceptor molecule, acceptor atom, score
      P1  H  7954  7966       L1    18  0.60
      P1  H  7997  8009       L1    21  0.20
      L1  C    17    42       P1  7921  0.88

> <Gold.PLP.Chemscore.Internal.Correction>
0.1369

> <Gold.Rescore>
     Score         DG    S(hbond)    S(metal)    S(lipo)     H(rot)  DE(clash)    DE(int)     intcor
     12.69     -18.42       1.16        0.00     115.65       1.75       4.42       1.31       ----

> <Gold.Chemscore.Fitness>
12.6892

> <Gold.Chemscore.DG>
-18.4224

> <Gold.Chemscore.ZeroCoef>
-5.4800

> <Gold.Chemscore.Hbond>
1.1616

> <Gold.Chemscore.Metal>
0.0000

> <Gold.Chemscore.Lipo>
115.6524

> <Gold.Chemscore.Internal_Hbond>
0.0000

> <Gold.Chemscore.DEClash>
4.4198

> <Gold.Chemscore.DEInternal>
1.3134

> <Gold.Chemscore.Rot>
1.7456

> <Gold.Chemscore.Internal.Correction>
   9.000000E+99

> <Gold.Chemscore.Hbonds>
donor molecule, donor type, donor heavy atom, donor atom, acceptor molecule, acceptor atom, score
      P1  H  7954  7966       L1    18  0.05
      P1  H  7997  8009       L1    21  0.19

> <Gold.Chemscore.Hbond.Weighted>
-3.8799

> <Gold.Chemscore.Metal.Weighted>
-0.0000

> <Gold.Chemscore.Lipo.Weighted>
-13.5313

> <Gold.Chemscore.Internal_Hbond.Weighted>
0.0000

> <Gold.Chemscore.DEClash.Weighted>
4.4198

> <Gold.Chemscore.DEInternal.Weighted>
1.3134

> <Gold.Chemscore.Rot.Weighted>
4.4688

> <Gold.Chemscore.Internal.Correction.Weighted>
   9.000000E+99

> <Gold.Protein.RotatedTorsions>
[ 6907 6896 6895 6894 ] final  -28.96 input  -60.11 | X-H torsion
[ 7974 7965 7964 7962 ] final  171.54 input  175.53 | X-H torsion
[ 8008 7997 7996 7995 ] final  164.22 input   59.86 | X-H torsion
[ 10167 10162 10161 10158 ] final  122.65 input  -65.29 | X-H torsion
[ 10718 10713 10712 10709 ] final  -23.98 input   66.30 | X-H torsion
[ 10763 10752 10751 10750 ] final  -45.71 input  -60.55 | X-H torsion
[ 11005 11000 10999 10996 ] final   89.81 input  -57.11 | X-H torsion

> <Gold.Protein.ActiveResidues>
 VAL166  LYS551  ARG553  GLY616  TRP617  ASP618  TYR619  PRO620  LYS621  CYS622 
 ASP623  PHE694  ASN695  SER759  ASP760  ASP761  ALA762  ILE779  LEU786  VAL792 
 PHE793  MET794  SER795  GLU796  ALA797  LYS798  CYS799  TRP800  GLU811  SER814 

> <Gold.Protein.RotatedAtoms>
  151.1257  135.0103  159.8558 H   0  0  0  0  0  0  0  0  0  0  0  0  # atno 6907 bound_to 6896
  152.5449  134.1670  159.8591 H   0  0  0  0  0  0  0  0  0  0  0  0  # atno 6908 bound_to 6896
  151.1732  133.4726  159.2627 H   0  0  0  0  0  0  0  0  0  0  0  0  # atno 6909 bound_to 6896
  144.7292  139.9366  143.6427 H   0  0  0  0  0  0  0  0  0  0  0  0  # atno 7974 bound_to 7965
  156.1897  140.1702  156.8116 H   0  0  0  0  0  0  0  0  0  0  0  0  # atno 8008 bound_to 7997
  154.5456  140.0728  156.8616 H   0  0  0  0  0  0  0  0  0  0  0  0  # atno 8009 bound_to 7997
  155.3128  140.3368  155.4246 H   0  0  0  0  0  0  0  0  0  0  0  0  # atno 8010 bound_to 7997
  139.5846  144.7001  151.3442 H   0  0  0  0  0  0  0  0  0  0  0  0  # atno 10167 bound_to 10162
  156.4837  130.4551  149.6796 H   0  0  0  0  0  0  0  0  0  0  0  0  # atno 10718 bound_to 10713
  154.0330  135.6654  153.4782 H   0  0  0  0  0  0  0  0  0  0  0  0  # atno 10763 bound_to 10752
  153.0532  135.5071  154.7915 H   0  0  0  0  0  0  0  0  0  0  0  0  # atno 10764 bound_to 10752
  154.6866  135.3054  154.9504 H   0  0  0  0  0  0  0  0  0  0  0  0  # atno 10765 bound_to 10752
  139.8868  134.8575  156.3196 H   0  0  0  0  0  0  0  0  0  0  0  0  # atno 11005 bound_to 11000
  146.0817  139.3805  143.0460 LP  0  0  0  0  0  0  0  0  0  0  0  0  # atno 17320 bound_to 7965
  145.7832  140.9847  143.1088 LP  0  0  0  0  0  0  0  0  0  0  0  0  # atno 17321 bound_to 7965
  140.7119  143.7367  150.7583 LP  0  0  0  0  0  0  0  0  0  0  0  0  # atno 17342 bound_to 10162
  140.0908  143.4879  152.2479 LP  0  0  0  0  0  0  0  0  0  0  0  0  # atno 17343 bound_to 10162
  156.3495  130.7425  151.2382 LP  0  0  0  0  0  0  0  0  0  0  0  0  # atno 17370 bound_to 10713
  157.7481  131.0381  150.4487 LP  0  0  0  0  0  0  0  0  0  0  0  0  # atno 17371 bound_to 10713
  140.9796  133.7276  156.0652 LP  0  0  0  0  0  0  0  0  0  0  0  0  # atno 17394 bound_to 11000
  140.7767  134.3772  157.5496 LP  0  0  0  0  0  0  0  0  0  0  0  0  # atno 17395 bound_to 11000

$$$$
