AV-unprocessed.smi:581|AV-procd|sdf|2992|dock4
  -GOLD-   2262023493D 1   1.00000     0.00000
 Structure written by MMmdl.
 35 36  0  0  0  0  0  0  0  0  2 V2000
  153.6627  138.2946  157.9253 C   0  0  0  0  0  0  0  0  0  0  0  0
  152.7932  139.4164  157.3839 C   0  0  0  0  0  0  0  0  0  0  0  0
  152.7617  140.5440  158.1833 N   0  0  0  0  0  0  0  0  0  0  0  0
  151.9907  141.6310  157.7939 C   0  0  0  0  0  0  0  0  0  0  0  0
  152.0500  142.7173  158.6641 N   0  0  0  0  0  0  0  0  0  0  0  0
  151.2593  143.9166  158.3927 C   0  0  0  0  0  0  0  0  0  0  0  0
  151.8079  145.1304  159.1613 C   0  0  0  0  0  0  0  0  0  0  0  0
  151.8560  144.8343  160.5510 O   0  0  0  0  0  0  0  0  0  0  0  0
  152.7166  143.7352  160.8199 C   0  0  0  0  0  0  0  0  0  0  0  0
  152.1956  142.4800  160.0995 C   0  0  0  0  0  0  0  0  0  0  0  0
  151.2785  141.6435  156.7050 N   0  0  0  0  0  0  0  0  0  0  0  0
  151.2599  140.5261  155.8567 C   0  0  0  0  0  0  0  0  0  0  0  0
  150.5650  140.5340  154.8418 O   0  0  0  0  0  0  0  0  0  0  0  0
  152.0894  139.3572  156.2270 C   0  0  0  0  0  0  0  0  0  0  0  0
  152.0816  138.1223  155.3198 C   0  0  0  0  0  0  0  0  0  0  0  0
  151.1818  136.9647  155.8089 C   0  0  0  0  0  0  0  0  0  0  0  0
  151.8444  136.1263  156.9044 C   0  0  0  0  0  0  0  0  0  0  0  0
  152.8544  135.4629  156.5818 O   0  0  0  0  0  0  0  0  0  0  0  0
  151.3293  136.1646  158.0430 O   0  5  0  0  0  0  0  0  0  0  0  0
  153.3171  140.5407  159.0259 H   0  0  0  0  0  0  0  0  0  0  0  0
  154.5137  138.1171  157.2687 H   0  0  0  0  0  0  0  0  0  0  0  0
  153.0908  137.3709  158.0138 H   0  0  0  0  0  0  0  0  0  0  0  0
  154.0549  138.5357  158.9141 H   0  0  0  0  0  0  0  0  0  0  0  0
  150.2229  143.7316  158.6786 H   0  0  0  0  0  0  0  0  0  0  0  0
  151.2616  144.1349  157.3236 H   0  0  0  0  0  0  0  0  0  0  0  0
  152.8012  145.4026  158.8004 H   0  0  0  0  0  0  0  0  0  0  0  0
  151.1640  145.9960  159.0050 H   0  0  0  0  0  0  0  0  0  0  0  0
  153.7351  143.9685  160.5054 H   0  0  0  0  0  0  0  0  0  0  0  0
  152.7473  143.5644  161.8960 H   0  0  0  0  0  0  0  0  0  0  0  0
  152.8736  141.6479  160.2922 H   0  0  0  0  0  0  0  0  0  0  0  0
  151.2249  142.1944  160.5074 H   0  0  0  0  0  0  0  0  0  0  0  0
  153.0963  137.7535  155.1649 H   0  0  0  0  0  0  0  0  0  0  0  0
  151.7500  138.4263  154.3275 H   0  0  0  0  0  0  0  0  0  0  0  0
  150.2295  137.3452  156.1764 H   0  0  0  0  0  0  0  0  0  0  0  0
  150.9415  136.3102  154.9706 H   0  0  0  0  0  0  0  0  0  0  0  0
  1 21  1  0  0  0  0
  1 22  1  0  0  0  0
  1 23  1  0  0  0  0
  1  2  1  0  0  0  0
  2 14  2  0  0  0  0
  2  3  1  0  0  0  0
  3 20  1  0  0  0  0
  3  4  1  0  0  0  0
  4  5  1  0  0  0  0
  4 11  2  0  0  0  0
  5 10  1  0  0  0  0
  5  6  1  0  0  0  0
  6  7  1  0  0  0  0
  6 24  1  0  0  0  0
  6 25  1  0  0  0  0
  7  8  1  0  0  0  0
  7 26  1  0  0  0  0
  7 27  1  0  0  0  0
  8  9  1  0  0  0  0
  9 10  1  0  0  0  0
  9 28  1  0  0  0  0
  9 29  1  0  0  0  0
 10 30  1  0  0  0  0
 10 31  1  0  0  0  0
 11 12  1  0  0  0  0
 12 13  2  0  0  0  0
 12 14  1  0  0  0  0
 14 15  1  0  0  0  0
 15 16  1  0  0  0  0
 15 32  1  0  0  0  0
 15 33  1  0  0  0  0
 16 17  1  0  0  0  0
 16 34  1  0  0  0  0
 16 35  1  0  0  0  0
 17 18  2  0  0  0  0
 17 19  1  0  0  0  0
M  CHG  1  19  -1
M  END
> <s_m_source_file>
AV-unprocessed.smi

> <i_m_source_file_index>
581

> <i_lp_mmshare_version>
43012

> <i_f3d_flags>
0

> <s_epik_input>
W0NIMl0xW0NIMl1PW0NIMl1bQ0gyXU4xYyhuYzJbQ0gzXSlbbkhdYyg9TyljMltDSDJdW0NIMl1DKD1PKVtPSF0=

> <s_epik_cmdline>
J2VwaWtfcHl0aG9uJywgJy1waCcsICc3LjAnLCAnLXRuJywgJzgnLCAnLW1hJywgJzIwMCcsICctbWV0YWxfYmluZGluZycsICctaW1hZScsICc8aW5maWxlLm1hZT4nLCAnLW9tYWUnLCAnPG91dGZpbGUubWFlPic=

> <r_lp_tautomer_probability>
0.108306

> <r_epik_Ionization_Penalty>
0.0702858

> <r_epik_Ionization_Penalty_Charging>
0.050334

> <r_epik_Ionization_Penalty_Neutral>
0.0199519

> <r_epik_State_Penalty>
1.38976

> <r_epik_Charging_Adjusted_Penalty>
1.44009

> <i_epik_Tot_Q>
-1

> <i_epik_Tot_abs_Q>
1

> <r_epik_Metal_State_Penalty>
1.61644

> <b_epik_Metal_Only>
0

> <s_lp_Force_Field>
OPLS_2005

> <r_lp_Energy>
27.984

> <b_lp_Chiralities_Consistent>
1

> <s_lp_Variant>
AV-unprocessed.smi:581-2

> <Gold.Version>
5.8.1

> <Gold.Id.Protein>
6NUR|6NUR_protein|mol2

> <Gold.PLP.Fitness>
45.0581

> <Gold.PLP.PLP>
-32.5440

> <Gold.PLP.part.hbond>
-3.0000

> <Gold.PLP.part.metal>
0.0000

> <Gold.PLP.part.buried>
-4.6955

> <Gold.PLP.part.nonpolar>
-24.9370

> <Gold.PLP.part.repulsive>
0.3695

> <Gold.PLP.ligand.clash>
0.0000

> <Gold.PLP.ligand.torsion>
0.6217

> <Gold.PLP.Chemscore.Hbond>
4.4720

> <Gold.PLP.Chemscore.CHOScore>
0.0000

> <Gold.PLP.Chemscore.Metal>
0.0000

> <Gold.Chemscore.Hbonds>
donor molecule, donor type, donor heavy atom, donor atom, acceptor molecule, acceptor atom, score
      P1  H  6896  6907       L1    19  0.68
      P1  H  7989  7998       L1    13  1.00
      P1  H 10752 10763       L1    18  1.62

> <Gold.PLP.Chemscore.Internal.Correction>
0.3415

> <Gold.Rescore>
     Score         DG    S(hbond)    S(metal)    S(lipo)     H(rot)  DE(clash)    DE(int)     intcor
     16.81     -17.51       2.58        0.00      70.38       1.89       0.01       0.69       ----

> <Gold.Chemscore.Fitness>
16.8103

> <Gold.Chemscore.DG>
-17.5060

> <Gold.Chemscore.ZeroCoef>
-5.4800

> <Gold.Chemscore.Hbond>
2.5829

> <Gold.Chemscore.Metal>
0.0000

> <Gold.Chemscore.Lipo>
70.3850

> <Gold.Chemscore.Internal_Hbond>
0.0000

> <Gold.Chemscore.DEClash>
0.0073

> <Gold.Chemscore.DEInternal>
0.6884

> <Gold.Chemscore.Rot>
1.8890

> <Gold.Chemscore.Internal.Correction>
   9.000000E+99

> <Gold.Chemscore.Hbonds>
donor molecule, donor type, donor heavy atom, donor atom, acceptor molecule, acceptor atom, score
      P1  H  6896  6907       L1    19  0.34
      P1  H  7989  7998       L1    13  0.57
      P1  H 10752 10763       L1    18  0.77

> <Gold.Chemscore.Hbond.Weighted>
-8.6267

> <Gold.Chemscore.Metal.Weighted>
-0.0000

> <Gold.Chemscore.Lipo.Weighted>
-8.2350

> <Gold.Chemscore.Internal_Hbond.Weighted>
0.0000

> <Gold.Chemscore.DEClash.Weighted>
0.0073

> <Gold.Chemscore.DEInternal.Weighted>
0.6884

> <Gold.Chemscore.Rot.Weighted>
4.8357

> <Gold.Chemscore.Internal.Correction.Weighted>
   9.000000E+99

> <Gold.Protein.RotatedTorsions>
[ 6907 6896 6895 6894 ] final  -41.83 input  -60.11 | X-H torsion
[ 7974 7965 7964 7962 ] final -129.61 input  175.53 | X-H torsion
[ 8008 7997 7996 7995 ] final   50.62 input   59.86 | X-H torsion
[ 10167 10162 10161 10158 ] final -174.35 input  -65.29 | X-H torsion
[ 10718 10713 10712 10709 ] final  172.84 input   66.30 | X-H torsion
[ 10763 10752 10751 10750 ] final   98.96 input  -60.55 | X-H torsion
[ 11005 11000 10999 10996 ] final    1.31 input  -57.11 | X-H torsion

> <Gold.Protein.ActiveResidues>
 VAL166  LYS551  ARG553  GLY616  TRP617  ASP618  TYR619  PRO620  LYS621  CYS622 
 ASP623  PHE694  ASN695  SER759  ASP760  ASP761  ALA762  ILE779  LEU786  VAL792 
 PHE793  MET794  SER795  GLU796  ALA797  LYS798  CYS799  TRP800  GLU811  SER814 

> <Gold.Protein.RotatedAtoms>
  150.9623  134.9009  159.7737 H   0  0  0  0  0  0  0  0  0  0  0  0  # atno 6907 bound_to 6896
  152.5160  134.3656  159.9310 H   0  0  0  0  0  0  0  0  0  0  0  0  # atno 6908 bound_to 6896
  151.3668  133.3829  159.2730 H   0  0  0  0  0  0  0  0  0  0  0  0  # atno 6909 bound_to 6896
  144.9555  140.7391  143.4761 H   0  0  0  0  0  0  0  0  0  0  0  0  # atno 7974 bound_to 7965
  155.4217  140.3447  155.4272 H   0  0  0  0  0  0  0  0  0  0  0  0  # atno 8008 bound_to 7997
  156.1389  140.1536  156.8983 H   0  0  0  0  0  0  0  0  0  0  0  0  # atno 8009 bound_to 7997
  154.4954  140.0829  156.7666 H   0  0  0  0  0  0  0  0  0  0  0  0  # atno 8010 bound_to 7997
  139.5639  144.1803  152.1282 H   0  0  0  0  0  0  0  0  0  0  0  0  # atno 10167 bound_to 10162
  156.9730  131.0096  151.2900 H   0  0  0  0  0  0  0  0  0  0  0  0  # atno 10718 bound_to 10713
  153.2955  135.4130  155.1206 H   0  0  0  0  0  0  0  0  0  0  0  0  # atno 10763 bound_to 10752
  154.8533  135.3529  154.5923 H   0  0  0  0  0  0  0  0  0  0  0  0  # atno 10764 bound_to 10752
  153.6346  135.7059  153.5321 H   0  0  0  0  0  0  0  0  0  0  0  0  # atno 10765 bound_to 10752
  140.6169  133.9697  155.8205 H   0  0  0  0  0  0  0  0  0  0  0  0  # atno 11005 bound_to 11000
  145.2778  139.1930  143.4807 LP  0  0  0  0  0  0  0  0  0  0  0  0  # atno 17320 bound_to 7965
  146.3336  140.2735  142.8607 LP  0  0  0  0  0  0  0  0  0  0  0  0  # atno 17321 bound_to 7965
  140.1322  144.5278  150.6795 LP  0  0  0  0  0  0  0  0  0  0  0  0  # atno 17342 bound_to 10162
  140.6921  143.2382  151.5103 LP  0  0  0  0  0  0  0  0  0  0  0  0  # atno 17343 bound_to 10162
  157.5579  130.8226  149.8228 LP  0  0  0  0  0  0  0  0  0  0  0  0  # atno 17370 bound_to 10713
  156.0275  130.3775  150.1781 LP  0  0  0  0  0  0  0  0  0  0  0  0  # atno 17371 bound_to 10713
  141.0770  134.0120  157.3443 LP  0  0  0  0  0  0  0  0  0  0  0  0  # atno 17394 bound_to 11000
  139.9169  135.0197  156.7916 LP  0  0  0  0  0  0  0  0  0  0  0  0  # atno 17395 bound_to 11000

$$$$
