AV-unprocessed.smi:716|AV-procd|sdf|3486|dock5
  -GOLD-   22720 0483D 1   1.00000     0.00000
 Structure written by MMmdl.
 48 50  0  0  0  0  0  0  0  0  1 V2000
  152.2166  144.6040  157.6970 C   0  0  0  0  0  0  0  0  0  0  0  0
  152.0036  143.4565  158.6866 C   0  0  0  0  0  0  0  0  0  0  0  0
  152.0668  142.2265  157.9840 O   0  0  0  0  0  0  0  0  0  0  0  0
  150.8476  141.8972  157.3291 C   0  0  2  0  0  0  0  0  0  0  0  0
  149.7589  141.4533  158.3147 C   0  0  0  0  0  0  0  0  0  0  0  0
  150.3358  140.0444  158.1714 C   0  0  1  0  0  0  0  0  0  0  0  0
  149.3013  139.0182  158.1763 N   0  0  0  0  0  0  0  0  0  0  0  0
  149.3775  137.8607  158.8478 C   0  0  0  0  0  0  0  0  0  0  0  0
  150.3211  137.5598  159.5780 O   0  0  0  0  0  0  0  0  0  0  0  0
  148.2126  136.8854  158.6565 C   0  0  0  0  0  0  0  0  0  0  0  0
  147.8544  136.2307  159.9216 N   0  0  0  0  0  0  0  0  0  0  0  0
  147.5087  137.1096  160.9351 N   0  0  0  0  0  0  0  0  0  0  0  0
  147.2158  136.6806  162.1187 C   0  0  0  0  0  0  0  0  0  0  0  0
  146.8662  137.7013  163.1606 C   0  0  0  0  0  0  0  0  0  0  0  0
  147.2378  135.2556  162.3878 C   0  0  0  0  0  0  0  0  0  0  0  0
  147.5722  134.4003  161.3981 C   0  0  0  0  0  0  0  0  0  0  0  0
  147.9169  134.8723  160.0591 C   0  0  0  0  0  0  0  0  0  0  0  0
  148.2477  134.1189  159.1436 O   0  0  0  0  0  0  0  0  0  0  0  0
  150.8558  140.4549  156.7655 C   0  0  0  0  0  0  0  0  0  0  0  0
  149.9699  140.2025  155.5372 C   0  0  0  0  0  0  0  0  0  0  0  0
  150.4653  138.9225  154.8586 C   0  0  0  0  0  0  0  0  0  0  0  0
  151.9016  138.7194  155.3445 C   0  0  0  0  0  0  0  0  0  0  0  0
  152.1929  139.8772  156.3039 C   0  0  0  0  0  0  0  0  0  0  0  0
  152.1794  145.5680  158.2047 H   0  0  0  0  0  0  0  0  0  0  0  0
  151.4477  144.6014  156.9242 H   0  0  0  0  0  0  0  0  0  0  0  0
  153.1865  144.5216  157.2061 H   0  0  0  0  0  0  0  0  0  0  0  0
  152.7660  143.4938  159.4654 H   0  0  0  0  0  0  0  0  0  0  0  0
  151.0321  143.5591  159.1720 H   0  0  0  0  0  0  0  0  0  0  0  0
  150.5278  142.6477  156.6043 H   0  0  0  0  0  0  0  0  0  0  0  0
  149.8328  141.8732  159.3179 H   0  0  0  0  0  0  0  0  0  0  0  0
  148.7522  141.5597  157.9061 H   0  0  0  0  0  0  0  0  0  0  0  0
  151.1426  139.8666  158.8867 H   0  0  0  0  0  0  0  0  0  0  0  0
  148.4894  139.1810  157.5981 H   0  0  0  0  0  0  0  0  0  0  0  0
  147.3549  137.4357  158.2654 H   0  0  0  0  0  0  0  0  0  0  0  0
  148.4619  136.1532  157.8859 H   0  0  0  0  0  0  0  0  0  0  0  0
  146.6515  137.2293  164.1195 H   0  0  0  0  0  0  0  0  0  0  0  0
  145.9858  138.2729  162.8655 H   0  0  0  0  0  0  0  0  0  0  0  0
  147.6897  138.4001  163.3103 H   0  0  0  0  0  0  0  0  0  0  0  0
  146.9869  134.8905  163.3728 H   0  0  0  0  0  0  0  0  0  0  0  0
  147.5885  133.3392  161.5994 H   0  0  0  0  0  0  0  0  0  0  0  0
  148.9082  140.1396  155.7777 H   0  0  0  0  0  0  0  0  0  0  0  0
  150.0730  141.0313  154.8358 H   0  0  0  0  0  0  0  0  0  0  0  0
  149.8539  138.0713  155.1556 H   0  0  0  0  0  0  0  0  0  0  0  0
  150.4077  138.9991  153.7725 H   0  0  0  0  0  0  0  0  0  0  0  0
  151.9859  137.7640  155.8634 H   0  0  0  0  0  0  0  0  0  0  0  0
  152.6117  138.7031  154.5171 H   0  0  0  0  0  0  0  0  0  0  0  0
  152.7639  140.6430  155.7774 H   0  0  0  0  0  0  0  0  0  0  0  0
  152.8109  139.5472  157.1397 H   0  0  0  0  0  0  0  0  0  0  0  0
  1  2  1  0  0  0  0
  1 24  1  0  0  0  0
  1 25  1  0  0  0  0
  1 26  1  0  0  0  0
  2  3  1  0  0  0  0
  2 27  1  0  0  0  0
  2 28  1  0  0  0  0
  3  4  1  0  0  0  0
  4 19  1  0  0  0  0
  4  5  1  0  0  0  0
  4 29  1  0  0  0  0
  5  6  1  0  0  0  0
  5 30  1  0  0  0  0
  5 31  1  0  0  0  0
  6  7  1  0  0  0  0
  6 19  1  0  0  0  0
  6 32  1  0  0  0  0
  7  8  1  0  0  0  0
  7 33  1  0  0  0  0
  8  9  2  0  0  0  0
  8 10  1  0  0  0  0
 10 11  1  0  0  0  0
 10 34  1  0  0  0  0
 10 35  1  0  0  0  0
 11 17  1  0  0  0  0
 11 12  1  0  0  0  0
 12 13  2  0  0  0  0
 13 14  1  0  0  0  0
 13 15  1  0  0  0  0
 14 36  1  0  0  0  0
 14 37  1  0  0  0  0
 14 38  1  0  0  0  0
 15 16  2  0  0  0  0
 15 39  1  0  0  0  0
 16 17  1  0  0  0  0
 16 40  1  0  0  0  0
 17 18  2  0  0  0  0
 19 23  1  0  0  0  0
 19 20  1  0  0  0  0
 20 21  1  0  0  0  0
 20 41  1  0  0  0  0
 20 42  1  0  0  0  0
 21 22  1  0  0  0  0
 21 43  1  0  0  0  0
 21 44  1  0  0  0  0
 22 23  1  0  0  0  0
 22 45  1  0  0  0  0
 22 46  1  0  0  0  0
 23 47  1  0  0  0  0
 23 48  1  0  0  0  0
M  END
> <s_m_source_file>
AV-unprocessed.smi

> <i_m_source_file_index>
716

> <i_lp_mmshare_version>
43012

> <i_f3d_flags>
0

> <s_epik_input>
W0NIMl0xW0NIMl1bQ0gyXVtDSDJdQzEyW0NASF0oT1tDSDJdW0NIM10pW0NIMl1bQ0BIXTJbTkhdQyg9TylbQ0gyXW4zbmMoW0NIM10pW2NIXVtjSF1jMz1P

> <s_epik_cmdline>
J2VwaWtfcHl0aG9uJywgJy1waCcsICc3LjAnLCAnLXRuJywgJzgnLCAnLW1hJywgJzIwMCcsICctbWV0YWxfYmluZGluZycsICctaW1hZScsICc8aW5maWxlLm1hZT4nLCAnLW9tYWUnLCAnPG91dGZpbGUubWFlPic=

> <r_lp_tautomer_probability>
1

> <r_epik_Ionization_Penalty>
4.75561e-08

> <r_epik_Ionization_Penalty_Charging>
2.86617e-08

> <r_epik_Ionization_Penalty_Neutral>
1.88944e-08

> <r_epik_State_Penalty>
-0

> <r_epik_Charging_Adjusted_Penalty>
2.86617e-08

> <i_epik_Tot_Q>
0

> <i_epik_Tot_abs_Q>
0

> <r_epik_Metal_State_Penalty>
-0

> <b_epik_Metal_Only>
0

> <s_lp_Force_Field>
OPLS_2005

> <r_lp_Energy>
50.4804

> <b_lp_Chiralities_Consistent>
1

> <s_lp_Variant>
AV-unprocessed.smi:716-1

> <Gold.Version>
5.8.1

> <Gold.Id.Protein>
6NUR|6NUR_protein|mol2

> <Gold.PLP.Fitness>
45.5258

> <Gold.PLP.PLP>
-42.6885

> <Gold.PLP.part.hbond>
-2.7057

> <Gold.PLP.part.metal>
0.0000

> <Gold.PLP.part.buried>
-2.6875

> <Gold.PLP.part.nonpolar>
-37.6423

> <Gold.PLP.part.repulsive>
0.1945

> <Gold.PLP.ligand.clash>
0.0000

> <Gold.PLP.ligand.torsion>
0.5738

> <Gold.PLP.Chemscore.Hbond>
1.2063

> <Gold.PLP.Chemscore.CHOScore>
0.0000

> <Gold.PLP.Chemscore.Metal>
0.0000

> <Gold.Chemscore.Hbonds>
donor molecule, donor type, donor heavy atom, donor atom, acceptor molecule, acceptor atom, score
      P1  H  6931  6943       L1    12  0.20
      P1  H  6934  6947       L1    12  1.00

> <Gold.PLP.Chemscore.Internal.Correction>
0.3659

> <Gold.Rescore>
     Score         DG    S(hbond)    S(metal)    S(lipo)     H(rot)  DE(clash)    DE(int)     intcor
     15.43     -16.24       0.71        0.00     109.67       1.73       0.30       0.51       ----

> <Gold.Chemscore.Fitness>
15.4311

> <Gold.Chemscore.DG>
-16.2393

> <Gold.Chemscore.ZeroCoef>
-5.4800

> <Gold.Chemscore.Hbond>
0.7092

> <Gold.Chemscore.Metal>
0.0000

> <Gold.Chemscore.Lipo>
109.6731

> <Gold.Chemscore.Internal_Hbond>
0.0000

> <Gold.Chemscore.DEClash>
0.3013

> <Gold.Chemscore.DEInternal>
0.5069

> <Gold.Chemscore.Rot>
1.7348

> <Gold.Chemscore.Internal.Correction>
   9.000000E+99

> <Gold.Chemscore.Hbonds>
donor molecule, donor type, donor heavy atom, donor atom, acceptor molecule, acceptor atom, score
      P1  H  6934  6947       L1    12  0.57

> <Gold.Chemscore.Hbond.Weighted>
-2.3686

> <Gold.Chemscore.Metal.Weighted>
-0.0000

> <Gold.Chemscore.Lipo.Weighted>
-12.8317

> <Gold.Chemscore.Internal_Hbond.Weighted>
0.0000

> <Gold.Chemscore.DEClash.Weighted>
0.3013

> <Gold.Chemscore.DEInternal.Weighted>
0.5069

> <Gold.Chemscore.Rot.Weighted>
4.4411

> <Gold.Chemscore.Internal.Correction.Weighted>
   9.000000E+99

> <Gold.Protein.RotatedTorsions>
[ 6907 6896 6895 6894 ] final  120.54 input  -60.11 | X-H torsion
[ 7974 7965 7964 7962 ] final  -87.09 input  175.53 | X-H torsion
[ 8008 7997 7996 7995 ] final  123.52 input   59.86 | X-H torsion
[ 10167 10162 10161 10158 ] final  127.68 input  -65.29 | X-H torsion
[ 10718 10713 10712 10709 ] final -144.12 input   66.30 | X-H torsion
[ 10763 10752 10751 10750 ] final  113.73 input  -60.55 | X-H torsion
[ 11005 11000 10999 10996 ] final   26.23 input  -57.11 | X-H torsion

> <Gold.Protein.ActiveResidues>
 VAL166  LYS551  ARG553  GLY616  TRP617  ASP618  TYR619  PRO620  LYS621  CYS622 
 ASP623  PHE694  ASN695  SER759  ASP760  ASP761  ALA762  ILE779  LEU786  VAL792 
 PHE793  MET794  SER795  GLU796  ALA797  LYS798  CYS799  TRP800  GLU811  SER814 

> <Gold.Protein.RotatedAtoms>
  152.4390  133.7414  159.6642 H   0  0  0  0  0  0  0  0  0  0  0  0  # atno 6907 bound_to 6896
  150.8278  133.8131  159.3117 H   0  0  0  0  0  0  0  0  0  0  0  0  # atno 6908 bound_to 6896
  151.5794  135.1061  160.0065 H   0  0  0  0  0  0  0  0  0  0  0  0  # atno 6909 bound_to 6896
  145.4711  140.9559  143.1916 H   0  0  0  0  0  0  0  0  0  0  0  0  # atno 7974 bound_to 7965
  156.2768  140.2761  156.1640 H   0  0  0  0  0  0  0  0  0  0  0  0  # atno 8008 bound_to 7997
  155.0724  140.0387  157.2630 H   0  0  0  0  0  0  0  0  0  0  0  0  # atno 8009 bound_to 7997
  154.7029  140.2653  155.6707 H   0  0  0  0  0  0  0  0  0  0  0  0  # atno 8010 bound_to 7997
  139.5566  144.6852  151.4166 H   0  0  0  0  0  0  0  0  0  0  0  0  # atno 10167 bound_to 10162
  156.3662  130.7764  151.1939 H   0  0  0  0  0  0  0  0  0  0  0  0  # atno 10718 bound_to 10713
  153.4968  135.3647  155.2519 H   0  0  0  0  0  0  0  0  0  0  0  0  # atno 10763 bound_to 10752
  154.8749  135.3990  154.3525 H   0  0  0  0  0  0  0  0  0  0  0  0  # atno 10764 bound_to 10752
  153.4154  135.7079  153.6396 H   0  0  0  0  0  0  0  0  0  0  0  0  # atno 10765 bound_to 10752
  140.3392  134.2351  155.7692 H   0  0  0  0  0  0  0  0  0  0  0  0  # atno 11005 bound_to 11000
  144.7944  139.6263  143.7099 LP  0  0  0  0  0  0  0  0  0  0  0  0  # atno 17320 bound_to 7965
  146.2396  139.5974  142.9500 LP  0  0  0  0  0  0  0  0  0  0  0  0  # atno 17321 bound_to 7965
  140.6839  143.8018  150.7159 LP  0  0  0  0  0  0  0  0  0  0  0  0  # atno 17342 bound_to 10162
  140.1480  143.4383  152.2150 LP  0  0  0  0  0  0  0  0  0  0  0  0  # atno 17343 bound_to 10162
  157.7479  131.0385  150.4508 LP  0  0  0  0  0  0  0  0  0  0  0  0  # atno 17370 bound_to 10713
  156.4727  130.4056  149.6508 LP  0  0  0  0  0  0  0  0  0  0  0  0  # atno 17371 bound_to 10713
  141.2043  133.7890  157.0295 LP  0  0  0  0  0  0  0  0  0  0  0  0  # atno 17394 bound_to 11000
  140.0795  134.9656  157.1601 LP  0  0  0  0  0  0  0  0  0  0  0  0  # atno 17395 bound_to 11000

$$$$
