AV-unprocessed.smi:99|AV-procd|sdf|892|dock9
  -GOLD-   2262017383D 1   1.00000     0.00000
 Structure written by MMmdl.
 52 55  0  0  0  0  0  0  0  0  2 V2000
  148.4559  131.3973  153.0607 O   0  0  0  0  0  0  0  0  0  0  0  0
  147.6738  132.3498  153.0847 C   0  0  0  0  0  0  0  0  0  0  0  0
  147.6429  133.2645  154.0720 O   0  0  0  0  0  0  0  0  0  0  0  0
  148.1634  132.9474  155.3541 C   0  0  0  0  0  0  0  0  0  0  0  0
  148.6019  134.2263  156.0806 C   0  0  1  0  0  0  0  0  0  0  0  0
  149.3888  135.0195  155.2020 O   0  0  0  0  0  0  0  0  0  0  0  0
  148.8050  136.2640  154.9730 C   0  0  2  0  0  0  0  0  0  0  0  0
  149.8383  137.3328  155.2700 N   0  0  0  0  0  0  0  0  0  0  0  0
  149.9074  138.4397  154.4423 C   0  0  0  0  0  0  0  0  0  0  0  0
  150.8238  139.4106  154.6356 C   0  0  0  0  0  0  0  0  0  0  0  0
  151.7735  139.2898  155.7372 C   0  0  0  0  0  0  0  0  0  0  0  0
  152.5951  140.1866  155.9171 O   0  0  0  0  0  0  0  0  0  0  0  0
  151.7065  138.1766  156.5223 N   0  5  0  0  0  0  0  0  0  0  0  0
  150.7865  137.1879  156.3235 C   0  0  0  0  0  0  0  0  0  0  0  0
  150.7434  136.1730  157.0161 O   0  0  0  0  0  0  0  0  0  0  0  0
  147.5365  136.4036  155.8358 C   0  0  1  0  0  0  0  0  0  0  0  0
  146.3769  136.5750  155.0470 O   0  0  0  0  0  0  0  0  0  0  0  0
  147.4344  135.0808  156.5928 C   0  0  2  0  0  0  0  0  0  0  0  0
  147.5657  135.2849  157.9945 O   0  0  0  0  0  0  0  0  0  0  0  0
  147.4804  134.2528  158.8589 C   0  0  0  0  0  0  0  0  0  0  0  0
  147.4818  133.0693  158.5137 O   0  0  0  0  0  0  0  0  0  0  0  0
  147.3816  134.6969  160.2787 C   0  0  0  0  0  0  0  0  0  0  0  0
  147.0841  133.7474  161.2839 C   0  0  0  0  0  0  0  0  0  0  0  0
  146.9826  134.1393  162.6331 C   0  0  0  0  0  0  0  0  0  0  0  0
  147.1749  135.4860  162.9927 C   0  0  0  0  0  0  0  0  0  0  0  0
  147.4686  136.4406  162.0015 C   0  0  0  0  0  0  0  0  0  0  0  0
  147.5719  136.0505  160.6521 C   0  0  0  0  0  0  0  0  0  0  0  0
  146.6577  132.6075  152.0239 C   0  0  0  0  0  0  0  0  0  0  0  0
  146.0652  133.8883  151.9280 C   0  0  0  0  0  0  0  0  0  0  0  0
  145.1046  134.1617  150.9348 C   0  0  0  0  0  0  0  0  0  0  0  0
  144.7230  133.1570  150.0272 C   0  0  0  0  0  0  0  0  0  0  0  0
  145.3039  131.8783  150.1133 C   0  0  0  0  0  0  0  0  0  0  0  0
  146.2658  131.6034  151.1047 C   0  0  0  0  0  0  0  0  0  0  0  0
  147.3991  132.4386  155.9436 H   0  0  0  0  0  0  0  0  0  0  0  0
  149.0063  132.2628  155.2518 H   0  0  0  0  0  0  0  0  0  0  0  0
  149.2476  133.9369  156.9109 H   0  0  0  0  0  0  0  0  0  0  0  0
  148.5904  136.3510  153.9068 H   0  0  0  0  0  0  0  0  0  0  0  0
  149.2130  138.5401  153.6213 H   0  0  0  0  0  0  0  0  0  0  0  0
  150.8581  140.2682  153.9799 H   0  0  0  0  0  0  0  0  0  0  0  0
  147.6188  137.2602  156.5062 H   0  0  0  0  0  0  0  0  0  0  0  0
  145.7174  135.9713  155.3538 H   0  0  0  0  0  0  0  0  0  0  0  0
  146.4894  134.5750  156.3856 H   0  0  0  0  0  0  0  0  0  0  0  0
  146.9314  132.7081  161.0311 H   0  0  0  0  0  0  0  0  0  0  0  0
  146.7561  133.4053  163.3923 H   0  0  0  0  0  0  0  0  0  0  0  0
  147.0957  135.7866  164.0271 H   0  0  0  0  0  0  0  0  0  0  0  0
  147.6134  137.4755  162.2747 H   0  0  0  0  0  0  0  0  0  0  0  0
  147.7941  136.8096  159.9159 H   0  0  0  0  0  0  0  0  0  0  0  0
  146.3420  134.6757  152.6141 H   0  0  0  0  0  0  0  0  0  0  0  0
  144.6607  135.1442  150.8698 H   0  0  0  0  0  0  0  0  0  0  0  0
  143.9859  133.3671  149.2662 H   0  0  0  0  0  0  0  0  0  0  0  0
  145.0123  131.1058  149.4172 H   0  0  0  0  0  0  0  0  0  0  0  0
  146.6908  130.6111  151.1441 H   0  0  0  0  0  0  0  0  0  0  0  0
  1  2  2  0  0  0  0
  2  3  1  0  0  0  0
  2 28  1  0  0  0  0
  3  4  1  0  0  0  0
  4  5  1  0  0  0  0
  4 34  1  0  0  0  0
  4 35  1  0  0  0  0
  5 18  1  0  0  0  0
  5  6  1  0  0  0  0
  5 36  1  0  0  0  0
  6  7  1  0  0  0  0
  7  8  1  0  0  0  0
  7 16  1  0  0  0  0
  7 37  1  0  0  0  0
  8 14  1  0  0  0  0
  8  9  1  0  0  0  0
  9 10  2  0  0  0  0
  9 38  1  0  0  0  0
 10 11  1  0  0  0  0
 10 39  1  0  0  0  0
 11 12  2  0  0  0  0
 11 13  1  0  0  0  0
 13 14  1  0  0  0  0
 14 15  2  0  0  0  0
 16 17  1  0  0  0  0
 16 18  1  0  0  0  0
 16 40  1  0  0  0  0
 17 41  1  0  0  0  0
 18 19  1  0  0  0  0
 18 42  1  0  0  0  0
 19 20  1  0  0  0  0
 20 21  2  0  0  0  0
 20 22  1  0  0  0  0
 22 27  1  0  0  0  0
 22 23  2  0  0  0  0
 23 24  1  0  0  0  0
 23 43  1  0  0  0  0
 24 25  2  0  0  0  0
 24 44  1  0  0  0  0
 25 26  1  0  0  0  0
 25 45  1  0  0  0  0
 26 27  2  0  0  0  0
 26 46  1  0  0  0  0
 27 47  1  0  0  0  0
 28 33  1  0  0  0  0
 28 29  2  0  0  0  0
 29 30  1  0  0  0  0
 29 48  1  0  0  0  0
 30 31  2  0  0  0  0
 30 49  1  0  0  0  0
 31 32  1  0  0  0  0
 31 50  1  0  0  0  0
 32 33  2  0  0  0  0
 32 51  1  0  0  0  0
 33 52  1  0  0  0  0
M  CHG  1  13  -1
M  END
> <s_m_source_file>
AV-unprocessed.smi

> <i_m_source_file_index>
99

> <i_lp_mmshare_version>
43012

> <i_f3d_flags>
0

> <s_epik_input>
W2NIXTFbY0hdW2NIXVtjSF1bY0hdYzFDKD1PKU9bQ0gyXVtDQEBIXTJPW0NAQEhdKG4zW2NIXVtjSF1jKD1PKVtuSF1jMz1PKVtDQEBIXShbT0hdKVtDQEhdMk9DKD1PKWM0W2NIXVtjSF1bY0hdW2NIXVtjSF00

> <s_epik_cmdline>
J2VwaWtfcHl0aG9uJywgJy1waCcsICc3LjAnLCAnLXRuJywgJzgnLCAnLW1hJywgJzIwMCcsICctbWV0YWxfYmluZGluZycsICctaW1hZScsICc8aW5maWxlLm1hZT4nLCAnLW9tYWUnLCAnPG91dGZpbGUubWFlPic=

> <r_lp_tautomer_probability>
1

> <r_epik_Ionization_Penalty>
2.89159

> <r_epik_Ionization_Penalty_Charging>
2.1077e-08

> <r_epik_Ionization_Penalty_Neutral>
2.89159

> <r_epik_State_Penalty>
2.88671

> <r_epik_Charging_Adjusted_Penalty>
2.88671

> <i_epik_Tot_Q>
-1

> <i_epik_Tot_abs_Q>
1

> <r_epik_Metal_State_Penalty>
0.0727308

> <b_epik_Metal_Only>
1

> <s_epik_Chemistry_Notes>
This compound has an ester and may undergo hydrolysis at high or low pH. This compound contains an acetal/aminal-like group ( X-CH(R)-Y where X, Y are N, S, or O) that may be acid/base labile, releasing an aldehyde.

> <s_lp_Force_Field>
OPLS_2005

> <r_lp_Energy>
36.8261

> <b_lp_Chiralities_Consistent>
1

> <s_lp_Variant>
AV-unprocessed.smi:99-28

> <Gold.Version>
5.8.1

> <Gold.Id.Protein>
6NUR|6NUR_protein|mol2

> <Gold.PLP.Fitness>
52.4719

> <Gold.PLP.PLP>
-49.4421

> <Gold.PLP.part.hbond>
-2.1299

> <Gold.PLP.part.metal>
0.0000

> <Gold.PLP.part.buried>
-7.0251

> <Gold.PLP.part.nonpolar>
-42.5542

> <Gold.PLP.part.repulsive>
0.3534

> <Gold.PLP.ligand.clash>
0.0000

> <Gold.PLP.ligand.torsion>
1.4781

> <Gold.PLP.Chemscore.Hbond>
0.9238

> <Gold.PLP.Chemscore.CHOScore>
1.0047

> <Gold.PLP.Chemscore.Metal>
0.0000

> <Gold.Chemscore.Hbonds>
donor molecule, donor type, donor heavy atom, donor atom, acceptor molecule, acceptor atom, score
      P1  H  7997  8009       L1    12  1.00
      L1  C     9    38       P1  7948  0.08
      L1  C     9    38       P1  7957  0.07

> <Gold.PLP.Chemscore.Internal.Correction>
0.2006

> <Gold.Rescore>
     Score         DG    S(hbond)    S(metal)    S(lipo)     H(rot)  DE(clash)    DE(int)     intcor
     11.31     -13.72       0.84        0.00     115.14       3.13       0.15       2.26       ----

> <Gold.Chemscore.Fitness>
11.3129

> <Gold.Chemscore.DG>
-13.7233

> <Gold.Chemscore.ZeroCoef>
-5.4800

> <Gold.Chemscore.Hbond>
0.8372

> <Gold.Chemscore.Metal>
0.0000

> <Gold.Chemscore.Lipo>
115.1422

> <Gold.Chemscore.Internal_Hbond>
0.0000

> <Gold.Chemscore.DEClash>
0.1471

> <Gold.Chemscore.DEInternal>
2.2633

> <Gold.Chemscore.Rot>
3.1346

> <Gold.Chemscore.Internal.Correction>
   9.000000E+99

> <Gold.Chemscore.Hbonds>
donor molecule, donor type, donor heavy atom, donor atom, acceptor molecule, acceptor atom, score
      P1  H  7997  8009       L1    12  0.99

> <Gold.Chemscore.Hbond.Weighted>
-2.7962

> <Gold.Chemscore.Metal.Weighted>
-0.0000

> <Gold.Chemscore.Lipo.Weighted>
-13.4716

> <Gold.Chemscore.Internal_Hbond.Weighted>
0.0000

> <Gold.Chemscore.DEClash.Weighted>
0.1471

> <Gold.Chemscore.DEInternal.Weighted>
2.2633

> <Gold.Chemscore.Rot.Weighted>
8.0246

> <Gold.Chemscore.Internal.Correction.Weighted>
   9.000000E+99

> <Gold.Protein.RotatedTorsions>
[ 6907 6896 6895 6894 ] final  160.22 input  -60.11 | X-H torsion
[ 7974 7965 7964 7962 ] final  -58.71 input  175.53 | X-H torsion
[ 8008 7997 7996 7995 ] final -156.07 input   59.86 | X-H torsion
[ 10167 10162 10161 10158 ] final   76.98 input  -65.29 | X-H torsion
[ 10718 10713 10712 10709 ] final -138.10 input   66.30 | X-H torsion
[ 10763 10752 10751 10750 ] final   -6.24 input  -60.55 | X-H torsion
[ 11005 11000 10999 10996 ] final   86.07 input  -57.11 | X-H torsion

> <Gold.Protein.ActiveResidues>
 VAL166  LYS551  ARG553  GLY616  TRP617  ASP618  TYR619  PRO620  LYS621  CYS622 
 ASP623  PHE694  ASN695  SER759  ASP760  ASP761  ALA762  ILE779  LEU786  VAL792 
 PHE793  MET794  SER795  GLU796  ALA797  LYS798  CYS799  TRP800  GLU811  SER814 

> <Gold.Protein.RotatedAtoms>
  151.9738  133.3735  159.4081 H   0  0  0  0  0  0  0  0  0  0  0  0  # atno 6907 bound_to 6896
  150.6945  134.4111  159.5171 H   0  0  0  0  0  0  0  0  0  0  0  0  # atno 6908 bound_to 6896
  152.1819  134.8746  160.0576 H   0  0  0  0  0  0  0  0  0  0  0  0  # atno 6909 bound_to 6896
  145.8361  140.8448  143.0058 H   0  0  0  0  0  0  0  0  0  0  0  0  # atno 7974 bound_to 7965
  155.7116  140.0779  157.2369 H   0  0  0  0  0  0  0  0  0  0  0  0  # atno 8008 bound_to 7997
  154.4058  140.1629  156.2356 H   0  0  0  0  0  0  0  0  0  0  0  0  # atno 8009 bound_to 7997
  155.9277  140.3393  155.6227 H   0  0  0  0  0  0  0  0  0  0  0  0  # atno 8010 bound_to 7997
  139.9865  144.5788  150.7855 H   0  0  0  0  0  0  0  0  0  0  0  0  # atno 10167 bound_to 10162
  156.2956  130.7399  151.1437 H   0  0  0  0  0  0  0  0  0  0  0  0  # atno 10718 bound_to 10713
  153.4097  135.7007  153.6368 H   0  0  0  0  0  0  0  0  0  0  0  0  # atno 10763 bound_to 10752
  153.4867  135.3681  155.2471 H   0  0  0  0  0  0  0  0  0  0  0  0  # atno 10764 bound_to 10752
  154.8716  135.4079  154.3446 H   0  0  0  0  0  0  0  0  0  0  0  0  # atno 10765 bound_to 10752
  139.8954  134.8330  156.2669 H   0  0  0  0  0  0  0  0  0  0  0  0  # atno 11005 bound_to 11000
  144.6736  140.0743  143.7472 LP  0  0  0  0  0  0  0  0  0  0  0  0  # atno 17320 bound_to 7965
  145.9517  139.2738  143.1208 LP  0  0  0  0  0  0  0  0  0  0  0  0  # atno 17321 bound_to 7965
  140.7470  143.2900  151.3357 LP  0  0  0  0  0  0  0  0  0  0  0  0  # atno 17342 bound_to 10162
  139.6371  144.0609  152.2525 LP  0  0  0  0  0  0  0  0  0  0  0  0  # atno 17343 bound_to 10162
  157.7354  131.0572  150.5470 LP  0  0  0  0  0  0  0  0  0  0  0  0  # atno 17370 bound_to 10713
  156.5592  130.4251  149.6071 LP  0  0  0  0  0  0  0  0  0  0  0  0  # atno 17371 bound_to 10713
  141.0126  133.7087  156.1136 LP  0  0  0  0  0  0  0  0  0  0  0  0  # atno 17394 bound_to 11000
  140.7346  134.4217  157.5562 LP  0  0  0  0  0  0  0  0  0  0  0  0  # atno 17395 bound_to 11000

$$$$
