AV-unprocessed.smi:1157|AV-procd|sdf|4909|dock3
  -GOLD-   22720 3483D 1   1.00000     0.00000
 Structure written by MMmdl.
 56 58  0  0  0  0  0  0  0  0  3 V2000
  144.2313  136.8488  152.6253 C   0  0  0  0  0  0  0  0  0  0  0  0
  145.6794  136.7031  152.0858 C   0  0  0  0  0  0  0  0  0  0  0  0
  145.6180  135.8841  150.7734 C   0  0  0  0  0  0  0  0  0  0  0  0
  146.2393  138.1295  151.7940 C   0  0  0  0  0  0  0  0  0  0  0  0
  147.5437  138.3957  152.4019 N   0  0  0  0  0  0  0  0  0  0  0  0
  147.7838  139.2975  153.3648 C   0  0  0  0  0  0  0  0  0  0  0  0
  146.9179  140.0337  153.8370 O   0  0  0  0  0  0  0  0  0  0  0  0
  149.0814  139.3041  153.7152 N   0  0  0  0  0  0  0  0  0  0  0  0
  149.7222  140.1014  154.7016 C   0  0  0  0  0  0  0  0  0  0  0  0
  150.8569  139.6857  155.4408 C   0  0  0  0  0  0  0  0  0  0  0  0
  151.4301  140.5611  156.3861 C   0  0  0  0  0  0  0  0  0  0  0  0
  150.8720  141.8460  156.5839 C   0  0  0  0  0  0  0  0  0  0  0  0
  151.3955  142.7706  157.5074 N   0  0  0  0  0  0  0  0  0  0  0  0
  152.2577  142.3503  158.6006 C   0  0  0  0  0  0  0  0  0  0  0  0
  152.7322  143.6541  159.2404 C   0  0  0  0  0  0  0  0  0  0  0  0
  152.7976  144.6176  158.0550 C   0  0  0  0  0  0  0  0  0  0  0  0
  151.6692  144.1498  157.1281 C   0  0  0  0  0  0  0  0  0  0  0  0
  149.7989  142.2057  155.8397 N   0  3  0  0  0  0  0  0  0  0  0  0
  149.2198  141.3996  154.9241 C   0  0  0  0  0  0  0  0  0  0  0  0
  146.5659  136.0338  153.1101 N   0  3  0  0  0  0  0  0  0  0  0  0
  146.4634  136.5474  154.5074 C   0  0  0  0  0  0  0  0  0  0  0  0
  147.5150  135.8874  155.4169 C   0  0  0  0  0  0  0  0  0  0  0  0
  147.3763  134.4750  155.3793 O   0  0  0  0  0  0  0  0  0  0  0  0
  147.5821  133.9678  154.0696 C   0  0  0  0  0  0  0  0  0  0  0  0
  146.5123  134.5428  153.1280 C   0  0  0  0  0  0  0  0  0  0  0  0
  143.5915  137.4078  151.9433 H   0  0  0  0  0  0  0  0  0  0  0  0
  144.2125  137.3668  153.5850 H   0  0  0  0  0  0  0  0  0  0  0  0
  143.7353  135.8861  152.7472 H   0  0  0  0  0  0  0  0  0  0  0  0
  144.9001  136.3115  150.0726 H   0  0  0  0  0  0  0  0  0  0  0  0
  145.3087  134.8543  150.9516 H   0  0  0  0  0  0  0  0  0  0  0  0
  146.5789  135.8590  150.2590 H   0  0  0  0  0  0  0  0  0  0  0  0
  146.2685  138.3042  150.7170 H   0  0  0  0  0  0  0  0  0  0  0  0
  145.5851  138.8987  152.1996 H   0  0  0  0  0  0  0  0  0  0  0  0
  148.3191  137.8418  152.0678 H   0  0  0  0  0  0  0  0  0  0  0  0
  149.6916  138.7074  153.1759 H   0  0  0  0  0  0  0  0  0  0  0  0
  151.3108  138.7181  155.2916 H   0  0  0  0  0  0  0  0  0  0  0  0
  152.2988  140.2383  156.9405 H   0  0  0  0  0  0  0  0  0  0  0  0
  151.7263  141.7207  159.3150 H   0  0  0  0  0  0  0  0  0  0  0  0
  153.1031  141.7872  158.2024 H   0  0  0  0  0  0  0  0  0  0  0  0
  151.9907  144.0050  159.9596 H   0  0  0  0  0  0  0  0  0  0  0  0
  153.6847  143.5502  159.7608 H   0  0  0  0  0  0  0  0  0  0  0  0
  152.6969  145.6625  158.3496 H   0  0  0  0  0  0  0  0  0  0  0  0
  153.7569  144.5044  157.5481 H   0  0  0  0  0  0  0  0  0  0  0  0
  151.9627  144.2413  156.0817 H   0  0  0  0  0  0  0  0  0  0  0  0
  150.7682  144.7436  157.2857 H   0  0  0  0  0  0  0  0  0  0  0  0
  148.3700  141.8174  154.4037 H   0  0  0  0  0  0  0  0  0  0  0  0
  146.6401  137.6203  154.5566 H   0  0  0  0  0  0  0  0  0  0  0  0
  145.4635  136.3633  154.9020 H   0  0  0  0  0  0  0  0  0  0  0  0
  148.5239  136.1730  155.1148 H   0  0  0  0  0  0  0  0  0  0  0  0
  147.3856  136.2254  156.4453 H   0  0  0  0  0  0  0  0  0  0  0  0
  148.5866  134.2112  153.7189 H   0  0  0  0  0  0  0  0  0  0  0  0
  147.5103  132.8805  154.0991 H   0  0  0  0  0  0  0  0  0  0  0  0
  145.5310  134.2051  153.4624 H   0  0  0  0  0  0  0  0  0  0  0  0
  146.6765  134.1191  152.1400 H   0  0  0  0  0  0  0  0  0  0  0  0
  147.5060  136.2655  152.8217 H   0  0  0  0  0  0  0  0  0  0  0  0
  149.4058  143.1369  155.9779 H   0  0  0  0  0  0  0  0  0  0  0  0
  1  2  1  0  0  0  0
  1 26  1  0  0  0  0
  1 27  1  0  0  0  0
  1 28  1  0  0  0  0
  2  3  1  0  0  0  0
  2  4  1  0  0  0  0
  2 20  1  0  0  0  0
  3 29  1  0  0  0  0
  3 30  1  0  0  0  0
  3 31  1  0  0  0  0
  4  5  1  0  0  0  0
  4 32  1  0  0  0  0
  4 33  1  0  0  0  0
  5  6  1  0  0  0  0
  5 34  1  0  0  0  0
  6  7  2  0  0  0  0
  6  8  1  0  0  0  0
  8  9  1  0  0  0  0
  8 35  1  0  0  0  0
  9 19  1  0  0  0  0
  9 10  2  0  0  0  0
 10 11  1  0  0  0  0
 10 36  1  0  0  0  0
 11 12  2  0  0  0  0
 11 37  1  0  0  0  0
 12 13  1  0  0  0  0
 12 18  1  0  0  0  0
 13 17  1  0  0  0  0
 13 14  1  0  0  0  0
 14 15  1  0  0  0  0
 14 38  1  0  0  0  0
 14 39  1  0  0  0  0
 15 16  1  0  0  0  0
 15 40  1  0  0  0  0
 15 41  1  0  0  0  0
 16 17  1  0  0  0  0
 16 42  1  0  0  0  0
 16 43  1  0  0  0  0
 17 44  1  0  0  0  0
 17 45  1  0  0  0  0
 18 19  2  0  0  0  0
 18 56  1  0  0  0  0
 19 46  1  0  0  0  0
 20 25  1  0  0  0  0
 20 21  1  0  0  0  0
 20 55  1  0  0  0  0
 21 22  1  0  0  0  0
 21 47  1  0  0  0  0
 21 48  1  0  0  0  0
 22 23  1  0  0  0  0
 22 49  1  0  0  0  0
 22 50  1  0  0  0  0
 23 24  1  0  0  0  0
 24 25  1  0  0  0  0
 24 51  1  0  0  0  0
 24 52  1  0  0  0  0
 25 53  1  0  0  0  0
 25 54  1  0  0  0  0
M  CHG  1  18   1
M  CHG  1  20   1
M  END
> <s_m_source_file>
AV-unprocessed.smi

> <i_m_source_file_index>
1157

> <i_lp_mmshare_version>
43012

> <i_f3d_flags>
0

> <s_epik_input>
W0NIMl0xW0NIMl1PW0NIMl1bQ0gyXU4xQyhbQ0gzXSkoW0NIM10pW0NIMl1bTkhdQyg9TylbTkhdYzJbY0hdW2NIXWMobltjSF0yKU4zW0NIMl1bQ0gyXVtDSDJdW0NIMl0z

> <s_epik_cmdline>
J2VwaWtfcHl0aG9uJywgJy1waCcsICc3LjAnLCAnLXRuJywgJzgnLCAnLW1hJywgJzIwMCcsICctbWV0YWxfYmluZGluZycsICctaW1hZScsICc8aW5maWxlLm1hZT4nLCAnLW9tYWUnLCAnPG91dGZpbGUubWFlPic=

> <r_lp_tautomer_probability>
0.999994

> <r_epik_Ionization_Penalty>
1.80144

> <r_epik_Ionization_Penalty_Charging>
1.80142

> <r_epik_Ionization_Penalty_Neutral>
2.04065e-05

> <r_epik_State_Penalty>
1.84115

> <r_epik_Charging_Adjusted_Penalty>
3.64257

> <i_epik_Tot_Q>
2

> <i_epik_Tot_abs_Q>
2

> <r_epik_Metal_State_Penalty>
1.92436

> <b_epik_Metal_Only>
0

> <s_lp_Force_Field>
OPLS_2005

> <r_lp_Energy>
58.4852

> <b_lp_Chiralities_Consistent>
1

> <s_lp_Variant>
AV-unprocessed.smi:1157-4

> <Gold.Version>
5.8.1

> <Gold.Id.Protein>
6NUR|6NUR_protein|mol2

> <Gold.PLP.Fitness>
60.0526

> <Gold.PLP.PLP>
-49.5574

> <Gold.PLP.part.hbond>
-5.0000

> <Gold.PLP.part.metal>
0.0000

> <Gold.PLP.part.buried>
-2.3966

> <Gold.PLP.part.nonpolar>
-43.9992

> <Gold.PLP.part.repulsive>
0.4865

> <Gold.PLP.ligand.clash>
0.0000

> <Gold.PLP.ligand.torsion>
2.2939

> <Gold.PLP.Chemscore.Hbond>
4.9154

> <Gold.PLP.Chemscore.CHOScore>
0.0000

> <Gold.PLP.Chemscore.Metal>
0.0000

> <Gold.Chemscore.Hbonds>
donor molecule, donor type, donor heavy atom, donor atom, acceptor molecule, acceptor atom, score
      L1  H     5    34       P1  7948  0.94
      L1  H    18    56       P1  8028  2.00
      L1  H    20    55       P1  7948  2.00

> <Gold.PLP.Chemscore.Internal.Correction>
0.3368

> <Gold.Rescore>
     Score         DG    S(hbond)    S(metal)    S(lipo)     H(rot)  DE(clash)    DE(int)     intcor
     20.42     -24.76       2.92        0.00     113.07       1.45       0.09       4.25       ----

> <Gold.Chemscore.Fitness>
20.4220

> <Gold.Chemscore.DG>
-24.7611

> <Gold.Chemscore.ZeroCoef>
-5.4800

> <Gold.Chemscore.Hbond>
2.9201

> <Gold.Chemscore.Metal>
0.0000

> <Gold.Chemscore.Lipo>
113.0686

> <Gold.Chemscore.Internal_Hbond>
0.0000

> <Gold.Chemscore.DEClash>
0.0925

> <Gold.Chemscore.DEInternal>
4.2466

> <Gold.Chemscore.Rot>
1.4458

> <Gold.Chemscore.Internal.Correction>
   9.000000E+99

> <Gold.Chemscore.Hbonds>
donor molecule, donor type, donor heavy atom, donor atom, acceptor molecule, acceptor atom, score
      L1  H     5    34       P1  7948  0.91
      L1  H    18    56       P1  8028  1.00
      L1  H    20    55       P1  7948  0.99

> <Gold.Chemscore.Hbond.Weighted>
-9.7533

> <Gold.Chemscore.Metal.Weighted>
-0.0000

> <Gold.Chemscore.Lipo.Weighted>
-13.2290

> <Gold.Chemscore.Internal_Hbond.Weighted>
0.0000

> <Gold.Chemscore.DEClash.Weighted>
0.0925

> <Gold.Chemscore.DEInternal.Weighted>
4.2466

> <Gold.Chemscore.Rot.Weighted>
3.7012

> <Gold.Chemscore.Internal.Correction.Weighted>
   9.000000E+99

> <Gold.Protein.RotatedTorsions>
[ 6907 6896 6895 6894 ] final  132.13 input  -60.11 | X-H torsion
[ 7974 7965 7964 7962 ] final   76.05 input  175.53 | X-H torsion
[ 8008 7997 7996 7995 ] final  -50.43 input   59.86 | X-H torsion
[ 10167 10162 10161 10158 ] final -117.15 input  -65.29 | X-H torsion
[ 10718 10713 10712 10709 ] final  -31.00 input   66.30 | X-H torsion
[ 10763 10752 10751 10750 ] final -130.96 input  -60.55 | X-H torsion
[ 11005 11000 10999 10996 ] final    6.17 input  -57.11 | X-H torsion

> <Gold.Protein.ActiveResidues>
 VAL166  LYS551  ARG553  GLY616  TRP617  ASP618  TYR619  PRO620  LYS621  CYS622 
 ASP623  PHE694  ASN695  SER759  ASP760  ASP761  ALA762  ILE779  LEU786  VAL792 
 PHE793  MET794  SER795  GLU796  ALA797  LYS798  CYS799  TRP800  GLU811  SER814 

> <Gold.Protein.RotatedAtoms>
  152.3356  133.6007  159.5839 H   0  0  0  0  0  0  0  0  0  0  0  0  # atno 6907 bound_to 6896
  150.7448  133.9801  159.3582 H   0  0  0  0  0  0  0  0  0  0  0  0  # atno 6908 bound_to 6896
  151.7671  135.0796  160.0405 H   0  0  0  0  0  0  0  0  0  0  0  0  # atno 6909 bound_to 6896
  145.7078  139.2604  143.1668 H   0  0  0  0  0  0  0  0  0  0  0  0  # atno 7974 bound_to 7965
  154.4062  140.1272  156.4665 H   0  0  0  0  0  0  0  0  0  0  0  0  # atno 8008 bound_to 7997
  155.7221  140.3492  155.5001 H   0  0  0  0  0  0  0  0  0  0  0  0  # atno 8009 bound_to 7997
  155.9204  140.1051  157.1201 H   0  0  0  0  0  0  0  0  0  0  0  0  # atno 8010 bound_to 7997
  140.0714  143.4873  152.1977 H   0  0  0  0  0  0  0  0  0  0  0  0  # atno 10167 bound_to 10162
  156.3928  130.4376  149.7382 H   0  0  0  0  0  0  0  0  0  0  0  0  # atno 10718 bound_to 10713
  154.8753  135.3845  154.4168 H   0  0  0  0  0  0  0  0  0  0  0  0  # atno 10763 bound_to 10752
  153.4876  135.7030  153.5907 H   0  0  0  0  0  0  0  0  0  0  0  0  # atno 10764 bound_to 10752
  153.4295  135.3882  155.2129 H   0  0  0  0  0  0  0  0  0  0  0  0  # atno 10765 bound_to 10752
  140.5624  134.0179  155.7977 H   0  0  0  0  0  0  0  0  0  0  0  0  # atno 11005 bound_to 11000
  146.0740  140.7838  142.9674 LP  0  0  0  0  0  0  0  0  0  0  0  0  # atno 17320 bound_to 7965
  144.6950  140.3386  143.7203 LP  0  0  0  0  0  0  0  0  0  0  0  0  # atno 17321 bound_to 7965
  139.5833  144.7520  151.3583 LP  0  0  0  0  0  0  0  0  0  0  0  0  # atno 17342 bound_to 10162
  140.7123  143.7357  150.7590 LP  0  0  0  0  0  0  0  0  0  0  0  0  # atno 17343 bound_to 10162
  156.4429  130.7869  151.2891 LP  0  0  0  0  0  0  0  0  0  0  0  0  # atno 17370 bound_to 10713
  157.7500  131.0119  150.3365 LP  0  0  0  0  0  0  0  0  0  0  0  0  # atno 17371 bound_to 10713
  141.1106  133.9622  157.2917 LP  0  0  0  0  0  0  0  0  0  0  0  0  # atno 17394 bound_to 11000
  139.9401  135.0192  156.8681 LP  0  0  0  0  0  0  0  0  0  0  0  0  # atno 17395 bound_to 11000

$$$$
