#       Name:                AV-unprocessed.smi:1994
#       Creating user name   scv26
#       Creation time:       Fri Mar 27 10:28:34 2020


#       File generated by GOLD software.
#

@<TRIPOS>MOLECULE
AV-unprocessed.smi:1994
    44    46     1
SMALL
NO_CHARGES


@<TRIPOS>ATOM
      1 ****        -1.1917   1.9083   2.4579 C.3            1 S1                 0.0000
      2 ****        -1.3590   2.3821   1.0531 C.2            1 S1                 0.0000
      3 ****        -1.8220   3.6045   0.6683 N.pl3          1 S1                 1.0000
      4 ****        -1.8434   3.6841  -0.7249 C.ar           1 S1                 0.0000
      5 ****        -2.2323   4.7177  -1.5714 C.ar           1 S1                 0.0000
      6 ****        -2.1295   4.4741  -2.9566 C.ar           1 S1                 0.0000
      7 ****        -1.6532   3.2428  -3.4518 C.ar           1 S1                 0.0000
      8 ****        -1.2606   2.2025  -2.5837 C.ar           1 S1                 0.0000
      9 ****        -1.3685   2.4496  -1.2149 C.ar           1 S1                 0.0000
     10 ****        -1.0818   1.6784  -0.0815 N.pl3          1 S1                 0.0000
     11 ****        -0.5627   0.3098  -0.2362 C.3            1 S1                 0.0000
     12 ****         0.9734   0.2390  -0.1294 C.3            1 S1                 0.0000
     13 ****         1.5658   1.0082  -1.1566 O.3            1 S1                 0.0000
     14 ****         1.5029  -1.1990  -0.2266 C.3            1 S1                 0.0000
     15 ****         1.0838  -1.9188   0.9252 O.3            1 S1                 0.0000
     16 ****         1.4475  -3.2438   1.0386 C.ar           1 S1                 0.0000
     17 ****         2.2304  -3.9385   0.0816 C.ar           1 S1                 0.0000
     18 ****         2.5584  -5.2943   0.2771 C.ar           1 S1                 0.0000
     19 ****         2.1104  -5.9715   1.4262 C.ar           1 S1                 0.0000
     20 ****         1.3323  -5.2909   2.3805 C.ar           1 S1                 0.0000
     21 ****         1.0037  -3.9351   2.1864 C.ar           1 S1                 0.0000
     22 ****         0.2536  -3.2912   3.1125 F              1 S1                 0.0000
     23 ****        -1.4639   2.6939   3.1633 H              1 S1                 0.0000
     24 ****        -0.1553   1.6239   2.6395 H              1 S1                 0.0000
     25 ****        -1.8281   1.0422   2.6406 H              1 S1                 0.0000
     26 ****        -2.5959   5.6623  -1.1939 H              1 S1                 0.0000
     27 ****        -2.4208   5.2473  -3.6531 H              1 S1                 0.0000
     28 ****        -1.5870   3.0930  -4.5199 H              1 S1                 0.0000
     29 ****        -0.8929   1.2659  -2.9761 H              1 S1                 0.0000
     30 ****        -1.0182  -0.2949   0.5488 H              1 S1                 0.0000
     31 ****        -0.9145  -0.1091  -1.1789 H              1 S1                 0.0000
     32 ****         1.2934   0.6664   0.8217 H              1 S1                 0.0000
     33 ****         1.3025   1.9088  -1.0451 H              1 S1                 0.0000
     34 ****         1.1355  -1.6748  -1.1378 H              1 S1                 0.0000
     35 ****         2.5936  -1.1848  -0.2663 H              1 S1                 0.0000
     36 ****         2.5933  -3.4536  -0.8118 H              1 S1                 0.0000
     37 ****         3.1557  -5.8156  -0.4565 H              1 S1                 0.0000
     38 ****         2.3632  -7.0107   1.5754 H              1 S1                 0.0000
     39 ****         0.9867  -5.8086   3.2632 H              1 S1                 0.0000
     40 ****        -2.1039   4.3305   1.3145 H              1 S1                 0.0000
     41 ****         1.2589   0.6746  -2.0480 LP             1 S1                 0.0000
     42 ****         2.5617   0.9381  -1.0994 LP             1 S1                 0.0000
     43 ****         0.0847  -1.8834   0.9486 LP             1 S1                 0.0000
     44 ****         1.4530  -1.4416   1.7226 LP             1 S1                 0.0000
@<TRIPOS>BOND
    1    1    2 1     
    2    1   23 1     
    3    1   24 1     
    4    1   25 1     
    5    2   10 1     
    6    2    3 2     
    7    3    4 1     
    8    3   40 1     
    9    4    9 ar    
   10    4    5 ar    
   11    5    6 ar    
   12    5   26 1     
   13    6    7 ar    
   14    6   27 1     
   15    7    8 ar    
   16    7   28 1     
   17    8    9 ar    
   18    8   29 1     
   19    9   10 1     
   20   10   11 1     
   21   11   12 1     
   22   11   30 1     
   23   11   31 1     
   24   12   13 1     
   25   12   14 1     
   26   12   32 1     
   27   13   33 1     
   28   14   15 1     
   29   14   34 1     
   30   14   35 1     
   31   15   16 1     
   32   16   21 ar    
   33   16   17 ar    
   34   17   18 ar    
   35   17   36 1     
   36   18   19 ar    
   37   18   37 1     
   38   19   20 ar    
   39   19   38 1     
   40   20   21 ar    
   41   20   39 1     
   42   21   22 1     
   43   13   41 1     
   44   13   42 1     
   45   15   43 1     
   46   15   44 1     
@<TRIPOS>SUBSTRUCTURE
      1 S1             1
@<TRIPOS>SET
LONE_PAIRS      STATIC     ATOMS    <user>   **** ""
4 41 42 43 44
DONOR_HYDROGENS      STATIC     ATOMS    <user>   **** ""
2 40 33
ATOM$BLUE        STATIC     ATOMS    COLORGROUP SYSTEM
4 41 42 43 44
ATOM$RED        STATIC     ATOMS    COLORGROUP SYSTEM
2 40 33
