AV-unprocessed.smi:1853|AV-procd|sdf|7527|dock8
  -GOLD-   22720 9233D 1   1.00000     0.00000
 Structure written by MMmdl.
 42 44  0  0  0  0  0  0  0  0  1 V2000
  150.9776  144.3182  158.7961 C   0  0  0  0  0  0  0  0  0  0  0  0
  151.8533  143.6428  159.8313 C   0  0  0  0  0  0  0  0  0  0  0  0
  152.6867  142.5663  159.4685 C   0  0  0  0  0  0  0  0  0  0  0  0
  153.5000  141.9459  160.4362 C   0  0  0  0  0  0  0  0  0  0  0  0
  153.4969  142.3888  161.7749 C   0  0  0  0  0  0  0  0  0  0  0  0
  154.3250  141.7257  162.6550 O   0  0  0  0  0  0  0  0  0  0  0  0
  154.6136  140.3584  162.4017 C   0  0  0  0  0  0  0  0  0  0  0  0
  155.9973  140.0346  162.9775 C   0  0  0  0  0  0  0  0  0  0  0  0
  156.0004  140.0806  164.4316 N   0  0  0  0  0  0  0  0  0  0  0  0
  156.1230  139.0541  165.3125 C   0  0  0  0  0  0  0  0  0  0  0  0
  156.2785  137.6229  164.8668 C   0  0  0  0  0  0  0  0  0  0  0  0
  155.0795  136.8581  165.2004 N   0  0  0  0  0  0  0  0  0  0  0  0
  154.0381  136.6600  164.3795 C   0  0  0  0  0  0  0  0  0  0  0  0
  153.9617  137.0984  163.2329 O   0  0  0  0  0  0  0  0  0  0  0  0
  156.1162  139.4007  166.6028 N   0  0  0  0  0  0  0  0  0  0  0  0
  155.9484  140.7700  166.5535 C   0  0  0  0  0  0  0  0  0  0  0  0
  155.8509  141.7218  167.5939 C   0  0  0  0  0  0  0  0  0  0  0  0
  155.6795  143.0897  167.2960 C   0  0  0  0  0  0  0  0  0  0  0  0
  155.6029  143.5242  165.9569 C   0  0  0  0  0  0  0  0  0  0  0  0
  155.6985  142.5921  164.9058 C   0  0  0  0  0  0  0  0  0  0  0  0
  155.8702  141.2277  165.2084 C   0  0  0  0  0  0  0  0  0  0  0  0
  152.6562  143.4731  162.1331 C   0  0  0  0  0  0  0  0  0  0  0  0
  151.8418  144.0936  161.1658 C   0  0  0  0  0  0  0  0  0  0  0  0
  150.8747  143.7017  157.9026 H   0  0  0  0  0  0  0  0  0  0  0  0
  151.4105  145.2753  158.5044 H   0  0  0  0  0  0  0  0  0  0  0  0
  149.9807  144.4998  159.1984 H   0  0  0  0  0  0  0  0  0  0  0  0
  152.7070  142.2126  158.4482 H   0  0  0  0  0  0  0  0  0  0  0  0
  154.1355  141.1218  160.1470 H   0  0  0  0  0  0  0  0  0  0  0  0
  153.8607  139.7226  162.8710 H   0  0  0  0  0  0  0  0  0  0  0  0
  154.6030  140.1658  161.3290 H   0  0  0  0  0  0  0  0  0  0  0  0
  156.3425  139.0567  162.6422 H   0  0  0  0  0  0  0  0  0  0  0  0
  156.7283  140.7544  162.6080 H   0  0  0  0  0  0  0  0  0  0  0  0
  156.4722  137.5506  163.7971 H   0  0  0  0  0  0  0  0  0  0  0  0
  157.1352  137.1855  165.3794 H   0  0  0  0  0  0  0  0  0  0  0  0
  155.0367  136.4603  166.1274 H   0  0  0  0  0  0  0  0  0  0  0  0
  153.2612  136.0545  164.8710 H   0  0  0  0  0  0  0  0  0  0  0  0
  155.9072  141.3993  168.6231 H   0  0  0  0  0  0  0  0  0  0  0  0
  155.6059  143.8089  168.0987 H   0  0  0  0  0  0  0  0  0  0  0  0
  155.4708  144.5735  165.7370 H   0  0  0  0  0  0  0  0  0  0  0  0
  155.6394  142.9228  163.8796 H   0  0  0  0  0  0  0  0  0  0  0  0
  152.6170  143.8491  163.1443 H   0  0  0  0  0  0  0  0  0  0  0  0
  151.2069  144.9192  161.4527 H   0  0  0  0  0  0  0  0  0  0  0  0
  1  2  1  0  0  0  0
  1 24  1  0  0  0  0
  1 25  1  0  0  0  0
  1 26  1  0  0  0  0
  2 23  1  0  0  0  0
  2  3  2  0  0  0  0
  3  4  1  0  0  0  0
  3 27  1  0  0  0  0
  4  5  2  0  0  0  0
  4 28  1  0  0  0  0
  5  6  1  0  0  0  0
  5 22  1  0  0  0  0
  6  7  1  0  0  0  0
  7  8  1  0  0  0  0
  7 29  1  0  0  0  0
  7 30  1  0  0  0  0
  8  9  1  0  0  0  0
  8 31  1  0  0  0  0
  8 32  1  0  0  0  0
  9 21  1  0  0  0  0
  9 10  1  0  0  0  0
 10 11  1  0  0  0  0
 10 15  2  0  0  0  0
 11 12  1  0  0  0  0
 11 33  1  0  0  0  0
 11 34  1  0  0  0  0
 12 13  1  0  0  0  0
 12 35  1  0  0  0  0
 13 14  2  0  0  0  0
 13 36  1  0  0  0  0
 15 16  1  0  0  0  0
 16 21  2  0  0  0  0
 16 17  1  0  0  0  0
 17 18  2  0  0  0  0
 17 37  1  0  0  0  0
 18 19  1  0  0  0  0
 18 38  1  0  0  0  0
 19 20  2  0  0  0  0
 19 39  1  0  0  0  0
 20 21  1  0  0  0  0
 20 40  1  0  0  0  0
 22 23  2  0  0  0  0
 22 41  1  0  0  0  0
 23 42  1  0  0  0  0
M  END
> <s_m_source_file>
AV-unprocessed.smi

> <i_m_source_file_index>
1853

> <i_lp_mmshare_version>
43012

> <i_f3d_flags>
0

> <s_epik_input>
W0NIM11jMVtjSF1bY0hdYyhbY0hdW2NIXTEpT1tDSDJdW0NIMl1uKGMobjIpW0NIMl1bTkhdW0NIXT1PKWMoYzIzKVtjSF1bY0hdW2NIXVtjSF0z

> <s_epik_cmdline>
J2VwaWtfcHl0aG9uJywgJy1waCcsICc3LjAnLCAnLXRuJywgJzgnLCAnLW1hJywgJzIwMCcsICctbWV0YWxfYmluZGluZycsICctaW1hZScsICc8aW5maWxlLm1hZT4nLCAnLW9tYWUnLCAnPG91dGZpbGUubWFlPic=

> <r_lp_tautomer_probability>
1

> <r_epik_Ionization_Penalty>
0.0586177

> <r_epik_Ionization_Penalty_Charging>
0

> <r_epik_Ionization_Penalty_Neutral>
0.0586177

> <r_epik_State_Penalty>
0.0507031

> <r_epik_Charging_Adjusted_Penalty>
0.0507031

> <i_epik_Tot_Q>
0

> <i_epik_Tot_abs_Q>
0

> <r_epik_Metal_State_Penalty>
0.0461069

> <b_epik_Metal_Only>
0

> <s_lp_Force_Field>
OPLS_2005

> <r_lp_Energy>
12.744

> <b_lp_Chiralities_Consistent>
1

> <s_lp_Variant>
AV-unprocessed.smi:1853-1

> <Gold.Version>
5.8.1

> <Gold.Id.Protein>
6NUR|6NUR_protein|mol2

> <Gold.PLP.Fitness>
57.0142

> <Gold.PLP.PLP>
-58.8134

> <Gold.PLP.part.hbond>
-2.7137

> <Gold.PLP.part.metal>
0.0000

> <Gold.PLP.part.buried>
-8.4765

> <Gold.PLP.part.nonpolar>
-47.8962

> <Gold.PLP.part.repulsive>
0.2706

> <Gold.PLP.ligand.clash>
0.0000

> <Gold.PLP.ligand.torsion>
0.9161

> <Gold.PLP.Chemscore.Hbond>
0.0000

> <Gold.PLP.Chemscore.CHOScore>
0.0000

> <Gold.PLP.Chemscore.Metal>
0.0000

> <Gold.PLP.Chemscore.Internal.Correction>
0.0330

> <Gold.Rescore>
     Score         DG    S(hbond)    S(metal)    S(lipo)     H(rot)  DE(clash)    DE(int)     intcor
     12.01     -16.34       0.00        0.00     145.25       2.40       1.13       3.20       ----

> <Gold.Chemscore.Fitness>
12.0060

> <Gold.Chemscore.DG>
-16.3383

> <Gold.Chemscore.ZeroCoef>
-5.4800

> <Gold.Chemscore.Hbond>
0.0000

> <Gold.Chemscore.Metal>
0.0000

> <Gold.Chemscore.Lipo>
145.2515

> <Gold.Chemscore.Internal_Hbond>
0.0000

> <Gold.Chemscore.DEClash>
1.1334

> <Gold.Chemscore.DEInternal>
3.1990

> <Gold.Chemscore.Rot>
2.3969

> <Gold.Chemscore.Internal.Correction>
   9.000000E+99

> <Gold.Chemscore.Hbond.Weighted>
-0.0000

> <Gold.Chemscore.Metal.Weighted>
-0.0000

> <Gold.Chemscore.Lipo.Weighted>
-16.9944

> <Gold.Chemscore.Internal_Hbond.Weighted>
0.0000

> <Gold.Chemscore.DEClash.Weighted>
1.1334

> <Gold.Chemscore.DEInternal.Weighted>
3.1990

> <Gold.Chemscore.Rot.Weighted>
6.1361

> <Gold.Chemscore.Internal.Correction.Weighted>
   9.000000E+99

> <Gold.Protein.RotatedTorsions>
[ 6907 6896 6895 6894 ] final -133.89 input  -60.11 | X-H torsion
[ 7974 7965 7964 7962 ] final   21.72 input  175.53 | X-H torsion
[ 8008 7997 7996 7995 ] final  -26.60 input   59.86 | X-H torsion
[ 10167 10162 10161 10158 ] final   82.86 input  -65.29 | X-H torsion
[ 10718 10713 10712 10709 ] final  155.19 input   66.30 | X-H torsion
[ 10763 10752 10751 10750 ] final   65.23 input  -60.55 | X-H torsion
[ 11005 11000 10999 10996 ] final  -46.85 input  -57.11 | X-H torsion

> <Gold.Protein.ActiveResidues>
 VAL166  LYS551  ARG553  GLY616  TRP617  ASP618  TYR619  PRO620  LYS621  CYS622 
 ASP623  PHE694  ASN695  SER759  ASP760  ASP761  ALA762  ILE779  LEU786  VAL792 
 PHE793  MET794  SER795  GLU796  ALA797  LYS798  CYS799  TRP800  GLU811  SER814 

> <Gold.Protein.RotatedAtoms>
  150.9793  133.6262  159.2724 H   0  0  0  0  0  0  0  0  0  0  0  0  # atno 6907 bound_to 6896
  151.3522  135.0886  159.9416 H   0  0  0  0  0  0  0  0  0  0  0  0  # atno 6908 bound_to 6896
  152.5210  133.9384  159.7669 H   0  0  0  0  0  0  0  0  0  0  0  0  # atno 6909 bound_to 6896
  146.2059  139.7987  142.8726 H   0  0  0  0  0  0  0  0  0  0  0  0  # atno 7974 bound_to 7965
  154.4417  140.1895  156.0801 H   0  0  0  0  0  0  0  0  0  0  0  0  # atno 8008 bound_to 7997
  156.0445  140.3316  155.7255 H   0  0  0  0  0  0  0  0  0  0  0  0  # atno 8009 bound_to 7997
  155.5650  140.0607  157.2811 H   0  0  0  0  0  0  0  0  0  0  0  0  # atno 8010 bound_to 7997
  139.9244  144.6192  150.8408 H   0  0  0  0  0  0  0  0  0  0  0  0  # atno 10167 bound_to 10162
  157.2216  131.0720  151.1908 H   0  0  0  0  0  0  0  0  0  0  0  0  # atno 10718 bound_to 10713
  153.0088  135.5364  154.6634 H   0  0  0  0  0  0  0  0  0  0  0  0  # atno 10763 bound_to 10752
  154.5837  135.2852  155.0709 H   0  0  0  0  0  0  0  0  0  0  0  0  # atno 10764 bound_to 10752
  154.1828  135.6513  153.5091 H   0  0  0  0  0  0  0  0  0  0  0  0  # atno 10765 bound_to 10752
  141.0604  133.6711  156.3214 H   0  0  0  0  0  0  0  0  0  0  0  0  # atno 11005 bound_to 11000
  145.3319  141.0268  143.3441 LP  0  0  0  0  0  0  0  0  0  0  0  0  # atno 17320 bound_to 7965
  144.8793  139.4927  143.6731 LP  0  0  0  0  0  0  0  0  0  0  0  0  # atno 17321 bound_to 7965
  140.7654  143.3274  151.2485 LP  0  0  0  0  0  0  0  0  0  0  0  0  # atno 17342 bound_to 10162
  139.6835  143.9814  152.2821 LP  0  0  0  0  0  0  0  0  0  0  0  0  # atno 17343 bound_to 10162
  157.3570  130.7111  149.6477 LP  0  0  0  0  0  0  0  0  0  0  0  0  # atno 17370 bound_to 10713
  155.9682  130.4236  150.4571 LP  0  0  0  0  0  0  0  0  0  0  0  0  # atno 17371 bound_to 10713
  140.5879  134.5680  157.5493 LP  0  0  0  0  0  0  0  0  0  0  0  0  # atno 17394 bound_to 11000
  139.9428  134.7756  156.0636 LP  0  0  0  0  0  0  0  0  0  0  0  0  # atno 17395 bound_to 11000

$$$$
