AV-unprocessed.smi:157|AV-procd|sdf|1306|dock3
  -GOLD-   2262018593D 1   1.00000     0.00000
 Structure written by MMmdl.
 35 37  0  0  0  0  0  0  0  0  1 V2000
  155.9197  140.0016  160.6679 O   0  0  0  0  0  0  0  0  0  0  0  0
  156.2931  138.8104  160.0081 C   0  0  0  0  0  0  0  0  0  0  0  0
  155.0748  138.1771  159.3199 C   0  0  2  0  0  0  0  0  0  0  0  0
  154.4723  139.1540  158.4753 O   0  0  0  0  0  0  0  0  0  0  0  0
  153.1095  138.8992  158.4439 C   0  0  2  0  0  0  0  0  0  0  0  0
  152.3928  140.1381  158.0088 N   0  0  0  0  0  0  0  0  0  0  0  0
  151.5435  140.2419  156.9781 C   0  0  0  0  0  0  0  0  0  0  0  0
  151.0438  141.4528  156.7976 N   0  0  0  0  0  0  0  0  0  0  0  0
  151.6269  142.2114  157.8113 C   0  0  0  0  0  0  0  0  0  0  0  0
  152.4721  141.4152  158.5713 C   0  0  0  0  0  0  0  0  0  0  0  0
  153.3086  141.6033  159.6549 N   0  0  0  0  0  0  0  0  0  0  0  0
  153.1197  142.6512  160.3934 C   0  0  0  0  0  0  0  0  0  0  0  0
  152.2438  143.7147  160.2299 N   0  0  0  0  0  0  0  0  0  0  0  0
  152.1008  144.4435  158.9810 C   0  0  0  0  0  0  0  0  0  0  0  0
  151.3154  143.6773  157.9091 C   0  0  2  0  0  0  0  0  0  0  0  0
  149.9325  143.7892  158.1774 O   0  0  0  0  0  0  0  0  0  0  0  0
  152.7440  138.5306  159.8731 C   0  0  0  0  0  0  0  0  0  0  0  0
  153.9622  137.7223  160.2924 C   0  0  1  0  0  0  0  0  0  0  0  0
  153.7053  136.3409  160.1325 O   0  0  0  0  0  0  0  0  0  0  0  0
  155.3962  137.3508  158.6824 H   0  0  0  0  0  0  0  0  0  0  0  0
  152.8791  138.1246  157.7108 H   0  0  0  0  0  0  0  0  0  0  0  0
  151.4887  144.1577  156.9457 H   0  0  0  0  0  0  0  0  0  0  0  0
  154.2142  137.9141  161.3361 H   0  0  0  0  0  0  0  0  0  0  0  0
  156.6402  140.2817  161.2115 H   0  0  0  0  0  0  0  0  0  0  0  0
  157.0849  139.0189  159.2879 H   0  0  0  0  0  0  0  0  0  0  0  0
  156.7031  138.1241  160.7495 H   0  0  0  0  0  0  0  0  0  0  0  0
  151.2871  139.4080  156.3412 H   0  0  0  0  0  0  0  0  0  0  0  0
  153.7241  142.7661  161.2943 H   0  0  0  0  0  0  0  0  0  0  0  0
  152.0588  144.3105  161.0237 H   0  0  0  0  0  0  0  0  0  0  0  0
  151.6500  145.4183  159.1694 H   0  0  0  0  0  0  0  0  0  0  0  0
  153.1060  144.6412  158.6058 H   0  0  0  0  0  0  0  0  0  0  0  0
  149.5025  144.0875  157.3904 H   0  0  0  0  0  0  0  0  0  0  0  0
  152.6713  139.4398  160.4719 H   0  0  0  0  0  0  0  0  0  0  0  0
  151.7954  137.9938  159.9192 H   0  0  0  0  0  0  0  0  0  0  0  0
  154.5019  135.8660  160.3149 H   0  0  0  0  0  0  0  0  0  0  0  0
  1  2  1  0  0  0  0
  1 24  1  0  0  0  0
  2  3  1  0  0  0  0
  2 25  1  0  0  0  0
  2 26  1  0  0  0  0
  3 20  1  0  0  0  0
  3 18  1  0  0  0  0
  3  4  1  0  0  0  0
  4  5  1  0  0  0  0
  5 21  1  0  0  0  0
  5  6  1  0  0  0  0
  5 17  1  0  0  0  0
  6 10  1  0  0  0  0
  6  7  1  0  0  0  0
  7  8  2  0  0  0  0
  7 27  1  0  0  0  0
  8  9  1  0  0  0  0
  9 15  1  0  0  0  0
  9 10  2  0  0  0  0
 10 11  1  0  0  0  0
 11 12  2  0  0  0  0
 12 13  1  0  0  0  0
 12 28  1  0  0  0  0
 13 14  1  0  0  0  0
 13 29  1  0  0  0  0
 14 15  1  0  0  0  0
 14 30  1  0  0  0  0
 14 31  1  0  0  0  0
 15 22  1  0  0  0  0
 15 16  1  0  0  0  0
 16 32  1  0  0  0  0
 17 18  1  0  0  0  0
 17 33  1  0  0  0  0
 17 34  1  0  0  0  0
 18 23  1  0  0  0  0
 18 19  1  0  0  0  0
 19 35  1  0  0  0  0
M  END
> <s_m_source_file>
AV-unprocessed.smi

> <i_m_source_file_index>
157

> <i_lp_mmshare_version>
43012

> <i_f3d_flags>
0

> <s_epik_input>
W09IXVtDSDJdW0NASF0xT1tDQEhdKFtDSDJdW0NAQEhdMVtPSF0pbihbY0hdbjIpYyhjMjMpTj1bQ0hdW05IXVtDSDJdW0NASF0zW09IXQ==

> <s_epik_cmdline>
J2VwaWtfcHl0aG9uJywgJy1waCcsICc3LjAnLCAnLXRuJywgJzgnLCAnLW1hJywgJzIwMCcsICctbWV0YWxfYmluZGluZycsICctaW1hZScsICc8aW5maWxlLm1hZT4nLCAnLW9tYWUnLCAnPG91dGZpbGUubWFlPic=

> <r_lp_tautomer_probability>
1

> <r_epik_Ionization_Penalty>
0.0357149

> <r_epik_Ionization_Penalty_Charging>
0.0355056

> <r_epik_Ionization_Penalty_Neutral>
0.000209255

> <r_epik_State_Penalty>
0.0296046

> <r_epik_Charging_Adjusted_Penalty>
0.0651102

> <i_epik_Tot_Q>
0

> <i_epik_Tot_abs_Q>
0

> <r_epik_Metal_State_Penalty>
3.03559e-05

> <b_epik_Metal_Only>
0

> <s_epik_Chemistry_Notes>
This compound has an imine and may undergo hydrolysis. This compound contains an acetal/aminal-like group ( X-CH(R)-Y where X, Y are N, S, or O) that may be acid/base labile, releasing an aldehyde.

> <s_lp_Force_Field>
OPLS_2005

> <r_lp_Energy>
43.6155

> <b_lp_Chiralities_Consistent>
1

> <s_lp_Variant>
AV-unprocessed.smi:157-16

> <Gold.Version>
5.8.1

> <Gold.Id.Protein>
6NUR|6NUR_protein|mol2

> <Gold.PLP.Fitness>
38.9017

> <Gold.PLP.PLP>
-29.9515

> <Gold.PLP.part.hbond>
-3.8642

> <Gold.PLP.part.metal>
0.0000

> <Gold.PLP.part.buried>
-6.0533

> <Gold.PLP.part.nonpolar>
-20.6541

> <Gold.PLP.part.repulsive>
0.0992

> <Gold.PLP.ligand.clash>
0.0000

> <Gold.PLP.ligand.torsion>
0.0375

> <Gold.PLP.Chemscore.Hbond>
3.0000

> <Gold.PLP.Chemscore.CHOScore>
0.0000

> <Gold.PLP.Chemscore.Metal>
0.0000

> <Gold.Chemscore.Hbonds>
donor molecule, donor type, donor heavy atom, donor atom, acceptor molecule, acceptor atom, score
      L1  H    16    32       P1  8028  1.00
      P1  H  6896  6909       L1    19  0.94
      P1  H  7997  8009       L1     4  1.00

> <Gold.PLP.Chemscore.Internal.Correction>
0.0251

> <Gold.Rescore>
     Score         DG    S(hbond)    S(metal)    S(lipo)     H(rot)  DE(clash)    DE(int)     intcor
      9.95     -11.13       2.80        0.00      47.79       3.64       0.02       1.15       ----

> <Gold.Chemscore.Fitness>
9.9523

> <Gold.Chemscore.DG>
-11.1256

> <Gold.Chemscore.ZeroCoef>
-5.4800

> <Gold.Chemscore.Hbond>
2.8031

> <Gold.Chemscore.Metal>
0.0000

> <Gold.Chemscore.Lipo>
47.7943

> <Gold.Chemscore.Internal_Hbond>
0.0000

> <Gold.Chemscore.DEClash>
0.0183

> <Gold.Chemscore.DEInternal>
1.1550

> <Gold.Chemscore.Rot>
3.6362

> <Gold.Chemscore.Internal.Correction>
   9.000000E+99

> <Gold.Chemscore.Hbonds>
donor molecule, donor type, donor heavy atom, donor atom, acceptor molecule, acceptor atom, score
      L1  H    16    32       P1  8028  0.25
      P1  H  6896  6909       L1    19  0.50
      P1  H  7997  8009       L1     4  0.86

> <Gold.Chemscore.Hbond.Weighted>
-9.3624

> <Gold.Chemscore.Metal.Weighted>
-0.0000

> <Gold.Chemscore.Lipo.Weighted>
-5.5919

> <Gold.Chemscore.Internal_Hbond.Weighted>
0.0000

> <Gold.Chemscore.DEClash.Weighted>
0.0183

> <Gold.Chemscore.DEInternal.Weighted>
1.1550

> <Gold.Chemscore.Rot.Weighted>
9.3087

> <Gold.Chemscore.Internal.Correction.Weighted>
   9.000000E+99

> <Gold.Protein.RotatedTorsions>
[ 6907 6896 6895 6894 ] final  157.95 input  -60.11 | X-H torsion
[ 7974 7965 7964 7962 ] final  156.65 input  175.53 | X-H torsion
[ 8008 7997 7996 7995 ] final  126.31 input   59.86 | X-H torsion
[ 10167 10162 10161 10158 ] final -128.50 input  -65.29 | X-H torsion
[ 10718 10713 10712 10709 ] final  -77.28 input   66.30 | X-H torsion
[ 10763 10752 10751 10750 ] final -175.97 input  -60.55 | X-H torsion
[ 11005 11000 10999 10996 ] final  -13.91 input  -57.11 | X-H torsion

> <Gold.Protein.ActiveResidues>
 VAL166  LYS551  ARG553  GLY616  TRP617  ASP618  TYR619  PRO620  LYS621  CYS622 
 ASP623  PHE694  ASN695  SER759  ASP760  ASP761  ALA762  ILE779  LEU786  VAL792 
 PHE793  MET794  SER795  GLU796  ALA797  LYS798  CYS799  TRP800  GLU811  SER814 

> <Gold.Protein.RotatedAtoms>
  152.0075  133.3849  159.4206 H   0  0  0  0  0  0  0  0  0  0  0  0  # atno 6907 bound_to 6896
  150.6903  134.3766  159.5025 H   0  0  0  0  0  0  0  0  0  0  0  0  # atno 6908 bound_to 6896
  152.1522  134.8978  160.0598 H   0  0  0  0  0  0  0  0  0  0  0  0  # atno 6909 bound_to 6896
  144.7950  139.7232  143.6205 H   0  0  0  0  0  0  0  0  0  0  0  0  # atno 7974 bound_to 7965
  156.2860  140.2696  156.2090 H   0  0  0  0  0  0  0  0  0  0  0  0  # atno 8008 bound_to 7997
  155.0284  140.0386  157.2482 H   0  0  0  0  0  0  0  0  0  0  0  0  # atno 8009 bound_to 7997
  154.7376  140.2718  155.6407 H   0  0  0  0  0  0  0  0  0  0  0  0  # atno 8010 bound_to 7997
  139.9497  143.6070  152.2479 H   0  0  0  0  0  0  0  0  0  0  0  0  # atno 10167 bound_to 10162
  156.0150  130.4487  150.3320 H   0  0  0  0  0  0  0  0  0  0  0  0  # atno 10718 bound_to 10713
  154.5780  135.2833  155.0761 H   0  0  0  0  0  0  0  0  0  0  0  0  # atno 10763 bound_to 10752
  154.2108  135.6408  153.5118 H   0  0  0  0  0  0  0  0  0  0  0  0  # atno 10764 bound_to 10752
  153.0079  135.5491  154.6425 H   0  0  0  0  0  0  0  0  0  0  0  0  # atno 10765 bound_to 10752
  140.7810  133.8363  155.9292 H   0  0  0  0  0  0  0  0  0  0  0  0  # atno 11005 bound_to 11000
  146.2216  139.5645  142.9615 LP  0  0  0  0  0  0  0  0  0  0  0  0  # atno 17320 bound_to 7965
  145.5696  141.0395  143.2181 LP  0  0  0  0  0  0  0  0  0  0  0  0  # atno 17321 bound_to 7965
  139.6638  144.7662  151.1911 LP  0  0  0  0  0  0  0  0  0  0  0  0  # atno 17342 bound_to 10162
  140.7586  143.5969  150.8739 LP  0  0  0  0  0  0  0  0  0  0  0  0  # atno 17343 bound_to 10162
  157.1418  131.0298  151.2924 LP  0  0  0  0  0  0  0  0  0  0  0  0  # atno 17370 bound_to 10713
  157.4465  130.7574  149.7114 LP  0  0  0  0  0  0  0  0  0  0  0  0  # atno 17371 bound_to 10713
  140.9482  134.1813  157.4747 LP  0  0  0  0  0  0  0  0  0  0  0  0  # atno 17394 bound_to 11000
  139.8742  134.9899  156.5477 LP  0  0  0  0  0  0  0  0  0  0  0  0  # atno 17395 bound_to 11000

$$$$
