AV-unprocessed.smi:287|AV-procd|sdf|2207|dock6
  -GOLD-   2262022 33D 1   1.00000     0.00000
 Structure written by MMmdl.
 55 58  0  0  0  0  0  0  0  0  1 V2000
  147.2082  143.2736  158.7217 C   0  0  0  0  0  0  0  0  0  0  0  0
  146.4617  142.1587  158.0736 C   0  0  0  0  0  0  0  0  0  0  0  0
  145.7539  142.0458  156.9127 C   0  0  0  0  0  0  0  0  0  0  0  0
  145.2528  140.7110  156.8466 C   0  0  0  0  0  0  0  0  0  0  0  0
  144.4056  140.1200  155.7279 C   0  0  1  0  0  0  0  0  0  0  0  0
  143.0974  140.9164  155.5942 C   0  0  0  0  0  0  0  0  0  0  0  0
  145.0338  140.2075  154.4633 O   0  0  0  0  0  0  0  0  0  0  0  0
  144.0945  138.6215  155.9468 C   0  0  0  0  0  0  0  0  0  0  0  0
  142.8851  138.1879  155.2580 N   0  0  0  0  0  0  0  0  0  0  0  0
  142.9256  137.1634  154.3809 C   0  0  0  0  0  0  0  0  0  0  0  0
  141.8619  136.3260  154.4113 N   0  0  0  0  0  0  0  0  0  0  0  0
  141.7998  135.2899  153.5713 C   0  0  0  0  0  0  0  0  0  0  0  0
  142.6783  134.9192  152.6389 N   0  0  0  0  0  0  0  0  0  0  0  0
  143.7594  135.7511  152.6065 C   0  0  0  0  0  0  0  0  0  0  0  0
  143.9632  136.8879  153.4414 C   0  0  0  0  0  0  0  0  0  0  0  0
  145.1820  137.4777  153.1235 N   0  0  0  0  0  0  0  0  0  0  0  0
  145.6569  136.7405  152.1573 C   0  0  0  0  0  0  0  0  0  0  0  0
  144.8615  135.6843  151.7776 N   0  0  0  0  0  0  0  0  0  0  0  0
  145.1325  134.6858  150.6989 C   0  0  1  0  0  0  0  0  0  0  0  0
  145.9141  133.6625  151.2354 O   0  0  0  0  0  0  0  0  0  0  0  0
  145.4377  132.4032  150.7741 C   0  0  1  0  0  0  0  0  0  0  0  0
  145.8485  131.2995  151.7612 C   0  0  0  0  0  0  0  0  0  0  0  0
  147.2262  131.3965  152.0527 O   0  0  0  0  0  0  0  0  0  0  0  0
  143.9265  132.6308  150.7028 C   0  0  2  0  0  0  0  0  0  0  0  0
  143.2575  131.6918  149.8806 O   0  0  0  0  0  0  0  0  0  0  0  0
  143.8215  134.0649  150.1902 C   0  0  2  0  0  0  0  0  0  0  0  0
  143.7541  134.1253  148.7771 O   0  0  0  0  0  0  0  0  0  0  0  0
  145.7249  140.1035  157.9851 C   0  0  0  0  0  0  0  0  0  0  0  0
  145.6112  138.7243  158.5457 C   0  0  0  0  0  0  0  0  0  0  0  0
  146.4520  140.9759  158.7378 O   0  0  0  0  0  0  0  0  0  0  0  0
  145.6837  135.2393  149.9370 H   0  0  0  0  0  0  0  0  0  0  0  0
  145.8290  132.2115  149.7727 H   0  0  0  0  0  0  0  0  0  0  0  0
  143.5003  132.5760  151.7047 H   0  0  0  0  0  0  0  0  0  0  0  0
  142.9513  134.5765  150.6045 H   0  0  0  0  0  0  0  0  0  0  0  0
  147.2251  144.1552  158.0808 H   0  0  0  0  0  0  0  0  0  0  0  0
  148.2392  142.9830  158.9243 H   0  0  0  0  0  0  0  0  0  0  0  0
  146.7420  143.5522  159.6668 H   0  0  0  0  0  0  0  0  0  0  0  0
  145.6036  142.8368  156.1928 H   0  0  0  0  0  0  0  0  0  0  0  0
  142.5184  140.8804  156.5177 H   0  0  0  0  0  0  0  0  0  0  0  0
  142.4663  140.5208  154.7972 H   0  0  0  0  0  0  0  0  0  0  0  0
  143.2929  141.9661  155.3711 H   0  0  0  0  0  0  0  0  0  0  0  0
  144.4146  140.5643  153.8448 H   0  0  0  0  0  0  0  0  0  0  0  0
  144.9278  138.0405  155.5496 H   0  0  0  0  0  0  0  0  0  0  0  0
  144.0250  138.3888  157.0102 H   0  0  0  0  0  0  0  0  0  0  0  0
  142.1001  138.8197  155.3271 H   0  0  0  0  0  0  0  0  0  0  0  0
  140.9187  134.6712  153.6562 H   0  0  0  0  0  0  0  0  0  0  0  0
  146.6055  136.9536  151.6862 H   0  0  0  0  0  0  0  0  0  0  0  0
  145.2601  131.3478  152.6782 H   0  0  0  0  0  0  0  0  0  0  0  0
  145.6784  130.3174  151.3194 H   0  0  0  0  0  0  0  0  0  0  0  0
  147.7144  131.0776  151.3090 H   0  0  0  0  0  0  0  0  0  0  0  0
  142.3516  131.6525  150.1463 H   0  0  0  0  0  0  0  0  0  0  0  0
  144.6319  134.0429  148.4358 H   0  0  0  0  0  0  0  0  0  0  0  0
  145.8755  137.9793  157.7951 H   0  0  0  0  0  0  0  0  0  0  0  0
  144.5921  138.5256  158.8771 H   0  0  0  0  0  0  0  0  0  0  0  0
  146.2753  138.5890  159.3998 H   0  0  0  0  0  0  0  0  0  0  0  0
  1  2  1  0  0  0  0
  1 35  1  0  0  0  0
  1 36  1  0  0  0  0
  1 37  1  0  0  0  0
  2 30  1  0  0  0  0
  2  3  2  0  0  0  0
  3  4  1  0  0  0  0
  3 38  1  0  0  0  0
  4  5  1  0  0  0  0
  4 28  2  0  0  0  0
  5  6  1  0  0  0  0
  5  7  1  0  0  0  0
  5  8  1  0  0  0  0
  6 39  1  0  0  0  0
  6 40  1  0  0  0  0
  6 41  1  0  0  0  0
  7 42  1  0  0  0  0
  8  9  1  0  0  0  0
  8 43  1  0  0  0  0
  8 44  1  0  0  0  0
  9 10  1  0  0  0  0
  9 45  1  0  0  0  0
 10 15  1  0  0  0  0
 10 11  2  0  0  0  0
 11 12  1  0  0  0  0
 12 13  2  0  0  0  0
 12 46  1  0  0  0  0
 13 14  1  0  0  0  0
 14 18  1  0  0  0  0
 14 15  2  0  0  0  0
 15 16  1  0  0  0  0
 16 17  2  0  0  0  0
 17 18  1  0  0  0  0
 17 47  1  0  0  0  0
 18 19  1  0  0  0  0
 19 31  1  0  0  0  0
 19 26  1  0  0  0  0
 19 20  1  0  0  0  0
 20 21  1  0  0  0  0
 21 32  1  0  0  0  0
 21 22  1  0  0  0  0
 21 24  1  0  0  0  0
 22 23  1  0  0  0  0
 22 48  1  0  0  0  0
 22 49  1  0  0  0  0
 23 50  1  0  0  0  0
 24 33  1  0  0  0  0
 24 25  1  0  0  0  0
 24 26  1  0  0  0  0
 25 51  1  0  0  0  0
 26 34  1  0  0  0  0
 26 27  1  0  0  0  0
 27 52  1  0  0  0  0
 28 29  1  0  0  0  0
 28 30  1  0  0  0  0
 29 53  1  0  0  0  0
 29 54  1  0  0  0  0
 29 55  1  0  0  0  0
M  END
> <s_m_source_file>
AV-unprocessed.smi

> <i_m_source_file_index>
287

> <i_lp_mmshare_version>
43012

> <i_f3d_flags>
0

> <s_epik_input>
W0NIM11jMVtjSF1jKGMobzEpW0NIM10pW0NAQF0oW0NIM10pKFtPSF0pW0NIMl1bTkhdYyhuW2NIXW4yKWMoYzIzKW5bY0hdbjNbQ0BASF00T1tDQEhdKFtDSDJdW09IXSlbQ0BASF0oW09IXSlbQ0BIXTRbT0hd

> <s_epik_cmdline>
J2VwaWtfcHl0aG9uJywgJy1waCcsICc3LjAnLCAnLXRuJywgJzgnLCAnLW1hJywgJzIwMCcsICctbWV0YWxfYmluZGluZycsICctaW1hZScsICc8aW5maWxlLm1hZT4nLCAnLW9tYWUnLCAnPG91dGZpbGUubWFlPic=

> <r_lp_tautomer_probability>
1

> <r_epik_Ionization_Penalty>
0.000992612

> <r_epik_Ionization_Penalty_Charging>
0

> <r_epik_Ionization_Penalty_Neutral>
0.000992612

> <r_epik_State_Penalty>
-0

> <r_epik_Charging_Adjusted_Penalty>
0

> <i_epik_Tot_Q>
0

> <i_epik_Tot_abs_Q>
0

> <r_epik_Metal_State_Penalty>
-0

> <b_epik_Metal_Only>
0

> <s_epik_Chemistry_Notes>
This compound contains an acetal/aminal-like group ( X-CH(R)-Y where X, Y are N, S, or O) that may be acid/base labile, releasing an aldehyde.

> <s_lp_Force_Field>
OPLS_2005

> <r_lp_Energy>
44.3809

> <b_lp_Chiralities_Consistent>
1

> <s_lp_Variant>
AV-unprocessed.smi:287-31

> <Gold.Version>
5.8.1

> <Gold.Id.Protein>
6NUR|6NUR_protein|mol2

> <Gold.PLP.Fitness>
50.5004

> <Gold.PLP.PLP>
-35.7043

> <Gold.PLP.part.hbond>
-6.6114

> <Gold.PLP.part.metal>
0.0000

> <Gold.PLP.part.buried>
-5.8465

> <Gold.PLP.part.nonpolar>
-24.3411

> <Gold.PLP.part.repulsive>
0.5975

> <Gold.PLP.ligand.clash>
0.0000

> <Gold.PLP.ligand.torsion>
1.4808

> <Gold.PLP.Chemscore.Hbond>
4.8900

> <Gold.PLP.Chemscore.CHOScore>
1.0000

> <Gold.PLP.Chemscore.Metal>
0.0000

> <Gold.Chemscore.Hbonds>
donor molecule, donor type, donor heavy atom, donor atom, acceptor molecule, acceptor atom, score
      L1  H     7    42       P1 10175  1.00
      L1  H    23    50       P1 10747  1.00
      L1  H    25    51       P1 10952  0.54
      L1  H    27    52       P1  7921  1.00
      P1  H  6934  6946       L1    30  0.42
      P1  H 10785 10796       L1    25  0.80
      L1  C    17    47       P1  7948  1.00

> <Gold.PLP.Chemscore.Internal.Correction>
0.0877

> <Gold.Rescore>
     Score         DG    S(hbond)    S(metal)    S(lipo)     H(rot)  DE(clash)    DE(int)     intcor
      6.89     -12.79       4.68        0.00      44.06       5.27       1.81       4.08       ----

> <Gold.Chemscore.Fitness>
6.8911

> <Gold.Chemscore.DG>
-12.7899

> <Gold.Chemscore.ZeroCoef>
-5.4800

> <Gold.Chemscore.Hbond>
4.6823

> <Gold.Chemscore.Metal>
0.0000

> <Gold.Chemscore.Lipo>
44.0592

> <Gold.Chemscore.Internal_Hbond>
0.0000

> <Gold.Chemscore.DEClash>
1.8146

> <Gold.Chemscore.DEInternal>
4.0841

> <Gold.Chemscore.Rot>
5.2672

> <Gold.Chemscore.Internal.Correction>
   9.000000E+99

> <Gold.Chemscore.Hbonds>
donor molecule, donor type, donor heavy atom, donor atom, acceptor molecule, acceptor atom, score
      L1  H     7    42       P1 10175  0.90
      L1  H    23    50       P1 10747  0.99
      L1  H    25    51       P1 10952  0.44
      L1  H    27    52       P1  7921  0.94
      P1  H  6934  6946       L1    30  0.40
      P1  H 10785 10796       L1    25  0.12

> <Gold.Chemscore.Hbond.Weighted>
-15.6389

> <Gold.Chemscore.Metal.Weighted>
-0.0000

> <Gold.Chemscore.Lipo.Weighted>
-5.1549

> <Gold.Chemscore.Internal_Hbond.Weighted>
0.0000

> <Gold.Chemscore.DEClash.Weighted>
1.8146

> <Gold.Chemscore.DEInternal.Weighted>
4.0841

> <Gold.Chemscore.Rot.Weighted>
13.4839

> <Gold.Chemscore.Internal.Correction.Weighted>
   9.000000E+99

> <Gold.Protein.RotatedTorsions>
[ 6907 6896 6895 6894 ] final   65.23 input  -60.11 | X-H torsion
[ 7974 7965 7964 7962 ] final   31.35 input  175.53 | X-H torsion
[ 8008 7997 7996 7995 ] final   32.31 input   59.86 | X-H torsion
[ 10167 10162 10161 10158 ] final -130.69 input  -65.29 | X-H torsion
[ 10718 10713 10712 10709 ] final   70.97 input   66.30 | X-H torsion
[ 10763 10752 10751 10750 ] final   67.61 input  -60.55 | X-H torsion
[ 11005 11000 10999 10996 ] final  -72.43 input  -57.11 | X-H torsion

> <Gold.Protein.ActiveResidues>
 VAL166  LYS551  ARG553  GLY616  TRP617  ASP618  TYR619  PRO620  LYS621  CYS622 
 ASP623  PHE694  ASN695  SER759  ASP760  ASP761  ALA762  ILE779  LEU786  VAL792 
 PHE793  MET794  SER795  GLU796  ALA797  LYS798  CYS799  TRP800  GLU811  SER814 

> <Gold.Protein.RotatedAtoms>
  152.4392  134.5626  159.9898 H   0  0  0  0  0  0  0  0  0  0  0  0  # atno 6907 bound_to 6896
  151.5728  133.3382  159.3001 H   0  0  0  0  0  0  0  0  0  0  0  0  # atno 6908 bound_to 6896
  150.8295  134.7575  159.6905 H   0  0  0  0  0  0  0  0  0  0  0  0  # atno 6909 bound_to 6896
  146.1555  139.6668  142.9069 H   0  0  0  0  0  0  0  0  0  0  0  0  # atno 7974 bound_to 7965
  155.1205  140.3248  155.4498 H   0  0  0  0  0  0  0  0  0  0  0  0  # atno 8008 bound_to 7997
  156.2664  140.2028  156.6275 H   0  0  0  0  0  0  0  0  0  0  0  0  # atno 8009 bound_to 7997
  154.6687  140.0539  157.0129 H   0  0  0  0  0  0  0  0  0  0  0  0  # atno 8010 bound_to 7997
  139.9267  143.6319  152.2540 H   0  0  0  0  0  0  0  0  0  0  0  0  # atno 10167 bound_to 10162
  157.6427  130.9504  150.0724 H   0  0  0  0  0  0  0  0  0  0  0  0  # atno 10718 bound_to 10713
  153.0194  135.5278  154.7005 H   0  0  0  0  0  0  0  0  0  0  0  0  # atno 10763 bound_to 10752
  154.6115  135.2879  155.0429 H   0  0  0  0  0  0  0  0  0  0  0  0  # atno 10764 bound_to 10752
  154.1448  135.6572  153.5003 H   0  0  0  0  0  0  0  0  0  0  0  0  # atno 10765 bound_to 10752
  141.1608  133.6847  156.7058 H   0  0  0  0  0  0  0  0  0  0  0  0  # atno 11005 bound_to 11000
  145.4718  141.0436  143.2694 LP  0  0  0  0  0  0  0  0  0  0  0  0  # atno 17320 bound_to 7965
  144.7958  139.6237  143.7093 LP  0  0  0  0  0  0  0  0  0  0  0  0  # atno 17321 bound_to 7965
  139.6816  144.7655  151.1598 LP  0  0  0  0  0  0  0  0  0  0  0  0  # atno 17342 bound_to 10162
  140.7648  143.5717  150.8989 LP  0  0  0  0  0  0  0  0  0  0  0  0  # atno 17343 bound_to 10162
  156.1724  130.3647  149.9146 LP  0  0  0  0  0  0  0  0  0  0  0  0  # atno 17370 bound_to 10713
  156.7118  130.8973  151.3610 LP  0  0  0  0  0  0  0  0  0  0  0  0  # atno 17371 bound_to 10713
  140.2925  134.8229  157.4028 LP  0  0  0  0  0  0  0  0  0  0  0  0  # atno 17394 bound_to 11000
  140.1334  134.5065  155.8087 LP  0  0  0  0  0  0  0  0  0  0  0  0  # atno 17395 bound_to 11000

$$$$
