#       Name:                AV-unprocessed.smi:2118
#       Creating user name   scv26
#       Creation time:       Fri Mar 27 11:37:21 2020


#       File generated by GOLD software.
#

@<TRIPOS>MOLECULE
AV-unprocessed.smi:2118
    42    43     1
SMALL
NO_CHARGES


@<TRIPOS>ATOM
      1 ****        -3.1057   4.7343   1.5526 C.3            1 S1                 0.0000
      2 ****        -3.0238   3.2866   1.0481 C.3            1 S1                 0.0000
      3 ****        -2.9749   2.2807   2.2049 C.3            1 S1                 0.0000
      4 ****        -2.8965   0.8325   1.6926 C.3            1 S1                 0.0000
      5 ****        -1.7568   0.6350   0.7730 N.3            1 S1                 0.0000
      6 ****        -1.3231  -1.0110   0.4110 S.o2           1 S1                 0.0000
      7 ****        -1.4496  -1.7651   1.6691 O.2            1 S1                 0.0000
      8 ****        -2.1798  -1.4118  -0.7173 O.2            1 S1                 0.0000
      9 ****         0.2222  -0.7429  -0.0002 N.pl3          1 S1                -1.0000
     10 ****         1.0261  -1.8573  -0.4684 C.3            1 S1                 0.0000
     11 ****         2.4949  -1.4139  -0.6235 C.3            1 S1                 0.0000
     12 ****         3.4165  -2.5123  -1.1382 C.ar           1 S1                 0.0000
     13 ****         3.6833  -2.6487  -2.5181 C.ar           1 S1                 0.0000
     14 ****         4.5509  -3.6718  -2.9464 C.ar           1 S1                 0.0000
     15 ****         5.1212  -4.5177  -1.9746 C.ar           1 S1                 0.0000
     16 ****         4.8814  -4.3952  -0.6516 N.ar           1 S1                 0.0000
     17 ****         4.0479  -3.4114  -0.2489 C.ar           1 S1                 0.0000
     18 ****        -1.7235   1.6081  -0.3434 C.3            1 S1                 0.0000
     19 ****        -1.7932   3.0589   0.1608 C.3            1 S1                 0.0000
     20 ****        -2.2319   4.9968   2.1501 H              1 S1                 0.0000
     21 ****        -3.9904   4.8842   2.1722 H              1 S1                 0.0000
     22 ****        -3.1636   5.4368   0.7207 H              1 S1                 0.0000
     23 ****        -3.9183   3.0875   0.4556 H              1 S1                 0.0000
     24 ****        -2.1119   2.4872   2.8398 H              1 S1                 0.0000
     25 ****        -3.8565   2.3953   2.8365 H              1 S1                 0.0000
     26 ****        -2.8035   0.1619   2.5464 H              1 S1                 0.0000
     27 ****        -3.8179   0.5605   1.1762 H              1 S1                 0.0000
     28 ****         0.9840  -2.7015   0.2209 H              1 S1                 0.0000
     29 ****         0.6639  -2.2334  -1.4259 H              1 S1                 0.0000
     30 ****         2.5554  -0.5637  -1.3046 H              1 S1                 0.0000
     31 ****         2.8787  -1.0618   0.3352 H              1 S1                 0.0000
     32 ****         3.2294  -1.9817  -3.2366 H              1 S1                 0.0000
     33 ****         4.7736  -3.8050  -3.9946 H              1 S1                 0.0000
     34 ****         5.7903  -5.3131  -2.2680 H              1 S1                 0.0000
     35 ****         3.8779  -3.3404   0.8155 H              1 S1                 0.0000
     36 ****        -0.8155   1.4803  -0.9316 H              1 S1                 0.0000
     37 ****        -2.5588   1.4023  -1.0139 H              1 S1                 0.0000
     38 ****        -1.8167   3.7382  -0.6918 H              1 S1                 0.0000
     39 ****        -0.8844   3.2937   0.7172 H              1 S1                 0.0000
     40 ****        -0.9557   0.8840   1.3172 LP             1 S1                 0.0000
     41 ****         0.6147   0.1743   0.0675 LP             1 S1                 0.0000
     42 ****         5.3073  -5.0132   0.0092 LP             1 S1                 0.0000
@<TRIPOS>BOND
    1    1    2 1     
    2    1   20 1     
    3    1   21 1     
    4    1   22 1     
    5    2   19 1     
    6    2    3 1     
    7    2   23 1     
    8    3    4 1     
    9    3   24 1     
   10    3   25 1     
   11    4    5 1     
   12    4   26 1     
   13    4   27 1     
   14    5    6 1     
   15    5   18 1     
   16    6    7 2     
   17    6    8 2     
   18    6    9 1     
   19    9   10 1     
   20   10   11 1     
   21   10   28 1     
   22   10   29 1     
   23   11   12 1     
   24   11   30 1     
   25   11   31 1     
   26   12   17 ar    
   27   12   13 ar    
   28   13   14 ar    
   29   13   32 1     
   30   14   15 ar    
   31   14   33 1     
   32   15   16 ar    
   33   15   34 1     
   34   16   17 ar    
   35   17   35 1     
   36   18   19 1     
   37   18   36 1     
   38   18   37 1     
   39   19   38 1     
   40   19   39 1     
   41    5   40 1     
   42    9   41 1     
   43   16   42 1     
@<TRIPOS>SUBSTRUCTURE
      1 S1             1
@<TRIPOS>SET
LONE_PAIRS      STATIC     ATOMS    <user>   **** ""
5 40 7 8 41 42
ATOM$BLUE        STATIC     ATOMS    COLORGROUP SYSTEM
5 40 7 8 41 42
