AV-unprocessed.smi:1843|AV-procd|sdf|7507|dock4
  -GOLD-   22720 9213D 1   1.00000     0.00000
 Structure written by MMmdl.
 36 38  0  0  0  0  0  0  0  0  2 V2000
  151.7865  139.9487  159.6012 O   0  0  0  0  0  0  0  0  0  0  0  0
  152.6130  140.2094  158.7239 C   0  0  0  0  0  0  0  0  0  0  0  0
  152.7796  139.5466  157.5570 N   0  5  0  0  0  0  0  0  0  0  0  0
  151.8850  139.6960  156.5662 C   0  0  0  0  0  0  0  0  0  0  0  0
  152.1330  139.3073  155.3076 N   0  0  0  0  0  0  0  0  0  0  0  0
  151.0731  139.5482  154.4450 N   0  0  0  0  0  0  0  0  0  0  0  0
  150.0350  140.1114  155.0674 C   0  0  0  0  0  0  0  0  0  0  0  0
  148.7740  140.4716  154.3557 C   0  0  0  0  0  0  0  0  0  0  0  0
  148.3747  141.9179  154.1737 C   0  0  0  0  0  0  0  0  0  0  0  0
  147.5795  141.0310  155.0974 C   0  0  0  0  0  0  0  0  0  0  0  0
  150.2775  140.3860  156.7848 S   0  0  0  0  0  0  0  0  0  0  0  0
  153.4635  141.2327  158.8866 N   0  0  0  0  0  0  0  0  0  0  0  0
  153.5333  142.1213  160.0453 C   0  0  1  0  0  0  0  0  0  0  0  0
  152.2461  142.9758  160.0964 C   0  0  0  0  0  0  0  0  0  0  0  0
  152.1502  143.8142  161.3788 C   0  0  0  0  0  0  0  0  0  0  0  0
  152.2515  142.9240  162.6240 C   0  0  0  0  0  0  0  0  0  0  0  0
  153.5585  142.1208  162.6069 C   0  0  0  0  0  0  0  0  0  0  0  0
  153.6912  141.2717  161.3280 C   0  0  2  0  0  0  0  0  0  0  0  0
  154.9738  140.6773  161.3464 O   0  0  0  0  0  0  0  0  0  0  0  0
  148.5858  139.7824  153.5350 H   0  0  0  0  0  0  0  0  0  0  0  0
  149.0067  142.6780  154.6290 H   0  0  0  0  0  0  0  0  0  0  0  0
  147.9185  142.1965  153.2261 H   0  0  0  0  0  0  0  0  0  0  0  0
  146.5920  140.7168  154.7663 H   0  0  0  0  0  0  0  0  0  0  0  0
  147.6759  141.2138  156.1657 H   0  0  0  0  0  0  0  0  0  0  0  0
  154.1236  141.4045  158.1426 H   0  0  0  0  0  0  0  0  0  0  0  0
  154.3949  142.7864  159.9564 H   0  0  0  0  0  0  0  0  0  0  0  0
  152.1982  143.6340  159.2280 H   0  0  0  0  0  0  0  0  0  0  0  0
  151.3726  142.3252  160.0341 H   0  0  0  0  0  0  0  0  0  0  0  0
  152.9476  144.5584  161.3910 H   0  0  0  0  0  0  0  0  0  0  0  0
  151.2102  144.3663  161.3913 H   0  0  0  0  0  0  0  0  0  0  0  0
  152.2024  143.5362  163.5247 H   0  0  0  0  0  0  0  0  0  0  0  0
  151.4000  142.2436  162.6630 H   0  0  0  0  0  0  0  0  0  0  0  0
  154.4005  142.8112  162.6802 H   0  0  0  0  0  0  0  0  0  0  0  0
  153.6086  141.4801  163.4883 H   0  0  0  0  0  0  0  0  0  0  0  0
  152.9390  140.4814  161.3437 H   0  0  0  0  0  0  0  0  0  0  0  0
  155.3927  140.9004  162.1641 H   0  0  0  0  0  0  0  0  0  0  0  0
  1  2  2  0  0  0  0
  2  3  1  0  0  0  0
  2 12  1  0  0  0  0
  3  4  1  0  0  0  0
  4 11  1  0  0  0  0
  4  5  2  0  0  0  0
  5  6  1  0  0  0  0
  6  7  2  0  0  0  0
  7  8  1  0  0  0  0
  7 11  1  0  0  0  0
  8 10  1  0  0  0  0
  8  9  1  0  0  0  0
  8 20  1  0  0  0  0
  9 10  1  0  0  0  0
  9 21  1  0  0  0  0
  9 22  1  0  0  0  0
 10 23  1  0  0  0  0
 10 24  1  0  0  0  0
 12 13  1  0  0  0  0
 12 25  1  0  0  0  0
 13 18  1  0  0  0  0
 13 14  1  0  0  0  0
 13 26  1  0  0  0  0
 14 15  1  0  0  0  0
 14 27  1  0  0  0  0
 14 28  1  0  0  0  0
 15 16  1  0  0  0  0
 15 29  1  0  0  0  0
 15 30  1  0  0  0  0
 16 17  1  0  0  0  0
 16 31  1  0  0  0  0
 16 32  1  0  0  0  0
 17 18  1  0  0  0  0
 17 33  1  0  0  0  0
 17 34  1  0  0  0  0
 18 19  1  0  0  0  0
 18 35  1  0  0  0  0
 19 36  1  0  0  0  0
M  CHG  1   3  -1
M  END
> <s_m_source_file>
AV-unprocessed.smi

> <i_m_source_file_index>
1843

> <i_lp_mmshare_version>
43012

> <i_f3d_flags>
0

> <s_epik_input>
W09IXVtDQEBIXTFbQ0gyXVtDSDJdW0NIMl1bQ0gyXVtDQEhdMVtOSF1DKD1PKVtOSF1jMm5uYyhzMilbQ0hdM1tDSDJdW0NIMl0z

> <s_epik_cmdline>
J2VwaWtfcHl0aG9uJywgJy1waCcsICc3LjAnLCAnLXRuJywgJzgnLCAnLW1hJywgJzIwMCcsICctbWV0YWxfYmluZGluZycsICctaW1hZScsICc8aW5maWxlLm1hZT4nLCAnLW9tYWUnLCAnPG91dGZpbGUubWFlPic=

> <r_lp_tautomer_probability>
1

> <r_epik_Ionization_Penalty>
4.7996

> <r_epik_Ionization_Penalty_Charging>
4.64516

> <r_epik_Ionization_Penalty_Neutral>
0.154442

> <r_epik_State_Penalty>
4.64493

> <r_epik_Charging_Adjusted_Penalty>
9.29009

> <i_epik_Tot_Q>
-1

> <i_epik_Tot_abs_Q>
1

> <r_epik_Metal_State_Penalty>
0.896144

> <b_epik_Metal_Only>
1

> <s_lp_Force_Field>
OPLS_2005

> <r_lp_Energy>
6.73246

> <b_lp_Chiralities_Consistent>
1

> <s_lp_Variant>
AV-unprocessed.smi:1843-8

> <Gold.Version>
5.8.1

> <Gold.Id.Protein>
6NUR|6NUR_protein|mol2

> <Gold.PLP.Fitness>
43.7211

> <Gold.PLP.PLP>
-36.2932

> <Gold.PLP.part.hbond>
-3.3028

> <Gold.PLP.part.metal>
0.0000

> <Gold.PLP.part.buried>
2.2146

> <Gold.PLP.part.nonpolar>
-35.0397

> <Gold.PLP.part.repulsive>
0.8581

> <Gold.PLP.ligand.clash>
0.0000

> <Gold.PLP.ligand.torsion>
0.8573

> <Gold.PLP.Chemscore.Hbond>
3.0000

> <Gold.PLP.Chemscore.CHOScore>
0.0000

> <Gold.PLP.Chemscore.Metal>
0.0000

> <Gold.Chemscore.Hbonds>
donor molecule, donor type, donor heavy atom, donor atom, acceptor molecule, acceptor atom, score
      P1  H  7989  7998       L1     6  1.00
      P1  H  7997  8009       L1     3  2.00

> <Gold.PLP.Chemscore.Internal.Correction>
0.1425

> <Gold.Rescore>
     Score         DG    S(hbond)    S(metal)    S(lipo)     H(rot)  DE(clash)    DE(int)     intcor
      9.94     -14.47       0.70        0.00      94.35       1.72       1.77       2.77       ----

> <Gold.Chemscore.Fitness>
9.9367

> <Gold.Chemscore.DG>
-14.4713

> <Gold.Chemscore.ZeroCoef>
-5.4800

> <Gold.Chemscore.Hbond>
0.7021

> <Gold.Chemscore.Metal>
0.0000

> <Gold.Chemscore.Lipo>
94.3525

> <Gold.Chemscore.Internal_Hbond>
0.0000

> <Gold.Chemscore.DEClash>
1.7683

> <Gold.Chemscore.DEInternal>
2.7662

> <Gold.Chemscore.Rot>
1.7160

> <Gold.Chemscore.Internal.Correction>
   9.000000E+99

> <Gold.Chemscore.Hbonds>
donor molecule, donor type, donor heavy atom, donor atom, acceptor molecule, acceptor atom, score
      P1  H  7989  7998       L1     6  0.12
      P1  H  7997  8009       L1     3  0.39

> <Gold.Chemscore.Hbond.Weighted>
-2.3450

> <Gold.Chemscore.Metal.Weighted>
-0.0000

> <Gold.Chemscore.Lipo.Weighted>
-11.0392

> <Gold.Chemscore.Internal_Hbond.Weighted>
0.0000

> <Gold.Chemscore.DEClash.Weighted>
1.7683

> <Gold.Chemscore.DEInternal.Weighted>
2.7662

> <Gold.Chemscore.Rot.Weighted>
4.3930

> <Gold.Chemscore.Internal.Correction.Weighted>
   9.000000E+99

> <Gold.Protein.RotatedTorsions>
[ 6907 6896 6895 6894 ] final  -29.46 input  -60.11 | X-H torsion
[ 7974 7965 7964 7962 ] final   67.45 input  175.53 | X-H torsion
[ 8008 7997 7996 7995 ] final  162.52 input   59.86 | X-H torsion
[ 10167 10162 10161 10158 ] final   49.88 input  -65.29 | X-H torsion
[ 10718 10713 10712 10709 ] final -157.19 input   66.30 | X-H torsion
[ 10763 10752 10751 10750 ] final  167.18 input  -60.55 | X-H torsion
[ 11005 11000 10999 10996 ] final   -4.11 input  -57.11 | X-H torsion

> <Gold.Protein.ActiveResidues>
 VAL166  LYS551  ARG553  GLY616  TRP617  ASP618  TYR619  PRO620  LYS621  CYS622 
 ASP623  PHE694  ASN695  SER759  ASP760  ASP761  ALA762  ILE779  LEU786  VAL792 
 PHE793  MET794  SER795  GLU796  ALA797  LYS798  CYS799  TRP800  GLU811  SER814 

> <Gold.Protein.RotatedAtoms>
  151.1189  135.0068  159.8529 H   0  0  0  0  0  0  0  0  0  0  0  0  # atno 6907 bound_to 6896
  152.5447  134.1746  159.8621 H   0  0  0  0  0  0  0  0  0  0  0  0  # atno 6908 bound_to 6896
  151.1802  133.4685  159.2627 H   0  0  0  0  0  0  0  0  0  0  0  0  # atno 6909 bound_to 6896
  145.8145  139.3050  143.1079 H   0  0  0  0  0  0  0  0  0  0  0  0  # atno 7974 bound_to 7965
  156.2025  140.1748  156.7869 H   0  0  0  0  0  0  0  0  0  0  0  0  # atno 8008 bound_to 7997
  154.5611  140.0699  156.8851 H   0  0  0  0  0  0  0  0  0  0  0  0  # atno 8009 bound_to 7997
  155.2847  140.3351  155.4258 H   0  0  0  0  0  0  0  0  0  0  0  0  # atno 8010 bound_to 7997
  140.2782  144.3187  150.6271 H   0  0  0  0  0  0  0  0  0  0  0  0  # atno 10167 bound_to 10162
  156.5369  130.8546  151.2735 H   0  0  0  0  0  0  0  0  0  0  0  0  # atno 10718 bound_to 10713
  154.3499  135.2753  155.2377 H   0  0  0  0  0  0  0  0  0  0  0  0  # atno 10763 bound_to 10752
  154.4611  135.5907  153.6260 H   0  0  0  0  0  0  0  0  0  0  0  0  # atno 10764 bound_to 10752
  152.9850  135.6065  154.3709 H   0  0  0  0  0  0  0  0  0  0  0  0  # atno 10765 bound_to 10752
  140.6767  133.9189  155.8529 H   0  0  0  0  0  0  0  0  0  0  0  0  # atno 11005 bound_to 11000
  145.9741  140.8736  143.0147 LP  0  0  0  0  0  0  0  0  0  0  0  0  # atno 17320 bound_to 7965
  144.6754  140.1988  143.7389 LP  0  0  0  0  0  0  0  0  0  0  0  0  # atno 17321 bound_to 7965
  140.5834  143.2171  151.7387 LP  0  0  0  0  0  0  0  0  0  0  0  0  # atno 17342 bound_to 10162
  139.4970  144.4047  152.0144 LP  0  0  0  0  0  0  0  0  0  0  0  0  # atno 17343 bound_to 10162
  157.7412  130.9865  150.2429 LP  0  0  0  0  0  0  0  0  0  0  0  0  # atno 17370 bound_to 10713
  156.3007  130.3758  149.7753 LP  0  0  0  0  0  0  0  0  0  0  0  0  # atno 17371 bound_to 10713
  141.0349  134.0703  157.3970 LP  0  0  0  0  0  0  0  0  0  0  0  0  # atno 17394 bound_to 11000
  139.8964  135.0146  156.7051 LP  0  0  0  0  0  0  0  0  0  0  0  0  # atno 17395 bound_to 11000

$$$$
