#       Name:                AV-unprocessed.smi:341
#       Creating user name   scv26
#       Creation time:       Thu Mar 26 22:30:49 2020


#       File generated by GOLD software.
#

@<TRIPOS>MOLECULE
AV-unprocessed.smi:341
    51    53     1
SMALL
NO_CHARGES


@<TRIPOS>ATOM
      1 ****        -4.1409   4.4849  -1.5425 C.3            1 S1                 0.0000
      2 ****        -2.6113   4.3948  -1.4811 C.3            1 S1                 0.0000
      3 ****        -2.1802   3.1514  -0.8472 N.am           1 S1                 0.0000
      4 ****        -1.9064   1.9802  -1.4691 C.2            1 S1                 0.0000
      5 ****        -1.9634   1.7742  -2.6811 O.2            1 S1                 0.0000
      6 ****        -1.5515   1.0762  -0.5260 N.am           1 S1                 0.0000
      7 ****        -1.1541  -0.3114  -0.7571 C.3            1 S1                 0.0000
      8 ****         0.3763  -0.4455  -0.8992 C.3            1 S1                 0.0000
      9 ****         0.7112  -0.1673  -2.2446 O.3            1 S1                 0.0000
     10 ****         0.8600  -1.8748  -0.5997 C.3            1 S1                 0.0000
     11 ****         2.2547  -1.8382  -0.3251 O.3            1 S1                 0.0000
     12 ****         2.8975  -3.0249  -0.0454 C.ar           1 S1                 0.0000
     13 ****         4.2844  -2.9578   0.2009 C.ar           1 S1                 0.0000
     14 ****         5.0228  -4.1203   0.4957 C.ar           1 S1                 0.0000
     15 ****         4.3767  -5.3709   0.5483 C.ar           1 S1                 0.0000
     16 ****         5.1350  -6.5724   0.8545 C.1            1 S1                 0.0000
     17 ****         5.7385  -7.5289   1.0987 N.1            1 S1                 0.0000
     18 ****         2.9915  -5.4516   0.3038 C.ar           1 S1                 0.0000
     19 ****         2.2546  -4.2876   0.0090 C.ar           1 S1                 0.0000
     20 ****        -1.5936   1.6881   0.7353 C.ar           1 S1                 0.0000
     21 ****        -1.3070   1.1872   2.0174 C.ar           1 S1                 0.0000
     22 ****        -1.4521   2.0780   3.1067 C.ar           1 S1                 0.0000
     23 ****        -1.8702   3.4182   2.8993 C.ar           1 S1                 0.0000
     24 ****        -2.1492   3.8972   1.5979 C.ar           1 S1                 0.0000
     25 ****        -1.9942   2.9923   0.5334 C.ar           1 S1                 0.0000
     26 ****        -4.4552   5.4172  -2.0120 H              1 S1                 0.0000
     27 ****        -4.5786   4.4511  -0.5443 H              1 S1                 0.0000
     28 ****        -4.5616   3.6626  -2.1220 H              1 S1                 0.0000
     29 ****        -2.1953   4.4633  -2.4875 H              1 S1                 0.0000
     30 ****        -2.2089   5.2454  -0.9305 H              1 S1                 0.0000
     31 ****        -1.5037  -0.8956   0.0945 H              1 S1                 0.0000
     32 ****        -1.6702  -0.7281  -1.6243 H              1 S1                 0.0000
     33 ****         0.8795   0.2570  -0.2328 H              1 S1                 0.0000
     34 ****         0.4069   0.7018  -2.4577 H              1 S1                 0.0000
     35 ****         0.3516  -2.2529   0.2886 H              1 S1                 0.0000
     36 ****         0.6272  -2.5457  -1.4288 H              1 S1                 0.0000
     37 ****         4.7884  -2.0031   0.1632 H              1 S1                 0.0000
     38 ****         6.0848  -4.0443   0.6809 H              1 S1                 0.0000
     39 ****         2.4850  -6.4055   0.3411 H              1 S1                 0.0000
     40 ****         1.1955  -4.3910  -0.1703 H              1 S1                 0.0000
     41 ****        -0.9888   0.1665   2.1697 H              1 S1                 0.0000
     42 ****        -1.2428   1.7332   4.1086 H              1 S1                 0.0000
     43 ****        -1.9753   4.0817   3.7451 H              1 S1                 0.0000
     44 ****        -2.4671   4.9162   1.4340 H              1 S1                 0.0000
     45 ****        -2.2322   2.5111  -3.3014 LP             1 S1                 0.0000
     46 ****        -1.7410   0.8699  -3.0455 LP             1 S1                 0.0000
     47 ****         0.2721  -0.8348  -2.8459 LP             1 S1                 0.0000
     48 ****         1.7032  -0.2150  -2.3616 LP             1 S1                 0.0000
     49 ****         2.3853  -1.2378   0.4639 LP             1 S1                 0.0000
     50 ****         2.7035  -1.4399  -1.1250 LP             1 S1                 0.0000
     51 ****         6.2601  -8.3556   1.3098 LP             1 S1                 0.0000
@<TRIPOS>BOND
    1    1    2 1     
    2    1   26 1     
    3    1   27 1     
    4    1   28 1     
    5    2    3 1     
    6    2   29 1     
    7    2   30 1     
    8    3   25 1     
    9    3    4 am    
   10    4    5 2     
   11    4    6 am    
   12    6    7 1     
   13    6   20 1     
   14    7    8 1     
   15    7   31 1     
   16    7   32 1     
   17    8    9 1     
   18    8   10 1     
   19    8   33 1     
   20    9   34 1     
   21   10   11 1     
   22   10   35 1     
   23   10   36 1     
   24   11   12 1     
   25   12   19 ar    
   26   12   13 ar    
   27   13   14 ar    
   28   13   37 1     
   29   14   15 ar    
   30   14   38 1     
   31   15   16 1     
   32   15   18 ar    
   33   16   17 3     
   34   18   19 ar    
   35   18   39 1     
   36   19   40 1     
   37   20   25 ar    
   38   20   21 ar    
   39   21   22 ar    
   40   21   41 1     
   41   22   23 ar    
   42   22   42 1     
   43   23   24 ar    
   44   23   43 1     
   45   24   25 ar    
   46   24   44 1     
   47    5   45 1     
   48    5   46 1     
   49    9   47 1     
   50    9   48 1     
   51   11   49 1     
   52   11   50 1     
   53   17   51 1     
@<TRIPOS>SUBSTRUCTURE
      1 S1             1
@<TRIPOS>SET
LONE_PAIRS      STATIC     ATOMS    <user>   **** ""
7 45 46 47 48 49 50 51
DONOR_HYDROGENS      STATIC     ATOMS    <user>   **** ""
1 34
ATOM$BLUE        STATIC     ATOMS    COLORGROUP SYSTEM
7 45 46 47 48 49 50 51
ATOM$RED        STATIC     ATOMS    COLORGROUP SYSTEM
1 34
