#       Name:                AV-unprocessed.smi:264
#       Creating user name   scv26
#       Creation time:       Thu Mar 26 21:21:10 2020


#       File generated by GOLD software.
#

@<TRIPOS>MOLECULE
AV-unprocessed.smi:264
    64    68     1
SMALL
NO_CHARGES


@<TRIPOS>ATOM
      1 ****        -3.2599   3.2895   4.8565 C.3            1 S1                 0.0000
      2 ****        -3.1787   1.8161   4.4252 C.3            1 S1                 0.0000
      3 ****        -4.4738   1.2158   4.4327 O.3            1 S1                 0.0000
      4 ****        -4.7607   0.6518   3.1604 C.3            1 S1                 0.0000
      5 ****        -3.3933   0.3519   2.5610 C.3            1 S1                 0.0000
      6 ****        -2.5596   1.5330   3.0368 C.3            1 S1                 0.0000
      7 ****        -2.7810   2.6214   2.1530 O.3            1 S1                 0.0000
      8 ****        -1.0396   1.2501   3.0944 C.3            1 S1                 0.0000
      9 ****        -0.4722   0.8801   1.8067 N.pl3          1 S1                 0.0000
     10 ****         0.0102   1.7368   0.8431 C.2            1 S1                 0.0000
     11 ****         0.4618   1.1611  -0.2374 N.2            1 S1                 0.0000
     12 ****         0.2928  -0.1973   0.0045 C.ar           1 S1                 0.0000
     13 ****         0.5632  -1.3847  -0.7339 C.ar           1 S1                 0.0000
     14 ****         1.1007  -1.4261  -1.9711 N.3            1 S1                 0.0000
     15 ****         0.1395  -1.1440  -3.0253 C.3            1 S1                 0.0000
     16 ****         0.7677  -1.4555  -4.3913 C.3            1 S1                 0.0000
     17 ****         1.9932  -0.7391  -4.5454 O.3            1 S1                 0.0000
     18 ****         2.9686  -1.0009  -3.5301 C.3            1 S1                 0.0000
     19 ****         4.1726  -0.1037  -3.8027 C.3            1 S1                 0.0000
     20 ****         5.3560  -0.9752  -3.4109 C.3            1 S1                 0.0000
     21 ****         4.9686  -2.2448  -3.9013 O.3            1 S1                 0.0000
     22 ****         3.5822  -2.4176  -3.6324 C.3            1 S1                 0.0000
     23 ****         2.3541  -0.7029  -2.1419 C.3            1 S1                 0.0000
     24 ****         0.2347  -2.5729  -0.1707 N.ar           1 S1                 0.0000
     25 ****        -0.3107  -2.6065   1.0488 C.ar           1 S1                 0.0000
     26 ****        -0.6119  -1.5880   1.8572 N.ar           1 S1                 0.0000
     27 ****        -0.2944  -0.3903   1.2869 C.ar           1 S1                 0.0000
     28 ****        -2.2754   3.7577   4.8418 H              1 S1                 0.0000
     29 ****        -3.6513   3.3721   5.8706 H              1 S1                 0.0000
     30 ****        -3.9189   3.8644   4.2052 H              1 S1                 0.0000
     31 ****        -2.6066   1.2747   5.1798 H              1 S1                 0.0000
     32 ****        -5.3869  -0.2362   3.2473 H              1 S1                 0.0000
     33 ****        -5.2933   1.3873   2.5558 H              1 S1                 0.0000
     34 ****        -3.0133  -0.5751   2.9920 H              1 S1                 0.0000
     35 ****        -3.4147   0.2335   1.4767 H              1 S1                 0.0000
     36 ****        -2.4820   2.3726   1.2919 H              1 S1                 0.0000
     37 ****        -0.5072   2.1270   3.4654 H              1 S1                 0.0000
     38 ****        -0.8302   0.4460   3.8010 H              1 S1                 0.0000
     39 ****         0.0083   2.8104   0.9649 H              1 S1                 0.0000
     40 ****        -0.7626  -1.7409  -2.8837 H              1 S1                 0.0000
     41 ****        -0.1556  -0.0947  -2.9787 H              1 S1                 0.0000
     42 ****         0.9311  -2.5278  -4.5001 H              1 S1                 0.0000
     43 ****         0.0871  -1.1623  -5.1905 H              1 S1                 0.0000
     44 ****         4.2391   0.1222  -4.8682 H              1 S1                 0.0000
     45 ****         4.1458   0.8454  -3.2661 H              1 S1                 0.0000
     46 ****         6.2938  -0.6401  -3.8545 H              1 S1                 0.0000
     47 ****         5.4763  -1.0150  -2.3272 H              1 S1                 0.0000
     48 ****         3.4669  -2.9692  -2.6985 H              1 S1                 0.0000
     49 ****         3.1417  -3.0187  -4.4271 H              1 S1                 0.0000
     50 ****         2.1657   0.3672  -2.0576 H              1 S1                 0.0000
     51 ****         3.0515  -0.9687  -1.3460 H              1 S1                 0.0000
     52 ****        -0.5408  -3.5903   1.4308 H              1 S1                 0.0000
     53 ****        -5.1591   1.9116   4.6478 LP             1 S1                 0.0000
     54 ****        -4.5003   0.4962   5.1266 LP             1 S1                 0.0000
     55 ****        -2.2717   3.4219   2.4690 LP             1 S1                 0.0000
     56 ****        -3.7567   2.8381   2.1221 LP             1 S1                 0.0000
     57 ****         0.8424   1.5973  -1.0528 LP             1 S1                 0.0000
     58 ****         1.3655  -2.3853  -2.0703 LP             1 S1                 0.0000
     59 ****         1.7862   0.2392  -4.5341 LP             1 S1                 0.0000
     60 ****         2.3896  -0.9857  -5.4297 LP             1 S1                 0.0000
     61 ****         5.4948  -2.9606  -3.4422 LP             1 S1                 0.0000
     62 ****         5.1313  -2.2916  -4.8868 LP             1 S1                 0.0000
     63 ****         0.4005  -3.4246  -0.6678 LP             1 S1                 0.0000
     64 ****        -1.0184  -1.6900   2.7652 LP             1 S1                 0.0000
@<TRIPOS>BOND
    1    1    2 1     
    2    1   28 1     
    3    1   29 1     
    4    1   30 1     
    5    2    6 1     
    6    2    3 1     
    7    2   31 1     
    8    3    4 1     
    9    4    5 1     
   10    4   32 1     
   11    4   33 1     
   12    5    6 1     
   13    5   34 1     
   14    5   35 1     
   15    6    7 1     
   16    6    8 1     
   17    7   36 1     
   18    8    9 1     
   19    8   37 1     
   20    8   38 1     
   21    9   27 1     
   22    9   10 1     
   23   10   11 2     
   24   10   39 1     
   25   11   12 1     
   26   12   27 ar    
   27   12   13 ar    
   28   13   14 1     
   29   13   24 ar    
   30   14   23 1     
   31   14   15 1     
   32   15   16 1     
   33   15   40 1     
   34   15   41 1     
   35   16   17 1     
   36   16   42 1     
   37   16   43 1     
   38   17   18 1     
   39   18   22 1     
   40   18   19 1     
   41   18   23 1     
   42   19   20 1     
   43   19   44 1     
   44   19   45 1     
   45   20   21 1     
   46   20   46 1     
   47   20   47 1     
   48   21   22 1     
   49   22   48 1     
   50   22   49 1     
   51   23   50 1     
   52   23   51 1     
   53   24   25 ar    
   54   25   26 ar    
   55   25   52 1     
   56   26   27 ar    
   57    3   53 1     
   58    3   54 1     
   59    7   55 1     
   60    7   56 1     
   61   11   57 1     
   62   14   58 1     
   63   17   59 1     
   64   17   60 1     
   65   21   61 1     
   66   21   62 1     
   67   24   63 1     
   68   26   64 1     
@<TRIPOS>SUBSTRUCTURE
      1 S1             1
@<TRIPOS>SET
LONE_PAIRS      STATIC     ATOMS    <user>   **** ""
12 53 54 55 56 57 58 59 60 61 62 63 64
DONOR_HYDROGENS      STATIC     ATOMS    <user>   **** ""
1 36
ATOM$BLUE        STATIC     ATOMS    COLORGROUP SYSTEM
12 53 54 55 56 57 58 59 60 61 62 63 64
ATOM$RED        STATIC     ATOMS    COLORGROUP SYSTEM
1 36
