#       Name:                AV-unprocessed.smi:2781
#       Creating user name   scv26
#       Creation time:       Fri Mar 27 15:15:56 2020


#       File generated by GOLD software.
#

@<TRIPOS>MOLECULE
AV-unprocessed.smi:2781
    38    41     1
SMALL
NO_CHARGES


@<TRIPOS>ATOM
      1 ****         1.4734   1.8466  -1.3822 O.2            1 S1                 0.0000
      2 ****         1.1906   0.8212  -0.7617 C.2            1 S1                 0.0000
      3 ****         2.0497  -0.1710  -0.4677 N.am           1 S1                 0.0000
      4 ****         3.4302  -0.2624  -0.7895 C.ar           1 S1                 0.0000
      5 ****         4.0710  -1.4413  -0.3448 C.ar           1 S1                 0.0000
      6 ****         5.4408  -1.6294  -0.6132 C.ar           1 S1                 0.0000
      7 ****         6.1338  -0.6314  -1.3208 C.ar           1 S1                 0.0000
      8 ****         7.4510  -0.7683  -1.6031 F              1 S1                 0.0000
      9 ****         5.4229   0.5125  -1.7282 C.ar           1 S1                 0.0000
     10 ****         4.1100   0.6940  -1.4711 N.ar           1 S1                 0.0000
     11 ****        -0.0344   0.5535  -0.2886 N.am           1 S1                 0.0000
     12 ****        -1.1828   1.3913  -0.4249 C.3            1 S1                 0.0000
     13 ****        -2.2220   1.4773   0.6872 C.3            1 S1                 0.0000
     14 ****        -2.5735   0.4378   1.7543 C.3            1 S1                 0.0000
     15 ****        -4.1139   0.3614   1.8280 C.3            1 S1                 0.0000
     16 ****        -4.4753  -0.3506   0.4988 C.3            1 S1                 0.0000
     17 ****        -3.0892  -0.5781  -0.1424 C.3            1 S1                 0.0000
     18 ****        -2.2905  -0.9216   1.1149 C.3            1 S1                 0.0000
     19 ****        -2.5717   0.7880  -0.5999 C.3            1 S1                 0.0000
     20 ****         1.6714  -0.9525   0.0469 H              1 S1                 0.0000
     21 ****         3.5221  -2.1976   0.1973 H              1 S1                 0.0000
     22 ****         5.9487  -2.5232  -0.2823 H              1 S1                 0.0000
     23 ****         5.9187   1.3014  -2.2746 H              1 S1                 0.0000
     24 ****        -0.1699  -0.3148   0.2079 H              1 S1                 0.0000
     25 ****        -1.0225   2.3221  -0.9672 H              1 S1                 0.0000
     26 ****        -2.6412   2.4666   0.8620 H              1 S1                 0.0000
     27 ****        -2.0781   0.6230   2.7075 H              1 S1                 0.0000
     28 ****        -4.4368  -0.2317   2.6847 H              1 S1                 0.0000
     29 ****        -4.5748   1.3465   1.9108 H              1 S1                 0.0000
     30 ****        -4.9789  -1.2987   0.6925 H              1 S1                 0.0000
     31 ****        -5.1303   0.2524  -0.1315 H              1 S1                 0.0000
     32 ****        -3.0683  -1.3274  -0.9339 H              1 S1                 0.0000
     33 ****        -1.2413  -1.1494   0.9519 H              1 S1                 0.0000
     34 ****        -2.7111  -1.7582   1.6772 H              1 S1                 0.0000
     35 ****        -3.2268   1.3123  -1.2936 H              1 S1                 0.0000
     36 ****         2.4067   1.9906  -1.7111 LP             1 S1                 0.0000
     37 ****         0.7697   2.5352  -1.5572 LP             1 S1                 0.0000
     38 ****         3.6440   1.5234  -1.7793 LP             1 S1                 0.0000
@<TRIPOS>BOND
    1    1    2 2     
    2    2    3 am    
    3    2   11 am    
    4    3    4 1     
    5    3   20 1     
    6    4   10 ar    
    7    4    5 ar    
    8    5    6 ar    
    9    5   21 1     
   10    6    7 ar    
   11    6   22 1     
   12    7    8 1     
   13    7    9 ar    
   14    9   10 ar    
   15    9   23 1     
   16   11   12 1     
   17   11   24 1     
   18   12   19 1     
   19   12   13 1     
   20   12   25 1     
   21   13   19 1     
   22   13   14 1     
   23   13   26 1     
   24   14   18 1     
   25   14   15 1     
   26   14   27 1     
   27   15   16 1     
   28   15   28 1     
   29   15   29 1     
   30   16   17 1     
   31   16   30 1     
   32   16   31 1     
   33   17   18 1     
   34   17   19 1     
   35   17   32 1     
   36   18   33 1     
   37   18   34 1     
   38   19   35 1     
   39    1   36 1     
   40    1   37 1     
   41   10   38 1     
@<TRIPOS>SUBSTRUCTURE
      1 S1             1
@<TRIPOS>SET
LONE_PAIRS      STATIC     ATOMS    <user>   **** ""
3 36 37 38
DONOR_HYDROGENS      STATIC     ATOMS    <user>   **** ""
2 20 24
ATOM$BLUE        STATIC     ATOMS    COLORGROUP SYSTEM
3 36 37 38
ATOM$RED        STATIC     ATOMS    COLORGROUP SYSTEM
2 20 24
