AV-unprocessed.smi:2908|AV-procd|sdf|11167|dock9
  -GOLD-   2272016 53D 1   1.00000     0.00000
 Structure written by MMmdl.
 43 44  0  0  0  0  0  0  0  0  1 V2000
  150.9094  140.1706  154.9666 O   0  0  0  0  0  0  0  0  0  0  0  0
  151.4193  139.4620  155.8359 C   0  0  0  0  0  0  0  0  0  0  0  0
  151.6311  139.9099  157.0841 N   0  0  0  0  0  0  0  0  0  0  0  0
  151.2727  141.2405  157.5554 C   0  0  0  0  0  0  0  0  0  0  0  0
  151.9434  141.5402  158.9032 C   0  0  0  0  0  0  0  0  0  0  0  0
  151.4723  142.8546  159.4974 C   0  0  0  0  0  0  0  0  0  0  0  0
  151.8705  143.2439  160.7942 C   0  0  0  0  0  0  0  0  0  0  0  0
  151.4154  144.4799  161.2926 C   0  0  0  0  0  0  0  0  0  0  0  0
  150.5848  145.2751  160.4798 C   0  0  0  0  0  0  0  0  0  0  0  0
  150.2440  144.7963  159.1992 C   0  0  0  0  0  0  0  0  0  0  0  0
  150.6744  143.6127  158.7118 N   0  0  0  0  0  0  0  0  0  0  0  0
  151.8389  138.1915  155.6083 N   0  0  0  0  0  0  0  0  0  0  0  0
  152.3803  137.2584  156.6085 C   0  0  0  0  0  0  0  0  0  0  0  0
  151.3087  136.2012  156.9265 C   0  0  0  0  0  0  0  0  0  0  0  0
  150.8504  135.4397  155.6556 C   0  0  0  0  0  0  0  0  0  0  0  0
  149.7065  134.4394  155.9774 C   0  0  2  0  0  0  0  0  0  0  0  0
  150.0997  133.6514  157.0864 O   0  0  0  0  0  0  0  0  0  0  0  0
  149.3194  133.4700  154.8359 C   0  0  0  0  0  0  0  0  0  0  0  0
  148.6852  134.1402  153.8725 F   0  0  0  0  0  0  0  0  0  0  0  0
  150.4073  132.9328  154.2848 F   0  0  0  0  0  0  0  0  0  0  0  0
  148.5322  132.4917  155.2839 F   0  0  0  0  0  0  0  0  0  0  0  0
  150.4887  136.4500  154.5385 C   0  0  0  0  0  0  0  0  0  0  0  0
  151.5909  137.5059  154.3361 C   0  0  0  0  0  0  0  0  0  0  0  0
  152.0629  139.2846  157.7486 H   0  0  0  0  0  0  0  0  0  0  0  0
  151.5761  141.9826  156.8150 H   0  0  0  0  0  0  0  0  0  0  0  0
  150.1877  141.3057  157.6529 H   0  0  0  0  0  0  0  0  0  0  0  0
  151.7359  140.7376  159.6124 H   0  0  0  0  0  0  0  0  0  0  0  0
  153.0271  141.5701  158.7817 H   0  0  0  0  0  0  0  0  0  0  0  0
  152.5116  142.6137  161.3929 H   0  0  0  0  0  0  0  0  0  0  0  0
  151.6997  144.8124  162.2801 H   0  0  0  0  0  0  0  0  0  0  0  0
  150.2181  146.2290  160.8289 H   0  0  0  0  0  0  0  0  0  0  0  0
  149.6095  145.3799  158.5487 H   0  0  0  0  0  0  0  0  0  0  0  0
  153.2707  136.7752  156.2037 H   0  0  0  0  0  0  0  0  0  0  0  0
  152.7088  137.7383  157.5302 H   0  0  0  0  0  0  0  0  0  0  0  0
  151.7065  135.5045  157.6649 H   0  0  0  0  0  0  0  0  0  0  0  0
  150.4517  136.6879  157.3945 H   0  0  0  0  0  0  0  0  0  0  0  0
  151.7054  134.8640  155.2976 H   0  0  0  0  0  0  0  0  0  0  0  0
  148.8164  134.9947  156.2756 H   0  0  0  0  0  0  0  0  0  0  0  0
  149.9197  132.7450  156.8874 H   0  0  0  0  0  0  0  0  0  0  0  0
  150.3385  135.9307  153.5926 H   0  0  0  0  0  0  0  0  0  0  0  0
  149.5480  136.9476  154.7782 H   0  0  0  0  0  0  0  0  0  0  0  0
  151.3064  138.1922  153.5371 H   0  0  0  0  0  0  0  0  0  0  0  0
  152.5107  137.0275  153.9969 H   0  0  0  0  0  0  0  0  0  0  0  0
  1  2  2  0  0  0  0
  2  3  1  0  0  0  0
  2 12  1  0  0  0  0
  3  4  1  0  0  0  0
  3 24  1  0  0  0  0
  4  5  1  0  0  0  0
  4 25  1  0  0  0  0
  4 26  1  0  0  0  0
  5  6  1  0  0  0  0
  5 27  1  0  0  0  0
  5 28  1  0  0  0  0
  6 11  1  0  0  0  0
  6  7  2  0  0  0  0
  7  8  1  0  0  0  0
  7 29  1  0  0  0  0
  8  9  2  0  0  0  0
  8 30  1  0  0  0  0
  9 10  1  0  0  0  0
  9 31  1  0  0  0  0
 10 11  2  0  0  0  0
 10 32  1  0  0  0  0
 12 23  1  0  0  0  0
 12 13  1  0  0  0  0
 13 14  1  0  0  0  0
 13 33  1  0  0  0  0
 13 34  1  0  0  0  0
 14 15  1  0  0  0  0
 14 35  1  0  0  0  0
 14 36  1  0  0  0  0
 15 16  1  0  0  0  0
 15 22  1  0  0  0  0
 15 37  1  0  0  0  0
 16 17  1  0  0  0  0
 16 18  1  0  0  0  0
 16 38  1  0  0  0  0
 17 39  1  0  0  0  0
 18 19  1  0  0  0  0
 18 20  1  0  0  0  0
 18 21  1  0  0  0  0
 22 23  1  0  0  0  0
 22 40  1  0  0  0  0
 22 41  1  0  0  0  0
 23 42  1  0  0  0  0
 23 43  1  0  0  0  0
M  END
> <s_m_source_file>
AV-unprocessed.smi

> <i_m_source_file_index>
2908

> <i_lp_mmshare_version>
43012

> <i_f3d_flags>
0

> <s_epik_input>
RkMoRikoRilbQ0BASF0oW09IXSlbQ0hdKFtDSDJdW0NIMl0xKVtDSDJdW0NIMl1OMUMoPU8pW05IXVtDSDJdW0NIMl1jMltjSF1bY0hdW2NIXVtjSF1uMg==

> <s_epik_cmdline>
J2VwaWtfcHl0aG9uJywgJy1waCcsICc3LjAnLCAnLXRuJywgJzgnLCAnLW1hJywgJzIwMCcsICctbWV0YWxfYmluZGluZycsICctaW1hZScsICc8aW5maWxlLm1hZT4nLCAnLW9tYWUnLCAnPG91dGZpbGUubWFlPic=

> <r_epik_Ionization_Penalty>
0.0451198

> <r_epik_Ionization_Penalty_Charging>
0

> <r_epik_Ionization_Penalty_Neutral>
0.0451198

> <r_epik_State_Penalty>
0.0381178

> <r_epik_Charging_Adjusted_Penalty>
0.0381178

> <i_epik_Tot_Q>
0

> <i_epik_Tot_abs_Q>
0

> <r_epik_Metal_State_Penalty>
0.0354176

> <b_epik_Metal_Only>
0

> <s_lp_Force_Field>
OPLS_2005

> <r_lp_Energy>
35.4637

> <b_lp_Chiralities_Consistent>
1

> <s_lp_Variant>
AV-unprocessed.smi:2908-1

> <Gold.Version>
5.8.1

> <Gold.Id.Protein>
6NUR|6NUR_protein|mol2

> <Gold.PLP.Fitness>
49.4999

> <Gold.PLP.PLP>
-41.0131

> <Gold.PLP.part.hbond>
-2.0000

> <Gold.PLP.part.metal>
0.0000

> <Gold.PLP.part.buried>
-5.5434

> <Gold.PLP.part.nonpolar>
-33.8953

> <Gold.PLP.part.repulsive>
0.2843

> <Gold.PLP.ligand.clash>
0.0000

> <Gold.PLP.ligand.torsion>
0.4615

> <Gold.PLP.Chemscore.Hbond>
2.0000

> <Gold.PLP.Chemscore.CHOScore>
1.0000

> <Gold.PLP.Chemscore.Metal>
0.0000

> <Gold.Chemscore.Hbonds>
donor molecule, donor type, donor heavy atom, donor atom, acceptor molecule, acceptor atom, score
      P1  H  6896  6907       L1    17  0.36
      P1  H  7989  7998       L1     1  1.00
      L1  C    10    32       P1  8029  1.00

> <Gold.PLP.Chemscore.Internal.Correction>
0.4098

> <Gold.Rescore>
     Score         DG    S(hbond)    S(metal)    S(lipo)     H(rot)  DE(clash)    DE(int)     intcor
     16.41     -18.00       1.92        0.00     102.49       2.30       0.05       1.54       ----

> <Gold.Chemscore.Fitness>
16.4140

> <Gold.Chemscore.DG>
-18.0001

> <Gold.Chemscore.ZeroCoef>
-5.4800

> <Gold.Chemscore.Hbond>
1.9250

> <Gold.Chemscore.Metal>
0.0000

> <Gold.Chemscore.Lipo>
102.4883

> <Gold.Chemscore.Internal_Hbond>
0.0000

> <Gold.Chemscore.DEClash>
0.0486

> <Gold.Chemscore.DEInternal>
1.5375

> <Gold.Chemscore.Rot>
2.3048

> <Gold.Chemscore.Internal.Correction>
   9.000000E+99

> <Gold.Chemscore.Hbonds>
donor molecule, donor type, donor heavy atom, donor atom, acceptor molecule, acceptor atom, score
      P1  H  6896  6907       L1    17  0.26
      P1  H  7989  7998       L1     1  1.00

> <Gold.Chemscore.Hbond.Weighted>
-6.4294

> <Gold.Chemscore.Metal.Weighted>
-0.0000

> <Gold.Chemscore.Lipo.Weighted>
-11.9911

> <Gold.Chemscore.Internal_Hbond.Weighted>
0.0000

> <Gold.Chemscore.DEClash.Weighted>
0.0486

> <Gold.Chemscore.DEInternal.Weighted>
1.5375

> <Gold.Chemscore.Rot.Weighted>
5.9004

> <Gold.Chemscore.Internal.Correction.Weighted>
   9.000000E+99

> <Gold.Protein.RotatedTorsions>
[ 6907 6896 6895 6894 ] final -116.89 input  -60.11 | X-H torsion
[ 7974 7965 7964 7962 ] final  106.88 input  175.53 | X-H torsion
[ 8008 7997 7996 7995 ] final -144.81 input   59.86 | X-H torsion
[ 10167 10162 10161 10158 ] final  -72.91 input  -65.29 | X-H torsion
[ 10718 10713 10712 10709 ] final  -44.06 input   66.30 | X-H torsion
[ 10763 10752 10751 10750 ] final  -72.39 input  -60.55 | X-H torsion
[ 11005 11000 10999 10996 ] final   50.55 input  -57.11 | X-H torsion

> <Gold.Protein.ActiveResidues>
 VAL166  LYS551  ARG553  GLY616  TRP617  ASP618  TYR619  PRO620  LYS621  CYS622 
 ASP623  PHE694  ASN695  SER759  ASP760  ASP761  ALA762  ILE779  LEU786  VAL792 
 PHE793  MET794  SER795  GLU796  ALA797  LYS798  CYS799  TRP800  GLU811  SER814 

> <Gold.Protein.RotatedAtoms>
  150.8092  133.8454  159.3190 H   0  0  0  0  0  0  0  0  0  0  0  0  # atno 6907 bound_to 6896
  151.6244  135.1027  160.0118 H   0  0  0  0  0  0  0  0  0  0  0  0  # atno 6908 bound_to 6896
  152.4183  133.7035  159.6494 H   0  0  0  0  0  0  0  0  0  0  0  0  # atno 6909 bound_to 6896
  145.3008  139.2570  143.3815 H   0  0  0  0  0  0  0  0  0  0  0  0  # atno 7974 bound_to 7965
  155.5330  140.0601  157.2885 H   0  0  0  0  0  0  0  0  0  0  0  0  # atno 8008 bound_to 7997
  154.4478  140.1932  156.0558 H   0  0  0  0  0  0  0  0  0  0  0  0  # atno 8009 bound_to 7997
  156.0639  140.3269  155.7498 H   0  0  0  0  0  0  0  0  0  0  0  0  # atno 8010 bound_to 7997
  140.5154  143.2339  151.7522 H   0  0  0  0  0  0  0  0  0  0  0  0  # atno 10167 bound_to 10162
  156.2425  130.4181  149.8744 H   0  0  0  0  0  0  0  0  0  0  0  0  # atno 10718 bound_to 10713
  154.4450  135.5931  153.6154 H   0  0  0  0  0  0  0  0  0  0  0  0  # atno 10763 bound_to 10752
  152.9808  135.6007  154.3675 H   0  0  0  0  0  0  0  0  0  0  0  0  # atno 10764 bound_to 10752
  154.3529  135.2841  155.2341 H   0  0  0  0  0  0  0  0  0  0  0  0  # atno 10765 bound_to 10752
  140.1007  134.5085  155.8765 H   0  0  0  0  0  0  0  0  0  0  0  0  # atno 11005 bound_to 11000
  146.3152  140.3522  142.8657 LP  0  0  0  0  0  0  0  0  0  0  0  0  # atno 17320 bound_to 7965
  144.9095  140.7740  143.5816 LP  0  0  0  0  0  0  0  0  0  0  0  0  # atno 17321 bound_to 7965
  139.4908  144.4331  151.9849 LP  0  0  0  0  0  0  0  0  0  0  0  0  # atno 17342 bound_to 10162
  140.3425  144.3186  150.5964 LP  0  0  0  0  0  0  0  0  0  0  0  0  # atno 17343 bound_to 10162
  156.6321  130.8670  151.3497 LP  0  0  0  0  0  0  0  0  0  0  0  0  # atno 17370 bound_to 10713
  157.7181  130.9523  150.1332 LP  0  0  0  0  0  0  0  0  0  0  0  0  # atno 17371 bound_to 10713
  141.2105  133.6695  156.6513 LP  0  0  0  0  0  0  0  0  0  0  0  0  # atno 17394 bound_to 11000
  140.3223  134.7997  157.4262 LP  0  0  0  0  0  0  0  0  0  0  0  0  # atno 17395 bound_to 11000

$$$$
