AV-unprocessed.smi:1454|AV-procd|sdf|5914|dock1
  -GOLD-   22720 6 03D 1   1.00000     0.00000
 Structure written by MMmdl.
 45 46  0  0  0  0  0  0  0  0  2 V2000
  150.4130  139.3216  154.1085 O   0  0  0  0  0  0  0  0  0  0  0  0
  150.9887  139.1674  155.1851 C   0  0  0  0  0  0  0  0  0  0  0  0
  151.3655  140.3928  156.0239 C   0  0  0  0  0  0  0  0  0  0  0  0
  150.2669  141.4762  156.0799 C   0  0  0  0  0  0  0  0  0  0  0  0
  150.7776  142.7675  156.5293 N   0  0  0  0  0  0  0  0  0  0  0  0
  151.6898  142.9670  157.4916 C   0  0  0  0  0  0  0  0  0  0  0  0
  152.2266  142.0489  158.1111 O   0  0  0  0  0  0  0  0  0  0  0  0
  152.0428  144.4356  157.7866 C   0  0  0  0  0  0  0  0  0  0  0  0
  153.0628  144.5971  158.9328 C   0  0  0  0  0  0  0  0  0  0  0  0
  152.2681  144.9720  160.1958 C   0  0  0  0  0  0  0  0  0  0  0  0
  150.7943  145.0391  159.7837 C   0  0  0  0  0  0  0  0  0  0  0  0
  150.8155  145.2225  158.2677 C   0  0  0  0  0  0  0  0  0  0  0  0
  151.2776  137.9625  155.7039 N   0  0  0  0  0  0  0  0  0  0  0  0
  150.8307  136.6771  155.1687 C   0  0  0  0  0  0  0  0  0  0  0  0
  151.2882  135.4676  156.0106 C   0  0  0  0  0  0  0  0  0  0  0  0
  150.7479  134.1112  155.5778 C   0  0  0  0  0  0  0  0  0  0  0  0
  149.8334  134.0251  154.5040 C   0  0  0  0  0  0  0  0  0  0  0  0
  149.3432  132.7647  154.1042 C   0  0  0  0  0  0  0  0  0  0  0  0
  149.7812  131.6115  154.7850 C   0  0  0  0  0  0  0  0  0  0  0  0
  150.6707  131.7264  155.7944 N   0  3  0  0  0  0  0  0  0  0  0  0
  151.1687  132.9144  156.2009 C   0  0  0  0  0  0  0  0  0  0  0  0
  151.5469  140.0289  157.0358 H   0  0  0  0  0  0  0  0  0  0  0  0
  152.3126  140.8181  155.6880 H   0  0  0  0  0  0  0  0  0  0  0  0
  149.7534  141.5831  155.1225 H   0  0  0  0  0  0  0  0  0  0  0  0
  149.5025  141.1690  156.7939 H   0  0  0  0  0  0  0  0  0  0  0  0
  150.3985  143.5836  156.0704 H   0  0  0  0  0  0  0  0  0  0  0  0
  152.4402  144.8792  156.8720 H   0  0  0  0  0  0  0  0  0  0  0  0
  153.6665  143.7027  159.0940 H   0  0  0  0  0  0  0  0  0  0  0  0
  153.7619  145.3984  158.6903 H   0  0  0  0  0  0  0  0  0  0  0  0
  152.4214  144.2535  161.0006 H   0  0  0  0  0  0  0  0  0  0  0  0
  152.5998  145.9437  160.5634 H   0  0  0  0  0  0  0  0  0  0  0  0
  150.2975  144.0998  160.0247 H   0  0  0  0  0  0  0  0  0  0  0  0
  150.2535  145.8365  160.2941 H   0  0  0  0  0  0  0  0  0  0  0  0
  150.9436  146.2784  158.0259 H   0  0  0  0  0  0  0  0  0  0  0  0
  149.8832  144.8963  157.8038 H   0  0  0  0  0  0  0  0  0  0  0  0
  151.7645  137.9382  156.5882 H   0  0  0  0  0  0  0  0  0  0  0  0
  149.7409  136.7008  155.1582 H   0  0  0  0  0  0  0  0  0  0  0  0
  151.1263  136.5564  154.1256 H   0  0  0  0  0  0  0  0  0  0  0  0
  152.3786  135.4303  156.0126 H   0  0  0  0  0  0  0  0  0  0  0  0
  150.9906  135.6239  157.0480 H   0  0  0  0  0  0  0  0  0  0  0  0
  149.5077  134.9159  153.9876 H   0  0  0  0  0  0  0  0  0  0  0  0
  148.6390  132.6842  153.2895 H   0  0  0  0  0  0  0  0  0  0  0  0
  149.4553  130.6087  154.5502 H   0  0  0  0  0  0  0  0  0  0  0  0
  151.8780  132.8656  157.0136 H   0  0  0  0  0  0  0  0  0  0  0  0
  150.9814  130.8792  156.2706 H   0  0  0  0  0  0  0  0  0  0  0  0
  1  2  2  0  0  0  0
  2  3  1  0  0  0  0
  2 13  1  0  0  0  0
  3  4  1  0  0  0  0
  3 22  1  0  0  0  0
  3 23  1  0  0  0  0
  4  5  1  0  0  0  0
  4 24  1  0  0  0  0
  4 25  1  0  0  0  0
  5  6  1  0  0  0  0
  5 26  1  0  0  0  0
  6  7  2  0  0  0  0
  6  8  1  0  0  0  0
  8 12  1  0  0  0  0
  8  9  1  0  0  0  0
  8 27  1  0  0  0  0
  9 10  1  0  0  0  0
  9 28  1  0  0  0  0
  9 29  1  0  0  0  0
 10 11  1  0  0  0  0
 10 30  1  0  0  0  0
 10 31  1  0  0  0  0
 11 12  1  0  0  0  0
 11 32  1  0  0  0  0
 11 33  1  0  0  0  0
 12 34  1  0  0  0  0
 12 35  1  0  0  0  0
 13 14  1  0  0  0  0
 13 36  1  0  0  0  0
 14 15  1  0  0  0  0
 14 37  1  0  0  0  0
 14 38  1  0  0  0  0
 15 16  1  0  0  0  0
 15 39  1  0  0  0  0
 15 40  1  0  0  0  0
 16 21  1  0  0  0  0
 16 17  2  0  0  0  0
 17 18  1  0  0  0  0
 17 41  1  0  0  0  0
 18 19  2  0  0  0  0
 18 42  1  0  0  0  0
 19 20  1  0  0  0  0
 19 43  1  0  0  0  0
 20 21  2  0  0  0  0
 20 45  1  0  0  0  0
 21 44  1  0  0  0  0
M  CHG  1  20   1
M  END
> <s_m_source_file>
AV-unprocessed.smi

> <i_m_source_file_index>
1454

> <i_lp_mmshare_version>
43012

> <i_f3d_flags>
0

> <s_epik_input>
W2NIXTFuW2NIXVtjSF1bY0hdYzFbQ0gyXVtDSDJdW05IXUMoPU8pW0NIMl1bQ0gyXVtOSF1DKD1PKVtDSF0yW0NIMl1bQ0gyXVtDSDJdW0NIMl0y

> <s_epik_cmdline>
J2VwaWtfcHl0aG9uJywgJy1waCcsICc3LjAnLCAnLXRuJywgJzgnLCAnLW1hJywgJzIwMCcsICctbWV0YWxfYmluZGluZycsICctaW1hZScsICc8aW5maWxlLm1hZT4nLCAnLW9tYWUnLCAnPG91dGZpbGUubWFlPic=

> <r_epik_Ionization_Penalty>
2.25878

> <r_epik_Ionization_Penalty_Charging>
2.25878

> <r_epik_Ionization_Penalty_Neutral>
5.05393e-08

> <r_epik_State_Penalty>
2.40647

> <r_epik_Charging_Adjusted_Penalty>
4.66526

> <i_epik_Tot_Q>
1

> <i_epik_Tot_abs_Q>
1

> <r_epik_Metal_State_Penalty>
2.41947

> <b_epik_Metal_Only>
0

> <s_lp_Force_Field>
OPLS_2005

> <r_lp_Energy>
23.282

> <b_lp_Chiralities_Consistent>
1

> <s_lp_Variant>
AV-unprocessed.smi:1454-2

> <Gold.Version>
5.8.1

> <Gold.Id.Protein>
6NUR|6NUR_protein|mol2

> <Gold.PLP.Fitness>
49.0474

> <Gold.PLP.PLP>
-43.8034

> <Gold.PLP.part.hbond>
-2.0000

> <Gold.PLP.part.metal>
0.0000

> <Gold.PLP.part.buried>
-5.4326

> <Gold.PLP.part.nonpolar>
-36.8109

> <Gold.PLP.part.repulsive>
0.3845

> <Gold.PLP.ligand.clash>
0.0000

> <Gold.PLP.ligand.torsion>
0.4730

> <Gold.PLP.Chemscore.Hbond>
1.9920

> <Gold.PLP.Chemscore.CHOScore>
0.0000

> <Gold.PLP.Chemscore.Metal>
0.0000

> <Gold.Chemscore.Hbonds>
donor molecule, donor type, donor heavy atom, donor atom, acceptor molecule, acceptor atom, score
      L1  H     5    26       P1  8028  1.00
      P1  H  7989  7998       L1     1  0.71

> <Gold.PLP.Chemscore.Internal.Correction>
0.2140

> <Gold.Rescore>
     Score         DG    S(hbond)    S(metal)    S(lipo)     H(rot)  DE(clash)    DE(int)     intcor
     16.72     -18.64       1.93        0.00     106.33       2.23       0.05       1.88       ----

> <Gold.Chemscore.Fitness>
16.7156

> <Gold.Chemscore.DG>
-18.6417

> <Gold.Chemscore.ZeroCoef>
-5.4800

> <Gold.Chemscore.Hbond>
1.9288

> <Gold.Chemscore.Metal>
0.0000

> <Gold.Chemscore.Lipo>
106.3321

> <Gold.Chemscore.Internal_Hbond>
0.0000

> <Gold.Chemscore.DEClash>
0.0498

> <Gold.Chemscore.DEInternal>
1.8763

> <Gold.Chemscore.Rot>
2.2348

> <Gold.Chemscore.Internal.Correction>
   9.000000E+99

> <Gold.Chemscore.Hbonds>
donor molecule, donor type, donor heavy atom, donor atom, acceptor molecule, acceptor atom, score
      L1  H     5    26       P1  8028  0.95
      P1  H  7989  7998       L1     1  0.08

> <Gold.Chemscore.Hbond.Weighted>
-6.4420

> <Gold.Chemscore.Metal.Weighted>
-0.0000

> <Gold.Chemscore.Lipo.Weighted>
-12.4409

> <Gold.Chemscore.Internal_Hbond.Weighted>
0.0000

> <Gold.Chemscore.DEClash.Weighted>
0.0498

> <Gold.Chemscore.DEInternal.Weighted>
1.8763

> <Gold.Chemscore.Rot.Weighted>
5.7212

> <Gold.Chemscore.Internal.Correction.Weighted>
   9.000000E+99

> <Gold.Protein.RotatedTorsions>
[ 6907 6896 6895 6894 ] final  -29.33 input  -60.11 | X-H torsion
[ 7974 7965 7964 7962 ] final  -16.91 input  175.53 | X-H torsion
[ 8008 7997 7996 7995 ] final  152.07 input   59.86 | X-H torsion
[ 10167 10162 10161 10158 ] final  -21.95 input  -65.29 | X-H torsion
[ 10718 10713 10712 10709 ] final   86.37 input   66.30 | X-H torsion
[ 10763 10752 10751 10750 ] final   12.47 input  -60.55 | X-H torsion
[ 11005 11000 10999 10996 ] final   98.41 input  -57.11 | X-H torsion

> <Gold.Protein.ActiveResidues>
 VAL166  LYS551  ARG553  GLY616  TRP617  ASP618  TYR619  PRO620  LYS621  CYS622 
 ASP623  PHE694  ASN695  SER759  ASP760  ASP761  ALA762  ILE779  LEU786  VAL792 
 PHE793  MET794  SER795  GLU796  ALA797  LYS798  CYS799  TRP800  GLU811  SER814 

> <Gold.Protein.RotatedAtoms>
  151.1207  135.0077  159.8536 H   0  0  0  0  0  0  0  0  0  0  0  0  # atno 6907 bound_to 6896
  152.5447  134.1726  159.8613 H   0  0  0  0  0  0  0  0  0  0  0  0  # atno 6908 bound_to 6896
  151.1784  133.4695  159.2627 H   0  0  0  0  0  0  0  0  0  0  0  0  # atno 6909 bound_to 6896
  146.1966  140.3704  142.8438 H   0  0  0  0  0  0  0  0  0  0  0  0  # atno 7974 bound_to 7965
  156.2645  140.2030  156.6276 H   0  0  0  0  0  0  0  0  0  0  0  0  # atno 8008 bound_to 7997
  154.6708  140.0550  157.0188 H   0  0  0  0  0  0  0  0  0  0  0  0  # atno 8009 bound_to 7997
  155.1140  140.3218  155.4517 H   0  0  0  0  0  0  0  0  0  0  0  0  # atno 8010 bound_to 7997
  140.7284  143.4580  151.0421 H   0  0  0  0  0  0  0  0  0  0  0  0  # atno 10167 bound_to 10162
  157.6928  131.0213  150.2962 H   0  0  0  0  0  0  0  0  0  0  0  0  # atno 10718 bound_to 10713
  153.1819  135.6829  153.8466 H   0  0  0  0  0  0  0  0  0  0  0  0  # atno 10763 bound_to 10752
  153.7795  135.3184  155.3365 H   0  0  0  0  0  0  0  0  0  0  0  0  # atno 10764 bound_to 10752
  154.8065  135.4745  154.0501 H   0  0  0  0  0  0  0  0  0  0  0  0  # atno 10765 bound_to 10752
  139.8772  134.9048  156.4452 H   0  0  0  0  0  0  0  0  0  0  0  0  # atno 11005 bound_to 11000
  144.8592  140.7115  143.6118 LP  0  0  0  0  0  0  0  0  0  0  0  0  # atno 17320 bound_to 7965
  145.3624  139.1678  143.4376 LP  0  0  0  0  0  0  0  0  0  0  0  0  # atno 17321 bound_to 7965
  139.8262  143.7753  152.3178 LP  0  0  0  0  0  0  0  0  0  0  0  0  # atno 17342 bound_to 10162
  139.7853  144.7430  151.0031 LP  0  0  0  0  0  0  0  0  0  0  0  0  # atno 17343 bound_to 10162
  156.3485  130.3827  149.7348 LP  0  0  0  0  0  0  0  0  0  0  0  0  # atno 17370 bound_to 10713
  156.4834  130.8051  151.3065 LP  0  0  0  0  0  0  0  0  0  0  0  0  # atno 17371 bound_to 10713
  140.8971  133.7806  155.9637 LP  0  0  0  0  0  0  0  0  0  0  0  0  # atno 17394 bound_to 11000
  140.8691  134.2748  157.5199 LP  0  0  0  0  0  0  0  0  0  0  0  0  # atno 17395 bound_to 11000

$$$$
