AV-unprocessed.smi:3277|AV-procd|sdf|12537|dock5
  -GOLD-   2272018453D 1   1.00000     0.00000
 Structure written by MMmdl.
 35 37  0  0  0  0  0  0  0  0  1 V2000
  147.0106  139.6575  153.1972 C   0  0  0  0  0  0  0  0  0  0  0  0
  148.4383  139.7299  153.4643 N   0  0  0  0  0  0  0  0  0  0  0  0
  149.0082  139.3917  154.6308 C   0  0  0  0  0  0  0  0  0  0  0  0
  148.3737  138.9665  155.5963 O   0  0  0  0  0  0  0  0  0  0  0  0
  150.5262  139.5570  154.7255 C   0  0  0  0  0  0  0  0  0  0  0  0
  150.8338  140.2441  156.0168 C   0  0  0  0  0  0  0  0  0  0  0  0
  150.9143  141.5709  156.1440 N   0  0  0  0  0  0  0  0  0  0  0  0
  151.1863  141.9816  157.4541 C   0  0  0  0  0  0  0  0  0  0  0  0
  151.2740  143.4429  157.8195 C   0  0  1  0  0  0  0  0  0  0  0  0
  150.2812  143.9114  158.9065 C   0  0  0  0  0  0  0  0  0  0  0  0
  151.1944  144.6832  159.8797 C   0  0  1  0  0  0  0  0  0  0  0  0
  152.0622  143.6827  160.6689 C   0  0  0  0  0  0  0  0  0  0  0  0
  153.0997  143.2312  159.6233 C   0  0  0  0  0  0  0  0  0  0  0  0
  152.6352  143.9627  158.3474 C   0  0  2  0  0  0  0  0  0  0  0  0
  152.2167  145.3079  158.9355 C   0  0  0  0  0  0  0  0  0  0  0  0
  151.3329  140.9256  158.3199 C   0  0  0  0  0  0  0  0  0  0  0  0
  151.1215  139.3887  157.5264 S   0  0  0  0  0  0  0  0  0  0  0  0
  146.8028  140.0169  152.1896 H   0  0  0  0  0  0  0  0  0  0  0  0
  146.4521  140.2757  153.9009 H   0  0  0  0  0  0  0  0  0  0  0  0
  146.6526  138.6302  153.2746 H   0  0  0  0  0  0  0  0  0  0  0  0
  149.0311  140.0751  152.7229 H   0  0  0  0  0  0  0  0  0  0  0  0
  151.0195  138.5849  154.6987 H   0  0  0  0  0  0  0  0  0  0  0  0
  150.9038  140.1465  153.8888 H   0  0  0  0  0  0  0  0  0  0  0  0
  151.0500  144.0190  156.9198 H   0  0  0  0  0  0  0  0  0  0  0  0
  149.5195  144.5625  158.4759 H   0  0  0  0  0  0  0  0  0  0  0  0
  149.7646  143.0936  159.4102 H   0  0  0  0  0  0  0  0  0  0  0  0
  150.6582  145.3901  160.5134 H   0  0  0  0  0  0  0  0  0  0  0  0
  152.5550  144.1697  161.5111 H   0  0  0  0  0  0  0  0  0  0  0  0
  151.4774  142.8491  161.0597 H   0  0  0  0  0  0  0  0  0  0  0  0
  154.0932  143.5781  159.9111 H   0  0  0  0  0  0  0  0  0  0  0  0
  153.1656  142.1500  159.5178 H   0  0  0  0  0  0  0  0  0  0  0  0
  153.4063  144.0197  157.5785 H   0  0  0  0  0  0  0  0  0  0  0  0
  151.7724  145.9850  158.2037 H   0  0  0  0  0  0  0  0  0  0  0  0
  153.0249  145.8267  159.4544 H   0  0  0  0  0  0  0  0  0  0  0  0
  151.5437  140.9593  159.3785 H   0  0  0  0  0  0  0  0  0  0  0  0
  1  2  1  0  0  0  0
  1 18  1  0  0  0  0
  1 19  1  0  0  0  0
  1 20  1  0  0  0  0
  2  3  1  0  0  0  0
  2 21  1  0  0  0  0
  3  4  2  0  0  0  0
  3  5  1  0  0  0  0
  5  6  1  0  0  0  0
  5 22  1  0  0  0  0
  5 23  1  0  0  0  0
  6 17  1  0  0  0  0
  6  7  2  0  0  0  0
  7  8  1  0  0  0  0
  8  9  1  0  0  0  0
  8 16  2  0  0  0  0
  9 14  1  0  0  0  0
  9 10  1  0  0  0  0
  9 24  1  0  0  0  0
 10 11  1  0  0  0  0
 10 25  1  0  0  0  0
 10 26  1  0  0  0  0
 11 15  1  0  0  0  0
 11 12  1  0  0  0  0
 11 27  1  0  0  0  0
 12 13  1  0  0  0  0
 12 28  1  0  0  0  0
 12 29  1  0  0  0  0
 13 14  1  0  0  0  0
 13 30  1  0  0  0  0
 13 31  1  0  0  0  0
 14 15  1  0  0  0  0
 14 32  1  0  0  0  0
 15 33  1  0  0  0  0
 15 34  1  0  0  0  0
 16 17  1  0  0  0  0
 16 35  1  0  0  0  0
M  END
> <s_m_source_file>
AV-unprocessed.smi

> <i_m_source_file_index>
3277

> <i_lp_mmshare_version>
43012

> <i_f3d_flags>
0

> <s_epik_input>
W0NIM11bTkhdQyg9TylbQ0gyXWMxbmMoW2NIXXMxKVtDQEhdKFtDSDJdW0NAQEhdMjMpW0NAQEhdKFtDSDJdMylbQ0gyXVtDSDJdMg==

> <s_epik_cmdline>
J2VwaWtfcHl0aG9uJywgJy1waCcsICc3LjAnLCAnLXRuJywgJzgnLCAnLW1hJywgJzIwMCcsICctbWV0YWxfYmluZGluZycsICctaW1hZScsICc8aW5maWxlLm1hZT4nLCAnLW9tYWUnLCAnPG91dGZpbGUubWFlPic=

> <r_lp_tautomer_probability>
1

> <r_epik_Ionization_Penalty>
8.50008e-05

> <r_epik_Ionization_Penalty_Charging>
0

> <r_epik_Ionization_Penalty_Neutral>
8.50008e-05

> <r_epik_State_Penalty>
-0

> <r_epik_Charging_Adjusted_Penalty>
0

> <i_epik_Tot_Q>
0

> <i_epik_Tot_abs_Q>
0

> <r_epik_Metal_State_Penalty>
-0

> <b_epik_Metal_Only>
0

> <s_lp_Force_Field>
OPLS_2005

> <r_lp_Energy>
45.709

> <b_lp_Chiralities_Consistent>
1

> <s_lp_Variant>
AV-unprocessed.smi:3277-2

> <Gold.Version>
5.8.1

> <Gold.Id.Protein>
6NUR|6NUR_protein|mol2

> <Gold.PLP.Fitness>
42.6964

> <Gold.PLP.PLP>
-40.8055

> <Gold.PLP.part.hbond>
-0.9402

> <Gold.PLP.part.metal>
0.0000

> <Gold.PLP.part.buried>
-4.5207

> <Gold.PLP.part.nonpolar>
-35.7834

> <Gold.PLP.part.repulsive>
0.2086

> <Gold.PLP.ligand.clash>
0.0000

> <Gold.PLP.ligand.torsion>
0.5458

> <Gold.PLP.Chemscore.Hbond>
0.9920

> <Gold.PLP.Chemscore.CHOScore>
0.0000

> <Gold.PLP.Chemscore.Metal>
0.0000

> <Gold.Chemscore.Hbonds>
donor molecule, donor type, donor heavy atom, donor atom, acceptor molecule, acceptor atom, score
      L1  H     2    21       P1  7957  1.00

> <Gold.PLP.Chemscore.Internal.Correction>
0.0064

> <Gold.Rescore>
     Score         DG    S(hbond)    S(metal)    S(lipo)     H(rot)  DE(clash)    DE(int)     intcor
     18.73     -19.40       0.98        0.00     121.81       1.41       0.05       0.62       ----

> <Gold.Chemscore.Fitness>
18.7325

> <Gold.Chemscore.DG>
-19.4044

> <Gold.Chemscore.ZeroCoef>
-5.4800

> <Gold.Chemscore.Hbond>
0.9843

> <Gold.Chemscore.Metal>
0.0000

> <Gold.Chemscore.Lipo>
121.8119

> <Gold.Chemscore.Internal_Hbond>
0.0000

> <Gold.Chemscore.DEClash>
0.0500

> <Gold.Chemscore.DEInternal>
0.6219

> <Gold.Chemscore.Rot>
1.4122

> <Gold.Chemscore.Internal.Correction>
   9.000000E+99

> <Gold.Chemscore.Hbonds>
donor molecule, donor type, donor heavy atom, donor atom, acceptor molecule, acceptor atom, score
      L1  H     2    21       P1  7957  0.96

> <Gold.Chemscore.Hbond.Weighted>
-3.2875

> <Gold.Chemscore.Metal.Weighted>
-0.0000

> <Gold.Chemscore.Lipo.Weighted>
-14.2520

> <Gold.Chemscore.Internal_Hbond.Weighted>
0.0000

> <Gold.Chemscore.DEClash.Weighted>
0.0500

> <Gold.Chemscore.DEInternal.Weighted>
0.6219

> <Gold.Chemscore.Rot.Weighted>
3.6151

> <Gold.Chemscore.Internal.Correction.Weighted>
   9.000000E+99

> <Gold.Protein.RotatedTorsions>
[ 6907 6896 6895 6894 ] final  115.01 input  -60.11 | X-H torsion
[ 7974 7965 7964 7962 ] final  177.08 input  175.53 | X-H torsion
[ 8008 7997 7996 7995 ] final -147.81 input   59.86 | X-H torsion
[ 10167 10162 10161 10158 ] final  -15.90 input  -65.29 | X-H torsion
[ 10718 10713 10712 10709 ] final  -16.81 input   66.30 | X-H torsion
[ 10763 10752 10751 10750 ] final   58.41 input  -60.55 | X-H torsion
[ 11005 11000 10999 10996 ] final  -39.71 input  -57.11 | X-H torsion

> <Gold.Protein.ActiveResidues>
 VAL166  LYS551  ARG553  GLY616  TRP617  ASP618  TYR619  PRO620  LYS621  CYS622 
 ASP623  PHE694  ASN695  SER759  ASP760  ASP761  ALA762  ILE779  LEU786  VAL792 
 PHE793  MET794  SER795  GLU796  ALA797  LYS798  CYS799  TRP800  GLU811  SER814 

> <Gold.Protein.RotatedAtoms>
  152.4767  133.8156  159.7026 H   0  0  0  0  0  0  0  0  0  0  0  0  # atno 6907 bound_to 6896
  150.8789  133.7390  159.2944 H   0  0  0  0  0  0  0  0  0  0  0  0  # atno 6908 bound_to 6896
  151.4900  135.1060  159.9853 H   0  0  0  0  0  0  0  0  0  0  0  0  # atno 6909 bound_to 6896
  144.7174  140.0194  143.6440 H   0  0  0  0  0  0  0  0  0  0  0  0  # atno 7974 bound_to 7965
  155.5815  140.0644  157.2782 H   0  0  0  0  0  0  0  0  0  0  0  0  # atno 8008 bound_to 7997
  154.4331  140.1851  156.1028 H   0  0  0  0  0  0  0  0  0  0  0  0  # atno 8009 bound_to 7997
  156.0301  140.3307  155.7134 H   0  0  0  0  0  0  0  0  0  0  0  0  # atno 8010 bound_to 7997
  140.7225  143.5171  150.9679 H   0  0  0  0  0  0  0  0  0  0  0  0  # atno 10167 bound_to 10162
  156.5824  130.4777  149.6315 H   0  0  0  0  0  0  0  0  0  0  0  0  # atno 10718 bound_to 10713
  152.9870  135.5607  154.5548 H   0  0  0  0  0  0  0  0  0  0  0  0  # atno 10763 bound_to 10752
  154.4978  135.2796  155.1447 H   0  0  0  0  0  0  0  0  0  0  0  0  # atno 10764 bound_to 10752
  154.2890  135.6330  153.5430 H   0  0  0  0  0  0  0  0  0  0  0  0  # atno 10765 bound_to 10752
  141.0121  133.6903  156.2223 H   0  0  0  0  0  0  0  0  0  0  0  0  # atno 11005 bound_to 11000
  146.0193  139.3237  143.0822 LP  0  0  0  0  0  0  0  0  0  0  0  0  # atno 17320 bound_to 7965
  145.8587  140.9487  143.0711 LP  0  0  0  0  0  0  0  0  0  0  0  0  # atno 17321 bound_to 7965
  139.8887  143.6981  152.3148 LP  0  0  0  0  0  0  0  0  0  0  0  0  # atno 17342 bound_to 10162
  139.7289  144.7587  151.0834 LP  0  0  0  0  0  0  0  0  0  0  0  0  # atno 17343 bound_to 10162
  156.2620  130.6968  151.1739 LP  0  0  0  0  0  0  0  0  0  0  0  0  # atno 17370 bound_to 10713
  157.7323  131.0600  150.5633 LP  0  0  0  0  0  0  0  0  0  0  0  0  # atno 17371 bound_to 10713
  140.6715  134.4862  157.5587 LP  0  0  0  0  0  0  0  0  0  0  0  0  # atno 17394 bound_to 11000
  139.9096  134.8374  156.1577 LP  0  0  0  0  0  0  0  0  0  0  0  0  # atno 17395 bound_to 11000

$$$$
