AV-unprocessed.smi:3091|AV-procd|sdf|11781|dock5
  -GOLD-   2272017163D 1   1.00000     0.00000
 Structure written by MMmdl.
 28 29  0  0  0  0  0  0  0  0  1 V2000
  149.1422  138.6353  153.4168 N   0  0  0  0  0  0  0  0  0  0  0  0
  150.4010  138.4846  154.1187 C   0  0  0  0  0  0  0  0  0  0  0  0
  150.6533  139.6090  155.1029 C   0  0  0  0  0  0  0  0  0  0  0  0
  149.7949  140.7253  155.1560 C   0  0  0  0  0  0  0  0  0  0  0  0
  150.0737  141.7398  156.0921 C   0  0  0  0  0  0  0  0  0  0  0  0
  151.1207  141.6958  156.9429 N   0  0  0  0  0  0  0  0  0  0  0  0
  151.9458  140.6202  156.8928 C   0  0  0  0  0  0  0  0  0  0  0  0
  153.0212  140.5570  157.7569 O   0  0  0  0  0  0  0  0  0  0  0  0
  152.8111  140.7395  159.1588 C   0  0  1  0  0  0  0  0  0  0  0  0
  154.0498  140.3447  159.9531 C   0  0  0  0  0  0  0  0  0  0  0  0
  154.8553  141.6353  159.9681 C   0  0  0  0  0  0  0  0  0  0  0  0
  153.8600  142.6263  160.1571 O   0  0  0  0  0  0  0  0  0  0  0  0
  152.6951  142.2473  159.4298 C   0  0  0  0  0  0  0  0  0  0  0  0
  151.7499  139.5571  155.9877 C   0  0  0  0  0  0  0  0  0  0  0  0
  149.2495  139.3104  152.6728 H   0  0  0  0  0  0  0  0  0  0  0  0
  148.8859  137.7606  152.9820 H   0  0  0  0  0  0  0  0  0  0  0  0
  150.4026  137.5320  154.6490 H   0  0  0  0  0  0  0  0  0  0  0  0
  151.2089  138.4444  153.3876 H   0  0  0  0  0  0  0  0  0  0  0  0
  148.9424  140.8063  154.4977 H   0  0  0  0  0  0  0  0  0  0  0  0
  149.4375  142.6098  156.1604 H   0  0  0  0  0  0  0  0  0  0  0  0
  151.9130  140.2233  159.5025 H   0  0  0  0  0  0  0  0  0  0  0  0
  153.7659  140.0791  160.9721 H   0  0  0  0  0  0  0  0  0  0  0  0
  154.6011  139.5055  159.5286 H   0  0  0  0  0  0  0  0  0  0  0  0
  155.6039  141.6587  160.7602 H   0  0  0  0  0  0  0  0  0  0  0  0
  155.3554  141.7945  159.0115 H   0  0  0  0  0  0  0  0  0  0  0  0
  152.6330  142.8184  158.5024 H   0  0  0  0  0  0  0  0  0  0  0  0
  151.8107  142.4812  160.0229 H   0  0  0  0  0  0  0  0  0  0  0  0
  152.4282  138.7164  155.9757 H   0  0  0  0  0  0  0  0  0  0  0  0
  1  2  1  0  0  0  0
  1 15  1  0  0  0  0
  1 16  1  0  0  0  0
  2  3  1  0  0  0  0
  2 17  1  0  0  0  0
  2 18  1  0  0  0  0
  3 14  1  0  0  0  0
  3  4  2  0  0  0  0
  4  5  1  0  0  0  0
  4 19  1  0  0  0  0
  5  6  2  0  0  0  0
  5 20  1  0  0  0  0
  6  7  1  0  0  0  0
  7  8  1  0  0  0  0
  7 14  2  0  0  0  0
  8  9  1  0  0  0  0
  9 13  1  0  0  0  0
  9 10  1  0  0  0  0
  9 21  1  0  0  0  0
 10 11  1  0  0  0  0
 10 22  1  0  0  0  0
 10 23  1  0  0  0  0
 11 12  1  0  0  0  0
 11 24  1  0  0  0  0
 11 25  1  0  0  0  0
 12 13  1  0  0  0  0
 13 26  1  0  0  0  0
 13 27  1  0  0  0  0
 14 28  1  0  0  0  0
M  END
> <s_m_source_file>
AV-unprocessed.smi

> <i_m_source_file_index>
3091

> <i_lp_mmshare_version>
43012

> <i_f3d_flags>
0

> <s_epik_input>
W05IMl1bQ0gyXWMxW2NIXVtjSF1uYyhbY0hdMSlPW0NAQEhdMltDSDJdW0NIMl1PW0NIMl0y

> <s_epik_cmdline>
J2VwaWtfcHl0aG9uJywgJy1waCcsICc3LjAnLCAnLXRuJywgJzgnLCAnLW1hJywgJzIwMCcsICctbWV0YWxfYmluZGluZycsICctaW1hZScsICc8aW5maWxlLm1hZT4nLCAnLW9tYWUnLCAnPG91dGZpbGUubWFlPic=

> <r_lp_tautomer_probability>
1

> <r_epik_Ionization_Penalty>
1.24495

> <r_epik_Ionization_Penalty_Charging>
0

> <r_epik_Ionization_Penalty_Neutral>
1.24495

> <r_epik_State_Penalty>
1.3141

> <r_epik_Charging_Adjusted_Penalty>
1.3141

> <i_epik_Tot_Q>
0

> <i_epik_Tot_abs_Q>
0

> <r_epik_Metal_State_Penalty>
1.31398

> <b_epik_Metal_Only>
0

> <s_lp_Force_Field>
OPLS_2005

> <r_lp_Energy>
15.3378

> <b_lp_Chiralities_Consistent>
1

> <s_lp_Variant>
AV-unprocessed.smi:3091-4

> <Gold.Version>
5.8.1

> <Gold.Id.Protein>
6NUR|6NUR_protein|mol2

> <Gold.PLP.Fitness>
40.9105

> <Gold.PLP.PLP>
-29.4971

> <Gold.PLP.part.hbond>
-2.9509

> <Gold.PLP.part.metal>
0.0000

> <Gold.PLP.part.buried>
-2.4907

> <Gold.PLP.part.nonpolar>
-23.8800

> <Gold.PLP.part.repulsive>
0.0457

> <Gold.PLP.ligand.clash>
0.0000

> <Gold.PLP.ligand.torsion>
0.2425

> <Gold.PLP.Chemscore.Hbond>
2.9600

> <Gold.PLP.Chemscore.CHOScore>
1.0000

> <Gold.PLP.Chemscore.Metal>
0.0000

> <Gold.Chemscore.Hbonds>
donor molecule, donor type, donor heavy atom, donor atom, acceptor molecule, acceptor atom, score
      L1  H     1    15       P1  7957  1.00
      L1  H     1    16       P1  7948  1.00
      P1  H  7997  8009       L1     8  0.77
      L1  C     5    20       P1  8028  1.00

> <Gold.PLP.Chemscore.Internal.Correction>
0.0184

> <Gold.Rescore>
     Score         DG    S(hbond)    S(metal)    S(lipo)     H(rot)  DE(clash)    DE(int)     intcor
     17.55     -18.63       2.51        0.00      74.50       1.54       0.31       0.77       ----

> <Gold.Chemscore.Fitness>
17.5513

> <Gold.Chemscore.DG>
-18.6288

> <Gold.Chemscore.ZeroCoef>
-5.4800

> <Gold.Chemscore.Hbond>
2.5091

> <Gold.Chemscore.Metal>
0.0000

> <Gold.Chemscore.Lipo>
74.5043

> <Gold.Chemscore.Internal_Hbond>
0.0000

> <Gold.Chemscore.DEClash>
0.3097

> <Gold.Chemscore.DEInternal>
0.7678

> <Gold.Chemscore.Rot>
1.5424

> <Gold.Chemscore.Internal.Correction>
   9.000000E+99

> <Gold.Chemscore.Hbonds>
donor molecule, donor type, donor heavy atom, donor atom, acceptor molecule, acceptor atom, score
      L1  H     1    15       P1  7957  1.00
      L1  H     1    16       P1  7948  0.99
      P1  H  7997  8009       L1     8  0.56

> <Gold.Chemscore.Hbond.Weighted>
-8.3805

> <Gold.Chemscore.Metal.Weighted>
-0.0000

> <Gold.Chemscore.Lipo.Weighted>
-8.7170

> <Gold.Chemscore.Internal_Hbond.Weighted>
0.0000

> <Gold.Chemscore.DEClash.Weighted>
0.3097

> <Gold.Chemscore.DEInternal.Weighted>
0.7678

> <Gold.Chemscore.Rot.Weighted>
3.9487

> <Gold.Chemscore.Internal.Correction.Weighted>
   9.000000E+99

> <Gold.Protein.RotatedTorsions>
[ 6907 6896 6895 6894 ] final   33.14 input  -60.11 | X-H torsion
[ 7974 7965 7964 7962 ] final  -39.52 input  175.53 | X-H torsion
[ 8008 7997 7996 7995 ] final  165.15 input   59.86 | X-H torsion
[ 10167 10162 10161 10158 ] final  151.56 input  -65.29 | X-H torsion
[ 10718 10713 10712 10709 ] final   49.83 input   66.30 | X-H torsion
[ 10763 10752 10751 10750 ] final  -81.26 input  -60.55 | X-H torsion
[ 11005 11000 10999 10996 ] final  124.14 input  -57.11 | X-H torsion

> <Gold.Protein.ActiveResidues>
 VAL166  LYS551  ARG553  GLY616  TRP617  ASP618  TYR619  PRO620  LYS621  CYS622 
 ASP623  PHE694  ASN695  SER759  ASP760  ASP761  ALA762  ILE779  LEU786  VAL792 
 PHE793  MET794  SER795  GLU796  ALA797  LYS798  CYS799  TRP800  GLU811  SER814 

> <Gold.Protein.RotatedAtoms>
  152.0843  134.9450  160.0572 H   0  0  0  0  0  0  0  0  0  0  0  0  # atno 6907 bound_to 6896
  152.0726  133.4109  159.4474 H   0  0  0  0  0  0  0  0  0  0  0  0  # atno 6908 bound_to 6896
  150.6836  134.2994  159.4743 H   0  0  0  0  0  0  0  0  0  0  0  0  # atno 6909 bound_to 6896
  146.0388  140.6635  142.9097 H   0  0  0  0  0  0  0  0  0  0  0  0  # atno 7974 bound_to 7965
  156.1824  140.1678  156.8250 H   0  0  0  0  0  0  0  0  0  0  0  0  # atno 8008 bound_to 7997
  154.5375  140.0743  156.8485 H   0  0  0  0  0  0  0  0  0  0  0  0  # atno 8009 bound_to 7997
  155.3282  140.3377  155.4242 H   0  0  0  0  0  0  0  0  0  0  0  0  # atno 8010 bound_to 7997
  139.4839  144.5431  151.7531 H   0  0  0  0  0  0  0  0  0  0  0  0  # atno 10167 bound_to 10162
  157.4826  130.8324  149.8110 H   0  0  0  0  0  0  0  0  0  0  0  0  # atno 10718 bound_to 10713
  154.5614  135.5632  153.7010 H   0  0  0  0  0  0  0  0  0  0  0  0  # atno 10763 bound_to 10752
  153.0019  135.6275  154.2240 H   0  0  0  0  0  0  0  0  0  0  0  0  # atno 10764 bound_to 10752
  154.2177  135.2871  155.2915 H   0  0  0  0  0  0  0  0  0  0  0  0  # atno 10765 bound_to 10752
  139.9345  134.9640  156.8364 H   0  0  0  0  0  0  0  0  0  0  0  0  # atno 11005 bound_to 11000
  144.7065  140.3871  143.7114 LP  0  0  0  0  0  0  0  0  0  0  0  0  # atno 17320 bound_to 7965
  145.6918  139.1641  143.2642 LP  0  0  0  0  0  0  0  0  0  0  0  0  # atno 17321 bound_to 7965
  140.4973  144.1221  150.5963 LP  0  0  0  0  0  0  0  0  0  0  0  0  # atno 17342 bound_to 10162
  140.4102  143.2660  151.9841 LP  0  0  0  0  0  0  0  0  0  0  0  0  # atno 17343 bound_to 10162
  156.0129  130.3825  150.2204 LP  0  0  0  0  0  0  0  0  0  0  0  0  # atno 17370 bound_to 10713
  157.0390  131.0030  151.3289 LP  0  0  0  0  0  0  0  0  0  0  0  0  # atno 17371 bound_to 10713
  140.6114  134.0079  155.7578 LP  0  0  0  0  0  0  0  0  0  0  0  0  # atno 17394 bound_to 11000
  141.0951  133.9856  157.3173 LP  0  0  0  0  0  0  0  0  0  0  0  0  # atno 17395 bound_to 11000

$$$$
