#       Name:                AV-unprocessed.smi:1629
#       Creating user name   scv26
#       Creation time:       Fri Mar 27 07:19:49 2020


#       File generated by GOLD software.
#

@<TRIPOS>MOLECULE
AV-unprocessed.smi:1629
    48    49     1
SMALL
NO_CHARGES


@<TRIPOS>ATOM
      1 ****        -7.2040   0.8247   0.1618 C.3            1 S1                 0.0000
      2 ****        -5.6509   0.5782  -0.7893 S.o2           1 S1                 0.0000
      3 ****        -5.4146  -0.8643  -0.9509 O.2            1 S1                 0.0000
      4 ****        -5.6845   1.4615  -1.9651 O.2            1 S1                 0.0000
      5 ****        -4.4544   1.1827   0.2996 N.3            1 S1                 0.0000
      6 ****        -3.2182   1.7575  -0.2384 C.3            1 S1                 0.0000
      7 ****        -2.3497   0.6661  -0.9023 C.3            1 S1                 0.0000
      8 ****        -0.9731   1.2246  -1.3063 C.3            1 S1                 0.0000
      9 ****        -0.3196   1.7977  -0.1167 N.am           1 S1                 0.0000
     10 ****         0.7209   1.2557   0.5655 C.2            1 S1                 0.0000
     11 ****         1.0915   1.6613   1.6681 O.2            1 S1                 0.0000
     12 ****         1.3598   0.2641  -0.0766 N.am           1 S1                 0.0000
     13 ****         2.5308  -0.4328   0.4370 C.3            1 S1                 0.0000
     14 ****         3.0944  -1.3966  -0.6160 C.3            1 S1                 0.0000
     15 ****         4.3307  -2.1237  -0.1227 C.ar           1 S1                 0.0000
     16 ****         5.6349  -1.6973  -0.4557 C.ar           1 S1                 0.0000
     17 ****         6.7428  -2.4128   0.0447 C.ar           1 S1                 0.0000
     18 ****         6.5239  -3.5374   0.8671 C.ar           1 S1                 0.0000
     19 ****         5.2006  -3.9176   1.1702 C.ar           1 S1                 0.0000
     20 ****         4.1653  -3.2062   0.6719 N.pl3          1 S1                 1.0000
     21 ****        -1.0696   2.9503   0.3990 C.3            1 S1                 0.0000
     22 ****        -2.4490   2.4750   0.8891 C.3            1 S1                 0.0000
     23 ****        -8.0513   0.4845  -0.4332 H              1 S1                 0.0000
     24 ****        -7.3255   1.8833   0.3916 H              1 S1                 0.0000
     25 ****        -7.1595   0.2538   1.0890 H              1 S1                 0.0000
     26 ****        -4.2550   0.5057   1.0357 H              1 S1                 0.0000
     27 ****        -3.4807   2.5015  -0.9914 H              1 S1                 0.0000
     28 ****        -2.2123  -0.1698  -0.2147 H              1 S1                 0.0000
     29 ****        -2.8539   0.2648  -1.7820 H              1 S1                 0.0000
     30 ****        -0.3939   0.4440  -1.7988 H              1 S1                 0.0000
     31 ****        -1.0972   2.0076  -2.0558 H              1 S1                 0.0000
     32 ****         1.0168  -0.0125  -0.9851 H              1 S1                 0.0000
     33 ****         3.2931   0.2965   0.7167 H              1 S1                 0.0000
     34 ****         2.2562  -0.9773   1.3418 H              1 S1                 0.0000
     35 ****         2.3379  -2.1319  -0.8948 H              1 S1                 0.0000
     36 ****         3.3431  -0.8502  -1.5270 H              1 S1                 0.0000
     37 ****         5.7867  -0.8316  -1.0840 H              1 S1                 0.0000
     38 ****         7.7485  -2.1023  -0.1984 H              1 S1                 0.0000
     39 ****         7.3590  -4.0990   1.2601 H              1 S1                 0.0000
     40 ****         4.9409  -4.7624   1.7914 H              1 S1                 0.0000
     41 ****        -0.5457   3.4675   1.2041 H              1 S1                 0.0000
     42 ****        -1.1883   3.6884  -0.3955 H              1 S1                 0.0000
     43 ****        -3.0264   3.3245   1.2555 H              1 S1                 0.0000
     44 ****        -2.3157   1.8017   1.7375 H              1 S1                 0.0000
     45 ****         3.2163  -3.4994   0.9053 H              1 S1                 0.0000
     46 ****        -4.9081   1.9974   0.6609 LP             1 S1                 0.0000
     47 ****         0.6186   2.4271   2.1039 LP             1 S1                 0.0000
     48 ****         1.8652   1.2248   2.1272 LP             1 S1                 0.0000
@<TRIPOS>BOND
    1    1    2 1     
    2    1   23 1     
    3    1   24 1     
    4    1   25 1     
    5    2    3 2     
    6    2    4 2     
    7    2    5 1     
    8    5    6 1     
    9    5   26 1     
   10    6   22 1     
   11    6    7 1     
   12    6   27 1     
   13    7    8 1     
   14    7   28 1     
   15    7   29 1     
   16    8    9 1     
   17    8   30 1     
   18    8   31 1     
   19    9   10 am    
   20    9   21 1     
   21   10   11 2     
   22   10   12 am    
   23   12   13 1     
   24   12   32 1     
   25   13   14 1     
   26   13   33 1     
   27   13   34 1     
   28   14   15 1     
   29   14   35 1     
   30   14   36 1     
   31   15   20 ar    
   32   15   16 ar    
   33   16   17 ar    
   34   16   37 1     
   35   17   18 ar    
   36   17   38 1     
   37   18   19 ar    
   38   18   39 1     
   39   19   20 ar    
   40   19   40 1     
   41   20   45 1     
   42   21   22 1     
   43   21   41 1     
   44   21   42 1     
   45   22   43 1     
   46   22   44 1     
   47    5   46 1     
   48   11   47 1     
   49   11   48 1     
@<TRIPOS>SUBSTRUCTURE
      1 S1             1
@<TRIPOS>SET
LONE_PAIRS      STATIC     ATOMS    <user>   **** ""
5 3 4 46 47 48
DONOR_HYDROGENS      STATIC     ATOMS    <user>   **** ""
3 26 32 45
ATOM$BLUE        STATIC     ATOMS    COLORGROUP SYSTEM
5 3 4 46 47 48
ATOM$RED        STATIC     ATOMS    COLORGROUP SYSTEM
3 26 32 45
