#       Name:                AV-unprocessed.smi:1872
#       Creating user name   scv26
#       Creation time:       Fri Mar 27 09:32:17 2020


#       File generated by GOLD software.
#

@<TRIPOS>MOLECULE
AV-unprocessed.smi:1872
    44    46     1
SMALL
NO_CHARGES


@<TRIPOS>ATOM
      1 ****        -1.5049   1.7034  -2.9252 C.3            1 S1                 0.0000
      2 ****        -1.7008   2.2972  -1.5660 C.2            1 S1                 0.0000
      3 ****        -2.2178   3.5131  -1.3890 N.2            1 S1                 0.0000
      4 ****        -2.2204   3.6436  -0.0134 C.ar           1 S1                 0.0000
      5 ****        -2.6504   4.7112   0.8071 C.ar           1 S1                 0.0000
      6 ****        -2.5547   4.6161   2.2109 C.ar           1 S1                 0.0000
      7 ****        -2.0283   3.4552   2.8135 C.ar           1 S1                 0.0000
      8 ****        -1.5944   2.3799   2.0147 C.ar           1 S1                 0.0000
      9 ****        -1.6929   2.4792   0.6138 C.ar           1 S1                 0.0000
     10 ****        -1.3648   1.6269  -0.4365 N.pl3          1 S1                 0.0000
     11 ****        -0.7857   0.2952  -0.3233 C.3            1 S1                 0.0000
     12 ****         0.7518   0.2955  -0.4401 C.3            1 S1                 0.0000
     13 ****         1.3155   1.1330   0.5513 O.3            1 S1                 0.0000
     14 ****         1.3033  -1.1210  -0.3855 C.ar           1 S1                 0.0000
     15 ****         1.5695  -1.8167  -1.5829 C.ar           1 S1                 0.0000
     16 ****         2.0670  -3.1334  -1.5440 C.ar           1 S1                 0.0000
     17 ****         2.2961  -3.7787  -0.3122 C.ar           1 S1                 0.0000
     18 ****         2.7933  -5.0620  -0.3416 O.3            1 S1                 0.0000
     19 ****         2.4932  -5.9170   0.6723 C.3            1 S1                 0.0000
     20 ****         2.4647  -7.1888   0.2059 F              1 S1                 0.0000
     21 ****         3.4420  -5.8569   1.6390 F              1 S1                 0.0000
     22 ****         2.0363  -3.0766   0.8892 C.ar           1 S1                 0.0000
     23 ****         1.5378  -1.7602   0.8513 C.ar           1 S1                 0.0000
     24 ****        -1.8184   2.4061  -3.6980 H              1 S1                 0.0000
     25 ****        -2.0967   0.7939  -3.0304 H              1 S1                 0.0000
     26 ****        -0.4545   1.4643  -3.0884 H              1 S1                 0.0000
     27 ****        -3.0547   5.6049   0.3552 H              1 S1                 0.0000
     28 ****        -2.8863   5.4382   2.8282 H              1 S1                 0.0000
     29 ****        -1.9570   3.3910   3.8894 H              1 S1                 0.0000
     30 ****        -1.1876   1.4906   2.4727 H              1 S1                 0.0000
     31 ****        -1.0906  -0.1352   0.6315 H              1 S1                 0.0000
     32 ****        -1.2227  -0.3422  -1.0924 H              1 S1                 0.0000
     33 ****         1.0344   0.7283  -1.4000 H              1 S1                 0.0000
     34 ****         2.2450   1.1992   0.3942 H              1 S1                 0.0000
     35 ****         1.3910  -1.3434  -2.5374 H              1 S1                 0.0000
     36 ****         2.2695  -3.6550  -2.4679 H              1 S1                 0.0000
     37 ****         1.5170  -5.7007   1.1071 H              1 S1                 0.0000
     38 ****         2.2183  -3.5353   1.8497 H              1 S1                 0.0000
     39 ****         1.3362  -1.2437   1.7784 H              1 S1                 0.0000
     40 ****        -2.5266   4.1674  -2.0794 LP             1 S1                 0.0000
     41 ****         1.1535   0.7405   1.4566 LP             1 S1                 0.0000
     42 ****         0.8995   2.0411   0.5023 LP             1 S1                 0.0000
     43 ****         3.7900  -4.9876  -0.3748 LP             1 S1                 0.0000
     44 ****         2.4623  -5.4835  -1.1859 LP             1 S1                 0.0000
@<TRIPOS>BOND
    1    1    2 1     
    2    1   24 1     
    3    1   25 1     
    4    1   26 1     
    5    2   10 1     
    6    2    3 2     
    7    3    4 1     
    8    4    9 ar    
    9    4    5 ar    
   10    5    6 ar    
   11    5   27 1     
   12    6    7 ar    
   13    6   28 1     
   14    7    8 ar    
   15    7   29 1     
   16    8    9 ar    
   17    8   30 1     
   18    9   10 1     
   19   10   11 1     
   20   11   12 1     
   21   11   31 1     
   22   11   32 1     
   23   12   13 1     
   24   12   14 1     
   25   12   33 1     
   26   13   34 1     
   27   14   23 ar    
   28   14   15 ar    
   29   15   16 ar    
   30   15   35 1     
   31   16   17 ar    
   32   16   36 1     
   33   17   18 1     
   34   17   22 ar    
   35   18   19 1     
   36   19   20 1     
   37   19   21 1     
   38   19   37 1     
   39   22   23 ar    
   40   22   38 1     
   41   23   39 1     
   42    3   40 1     
   43   13   41 1     
   44   13   42 1     
   45   18   43 1     
   46   18   44 1     
@<TRIPOS>SUBSTRUCTURE
      1 S1             1
@<TRIPOS>SET
LONE_PAIRS      STATIC     ATOMS    <user>   **** ""
5 40 41 42 43 44
DONOR_HYDROGENS      STATIC     ATOMS    <user>   **** ""
1 34
ATOM$BLUE        STATIC     ATOMS    COLORGROUP SYSTEM
5 40 41 42 43 44
ATOM$RED        STATIC     ATOMS    COLORGROUP SYSTEM
1 34
