AV-unprocessed.smi:1389|AV-procd|sdf|5648|dock9
  -GOLD-   22720 5263D 1   1.00000     0.00000
 Structure written by MMmdl.
 52 54  0  0  0  0  0  0  0  0  2 V2000
  147.5235  138.6937  153.7225 C   0  0  0  0  0  0  0  0  0  0  0  0
  148.5380  137.9976  154.6624 C   0  0  2  0  0  0  0  0  0  0  0  0
  149.9691  138.5304  154.3900 C   0  0  0  0  0  0  0  0  0  0  0  0
  150.6715  138.9248  155.6072 N   0  0  0  0  0  0  0  0  0  0  0  0
  150.8825  140.1907  155.9929 C   0  0  0  0  0  0  0  0  0  0  0  0
  150.4948  141.1673  155.3519 O   0  0  0  0  0  0  0  0  0  0  0  0
  151.5519  140.2363  157.1566 N   0  0  0  0  0  0  0  0  0  0  0  0
  151.8864  141.3753  157.9431 C   0  0  0  0  0  0  0  0  0  0  0  0
  151.2341  142.6211  157.7705 C   0  0  0  0  0  0  0  0  0  0  0  0
  151.6498  143.7286  158.5295 C   0  0  0  0  0  0  0  0  0  0  0  0
  152.7171  143.5574  159.4262 C   0  0  0  0  0  0  0  0  0  0  0  0
  153.3581  142.3835  159.5917 N   0  0  0  0  0  0  0  0  0  0  0  0
  152.9596  141.3021  158.8775 C   0  0  0  0  0  0  0  0  0  0  0  0
  153.6593  140.0944  159.1032 N   0  0  0  0  0  0  0  0  0  0  0  0
  154.9334  140.0991  159.8139 C   0  0  0  0  0  0  0  0  0  0  0  0
  155.1784  138.6412  160.1908 C   0  0  0  0  0  0  0  0  0  0  0  0
  153.7685  138.1408  160.4898 C   0  0  0  0  0  0  0  0  0  0  0  0
  152.8887  138.9219  159.5074 C   0  0  0  0  0  0  0  0  0  0  0  0
  148.5183  136.5013  154.5639 N   0  3  0  0  0  0  0  0  0  0  0  0
  149.6330  135.8668  155.3189 C   0  0  0  0  0  0  0  0  0  0  0  0
  149.6438  134.3435  155.1125 C   0  0  0  0  0  0  0  0  0  0  0  0
  148.3981  133.8021  155.5265 O   0  0  0  0  0  0  0  0  0  0  0  0
  147.3236  134.3177  154.7545 C   0  0  0  0  0  0  0  0  0  0  0  0
  147.2339  135.8437  154.9318 C   0  0  0  0  0  0  0  0  0  0  0  0
  147.5782  139.7792  153.8022 H   0  0  0  0  0  0  0  0  0  0  0  0
  146.4934  138.4341  153.9671 H   0  0  0  0  0  0  0  0  0  0  0  0
  147.7039  138.4346  152.6786 H   0  0  0  0  0  0  0  0  0  0  0  0
  148.2511  138.2625  155.6817 H   0  0  0  0  0  0  0  0  0  0  0  0
  150.5843  137.8012  153.8641 H   0  0  0  0  0  0  0  0  0  0  0  0
  149.9178  139.4031  153.7379 H   0  0  0  0  0  0  0  0  0  0  0  0
  151.0206  138.1824  156.1958 H   0  0  0  0  0  0  0  0  0  0  0  0
  151.7398  139.3460  157.5942 H   0  0  0  0  0  0  0  0  0  0  0  0
  150.4388  142.7542  157.0538 H   0  0  0  0  0  0  0  0  0  0  0  0
  151.1696  144.6894  158.4169 H   0  0  0  0  0  0  0  0  0  0  0  0
  153.0703  144.3857  160.0224 H   0  0  0  0  0  0  0  0  0  0  0  0
  155.7348  140.4981  159.1915 H   0  0  0  0  0  0  0  0  0  0  0  0
  154.8695  140.7019  160.7207 H   0  0  0  0  0  0  0  0  0  0  0  0
  155.5939  138.0993  159.3399 H   0  0  0  0  0  0  0  0  0  0  0  0
  155.8615  138.5290  161.0333 H   0  0  0  0  0  0  0  0  0  0  0  0
  153.6678  137.0606  160.3816 H   0  0  0  0  0  0  0  0  0  0  0  0
  153.4975  138.4027  161.5137 H   0  0  0  0  0  0  0  0  0  0  0  0
  151.9327  139.1932  159.9580 H   0  0  0  0  0  0  0  0  0  0  0  0
  152.6875  138.3125  158.6262 H   0  0  0  0  0  0  0  0  0  0  0  0
  150.5974  136.2654  155.0094 H   0  0  0  0  0  0  0  0  0  0  0  0
  149.5274  136.0921  156.3815 H   0  0  0  0  0  0  0  0  0  0  0  0
  149.8410  134.0905  154.0693 H   0  0  0  0  0  0  0  0  0  0  0  0
  150.4385  133.8902  155.7052 H   0  0  0  0  0  0  0  0  0  0  0  0
  147.4568  134.0549  153.7037 H   0  0  0  0  0  0  0  0  0  0  0  0
  146.3966  133.8473  155.0832 H   0  0  0  0  0  0  0  0  0  0  0  0
  146.9786  136.0873  155.9644 H   0  0  0  0  0  0  0  0  0  0  0  0
  146.4205  136.1975  154.2991 H   0  0  0  0  0  0  0  0  0  0  0  0
  148.6640  136.2834  153.5886 H   0  0  0  0  0  0  0  0  0  0  0  0
  1  2  1  0  0  0  0
  1 25  1  0  0  0  0
  1 26  1  0  0  0  0
  1 27  1  0  0  0  0
  2  3  1  0  0  0  0
  2 19  1  0  0  0  0
  2 28  1  0  0  0  0
  3  4  1  0  0  0  0
  3 29  1  0  0  0  0
  3 30  1  0  0  0  0
  4  5  1  0  0  0  0
  4 31  1  0  0  0  0
  5  6  2  0  0  0  0
  5  7  1  0  0  0  0
  7  8  1  0  0  0  0
  7 32  1  0  0  0  0
  8 13  1  0  0  0  0
  8  9  2  0  0  0  0
  9 10  1  0  0  0  0
  9 33  1  0  0  0  0
 10 11  2  0  0  0  0
 10 34  1  0  0  0  0
 11 12  1  0  0  0  0
 11 35  1  0  0  0  0
 12 13  2  0  0  0  0
 13 14  1  0  0  0  0
 14 18  1  0  0  0  0
 14 15  1  0  0  0  0
 15 16  1  0  0  0  0
 15 36  1  0  0  0  0
 15 37  1  0  0  0  0
 16 17  1  0  0  0  0
 16 38  1  0  0  0  0
 16 39  1  0  0  0  0
 17 18  1  0  0  0  0
 17 40  1  0  0  0  0
 17 41  1  0  0  0  0
 18 42  1  0  0  0  0
 18 43  1  0  0  0  0
 19 24  1  0  0  0  0
 19 20  1  0  0  0  0
 19 52  1  0  0  0  0
 20 21  1  0  0  0  0
 20 44  1  0  0  0  0
 20 45  1  0  0  0  0
 21 22  1  0  0  0  0
 21 46  1  0  0  0  0
 21 47  1  0  0  0  0
 22 23  1  0  0  0  0
 23 24  1  0  0  0  0
 23 48  1  0  0  0  0
 23 49  1  0  0  0  0
 24 50  1  0  0  0  0
 24 51  1  0  0  0  0
M  CHG  1  19   1
M  END
> <s_m_source_file>
AV-unprocessed.smi

> <i_m_source_file_index>
1389

> <i_lp_mmshare_version>
43012

> <i_f3d_flags>
0

> <s_epik_input>
W0NIMl0xW0NIMl1PW0NIMl1bQ0gyXU4xW0NASF0oW0NIM10pW0NIMl1bTkhdQyg9TylbTkhdYzJbY0hdW2NIXVtjSF1uYzJOM1tDSDJdW0NIMl1bQ0gyXVtDSDJdMw==

> <s_epik_cmdline>
J2VwaWtfcHl0aG9uJywgJy1waCcsICc3LjAnLCAnLXRuJywgJzgnLCAnLW1hJywgJzIwMCcsICctbWV0YWxfYmluZGluZycsICctaW1hZScsICc8aW5maWxlLm1hZT4nLCAnLW9tYWUnLCAnPG91dGZpbGUubWFlPic=

> <r_lp_tautomer_probability>
1

> <r_epik_Ionization_Penalty>
0.686

> <r_epik_Ionization_Penalty_Charging>
0.602531

> <r_epik_Ionization_Penalty_Neutral>
0.08347

> <r_epik_State_Penalty>
0.679975

> <r_epik_Charging_Adjusted_Penalty>
1.28251

> <i_epik_Tot_Q>
1

> <i_epik_Tot_abs_Q>
1

> <r_epik_Metal_State_Penalty>
0.679055

> <b_epik_Metal_Only>
0

> <s_lp_Force_Field>
OPLS_2005

> <r_lp_Energy>
48.7477

> <b_lp_Chiralities_Consistent>
1

> <s_lp_Variant>
AV-unprocessed.smi:1389-3

> <Gold.Version>
5.8.1

> <Gold.Id.Protein>
6NUR|6NUR_protein|mol2

> <Gold.PLP.Fitness>
40.5734

> <Gold.PLP.PLP>
-33.9534

> <Gold.PLP.part.hbond>
-2.5637

> <Gold.PLP.part.metal>
0.0000

> <Gold.PLP.part.buried>
-3.1258

> <Gold.PLP.part.nonpolar>
-27.9872

> <Gold.PLP.part.repulsive>
0.2869

> <Gold.PLP.ligand.clash>
0.0000

> <Gold.PLP.ligand.torsion>
1.0849

> <Gold.PLP.Chemscore.Hbond>
2.8056

> <Gold.PLP.Chemscore.CHOScore>
0.0000

> <Gold.PLP.Chemscore.Metal>
0.0000

> <Gold.Chemscore.Hbonds>
donor molecule, donor type, donor heavy atom, donor atom, acceptor molecule, acceptor atom, score
      L1  H    19    52       P1  7948  2.00
      P1  H  7989  7998       L1     6  0.40
      P1  H  7997  8010       L1    14  0.22

> <Gold.PLP.Chemscore.Internal.Correction>
0.3730

> <Gold.Rescore>
     Score         DG    S(hbond)    S(metal)    S(lipo)     H(rot)  DE(clash)    DE(int)     intcor
     14.69     -18.06       1.60        0.00      97.44       1.63       0.11       3.25       ----

> <Gold.Chemscore.Fitness>
14.6927

> <Gold.Chemscore.DG>
-18.0562

> <Gold.Chemscore.ZeroCoef>
-5.4800

> <Gold.Chemscore.Hbond>
1.6019

> <Gold.Chemscore.Metal>
0.0000

> <Gold.Chemscore.Lipo>
97.4409

> <Gold.Chemscore.Internal_Hbond>
0.0000

> <Gold.Chemscore.DEClash>
0.1103

> <Gold.Chemscore.DEInternal>
3.2532

> <Gold.Chemscore.Rot>
1.6307

> <Gold.Chemscore.Internal.Correction>
   9.000000E+99

> <Gold.Chemscore.Hbonds>
donor molecule, donor type, donor heavy atom, donor atom, acceptor molecule, acceptor atom, score
      L1  H    19    52       P1  7948  1.00
      P1  H  7989  7998       L1     6  0.12

> <Gold.Chemscore.Hbond.Weighted>
-5.3502

> <Gold.Chemscore.Metal.Weighted>
-0.0000

> <Gold.Chemscore.Lipo.Weighted>
-11.4006

> <Gold.Chemscore.Internal_Hbond.Weighted>
0.0000

> <Gold.Chemscore.DEClash.Weighted>
0.1103

> <Gold.Chemscore.DEInternal.Weighted>
3.2532

> <Gold.Chemscore.Rot.Weighted>
4.1746

> <Gold.Chemscore.Internal.Correction.Weighted>
   9.000000E+99

> <Gold.Protein.RotatedTorsions>
[ 6907 6896 6895 6894 ] final   51.62 input  -60.11 | X-H torsion
[ 7974 7965 7964 7962 ] final -110.56 input  175.53 | X-H torsion
[ 8008 7997 7996 7995 ] final   23.46 input   59.86 | X-H torsion
[ 10167 10162 10161 10158 ] final -168.39 input  -65.29 | X-H torsion
[ 10718 10713 10712 10709 ] final   33.35 input   66.30 | X-H torsion
[ 10763 10752 10751 10750 ] final  -53.12 input  -60.55 | X-H torsion
[ 11005 11000 10999 10996 ] final  -96.51 input  -57.11 | X-H torsion

> <Gold.Protein.ActiveResidues>
 VAL166  LYS551  ARG553  GLY616  TRP617  ASP618  TYR619  PRO620  LYS621  CYS622 
 ASP623  PHE694  ASN695  SER759  ASP760  ASP761  ALA762  ILE779  LEU786  VAL792 
 PHE793  MET794  SER795  GLU796  ALA797  LYS798  CYS799  TRP800  GLU811  SER814 

> <Gold.Protein.RotatedAtoms>
  152.3146  134.7456  160.0328 H   0  0  0  0  0  0  0  0  0  0  0  0  # atno 6907 bound_to 6896
  151.7925  133.3355  159.3511 H   0  0  0  0  0  0  0  0  0  0  0  0  # atno 6908 bound_to 6896
  150.7338  134.5760  159.5959 H   0  0  0  0  0  0  0  0  0  0  0  0  # atno 6909 bound_to 6896
  145.1668  140.8906  143.3558 H   0  0  0  0  0  0  0  0  0  0  0  0  # atno 7974 bound_to 7965
  154.9813  140.3102  155.4945 H   0  0  0  0  0  0  0  0  0  0  0  0  # atno 8008 bound_to 7997
  156.2953  140.2266  156.4852 H   0  0  0  0  0  0  0  0  0  0  0  0  # atno 8009 bound_to 7997
  154.7787  140.0447  157.1098 H   0  0  0  0  0  0  0  0  0  0  0  0  # atno 8010 bound_to 7997
  139.5988  144.1054  152.1720 H   0  0  0  0  0  0  0  0  0  0  0  0  # atno 10167 bound_to 10162
  157.2967  130.7330  149.6642 H   0  0  0  0  0  0  0  0  0  0  0  0  # atno 10718 bound_to 10713
  154.1537  135.6486  153.4969 H   0  0  0  0  0  0  0  0  0  0  0  0  # atno 10763 bound_to 10752
  153.0130  135.5344  154.6781 H   0  0  0  0  0  0  0  0  0  0  0  0  # atno 10764 bound_to 10752
  154.6076  135.2950  155.0439 H   0  0  0  0  0  0  0  0  0  0  0  0  # atno 10765 bound_to 10752
  141.1409  133.8103  157.0581 H   0  0  0  0  0  0  0  0  0  0  0  0  # atno 11005 bound_to 11000
  145.0274  139.3371  143.6042 LP  0  0  0  0  0  0  0  0  0  0  0  0  # atno 17320 bound_to 7965
  146.3474  139.9598  142.8719 LP  0  0  0  0  0  0  0  0  0  0  0  0  # atno 17321 bound_to 7965
  140.0646  144.5829  150.7237 LP  0  0  0  0  0  0  0  0  0  0  0  0  # atno 17342 bound_to 10162
  140.7233  143.2611  151.4204 LP  0  0  0  0  0  0  0  0  0  0  0  0  # atno 17343 bound_to 10162
  155.9669  130.4292  150.4823 LP  0  0  0  0  0  0  0  0  0  0  0  0  # atno 17370 bound_to 10713
  157.2796  131.0604  151.2206 LP  0  0  0  0  0  0  0  0  0  0  0  0  # atno 17371 bound_to 10713
  140.0589  134.9766  157.1269 LP  0  0  0  0  0  0  0  0  0  0  0  0  # atno 17394 bound_to 11000
  140.3878  134.2217  155.7167 LP  0  0  0  0  0  0  0  0  0  0  0  0  # atno 17395 bound_to 11000

$$$$
