#       Name:                AV-unprocessed.smi:2780
#       Creating user name   scv26
#       Creation time:       Fri Mar 27 15:15:37 2020


#       File generated by GOLD software.
#

@<TRIPOS>MOLECULE
AV-unprocessed.smi:2780
    49    51     1
SMALL
NO_CHARGES


@<TRIPOS>ATOM
      1 ****        -2.5665   2.1781   3.3287 C.3            1 S1                 0.0000
      2 ****        -2.8028   1.9963   1.8389 C.2            1 S1                 0.0000
      3 ****        -4.0491   1.9731   1.3270 C.2            1 S1                 0.0000
      4 ****        -4.3740   1.8388  -0.1491 C.3            1 S1                 0.0000
      5 ****        -3.1416   1.5066  -1.0051 C.3            1 S1                 0.0000
      6 ****        -1.8922   2.2584  -0.5117 C.3            1 S1                 0.0000
      7 ****        -0.7250   2.1353  -1.5059 C.3            1 S1                 0.0000
      8 ****        -1.5509   1.8859   0.9639 C.3            1 S1                 0.0000
      9 ****        -0.8989   0.4909   1.1440 C.3            1 S1                 0.0000
     10 ****         0.5211   0.4773   0.7390 N.4            1 S1                 1.0000
     11 ****         1.1526  -0.8543   0.7989 C.3            1 S1                 0.0000
     12 ****         2.6153  -0.7883   0.3398 C.3            1 S1                 0.0000
     13 ****         3.2387  -2.0989   0.3494 N.pl3          1 S1                 0.0000
     14 ****         4.0437  -2.6329   1.2808 C.2            1 S1                 0.0000
     15 ****         4.4511  -3.8757   1.0281 N.2            1 S1                 0.0000
     16 ****         3.8641  -4.1950  -0.1800 N.2            1 S1                 0.0000
     17 ****         3.1737  -3.1081  -0.5439 C.2            1 S1                 0.0000
     18 ****         2.3514  -3.0294  -1.7914 C.3            1 S1                 0.0000
     19 ****         2.8918  -3.5245  -3.1149 C.3            1 S1                 0.0000
     20 ****         2.6884  -2.0487  -2.8935 C.3            1 S1                 0.0000
     21 ****        -1.9519   3.0604   3.5090 H              1 S1                 0.0000
     22 ****        -2.0617   1.3146   3.7601 H              1 S1                 0.0000
     23 ****        -3.5065   2.3119   3.8652 H              1 S1                 0.0000
     24 ****        -4.8992   2.0811   1.9851 H              1 S1                 0.0000
     25 ****        -5.1422   1.0770  -0.2849 H              1 S1                 0.0000
     26 ****        -4.8067   2.7847  -0.4762 H              1 S1                 0.0000
     27 ****        -2.9609   0.4318  -0.9852 H              1 S1                 0.0000
     28 ****        -3.3513   1.7555  -2.0461 H              1 S1                 0.0000
     29 ****        -2.1540   3.3182  -0.5051 H              1 S1                 0.0000
     30 ****        -0.4597   1.0946  -1.6931 H              1 S1                 0.0000
     31 ****         0.1610   2.6572  -1.1436 H              1 S1                 0.0000
     32 ****        -0.9896   2.5759  -2.4676 H              1 S1                 0.0000
     33 ****        -0.8518   2.6368   1.3359 H              1 S1                 0.0000
     34 ****        -0.9301   0.1809   2.1878 H              1 S1                 0.0000
     35 ****        -1.4508  -0.2655   0.5861 H              1 S1                 0.0000
     36 ****         0.5807   0.8140  -0.2115 H              1 S1                 0.0000
     37 ****         1.0953  -1.2370   1.8187 H              1 S1                 0.0000
     38 ****         0.5907  -1.5407   0.1645 H              1 S1                 0.0000
     39 ****         2.6859  -0.3723  -0.6651 H              1 S1                 0.0000
     40 ****         3.1875  -0.1275   0.9924 H              1 S1                 0.0000
     41 ****         4.3342  -2.1009   2.1749 H              1 S1                 0.0000
     42 ****         1.3017  -3.2152  -1.5732 H              1 S1                 0.0000
     43 ****         3.9169  -3.8897  -3.1420 H              1 S1                 0.0000
     44 ****         2.1981  -4.0333  -3.7810 H              1 S1                 0.0000
     45 ****         1.8585  -1.5709  -3.4100 H              1 S1                 0.0000
     46 ****         3.5803  -1.4360  -2.7760 H              1 S1                 0.0000
     47 ****         1.0333   1.1092   1.3378 H              1 S1                 0.0000
     48 ****         5.0487  -4.4493   1.5883 LP             1 S1                 0.0000
     49 ****         3.9392  -5.0584  -0.6790 LP             1 S1                 0.0000
@<TRIPOS>BOND
    1    1    2 1     
    2    1   21 1     
    3    1   22 1     
    4    1   23 1     
    5    2    8 1     
    6    2    3 2     
    7    3    4 1     
    8    3   24 1     
    9    4    5 1     
   10    4   25 1     
   11    4   26 1     
   12    5    6 1     
   13    5   27 1     
   14    5   28 1     
   15    6    7 1     
   16    6    8 1     
   17    6   29 1     
   18    7   30 1     
   19    7   31 1     
   20    7   32 1     
   21    8    9 1     
   22    8   33 1     
   23    9   10 1     
   24    9   34 1     
   25    9   35 1     
   26   10   11 1     
   27   10   36 1     
   28   10   47 1     
   29   11   12 1     
   30   11   37 1     
   31   11   38 1     
   32   12   13 1     
   33   12   39 1     
   34   12   40 1     
   35   13   17 1     
   36   13   14 1     
   37   14   15 2     
   38   14   41 1     
   39   15   16 1     
   40   16   17 2     
   41   17   18 1     
   42   18   20 1     
   43   18   19 1     
   44   18   42 1     
   45   19   20 1     
   46   19   43 1     
   47   19   44 1     
   48   20   45 1     
   49   20   46 1     
   50   15   48 1     
   51   16   49 1     
@<TRIPOS>SUBSTRUCTURE
      1 S1             1
@<TRIPOS>SET
LONE_PAIRS      STATIC     ATOMS    <user>   **** ""
2 48 49
DONOR_HYDROGENS      STATIC     ATOMS    <user>   **** ""
2 36 47
ATOM$BLUE        STATIC     ATOMS    COLORGROUP SYSTEM
2 48 49
ATOM$RED        STATIC     ATOMS    COLORGROUP SYSTEM
2 36 47
