AV-unprocessed.smi:2464|AV-procd|sdf|9721|dock8
  -GOLD-   2272013363D 1   1.00000     0.00000
 Structure written by MMmdl.
 32 33  0  0  0  0  0  0  0  0  3 V2000
  153.4381  142.5553  160.4985 C   0  0  0  0  0  0  0  0  0  0  0  0
  152.4247  143.0118  159.4438 C   0  0  0  0  0  0  0  0  0  0  0  0
  152.1894  141.9351  158.4793 N   0  0  0  0  0  0  0  0  0  0  0  0
  151.2063  141.8855  157.5665 C   0  0  0  0  0  0  0  0  0  0  0  0
  150.3618  142.7700  157.4231 O   0  0  0  0  0  0  0  0  0  0  0  0
  151.2603  140.7454  156.8577 N   0  0  0  0  0  0  0  0  0  0  0  0
  150.3792  140.3095  155.8278 C   0  0  0  0  0  0  0  0  0  0  0  0
  149.2927  141.1077  155.3940 C   0  0  0  0  0  0  0  0  0  0  0  0
  148.4887  140.6491  154.3342 C   0  0  0  0  0  0  0  0  0  0  0  0
  148.7059  139.4853  153.6912 N   0  0  0  0  0  0  0  0  0  0  0  0
  149.7500  138.7311  154.0925 C   0  0  0  0  0  0  0  0  0  0  0  0
  150.6209  139.0830  155.1495 C   0  0  0  0  0  0  0  0  0  0  0  0
  151.7294  138.1755  155.5028 N   0  3  0  0  0  0  0  0  0  0  0  0
  151.9259  137.1846  154.8069 O   0  0  0  0  0  0  0  0  0  0  0  0
  152.4199  138.4745  156.4710 O   0  5  0  0  0  0  0  0  0  0  0  0
  151.1111  143.6739  159.9136 C   0  0  0  0  0  0  0  0  0  0  0  0
  151.7909  145.0318  159.7213 C   0  0  0  0  0  0  0  0  0  0  0  0
  152.7034  144.3357  158.7071 C   0  0  0  0  0  0  0  0  0  0  0  0
  153.7191  143.3713  161.1646 H   0  0  0  0  0  0  0  0  0  0  0  0
  154.3544  142.1852  160.0371 H   0  0  0  0  0  0  0  0  0  0  0  0
  153.0380  141.7561  161.1229 H   0  0  0  0  0  0  0  0  0  0  0  0
  152.8305  141.1562  158.5178 H   0  0  0  0  0  0  0  0  0  0  0  0
  151.9449  140.0680  157.1602 H   0  0  0  0  0  0  0  0  0  0  0  0
  149.0747  142.0657  155.8411 H   0  0  0  0  0  0  0  0  0  0  0  0
  147.6553  141.2409  153.9860 H   0  0  0  0  0  0  0  0  0  0  0  0
  149.8883  137.8067  153.5509 H   0  0  0  0  0  0  0  0  0  0  0  0
  150.2724  143.5294  159.2291 H   0  0  0  0  0  0  0  0  0  0  0  0
  150.8281  143.4499  160.9426 H   0  0  0  0  0  0  0  0  0  0  0  0
  151.1510  145.8093  159.3036 H   0  0  0  0  0  0  0  0  0  0  0  0
  152.3203  145.3747  160.6117 H   0  0  0  0  0  0  0  0  0  0  0  0
  153.7423  144.6661  158.7326 H   0  0  0  0  0  0  0  0  0  0  0  0
  152.2991  144.3707  157.6932 H   0  0  0  0  0  0  0  0  0  0  0  0
  1  2  1  0  0  0  0
  1 19  1  0  0  0  0
  1 20  1  0  0  0  0
  1 21  1  0  0  0  0
  2 18  1  0  0  0  0
  2  3  1  0  0  0  0
  2 16  1  0  0  0  0
  3  4  1  0  0  0  0
  3 22  1  0  0  0  0
  4  5  2  0  0  0  0
  4  6  1  0  0  0  0
  6  7  1  0  0  0  0
  6 23  1  0  0  0  0
  7 12  1  0  0  0  0
  7  8  2  0  0  0  0
  8  9  1  0  0  0  0
  8 24  1  0  0  0  0
  9 10  2  0  0  0  0
  9 25  1  0  0  0  0
 10 11  1  0  0  0  0
 11 12  2  0  0  0  0
 11 26  1  0  0  0  0
 12 13  1  0  0  0  0
 13 14  2  0  0  0  0
 13 15  1  0  0  0  0
 16 17  1  0  0  0  0
 16 27  1  0  0  0  0
 16 28  1  0  0  0  0
 17 18  1  0  0  0  0
 17 29  1  0  0  0  0
 17 30  1  0  0  0  0
 18 31  1  0  0  0  0
 18 32  1  0  0  0  0
M  CHG  1  13   1
M  CHG  1  15  -1
M  END
> <s_m_source_file>
AV-unprocessed.smi

> <i_m_source_file_index>
2464

> <i_lp_mmshare_version>
43012

> <i_f3d_flags>
0

> <s_epik_input>
W0NIMl0xW0NIMl1bQ0gyXUMxKFtDSDNdKVtOSF1DKD1PKVtOSF1jMltjSF1bY0hdbltjSF1jMltOK10oPU8pW08tXQ==

> <s_epik_cmdline>
J2VwaWtfcHl0aG9uJywgJy1waCcsICc3LjAnLCAnLXRuJywgJzgnLCAnLW1hJywgJzIwMCcsICctbWV0YWxfYmluZGluZycsICctaW1hZScsICc8aW5maWxlLm1hZT4nLCAnLW9tYWUnLCAnPG91dGZpbGUubWFlPic=

> <r_lp_tautomer_probability>
1

> <r_epik_Ionization_Penalty>
0.000161487

> <r_epik_Ionization_Penalty_Charging>
0

> <r_epik_Ionization_Penalty_Neutral>
0.000161487

> <r_epik_State_Penalty>
-0

> <r_epik_Charging_Adjusted_Penalty>
0

> <i_epik_Tot_Q>
0

> <i_epik_Tot_abs_Q>
2

> <r_epik_Metal_State_Penalty>
-0

> <b_epik_Metal_Only>
0

> <s_lp_Force_Field>
OPLS_2005

> <r_lp_Energy>
25.6435

> <b_lp_Chiralities_Consistent>
1

> <s_lp_Variant>
AV-unprocessed.smi:2464-1

> <Gold.Version>
5.8.1

> <Gold.Id.Protein>
6NUR|6NUR_protein|mol2

> <Gold.PLP.Fitness>
40.3168

> <Gold.PLP.PLP>
-34.6632

> <Gold.PLP.part.hbond>
-1.0000

> <Gold.PLP.part.metal>
0.0000

> <Gold.PLP.part.buried>
-6.5181

> <Gold.PLP.part.nonpolar>
-31.2887

> <Gold.PLP.part.repulsive>
3.7079

> <Gold.PLP.ligand.clash>
0.0000

> <Gold.PLP.ligand.torsion>
0.2625

> <Gold.PLP.Chemscore.Hbond>
0.9600

> <Gold.PLP.Chemscore.CHOScore>
1.0000

> <Gold.PLP.Chemscore.Metal>
0.0000

> <Gold.Chemscore.Hbonds>
donor molecule, donor type, donor heavy atom, donor atom, acceptor molecule, acceptor atom, score
      P1  H 10752 10764       L1    14  0.94
      L1  C    11    26       P1  7948  1.00

> <Gold.PLP.Chemscore.Internal.Correction>
0.2986

> <Gold.Rescore>
     Score         DG    S(hbond)    S(metal)    S(lipo)     H(rot)  DE(clash)    DE(int)     intcor
     12.14     -16.96       0.98        0.00      92.16       1.00       0.05       4.77       ----

> <Gold.Chemscore.Fitness>
12.1431

> <Gold.Chemscore.DG>
-16.9587

> <Gold.Chemscore.ZeroCoef>
-5.4800

> <Gold.Chemscore.Hbond>
0.9750

> <Gold.Chemscore.Metal>
0.0000

> <Gold.Chemscore.Lipo>
92.1550

> <Gold.Chemscore.Internal_Hbond>
0.0000

> <Gold.Chemscore.DEClash>
0.0502

> <Gold.Chemscore.DEInternal>
4.7654

> <Gold.Chemscore.Rot>
1.0000

> <Gold.Chemscore.Internal.Correction>
   9.000000E+99

> <Gold.Chemscore.Hbonds>
donor molecule, donor type, donor heavy atom, donor atom, acceptor molecule, acceptor atom, score
      P1  H 10752 10764       L1    14  0.91

> <Gold.Chemscore.Hbond.Weighted>
-3.2565

> <Gold.Chemscore.Metal.Weighted>
-0.0000

> <Gold.Chemscore.Lipo.Weighted>
-10.7821

> <Gold.Chemscore.Internal_Hbond.Weighted>
0.0000

> <Gold.Chemscore.DEClash.Weighted>
0.0502

> <Gold.Chemscore.DEInternal.Weighted>
4.7654

> <Gold.Chemscore.Rot.Weighted>
2.5600

> <Gold.Chemscore.Internal.Correction.Weighted>
   9.000000E+99

> <Gold.Protein.RotatedTorsions>
[ 6907 6896 6895 6894 ] final  120.93 input  -60.11 | X-H torsion
[ 7974 7965 7964 7962 ] final -136.01 input  175.53 | X-H torsion
[ 8008 7997 7996 7995 ] final   93.34 input   59.86 | X-H torsion
[ 10167 10162 10161 10158 ] final   93.18 input  -65.29 | X-H torsion
[ 10718 10713 10712 10709 ] final  134.48 input   66.30 | X-H torsion
[ 10763 10752 10751 10750 ] final  -73.51 input  -60.55 | X-H torsion
[ 11005 11000 10999 10996 ] final   29.68 input  -57.11 | X-H torsion

> <Gold.Protein.ActiveResidues>
 VAL166  LYS551  ARG553  GLY616  TRP617  ASP618  TYR619  PRO620  LYS621  CYS622 
 ASP623  PHE694  ASN695  SER759  ASP760  ASP761  ALA762  ILE779  LEU786  VAL792 
 PHE793  MET794  SER795  GLU796  ALA797  LYS798  CYS799  TRP800  GLU811  SER814 

> <Gold.Protein.RotatedAtoms>
  152.4360  133.7362  159.6614 H   0  0  0  0  0  0  0  0  0  0  0  0  # atno 6907 bound_to 6896
  150.8244  133.8186  159.3131 H   0  0  0  0  0  0  0  0  0  0  0  0  # atno 6908 bound_to 6896
  151.5859  135.1058  160.0079 H   0  0  0  0  0  0  0  0  0  0  0  0  # atno 6909 bound_to 6896
  144.8964  140.6712  143.5113 H   0  0  0  0  0  0  0  0  0  0  0  0  # atno 7974 bound_to 7965
  156.0457  140.3314  155.7293 H   0  0  0  0  0  0  0  0  0  0  0  0  # atno 8008 bound_to 7997
  155.5678  140.0625  157.2831 H   0  0  0  0  0  0  0  0  0  0  0  0  # atno 8009 bound_to 7997
  154.4412  140.1866  156.0836 H   0  0  0  0  0  0  0  0  0  0  0  0  # atno 8010 bound_to 7997
  139.8205  144.6733  150.9525 H   0  0  0  0  0  0  0  0  0  0  0  0  # atno 10167 bound_to 10162
  157.4668  131.1077  150.9852 H   0  0  0  0  0  0  0  0  0  0  0  0  # atno 10718 bound_to 10713
  154.4605  135.5895  153.6252 H   0  0  0  0  0  0  0  0  0  0  0  0  # atno 10763 bound_to 10752
  152.9823  135.6042  154.3493 H   0  0  0  0  0  0  0  0  0  0  0  0  # atno 10764 bound_to 10752
  154.3364  135.2842  155.2424 H   0  0  0  0  0  0  0  0  0  0  0  0  # atno 10765 bound_to 10752
  140.3024  134.2741  155.7751 H   0  0  0  0  0  0  0  0  0  0  0  0  # atno 11005 bound_to 11000
  145.3693  139.1662  143.4341 LP  0  0  0  0  0  0  0  0  0  0  0  0  # atno 17320 bound_to 7965
  146.3083  140.3763  142.8679 LP  0  0  0  0  0  0  0  0  0  0  0  0  # atno 17321 bound_to 7965
  140.7813  143.4096  151.1014 LP  0  0  0  0  0  0  0  0  0  0  0  0  # atno 17342 bound_to 10162
  139.7757  143.8428  152.3129 LP  0  0  0  0  0  0  0  0  0  0  0  0  # atno 17343 bound_to 10162
  157.0630  130.5833  149.5389 LP  0  0  0  0  0  0  0  0  0  0  0  0  # atno 17370 bound_to 10713
  156.0054  130.5140  150.7812 LP  0  0  0  0  0  0  0  0  0  0  0  0  # atno 17371 bound_to 10713
  141.2125  133.7655  156.9787 LP  0  0  0  0  0  0  0  0  0  0  0  0  # atno 17394 bound_to 11000
  140.1097  134.9484  157.2047 LP  0  0  0  0  0  0  0  0  0  0  0  0  # atno 17395 bound_to 11000

$$$$
