AV-unprocessed.smi:1106|AV-procd|sdf|4778|dock6
  -GOLD-   22720 3323D 1   1.00000     0.00000
 Structure written by MMmdl.
 48 49  0  0  0  0  0  0  0  0  2 V2000
  151.9286  142.4176  159.7782 C   0  0  0  0  0  0  0  0  0  0  0  0
  151.5366  142.1031  158.3269 C   0  0  0  0  0  0  0  0  0  0  0  0
  151.8129  140.7403  157.9537 N   0  0  0  0  0  0  0  0  0  0  0  0
  152.2787  139.8175  158.8701 C   0  0  0  0  0  0  0  0  0  0  0  0
  152.5493  138.5349  158.5451 C   0  0  0  0  0  0  0  0  0  0  0  0
  153.0215  137.5999  159.5120 C   0  0  0  0  0  0  0  0  0  0  0  0
  153.4194  136.8315  160.2803 N   0  0  0  0  0  0  0  0  0  0  0  0
  152.3653  138.0463  157.1803 C   0  0  0  0  0  0  0  0  0  0  0  0
  152.5694  136.8797  156.8372 O   0  0  0  0  0  0  0  0  0  0  0  0
  151.9091  139.0253  156.2615 N   0  0  0  0  0  0  0  0  0  0  0  0
  151.6902  138.6076  154.8858 C   0  0  0  0  0  0  0  0  0  0  0  0
  150.3822  137.8090  154.6938 C   0  0  1  0  0  0  0  0  0  0  0  0
  149.9817  137.9212  153.3422 O   0  0  0  0  0  0  0  0  0  0  0  0
  150.5894  136.3087  154.9806 C   0  0  0  0  0  0  0  0  0  0  0  0
  149.4992  135.4764  154.4116 N   0  3  2  0  0  0  0  0  0  0  0  0
  148.1862  135.7029  155.0711 C   0  0  0  0  0  0  0  0  0  0  0  0
  147.0659  134.9333  154.3521 C   0  0  0  0  0  0  0  0  0  0  0  0
  147.3795  133.4290  154.2778 C   0  0  1  0  0  0  0  0  0  0  0  0
  146.2819  132.6565  153.5328 C   0  0  0  0  0  0  0  0  0  0  0  0
  148.7598  133.2297  153.6289 C   0  0  0  0  0  0  0  0  0  0  0  0
  149.8450  134.0332  154.3654 C   0  0  0  0  0  0  0  0  0  0  0  0
  151.6107  140.3657  156.6048 C   0  0  0  0  0  0  0  0  0  0  0  0
  151.1863  141.1712  155.7718 O   0  0  0  0  0  0  0  0  0  0  0  0
  151.6678  143.4448  160.0324 H   0  0  0  0  0  0  0  0  0  0  0  0
  153.0002  142.3006  159.9404 H   0  0  0  0  0  0  0  0  0  0  0  0
  151.4100  141.7605  160.4769 H   0  0  0  0  0  0  0  0  0  0  0  0
  150.4647  142.2428  158.1797 H   0  0  0  0  0  0  0  0  0  0  0  0
  152.0376  142.7513  157.6057 H   0  0  0  0  0  0  0  0  0  0  0  0
  152.4310  140.1339  159.8923 H   0  0  0  0  0  0  0  0  0  0  0  0
  151.7514  139.4797  154.2323 H   0  0  0  0  0  0  0  0  0  0  0  0
  152.5609  138.0105  154.6092 H   0  0  0  0  0  0  0  0  0  0  0  0
  149.5988  138.2124  155.3348 H   0  0  0  0  0  0  0  0  0  0  0  0
  149.5941  137.1018  153.0724 H   0  0  0  0  0  0  0  0  0  0  0  0
  151.5527  136.0055  154.5668 H   0  0  0  0  0  0  0  0  0  0  0  0
  150.6531  136.1261  156.0546 H   0  0  0  0  0  0  0  0  0  0  0  0
  148.2434  135.3897  156.1147 H   0  0  0  0  0  0  0  0  0  0  0  0
  147.9420  136.7646  155.0758 H   0  0  0  0  0  0  0  0  0  0  0  0
  146.1209  135.0923  154.8725 H   0  0  0  0  0  0  0  0  0  0  0  0
  146.9361  135.3363  153.3465 H   0  0  0  0  0  0  0  0  0  0  0  0
  147.4246  133.0401  155.2962 H   0  0  0  0  0  0  0  0  0  0  0  0
  146.1813  133.0018  152.5034 H   0  0  0  0  0  0  0  0  0  0  0  0
  145.3149  132.7806  154.0211 H   0  0  0  0  0  0  0  0  0  0  0  0
  146.5015  131.5887  153.5057 H   0  0  0  0  0  0  0  0  0  0  0  0
  149.0248  132.1718  153.6284 H   0  0  0  0  0  0  0  0  0  0  0  0
  148.7258  133.5392  152.5832 H   0  0  0  0  0  0  0  0  0  0  0  0
  150.7973  133.8979  153.8510 H   0  0  0  0  0  0  0  0  0  0  0  0
  149.9745  133.6547  155.3806 H   0  0  0  0  0  0  0  0  0  0  0  0
  149.4028  135.7686  153.4492 H   0  0  0  0  0  0  0  0  0  0  0  0
  1  2  1  0  0  0  0
  1 24  1  0  0  0  0
  1 25  1  0  0  0  0
  1 26  1  0  0  0  0
  2  3  1  0  0  0  0
  2 27  1  0  0  0  0
  2 28  1  0  0  0  0
  3 22  1  0  0  0  0
  3  4  1  0  0  0  0
  4  5  2  0  0  0  0
  4 29  1  0  0  0  0
  5  6  1  0  0  0  0
  5  8  1  0  0  0  0
  6  7  3  0  0  0  0
  8  9  2  0  0  0  0
  8 10  1  0  0  0  0
 10 11  1  0  0  0  0
 10 22  1  0  0  0  0
 11 12  1  0  0  0  0
 11 30  1  0  0  0  0
 11 31  1  0  0  0  0
 12 13  1  0  0  0  0
 12 14  1  0  0  0  0
 12 32  1  0  0  0  0
 13 33  1  0  0  0  0
 14 15  1  0  0  0  0
 14 34  1  0  0  0  0
 14 35  1  0  0  0  0
 15 21  1  0  0  0  0
 15 16  1  0  0  0  0
 15 48  1  0  0  0  0
 16 17  1  0  0  0  0
 16 36  1  0  0  0  0
 16 37  1  0  0  0  0
 17 18  1  0  0  0  0
 17 38  1  0  0  0  0
 17 39  1  0  0  0  0
 18 19  1  0  0  0  0
 18 20  1  0  0  0  0
 18 40  1  0  0  0  0
 19 41  1  0  0  0  0
 19 42  1  0  0  0  0
 19 43  1  0  0  0  0
 20 21  1  0  0  0  0
 20 44  1  0  0  0  0
 20 45  1  0  0  0  0
 21 46  1  0  0  0  0
 21 47  1  0  0  0  0
 22 23  2  0  0  0  0
M  CHG  1  15   1
M  END
> <s_m_source_file>
AV-unprocessed.smi

> <i_m_source_file_index>
1106

> <i_lp_mmshare_version>
43012

> <i_f3d_flags>
0

> <s_epik_input>
W0NIM11bQ0gyXW4xW2NIXWMoQyNOKWMoPU8pbihjMT1PKVtDSDJdW0NASF0oW09IXSlbQ0gyXU4yW0NIMl1bQ0gyXVtDSF0oW0NIM10pW0NIMl1bQ0gyXTI=

> <s_epik_cmdline>
J2VwaWtfcHl0aG9uJywgJy1waCcsICc3LjAnLCAnLXRuJywgJzgnLCAnLW1hJywgJzIwMCcsICctbWV0YWxfYmluZGluZycsICctaW1hZScsICc8aW5maWxlLm1hZT4nLCAnLW9tYWUnLCAnPG91dGZpbGUubWFlPic=

> <r_epik_Ionization_Penalty>
0.00136816

> <r_epik_Ionization_Penalty_Charging>
0.00136813

> <r_epik_Ionization_Penalty_Neutral>
3.19882e-08

> <r_epik_State_Penalty>
0.000910892

> <r_epik_Charging_Adjusted_Penalty>
0.00227902

> <i_epik_Tot_Q>
1

> <i_epik_Tot_abs_Q>
1

> <r_epik_Metal_State_Penalty>
-0

> <b_epik_Metal_Only>
0

> <s_lp_Force_Field>
OPLS_2005

> <r_lp_Energy>
28.6797

> <b_lp_Chiralities_Consistent>
1

> <s_lp_Variant>
AV-unprocessed.smi:1106-2

> <Gold.Version>
5.8.1

> <Gold.Id.Protein>
6NUR|6NUR_protein|mol2

> <Gold.PLP.Fitness>
47.8346

> <Gold.PLP.PLP>
-33.7198

> <Gold.PLP.part.hbond>
-6.6511

> <Gold.PLP.part.metal>
0.0000

> <Gold.PLP.part.buried>
-0.4969

> <Gold.PLP.part.nonpolar>
-26.7476

> <Gold.PLP.part.repulsive>
0.0537

> <Gold.PLP.ligand.clash>
0.0000

> <Gold.PLP.ligand.torsion>
0.7488

> <Gold.PLP.Chemscore.Hbond>
5.1792

> <Gold.PLP.Chemscore.CHOScore>
0.0000

> <Gold.PLP.Chemscore.Metal>
0.0000

> <Gold.Chemscore.Hbonds>
donor molecule, donor type, donor heavy atom, donor atom, acceptor molecule, acceptor atom, score
      L1  H    13    33       P1  7948  0.93
      L1  H    15    48       P1  7948  2.00
      P1  H  6896  6909       L1     7  0.41
      P1  H  7989  7998       L1    23  0.16
      P1  H 10752 10764       L1     9  0.32

> <Gold.PLP.Chemscore.Internal.Correction>
0.0750

> <Gold.Rescore>
     Score         DG    S(hbond)    S(metal)    S(lipo)     H(rot)  DE(clash)    DE(int)     intcor
     17.67     -20.05       3.93        0.00      66.70       2.48       0.33       2.05       ----

> <Gold.Chemscore.Fitness>
17.6652

> <Gold.Chemscore.DG>
-20.0469

> <Gold.Chemscore.ZeroCoef>
-5.4800

> <Gold.Chemscore.Hbond>
3.9284

> <Gold.Chemscore.Metal>
0.0000

> <Gold.Chemscore.Lipo>
66.7045

> <Gold.Chemscore.Internal_Hbond>
0.0000

> <Gold.Chemscore.DEClash>
0.3314

> <Gold.Chemscore.DEInternal>
2.0503

> <Gold.Chemscore.Rot>
2.4838

> <Gold.Chemscore.Internal.Correction>
   9.000000E+99

> <Gold.Chemscore.Hbonds>
donor molecule, donor type, donor heavy atom, donor atom, acceptor molecule, acceptor atom, score
      L1  H    13    33       P1  7948  0.57
      L1  H    15    48       P1  7948  0.35
      P1  H  6896  6909       L1     7  0.29
      P1  H  7989  7998       L1    23  0.17
      P1  H 10752 10764       L1     9  0.30

> <Gold.Chemscore.Hbond.Weighted>
-13.1209

> <Gold.Chemscore.Metal.Weighted>
-0.0000

> <Gold.Chemscore.Lipo.Weighted>
-7.8044

> <Gold.Chemscore.Internal_Hbond.Weighted>
0.0000

> <Gold.Chemscore.DEClash.Weighted>
0.3314

> <Gold.Chemscore.DEInternal.Weighted>
2.0503

> <Gold.Chemscore.Rot.Weighted>
6.3585

> <Gold.Chemscore.Internal.Correction.Weighted>
   9.000000E+99

> <Gold.Protein.RotatedTorsions>
[ 6907 6896 6895 6894 ] final  163.68 input  -60.11 | X-H torsion
[ 7974 7965 7964 7962 ] final   -4.08 input  175.53 | X-H torsion
[ 8008 7997 7996 7995 ] final -138.42 input   59.86 | X-H torsion
[ 10167 10162 10161 10158 ] final   52.04 input  -65.29 | X-H torsion
[ 10718 10713 10712 10709 ] final -160.55 input   66.30 | X-H torsion
[ 10763 10752 10751 10750 ] final  -21.38 input  -60.55 | X-H torsion
[ 11005 11000 10999 10996 ] final  100.94 input  -57.11 | X-H torsion

> <Gold.Protein.ActiveResidues>
 VAL166  LYS551  ARG553  GLY616  TRP617  ASP618  TYR619  PRO620  LYS621  CYS622 
 ASP623  PHE694  ASN695  SER759  ASP760  ASP761  ALA762  ILE779  LEU786  VAL792 
 PHE793  MET794  SER795  GLU796  ALA797  LYS798  CYS799  TRP800  GLU811  SER814 

> <Gold.Protein.RotatedAtoms>
  151.9215  133.3587  159.3898 H   0  0  0  0  0  0  0  0  0  0  0  0  # atno 6907 bound_to 6896
  150.7036  134.4630  159.5399 H   0  0  0  0  0  0  0  0  0  0  0  0  # atno 6908 bound_to 6896
  152.2254  134.8373  160.0531 H   0  0  0  0  0  0  0  0  0  0  0  0  # atno 6909 bound_to 6896
  146.2378  140.1818  142.8332 H   0  0  0  0  0  0  0  0  0  0  0  0  # atno 7974 bound_to 7965
  155.4280  140.0523  157.3021 H   0  0  0  0  0  0  0  0  0  0  0  0  # atno 8008 bound_to 7997
  154.4872  140.2106  155.9586 H   0  0  0  0  0  0  0  0  0  0  0  0  # atno 8009 bound_to 7997
  156.1292  140.3175  155.8328 H   0  0  0  0  0  0  0  0  0  0  0  0  # atno 8010 bound_to 7997
  140.2556  144.3431  150.6334 H   0  0  0  0  0  0  0  0  0  0  0  0  # atno 10167 bound_to 10162
  156.5838  130.8741  151.2871 H   0  0  0  0  0  0  0  0  0  0  0  0  # atno 10718 bound_to 10713
  153.6352  135.6987  153.5261 H   0  0  0  0  0  0  0  0  0  0  0  0  # atno 10763 bound_to 10752
  153.2827  135.4181  155.1093 H   0  0  0  0  0  0  0  0  0  0  0  0  # atno 10764 bound_to 10752
  154.8512  135.3606  154.5896 H   0  0  0  0  0  0  0  0  0  0  0  0  # atno 10765 bound_to 10752
  139.8772  134.9162  156.4831 H   0  0  0  0  0  0  0  0  0  0  0  0  # atno 11005 bound_to 11000
  144.9928  140.8563  143.5329 LP  0  0  0  0  0  0  0  0  0  0  0  0  # atno 17320 bound_to 7965
  145.1826  139.2343  143.5284 LP  0  0  0  0  0  0  0  0  0  0  0  0  # atno 17321 bound_to 7965
  140.6007  143.2167  151.7078 LP  0  0  0  0  0  0  0  0  0  0  0  0  # atno 17342 bound_to 10162
  139.5033  144.3798  152.0387 LP  0  0  0  0  0  0  0  0  0  0  0  0  # atno 17343 bound_to 10162
  157.7320  130.9709  150.1908 LP  0  0  0  0  0  0  0  0  0  0  0  0  # atno 17370 bound_to 10713
  156.2609  130.3710  149.8132 LP  0  0  0  0  0  0  0  0  0  0  0  0  # atno 17371 bound_to 10713
  140.8713  133.7986  155.9367 LP  0  0  0  0  0  0  0  0  0  0  0  0  # atno 17394 bound_to 11000
  140.8950  134.2449  157.5073 LP  0  0  0  0  0  0  0  0  0  0  0  0  # atno 17395 bound_to 11000

$$$$
