#       Name:                AV-unprocessed.smi:92
#       Creating user name   scv26
#       Creation time:       Thu Mar 26 17:28:44 2020


#       File generated by GOLD software.
#

@<TRIPOS>MOLECULE
AV-unprocessed.smi:92
    68    71     1
SMALL
NO_CHARGES


@<TRIPOS>ATOM
      1 ****        -4.9772  -3.6763  -3.1025 C.3            1 S1                 0.0000
      2 ****        -4.8784  -3.2623  -1.6272 C.3            1 S1                 0.0000
      3 ****        -4.2992  -1.9060  -1.4555 N.4            1 S1                 1.0000
      4 ****        -4.6688  -1.2996  -0.1508 C.3            1 S1                 0.0000
      5 ****        -4.1862   0.1563  -0.0573 C.3            1 S1                 0.0000
      6 ****        -2.6676   0.2461  -0.3024 C.3            1 S1                 0.0000
      7 ****        -2.1188   1.5968  -0.1003 N.pl3          1 S1                 0.0000
      8 ****        -2.8137   2.7867  -0.5967 C.3            1 S1                 0.0000
      9 ****        -0.7635   1.6786  -0.0257 C.ar           1 S1                 0.0000
     10 ****        -0.0954   2.4530  -0.9221 N.ar           1 S1                 0.0000
     11 ****         1.2375   2.5295  -0.8888 C.ar           1 S1                 0.0000
     12 ****         2.0855   1.9247  -0.0566 N.ar           1 S1                 0.0000
     13 ****         1.4261   1.1510   0.8525 C.ar           1 S1                 0.0000
     14 ****         0.0150   0.9745   0.9381 C.ar           1 S1                 0.0000
     15 ****        -0.2886   0.1272   1.9972 N.2            1 S1                 0.0000
     16 ****         0.8731  -0.1867   2.5010 C.2            1 S1                 0.0000
     17 ****         1.9595   0.3809   1.8744 N.pl3          1 S1                 0.0000
     18 ****         3.3397   0.1999   2.2311 C.3            1 S1                 0.0000
     19 ****         4.2503   1.3957   2.5232 C.3            1 S1                 0.0000
     20 ****         5.4464   0.6166   1.9268 C.3            1 S1                 0.0000
     21 ****         6.4231   1.4246   1.0492 C.3            1 S1                 0.0000
     22 ****         5.7601   2.1983   0.0690 O.3            1 S1                 0.0000
     23 ****         6.2889  -0.1332   2.9756 C.3            1 S1                 0.0000
     24 ****         7.1019  -1.1245   2.3805 O.3            1 S1                 0.0000
     25 ****         4.3818  -0.2380   1.1982 C.3            1 S1                 0.0000
     26 ****        -2.2831  -0.4216  -1.6505 C.3            1 S1                 0.0000
     27 ****        -2.6985   0.3539  -2.9151 C.3            1 S1                 0.0000
     28 ****        -2.8286  -1.8648  -1.6800 C.3            1 S1                 0.0000
     29 ****        -5.4861  -4.6358  -3.1973 H              1 S1                 0.0000
     30 ****        -3.9974  -3.7857  -3.5662 H              1 S1                 0.0000
     31 ****        -5.5434  -2.9447  -3.6797 H              1 S1                 0.0000
     32 ****        -5.8870  -3.2784  -1.2121 H              1 S1                 0.0000
     33 ****        -4.2999  -3.9920  -1.0587 H              1 S1                 0.0000
     34 ****        -5.7519  -1.3233  -0.0246 H              1 S1                 0.0000
     35 ****        -4.2426  -1.8918   0.6608 H              1 S1                 0.0000
     36 ****        -4.7335   0.7590  -0.7826 H              1 S1                 0.0000
     37 ****        -4.4303   0.5573   0.9272 H              1 S1                 0.0000
     38 ****        -2.2326  -0.3791   0.4749 H              1 S1                 0.0000
     39 ****        -2.3733   3.6900  -0.1721 H              1 S1                 0.0000
     40 ****        -3.8623   2.7842  -0.3025 H              1 S1                 0.0000
     41 ****        -2.7634   2.8704  -1.6806 H              1 S1                 0.0000
     42 ****         1.6899   3.1644  -1.6361 H              1 S1                 0.0000
     43 ****         0.9676  -0.8458   3.3519 H              1 S1                 0.0000
     44 ****         3.3516  -0.4883   3.0784 H              1 S1                 0.0000
     45 ****         3.9751   2.2842   1.9541 H              1 S1                 0.0000
     46 ****         4.3448   1.6354   3.5828 H              1 S1                 0.0000
     47 ****         7.0229   2.1011   1.6588 H              1 S1                 0.0000
     48 ****         7.1206   0.7670   0.5295 H              1 S1                 0.0000
     49 ****         6.4090   2.6586  -0.4409 H              1 S1                 0.0000
     50 ****         6.9266   0.5558   3.5306 H              1 S1                 0.0000
     51 ****         5.6549  -0.6235   3.7148 H              1 S1                 0.0000
     52 ****         7.5952  -1.5572   3.0607 H              1 S1                 0.0000
     53 ****         4.5786  -1.3103   1.1912 H              1 S1                 0.0000
     54 ****         4.1564   0.1146   0.1914 H              1 S1                 0.0000
     55 ****        -1.1958  -0.5033  -1.6853 H              1 S1                 0.0000
     56 ****        -3.7620   0.5913  -2.9228 H              1 S1                 0.0000
     57 ****        -2.4854  -0.2249  -3.8141 H              1 S1                 0.0000
     58 ****        -2.1403   1.2839  -3.0094 H              1 S1                 0.0000
     59 ****        -2.3355  -2.4605  -0.9098 H              1 S1                 0.0000
     60 ****        -2.5720  -2.3266  -2.6327 H              1 S1                 0.0000
     61 ****        -4.7217  -1.3243  -2.1651 H              1 S1                 0.0000
     62 ****        -0.6055   2.9684  -1.6106 LP             1 S1                 0.0000
     63 ****         3.0797   2.0256  -0.0942 LP             1 S1                 0.0000
     64 ****        -1.1919  -0.1734   2.3033 LP             1 S1                 0.0000
     65 ****         5.1520   2.8560   0.5134 LP             1 S1                 0.0000
     66 ****         5.2251   1.5999  -0.5275 LP             1 S1                 0.0000
     67 ****         7.7290  -0.6991   1.7280 LP             1 S1                 0.0000
     68 ****         6.5275  -1.7908   1.9049 LP             1 S1                 0.0000
@<TRIPOS>BOND
    1    1    2 1     
    2    1   29 1     
    3    1   30 1     
    4    1   31 1     
    5    2    3 1     
    6    2   32 1     
    7    2   33 1     
    8    3   28 1     
    9    3    4 1     
   10    3   61 1     
   11    4    5 1     
   12    4   34 1     
   13    4   35 1     
   14    5    6 1     
   15    5   36 1     
   16    5   37 1     
   17    6    7 1     
   18    6   26 1     
   19    6   38 1     
   20    7    8 1     
   21    7    9 1     
   22    8   39 1     
   23    8   40 1     
   24    8   41 1     
   25    9   14 ar    
   26    9   10 ar    
   27   10   11 ar    
   28   11   12 ar    
   29   11   42 1     
   30   12   13 ar    
   31   13   17 1     
   32   13   14 ar    
   33   14   15 1     
   34   15   16 2     
   35   16   17 1     
   36   16   43 1     
   37   17   18 1     
   38   18   25 1     
   39   18   19 1     
   40   18   44 1     
   41   19   20 1     
   42   19   45 1     
   43   19   46 1     
   44   20   21 1     
   45   20   23 1     
   46   20   25 1     
   47   21   22 1     
   48   21   47 1     
   49   21   48 1     
   50   22   49 1     
   51   23   24 1     
   52   23   50 1     
   53   23   51 1     
   54   24   52 1     
   55   25   53 1     
   56   25   54 1     
   57   26   27 1     
   58   26   28 1     
   59   26   55 1     
   60   27   56 1     
   61   27   57 1     
   62   27   58 1     
   63   28   59 1     
   64   28   60 1     
   65   10   62 1     
   66   12   63 1     
   67   15   64 1     
   68   22   65 1     
   69   22   66 1     
   70   24   67 1     
   71   24   68 1     
@<TRIPOS>SUBSTRUCTURE
      1 S1             1
@<TRIPOS>SET
LONE_PAIRS      STATIC     ATOMS    <user>   **** ""
7 62 63 64 65 66 67 68
DONOR_HYDROGENS      STATIC     ATOMS    <user>   **** ""
3 61 49 52
ATOM$BLUE        STATIC     ATOMS    COLORGROUP SYSTEM
7 62 63 64 65 66 67 68
ATOM$RED        STATIC     ATOMS    COLORGROUP SYSTEM
3 61 49 52
