#       Name:                AV-unprocessed.smi:3143
#       Creating user name   scv26
#       Creation time:       Fri Mar 27 17:37:44 2020


#       File generated by GOLD software.
#

@<TRIPOS>MOLECULE
AV-unprocessed.smi:3143
    41    42     1
SMALL
NO_CHARGES


@<TRIPOS>ATOM
      1 ****        -0.6856   3.2495   0.2184 C.3            1 S1                 0.0000
      2 ****        -0.3111   1.7600   0.1784 C.3            1 S1                 0.0000
      3 ****         1.1524   1.6229   0.0602 N.3            1 S1                 0.0000
      4 ****         1.6201   0.2467   0.1864 C.3            1 S1                 0.0000
      5 ****         3.1523   0.2215   0.0904 C.3            1 S1                 0.0000
      6 ****         3.6773  -1.1227   0.2364 N.pl3          1 S1                 0.0000
      7 ****         4.3019  -1.6856   1.3296 C.2            1 S1                 0.0000
      8 ****         4.6217  -2.9709   0.9975 C.2            1 S1                 0.0000
      9 ****         4.1460  -3.1034  -0.3372 C.2            1 S1                 0.0000
     10 ****         3.5822  -1.9953  -0.7902 N.2            1 S1                 0.0000
     11 ****        -1.0892   1.0563  -0.9572 C.2            1 S1                 0.0000
     12 ****        -0.6562   1.1326  -2.1084 O.2            1 S1                 0.0000
     13 ****        -2.2211   0.3775  -0.6685 N.am           1 S1                 0.0000
     14 ****        -2.8512   0.2549   0.6461 C.3            1 S1                 0.0000
     15 ****        -4.2235  -0.3699   0.3937 C.3            1 S1                 0.0000
     16 ****        -4.0461  -1.1420  -0.9054 C.3            1 S1                 0.0000
     17 ****        -3.0031  -0.3349  -1.6780 C.3            1 S1                 0.0000
     18 ****        -1.7611   3.3862   0.3378 H              1 S1                 0.0000
     19 ****        -0.3852   3.7626  -0.6963 H              1 S1                 0.0000
     20 ****        -0.2000   3.7529   1.0549 H              1 S1                 0.0000
     21 ****        -0.5866   1.3312   1.1410 H              1 S1                 0.0000
     22 ****         1.6306   2.2002   0.7369 H              1 S1                 0.0000
     23 ****         1.3011  -0.1611   1.1467 H              1 S1                 0.0000
     24 ****         1.1943  -0.3843  -0.5944 H              1 S1                 0.0000
     25 ****         3.4828   0.6203  -0.8701 H              1 S1                 0.0000
     26 ****         3.5944   0.8508   0.8640 H              1 S1                 0.0000
     27 ****         4.4649  -1.1313   2.2422 H              1 S1                 0.0000
     28 ****         5.1195  -3.7048   1.6137 H              1 S1                 0.0000
     29 ****         4.1947  -3.9650  -0.9864 H              1 S1                 0.0000
     30 ****        -2.2449  -0.4020   1.2714 H              1 S1                 0.0000
     31 ****        -2.9483   1.2174   1.1503 H              1 S1                 0.0000
     32 ****        -4.5605  -0.9990   1.2179 H              1 S1                 0.0000
     33 ****        -4.9635   0.4188   0.2509 H              1 S1                 0.0000
     34 ****        -3.6521  -2.1356  -0.6880 H              1 S1                 0.0000
     35 ****        -4.9786  -1.2657  -1.4569 H              1 S1                 0.0000
     36 ****        -3.4883   0.3933  -2.3298 H              1 S1                 0.0000
     37 ****        -2.3807  -0.9829  -2.2973 H              1 S1                 0.0000
     38 ****         1.3718   1.9312  -0.8655 LP             1 S1                 0.0000
     39 ****         3.1766  -1.8389  -1.6908 LP             1 S1                 0.0000
     40 ****         0.1837   1.6427  -2.2939 LP             1 S1                 0.0000
     41 ****        -1.1447   0.6845  -2.8571 LP             1 S1                 0.0000
@<TRIPOS>BOND
    1    1    2 1     
    2    1   18 1     
    3    1   19 1     
    4    1   20 1     
    5    2    3 1     
    6    2   11 1     
    7    2   21 1     
    8    3    4 1     
    9    3   22 1     
   10    4    5 1     
   11    4   23 1     
   12    4   24 1     
   13    5    6 1     
   14    5   25 1     
   15    5   26 1     
   16    6   10 1     
   17    6    7 1     
   18    7    8 2     
   19    7   27 1     
   20    8    9 1     
   21    8   28 1     
   22    9   10 2     
   23    9   29 1     
   24   11   12 2     
   25   11   13 am    
   26   13   17 1     
   27   13   14 1     
   28   14   15 1     
   29   14   30 1     
   30   14   31 1     
   31   15   16 1     
   32   15   32 1     
   33   15   33 1     
   34   16   17 1     
   35   16   34 1     
   36   16   35 1     
   37   17   36 1     
   38   17   37 1     
   39    3   38 1     
   40   10   39 1     
   41   12   40 1     
   42   12   41 1     
@<TRIPOS>SUBSTRUCTURE
      1 S1             1
@<TRIPOS>SET
LONE_PAIRS      STATIC     ATOMS    <user>   **** ""
4 38 39 40 41
DONOR_HYDROGENS      STATIC     ATOMS    <user>   **** ""
1 22
ATOM$BLUE        STATIC     ATOMS    COLORGROUP SYSTEM
4 38 39 40 41
ATOM$RED        STATIC     ATOMS    COLORGROUP SYSTEM
1 22
