AV-unprocessed.smi:1472|AV-procd|sdf|5964|dock1
  -GOLD-   22720 6 53D 1   1.00000     0.00000
 Structure written by MMmdl.
 41 42  0  0  0  0  0  0  0  0  1 V2000
  151.0042  142.2423  156.8018 C   0  0  0  0  0  0  0  0  0  0  0  0
  149.4909  141.2091  156.6465 S   0  0  0  0  0  0  0  0  0  0  0  0
  149.7482  139.9170  157.3007 O   0  0  0  0  0  0  0  0  0  0  0  0
  148.3370  142.0202  157.0637 O   0  0  0  0  0  0  0  0  0  0  0  0
  149.3483  140.9209  154.9364 N   0  0  0  0  0  0  0  0  0  0  0  0
  149.7182  139.6059  154.3772 C   0  0  0  0  0  0  0  0  0  0  0  0
  148.4792  138.7416  154.0843 C   0  0  0  0  0  0  0  0  0  0  0  0
  147.4692  139.4802  153.1865 C   0  0  0  0  0  0  0  0  0  0  0  0
  146.2063  138.6419  152.8936 C   0  0  0  0  0  0  0  0  0  0  0  0
  146.5177  137.3314  152.3310 N   0  0  0  0  0  0  0  0  0  0  0  0
  145.6113  136.4101  151.9747 C   0  0  0  0  0  0  0  0  0  0  0  0
  144.3976  136.5706  152.1013 O   0  0  0  0  0  0  0  0  0  0  0  0
  146.2064  135.3074  151.4868 N   0  0  0  0  0  0  0  0  0  0  0  0
  145.6085  134.1250  150.9716 C   0  0  0  0  0  0  0  0  0  0  0  0
  146.4654  133.0771  150.5759 C   0  0  0  0  0  0  0  0  0  0  0  0
  145.9001  131.9002  150.0455 C   0  0  0  0  0  0  0  0  0  0  0  0
  144.5719  131.7227  149.8851 N   0  0  0  0  0  0  0  0  0  0  0  0
  143.7537  132.7319  150.2512 C   0  0  0  0  0  0  0  0  0  0  0  0
  144.2151  133.9487  150.7922 C   0  0  0  0  0  0  0  0  0  0  0  0
  147.1042  140.8175  153.8506 C   0  0  0  0  0  0  0  0  0  0  0  0
  148.3530  141.6681  154.1427 C   0  0  0  0  0  0  0  0  0  0  0  0
  151.1728  142.4690  157.8541 H   0  0  0  0  0  0  0  0  0  0  0  0
  150.8740  143.1750  156.2559 H   0  0  0  0  0  0  0  0  0  0  0  0
  151.8651  141.6999  156.4154 H   0  0  0  0  0  0  0  0  0  0  0  0
  150.2746  139.7695  153.4537 H   0  0  0  0  0  0  0  0  0  0  0  0
  150.3936  139.0824  155.0533 H   0  0  0  0  0  0  0  0  0  0  0  0
  148.8034  137.8169  153.6063 H   0  0  0  0  0  0  0  0  0  0  0  0
  147.9985  138.4478  155.0165 H   0  0  0  0  0  0  0  0  0  0  0  0
  147.9586  139.7039  152.2371 H   0  0  0  0  0  0  0  0  0  0  0  0
  145.6416  138.4865  153.8134 H   0  0  0  0  0  0  0  0  0  0  0  0
  145.5426  139.1806  152.2150 H   0  0  0  0  0  0  0  0  0  0  0  0
  147.4947  137.1148  152.1981 H   0  0  0  0  0  0  0  0  0  0  0  0
  147.2149  135.2961  151.5258 H   0  0  0  0  0  0  0  0  0  0  0  0
  147.5369  133.1660  150.6795 H   0  0  0  0  0  0  0  0  0  0  0  0
  146.5328  131.0803  149.7398 H   0  0  0  0  0  0  0  0  0  0  0  0
  142.6967  132.5680  150.1025 H   0  0  0  0  0  0  0  0  0  0  0  0
  143.4988  134.7152  151.0428 H   0  0  0  0  0  0  0  0  0  0  0  0
  146.4308  141.3804  153.2033 H   0  0  0  0  0  0  0  0  0  0  0  0
  146.5531  140.6348  154.7722 H   0  0  0  0  0  0  0  0  0  0  0  0
  148.0736  142.5893  154.6531 H   0  0  0  0  0  0  0  0  0  0  0  0
  148.8180  141.9678  153.2028 H   0  0  0  0  0  0  0  0  0  0  0  0
  1  2  1  0  0  0  0
  1 22  1  0  0  0  0
  1 23  1  0  0  0  0
  1 24  1  0  0  0  0
  2  3  2  0  0  0  0
  2  4  2  0  0  0  0
  2  5  1  0  0  0  0
  5 21  1  0  0  0  0
  5  6  1  0  0  0  0
  6  7  1  0  0  0  0
  6 25  1  0  0  0  0
  6 26  1  0  0  0  0
  7  8  1  0  0  0  0
  7 27  1  0  0  0  0
  7 28  1  0  0  0  0
  8  9  1  0  0  0  0
  8 20  1  0  0  0  0
  8 29  1  0  0  0  0
  9 10  1  0  0  0  0
  9 30  1  0  0  0  0
  9 31  1  0  0  0  0
 10 11  1  0  0  0  0
 10 32  1  0  0  0  0
 11 12  2  0  0  0  0
 11 13  1  0  0  0  0
 13 14  1  0  0  0  0
 13 33  1  0  0  0  0
 14 19  1  0  0  0  0
 14 15  2  0  0  0  0
 15 16  1  0  0  0  0
 15 34  1  0  0  0  0
 16 17  2  0  0  0  0
 16 35  1  0  0  0  0
 17 18  1  0  0  0  0
 18 19  2  0  0  0  0
 18 36  1  0  0  0  0
 19 37  1  0  0  0  0
 20 21  1  0  0  0  0
 20 38  1  0  0  0  0
 20 39  1  0  0  0  0
 21 40  1  0  0  0  0
 21 41  1  0  0  0  0
M  END
> <s_m_source_file>
AV-unprocessed.smi

> <i_m_source_file_index>
1472

> <i_lp_mmshare_version>
43012

> <i_f3d_flags>
0

> <s_epik_input>
W0NIM11TKD1PKSg9TylOMVtDSDJdW0NIMl1bQ0hdKFtDSDJdW0NIMl0xKVtDSDJdW05IXUMoPU8pW05IXWMyW2NIXVtjSF1uW2NIXVtjSF0y

> <s_epik_cmdline>
J2VwaWtfcHl0aG9uJywgJy1waCcsICc3LjAnLCAnLXRuJywgJzgnLCAnLW1hJywgJzIwMCcsICctbWV0YWxfYmluZGluZycsICctaW1hZScsICc8aW5maWxlLm1hZT4nLCAnLW9tYWUnLCAnPG91dGZpbGUubWFlPic=

> <r_epik_Ionization_Penalty>
0.115464

> <r_epik_Ionization_Penalty_Charging>
0

> <r_epik_Ionization_Penalty_Neutral>
0.115464

> <r_epik_State_Penalty>
0.105063

> <r_epik_Charging_Adjusted_Penalty>
0.105063

> <i_epik_Tot_Q>
0

> <i_epik_Tot_abs_Q>
0

> <r_epik_Metal_State_Penalty>
0.0877879

> <b_epik_Metal_Only>
0

> <s_lp_Force_Field>
OPLS_2005

> <r_lp_Energy>
7.04119

> <b_lp_Chiralities_Consistent>
1

> <s_lp_Variant>
AV-unprocessed.smi:1472-1

> <Gold.Version>
5.8.1

> <Gold.Id.Protein>
6NUR|6NUR_protein|mol2

> <Gold.PLP.Fitness>
50.0481

> <Gold.PLP.PLP>
-38.3100

> <Gold.PLP.part.hbond>
-2.9346

> <Gold.PLP.part.metal>
0.0000

> <Gold.PLP.part.buried>
-2.8220

> <Gold.PLP.part.nonpolar>
-34.0928

> <Gold.PLP.part.repulsive>
1.3005

> <Gold.PLP.ligand.clash>
0.0000

> <Gold.PLP.ligand.torsion>
1.0395

> <Gold.PLP.Chemscore.Hbond>
2.0887

> <Gold.PLP.Chemscore.CHOScore>
1.8327

> <Gold.PLP.Chemscore.Metal>
0.0000

> <Gold.Chemscore.Hbonds>
donor molecule, donor type, donor heavy atom, donor atom, acceptor molecule, acceptor atom, score
      L1  H    10    32       P1  7948  1.00
      L1  H    13    33       P1  7948  1.00
      P1  H 10785 10796       L1    17  0.07
      L1  C    16    35       P1 10747  0.92
      L1  C    18    36       P1 10186  0.82

> <Gold.PLP.Chemscore.Internal.Correction>
2.0529

> <Gold.Rescore>
     Score         DG    S(hbond)    S(metal)    S(lipo)     H(rot)  DE(clash)    DE(int)     intcor
     16.75     -19.07       1.98        0.00      87.95       1.29       0.08       2.24       ----

> <Gold.Chemscore.Fitness>
16.7528

> <Gold.Chemscore.DG>
-19.0743

> <Gold.Chemscore.ZeroCoef>
-5.4800

> <Gold.Chemscore.Hbond>
1.9756

> <Gold.Chemscore.Metal>
0.0000

> <Gold.Chemscore.Lipo>
87.9510

> <Gold.Chemscore.Internal_Hbond>
0.0000

> <Gold.Chemscore.DEClash>
0.0845

> <Gold.Chemscore.DEInternal>
2.2370

> <Gold.Chemscore.Rot>
1.2869

> <Gold.Chemscore.Internal.Correction>
   9.000000E+99

> <Gold.Chemscore.Hbonds>
donor molecule, donor type, donor heavy atom, donor atom, acceptor molecule, acceptor atom, score
      L1  H    10    32       P1  7948  1.00
      L1  H    13    33       P1  7948  0.88
      P1  H 10785 10796       L1    17  0.05

> <Gold.Chemscore.Hbond.Weighted>
-6.5986

> <Gold.Chemscore.Metal.Weighted>
-0.0000

> <Gold.Chemscore.Lipo.Weighted>
-10.2903

> <Gold.Chemscore.Internal_Hbond.Weighted>
0.0000

> <Gold.Chemscore.DEClash.Weighted>
0.0845

> <Gold.Chemscore.DEInternal.Weighted>
2.2370

> <Gold.Chemscore.Rot.Weighted>
3.2946

> <Gold.Chemscore.Internal.Correction.Weighted>
   9.000000E+99

> <Gold.Protein.RotatedTorsions>
[ 6907 6896 6895 6894 ] final  127.52 input  -60.11 | X-H torsion
[ 7974 7965 7964 7962 ] final -119.47 input  175.53 | X-H torsion
[ 8008 7997 7996 7995 ] final  -49.68 input   59.86 | X-H torsion
[ 10167 10162 10161 10158 ] final   52.79 input  -65.29 | X-H torsion
[ 10718 10713 10712 10709 ] final -168.49 input   66.30 | X-H torsion
[ 10763 10752 10751 10750 ] final   79.76 input  -60.55 | X-H torsion
[ 11005 11000 10999 10996 ] final   49.60 input  -57.11 | X-H torsion

> <Gold.Protein.ActiveResidues>
 VAL166  LYS551  ARG553  GLY616  TRP617  ASP618  TYR619  PRO620  LYS621  CYS622 
 ASP623  PHE694  ASN695  SER759  ASP760  ASP761  ALA762  ILE779  LEU786  VAL792 
 PHE793  MET794  SER795  GLU796  ALA797  LYS798  CYS799  TRP800  GLU811  SER814 

> <Gold.Protein.RotatedAtoms>
  152.3805  133.6540  159.6157 H   0  0  0  0  0  0  0  0  0  0  0  0  # atno 6907 bound_to 6896
  150.7737  133.9121  159.3381 H   0  0  0  0  0  0  0  0  0  0  0  0  # atno 6908 bound_to 6896
  151.6928  135.0945  160.0288 H   0  0  0  0  0  0  0  0  0  0  0  0  # atno 6909 bound_to 6896
  145.0622  140.8298  143.4145 H   0  0  0  0  0  0  0  0  0  0  0  0  # atno 7974 bound_to 7965
  154.4048  140.1291  156.4543 H   0  0  0  0  0  0  0  0  0  0  0  0  # atno 8008 bound_to 7997
  155.7335  140.3491  155.5051 H   0  0  0  0  0  0  0  0  0  0  0  0  # atno 8009 bound_to 7997
  155.9105  140.1035  157.1273 H   0  0  0  0  0  0  0  0  0  0  0  0  # atno 8010 bound_to 7997
  140.2476  144.3514  150.6359 H   0  0  0  0  0  0  0  0  0  0  0  0  # atno 10167 bound_to 10162
  156.6977  130.9184  151.3076 H   0  0  0  0  0  0  0  0  0  0  0  0  # atno 10718 bound_to 10713
  153.0979  135.4827  154.8812 H   0  0  0  0  0  0  0  0  0  0  0  0  # atno 10763 bound_to 10752
  154.7345  135.3068  154.8837 H   0  0  0  0  0  0  0  0  0  0  0  0  # atno 10764 bound_to 10752
  153.9463  135.6828  153.4797 H   0  0  0  0  0  0  0  0  0  0  0  0  # atno 10765 bound_to 10752
  140.1090  134.4980  155.8695 H   0  0  0  0  0  0  0  0  0  0  0  0  # atno 11005 bound_to 11000
  145.1395  139.2581  143.5498 LP  0  0  0  0  0  0  0  0  0  0  0  0  # atno 17320 bound_to 7965
  146.3525  140.1068  142.8605 LP  0  0  0  0  0  0  0  0  0  0  0  0  # atno 17321 bound_to 7965
  140.6065  143.2168  151.6970 LP  0  0  0  0  0  0  0  0  0  0  0  0  # atno 17342 bound_to 10162
  139.5056  144.3710  152.0470 LP  0  0  0  0  0  0  0  0  0  0  0  0  # atno 17343 bound_to 10162
  157.6985  130.9307  150.0715 LP  0  0  0  0  0  0  0  0  0  0  0  0  # atno 17370 bound_to 10713
  156.1752  130.3648  149.9111 LP  0  0  0  0  0  0  0  0  0  0  0  0  # atno 17371 bound_to 10713
  141.2125  133.6721  156.6667 LP  0  0  0  0  0  0  0  0  0  0  0  0  # atno 17394 bound_to 11000
  140.3117  134.8080  157.4181 LP  0  0  0  0  0  0  0  0  0  0  0  0  # atno 17395 bound_to 11000

$$$$
