AV-unprocessed.smi:763|AV-procd|sdf|3641|dock2
  -GOLD-   22720 1 43D 1   1.00000     0.00000
 Structure written by MMmdl.
 43 44  0  0  0  0  0  0  0  0  2 V2000
  155.0428  140.2190  162.2559 C   0  0  0  0  0  0  0  0  0  0  0  0
  155.1697  141.0750  161.1341 O   0  0  0  0  0  0  0  0  0  0  0  0
  154.7228  140.4659  159.9341 C   0  0  0  0  0  0  0  0  0  0  0  0
  153.2486  140.0817  160.0847 C   0  0  0  0  0  0  0  0  0  0  0  0
  152.4931  140.8064  159.1201 O   0  0  0  0  0  0  0  0  0  0  0  0
  152.2960  142.1629  159.3045 C   0  0  0  0  0  0  0  0  0  0  0  0
  152.5847  142.6878  160.5225 N   0  0  0  0  0  0  0  0  0  0  0  0
  152.3970  144.0076  160.7149 C   0  0  0  0  0  0  0  0  0  0  0  0
  151.9159  144.8663  159.7131 C   0  0  0  0  0  0  0  0  0  0  0  0
  151.6184  144.3175  158.4528 C   0  0  0  0  0  0  0  0  0  0  0  0
  151.8051  142.9327  158.2196 C   0  0  0  0  0  0  0  0  0  0  0  0
  151.5397  142.3444  157.0411 N   0  5  0  0  0  0  0  0  0  0  0  0
  150.7044  140.9770  156.8107 S   0  0  0  0  0  0  0  0  0  0  0  0
  151.4842  139.9896  156.0482 O   0  0  0  0  0  0  0  0  0  0  0  0
  150.0728  140.5141  158.0561 O   0  0  0  0  0  0  0  0  0  0  0  0
  149.3267  141.5525  155.6993 C   0  0  1  0  0  0  0  0  0  0  0  0
  149.2326  140.6479  154.4519 C   0  0  0  0  0  0  0  0  0  0  0  0
  148.0988  141.0856  153.5126 C   0  0  0  0  0  0  0  0  0  0  0  0
  146.7565  141.1376  154.2560 C   0  0  0  0  0  0  0  0  0  0  0  0
  146.8381  142.0774  155.4673 C   0  0  0  0  0  0  0  0  0  0  0  0
  147.9651  141.6648  156.4327 C   0  0  2  0  0  0  0  0  0  0  0  0
  148.0208  142.6346  157.4589 O   0  0  0  0  0  0  0  0  0  0  0  0
  155.3992  140.7306  163.1500 H   0  0  0  0  0  0  0  0  0  0  0  0
  155.6351  139.3119  162.1287 H   0  0  0  0  0  0  0  0  0  0  0  0
  154.0021  139.9372  162.4213 H   0  0  0  0  0  0  0  0  0  0  0  0
  154.8429  141.1555  159.0969 H   0  0  0  0  0  0  0  0  0  0  0  0
  155.3188  139.5775  159.7184 H   0  0  0  0  0  0  0  0  0  0  0  0
  153.1306  139.0075  159.9339 H   0  0  0  0  0  0  0  0  0  0  0  0
  152.9073  140.3235  161.0926 H   0  0  0  0  0  0  0  0  0  0  0  0
  152.6372  144.3897  161.6961 H   0  0  0  0  0  0  0  0  0  0  0  0
  151.7779  145.9201  159.9043 H   0  0  0  0  0  0  0  0  0  0  0  0
  151.2491  144.9719  157.6772 H   0  0  0  0  0  0  0  0  0  0  0  0
  149.6159  142.5480  155.3610 H   0  0  0  0  0  0  0  0  0  0  0  0
  150.1774  140.6571  153.9084 H   0  0  0  0  0  0  0  0  0  0  0  0
  149.0641  139.6142  154.7553 H   0  0  0  0  0  0  0  0  0  0  0  0
  148.3263  142.0675  153.0954 H   0  0  0  0  0  0  0  0  0  0  0  0
  148.0301  140.3986  152.6688 H   0  0  0  0  0  0  0  0  0  0  0  0
  145.9694  141.4714  153.5796 H   0  0  0  0  0  0  0  0  0  0  0  0
  146.4795  140.1357  154.5862 H   0  0  0  0  0  0  0  0  0  0  0  0
  147.0061  143.0972  155.1177 H   0  0  0  0  0  0  0  0  0  0  0  0
  145.8817  142.0849  155.9917 H   0  0  0  0  0  0  0  0  0  0  0  0
  147.7055  140.7066  156.8834 H   0  0  0  0  0  0  0  0  0  0  0  0
  148.5044  143.3808  157.1355 H   0  0  0  0  0  0  0  0  0  0  0  0
  1  2  1  0  0  0  0
  1 23  1  0  0  0  0
  1 24  1  0  0  0  0
  1 25  1  0  0  0  0
  2  3  1  0  0  0  0
  3  4  1  0  0  0  0
  3 26  1  0  0  0  0
  3 27  1  0  0  0  0
  4  5  1  0  0  0  0
  4 28  1  0  0  0  0
  4 29  1  0  0  0  0
  5  6  1  0  0  0  0
  6 11  1  0  0  0  0
  6  7  2  0  0  0  0
  7  8  1  0  0  0  0
  8  9  2  0  0  0  0
  8 30  1  0  0  0  0
  9 10  1  0  0  0  0
  9 31  1  0  0  0  0
 10 11  2  0  0  0  0
 10 32  1  0  0  0  0
 11 12  1  0  0  0  0
 12 13  1  0  0  0  0
 13 14  2  0  0  0  0
 13 15  2  0  0  0  0
 13 16  1  0  0  0  0
 16 21  1  0  0  0  0
 16 17  1  0  0  0  0
 16 33  1  0  0  0  0
 17 18  1  0  0  0  0
 17 34  1  0  0  0  0
 17 35  1  0  0  0  0
 18 19  1  0  0  0  0
 18 36  1  0  0  0  0
 18 37  1  0  0  0  0
 19 20  1  0  0  0  0
 19 38  1  0  0  0  0
 19 39  1  0  0  0  0
 20 21  1  0  0  0  0
 20 40  1  0  0  0  0
 20 41  1  0  0  0  0
 21 22  1  0  0  0  0
 21 42  1  0  0  0  0
 22 43  1  0  0  0  0
M  CHG  1  12  -1
M  END
> <s_m_source_file>
AV-unprocessed.smi

> <i_m_source_file_index>
763

> <i_lp_mmshare_version>
43012

> <i_f3d_flags>
0

> <s_epik_input>
W0NIM11PW0NIMl1bQ0gyXU9jMW5bY0hdW2NIXVtjSF1jMVtOSF1TKD1PKSg9TylbQ0BASF0yW0NIMl1bQ0gyXVtDSDJdW0NIMl1bQ0BIXTJbT0hd

> <s_epik_cmdline>
J2VwaWtfcHl0aG9uJywgJy1waCcsICc3LjAnLCAnLXRuJywgJzgnLCAnLW1hJywgJzIwMCcsICctbWV0YWxfYmluZGluZycsICctaW1hZScsICc8aW5maWxlLm1hZT4nLCAnLW9tYWUnLCAnPG91dGZpbGUubWFlPic=

> <r_epik_Ionization_Penalty>
0.985866

> <r_epik_Ionization_Penalty_Charging>
0.984689

> <r_epik_Ionization_Penalty_Neutral>
0.00117669

> <r_epik_State_Penalty>
1.03185

> <r_epik_Charging_Adjusted_Penalty>
2.01654

> <i_epik_Tot_Q>
-1

> <i_epik_Tot_abs_Q>
1

> <r_epik_Metal_State_Penalty>
0.379327

> <b_epik_Metal_Only>
0

> <s_lp_Force_Field>
OPLS_2005

> <r_lp_Energy>
12.3321

> <b_lp_Chiralities_Consistent>
1

> <s_lp_Variant>
AV-unprocessed.smi:763-8

> <Gold.Version>
5.8.1

> <Gold.Id.Protein>
6NUR|6NUR_protein|mol2

> <Gold.PLP.Fitness>
39.2751

> <Gold.PLP.PLP>
-38.7859

> <Gold.PLP.part.hbond>
-2.1335

> <Gold.PLP.part.metal>
0.0000

> <Gold.PLP.part.buried>
-1.1254

> <Gold.PLP.part.nonpolar>
-35.0578

> <Gold.PLP.part.repulsive>
0.0780

> <Gold.PLP.ligand.clash>
0.0000

> <Gold.PLP.ligand.torsion>
1.8699

> <Gold.PLP.Chemscore.Hbond>
0.9500

> <Gold.PLP.Chemscore.CHOScore>
0.0000

> <Gold.PLP.Chemscore.Metal>
0.0000

> <Gold.Chemscore.Hbonds>
donor molecule, donor type, donor heavy atom, donor atom, acceptor molecule, acceptor atom, score
      L1  H    22    43       P1  8028  0.89

> <Gold.PLP.Chemscore.Internal.Correction>
1.3791

> <Gold.Rescore>
     Score         DG    S(hbond)    S(metal)    S(lipo)     H(rot)  DE(clash)    DE(int)     intcor
      5.42     -12.90       0.26        0.00     107.51       2.35       1.90       5.59       ----

> <Gold.Chemscore.Fitness>
5.4157

> <Gold.Chemscore.DG>
-12.9033

> <Gold.Chemscore.ZeroCoef>
-5.4800

> <Gold.Chemscore.Hbond>
0.2585

> <Gold.Chemscore.Metal>
0.0000

> <Gold.Chemscore.Lipo>
107.5059

> <Gold.Chemscore.Internal_Hbond>
0.0000

> <Gold.Chemscore.DEClash>
1.8997

> <Gold.Chemscore.DEInternal>
5.5879

> <Gold.Chemscore.Rot>
2.3509

> <Gold.Chemscore.Internal.Correction>
   9.000000E+99

> <Gold.Chemscore.Hbonds>
donor molecule, donor type, donor heavy atom, donor atom, acceptor molecule, acceptor atom, score
      L1  H    22    43       P1  8028  0.16

> <Gold.Chemscore.Hbond.Weighted>
-0.8633

> <Gold.Chemscore.Metal.Weighted>
-0.0000

> <Gold.Chemscore.Lipo.Weighted>
-12.5782

> <Gold.Chemscore.Internal_Hbond.Weighted>
0.0000

> <Gold.Chemscore.DEClash.Weighted>
1.8997

> <Gold.Chemscore.DEInternal.Weighted>
5.5879

> <Gold.Chemscore.Rot.Weighted>
6.0182

> <Gold.Chemscore.Internal.Correction.Weighted>
   9.000000E+99

> <Gold.Protein.RotatedTorsions>
[ 6907 6896 6895 6894 ] final -115.67 input  -60.11 | X-H torsion
[ 7974 7965 7964 7962 ] final  -74.29 input  175.53 | X-H torsion
[ 8008 7997 7996 7995 ] final  -49.98 input   59.86 | X-H torsion
[ 10167 10162 10161 10158 ] final  -36.64 input  -65.29 | X-H torsion
[ 10718 10713 10712 10709 ] final  -32.53 input   66.30 | X-H torsion
[ 10763 10752 10751 10750 ] final -170.47 input  -60.55 | X-H torsion
[ 11005 11000 10999 10996 ] final -170.27 input  -57.11 | X-H torsion

> <Gold.Protein.ActiveResidues>
 VAL166  LYS551  ARG553  GLY616  TRP617  ASP618  TYR619  PRO620  LYS621  CYS622 
 ASP623  PHE694  ASN695  SER759  ASP760  ASP761  ALA762  ILE779  LEU786  VAL792 
 PHE793  MET794  SER795  GLU796  ALA797  LYS798  CYS799  TRP800  GLU811  SER814 

> <Gold.Protein.RotatedAtoms>
  150.7996  133.8625  159.3235 H   0  0  0  0  0  0  0  0  0  0  0  0  # atno 6907 bound_to 6896
  151.6440  135.1007  160.0157 H   0  0  0  0  0  0  0  0  0  0  0  0  # atno 6908 bound_to 6896
  152.4082  133.6882  159.6410 H   0  0  0  0  0  0  0  0  0  0  0  0  # atno 6909 bound_to 6896
  145.6411  140.9311  143.1035 H   0  0  0  0  0  0  0  0  0  0  0  0  # atno 7974 bound_to 7965
  154.4053  140.1283  156.4591 H   0  0  0  0  0  0  0  0  0  0  0  0  # atno 8008 bound_to 7997
  155.7290  140.3491  155.5031 H   0  0  0  0  0  0  0  0  0  0  0  0  # atno 8009 bound_to 7997
  155.9144  140.1041  157.1245 H   0  0  0  0  0  0  0  0  0  0  0  0  # atno 8010 bound_to 7997
  140.7138  143.3395  151.2389 H   0  0  0  0  0  0  0  0  0  0  0  0  # atno 10167 bound_to 10162
  156.3738  130.4344  149.7524 H   0  0  0  0  0  0  0  0  0  0  0  0  # atno 10718 bound_to 10713
  154.6411  135.2899  155.0102 H   0  0  0  0  0  0  0  0  0  0  0  0  # atno 10763 bound_to 10752
  154.1228  135.6545  153.4910 H   0  0  0  0  0  0  0  0  0  0  0  0  # atno 10764 bound_to 10752
  153.0327  135.5292  154.7278 H   0  0  0  0  0  0  0  0  0  0  0  0  # atno 10765 bound_to 10752
  140.5214  134.5706  157.5049 H   0  0  0  0  0  0  0  0  0  0  0  0  # atno 11005 bound_to 11000
  144.7157  139.8205  143.7399 LP  0  0  0  0  0  0  0  0  0  0  0  0  # atno 17320 bound_to 7965
  146.1280  139.4310  143.0186 LP  0  0  0  0  0  0  0  0  0  0  0  0  # atno 17321 bound_to 7965
  139.6899  143.9710  152.2853 LP  0  0  0  0  0  0  0  0  0  0  0  0  # atno 17342 bound_to 10162
  139.9368  144.6707  150.8306 LP  0  0  0  0  0  0  0  0  0  0  0  0  # atno 17343 bound_to 10162
  156.4641  130.7965  151.2985 LP  0  0  0  0  0  0  0  0  0  0  0  0  # atno 17370 bound_to 10713
  157.7486  131.0056  150.3122 LP  0  0  0  0  0  0  0  0  0  0  0  0  # atno 17371 bound_to 10713
  139.9604  134.7462  156.0250 LP  0  0  0  0  0  0  0  0  0  0  0  0  # atno 17394 bound_to 11000
  141.1332  133.6581  156.3522 LP  0  0  0  0  0  0  0  0  0  0  0  0  # atno 17395 bound_to 11000

$$$$
