AV-unprocessed.smi:1809|AV-procd|sdf|7312|dock1
  -GOLD-   22720 8573D 1   1.00000     0.00000
 Structure written by MMmdl.
 40 42  0  0  0  0  0  0  0  0  2 V2000
  151.1974  141.9795  156.3642 C   0  0  0  0  0  0  0  0  0  0  0  0
  150.6713  140.7879  155.6393 C   0  0  0  0  0  0  0  0  0  0  0  0
  151.4404  140.0106  154.8664 N   0  0  0  0  0  0  0  0  0  0  0  0
  150.7290  138.9640  154.2947 N   0  0  0  0  0  0  0  0  0  0  0  0
  149.4422  138.9811  154.6524 C   0  0  0  0  0  0  0  0  0  0  0  0
  148.5932  137.9704  154.1360 N   0  0  0  0  0  0  0  0  0  0  0  0
  147.2797  137.8016  154.3580 C   0  0  0  0  0  0  0  0  0  0  0  0
  146.5857  138.4967  155.0998 O   0  0  0  0  0  0  0  0  0  0  0  0
  146.7995  136.7602  153.6639 N   0  0  0  0  0  0  0  0  0  0  0  0
  145.4063  136.3274  153.6637 C   0  0  0  0  0  0  0  0  0  0  0  0
  145.2736  134.8097  153.4476 C   0  0  1  0  0  0  0  0  0  0  0  0
  144.0628  134.4660  152.5656 C   0  0  0  0  0  0  0  0  0  0  0  0
  143.9635  133.0053  152.3182 N   0  3  1  0  0  0  0  0  0  0  0  0
  142.9954  132.6853  151.2440 C   0  0  0  0  0  0  0  0  0  0  0  0
  143.8171  132.4290  149.9668 C   0  0  0  0  0  0  0  0  0  0  0  0
  145.2833  132.5955  150.3788 C   0  0  0  0  0  0  0  0  0  0  0  0
  145.2452  132.4001  151.8935 C   0  0  1  0  0  0  0  0  0  0  0  0
  146.4640  132.9316  152.6755 C   0  0  0  0  0  0  0  0  0  0  0  0
  146.4373  134.3483  152.7733 O   0  0  0  0  0  0  0  0  0  0  0  0
  148.9848  140.2966  155.7347 S   0  0  0  0  0  0  0  0  0  0  0  0
  152.2818  142.0421  156.2664 H   0  0  0  0  0  0  0  0  0  0  0  0
  150.9464  141.9131  157.4228 H   0  0  0  0  0  0  0  0  0  0  0  0
  150.7567  142.8888  155.9550 H   0  0  0  0  0  0  0  0  0  0  0  0
  149.0348  137.3126  153.5106 H   0  0  0  0  0  0  0  0  0  0  0  0
  147.4390  136.2374  153.0830 H   0  0  0  0  0  0  0  0  0  0  0  0
  144.9353  136.6181  154.6044 H   0  0  0  0  0  0  0  0  0  0  0  0
  144.8792  136.8665  152.8760 H   0  0  0  0  0  0  0  0  0  0  0  0
  145.1762  134.3119  154.4144 H   0  0  0  0  0  0  0  0  0  0  0  0
  143.1414  134.8080  153.0383 H   0  0  0  0  0  0  0  0  0  0  0  0
  144.1469  134.9965  151.6152 H   0  0  0  0  0  0  0  0  0  0  0  0
  142.4563  131.7792  151.5227 H   0  0  0  0  0  0  0  0  0  0  0  0
  142.2520  133.4720  151.1067 H   0  0  0  0  0  0  0  0  0  0  0  0
  143.6352  131.4169  149.6035 H   0  0  0  0  0  0  0  0  0  0  0  0
  143.5507  133.1182  149.1649 H   0  0  0  0  0  0  0  0  0  0  0  0
  145.9450  131.8877  149.8786 H   0  0  0  0  0  0  0  0  0  0  0  0
  145.6256  133.6023  150.1353 H   0  0  0  0  0  0  0  0  0  0  0  0
  145.1682  131.3270  152.0789 H   0  0  0  0  0  0  0  0  0  0  0  0
  146.4855  132.5031  153.6788 H   0  0  0  0  0  0  0  0  0  0  0  0
  147.3891  132.6231  152.1880 H   0  0  0  0  0  0  0  0  0  0  0  0
  143.6673  132.5716  153.1812 H   0  0  0  0  0  0  0  0  0  0  0  0
  1  2  1  0  0  0  0
  1 21  1  0  0  0  0
  1 22  1  0  0  0  0
  1 23  1  0  0  0  0
  2 20  1  0  0  0  0
  2  3  2  0  0  0  0
  3  4  1  0  0  0  0
  4  5  2  0  0  0  0
  5  6  1  0  0  0  0
  5 20  1  0  0  0  0
  6  7  1  0  0  0  0
  6 24  1  0  0  0  0
  7  8  2  0  0  0  0
  7  9  1  0  0  0  0
  9 10  1  0  0  0  0
  9 25  1  0  0  0  0
 10 11  1  0  0  0  0
 10 26  1  0  0  0  0
 10 27  1  0  0  0  0
 11 19  1  0  0  0  0
 11 12  1  0  0  0  0
 11 28  1  0  0  0  0
 12 13  1  0  0  0  0
 12 29  1  0  0  0  0
 12 30  1  0  0  0  0
 13 17  1  0  0  0  0
 13 14  1  0  0  0  0
 13 40  1  0  0  0  0
 14 15  1  0  0  0  0
 14 31  1  0  0  0  0
 14 32  1  0  0  0  0
 15 16  1  0  0  0  0
 15 33  1  0  0  0  0
 15 34  1  0  0  0  0
 16 17  1  0  0  0  0
 16 35  1  0  0  0  0
 16 36  1  0  0  0  0
 17 18  1  0  0  0  0
 17 37  1  0  0  0  0
 18 19  1  0  0  0  0
 18 38  1  0  0  0  0
 18 39  1  0  0  0  0
M  CHG  1  13   1
M  END
> <s_m_source_file>
AV-unprocessed.smi

> <i_m_source_file_index>
1809

> <i_lp_mmshare_version>
43012

> <i_f3d_flags>
0

> <s_epik_input>
W0NIM11jMW5uYyhzMSlbTkhdQyg9TylbTkhdW0NIMl1bQ0BIXShbQ0gyXTIpT1tDSDJdW0NAQEhdKE4yMylbQ0gyXVtDSDJdW0NIMl0z

> <s_epik_cmdline>
J2VwaWtfcHl0aG9uJywgJy1waCcsICc3LjAnLCAnLXRuJywgJzgnLCAnLW1hJywgJzIwMCcsICctbWV0YWxfYmluZGluZycsICctaW1hZScsICc8aW5maWxlLm1hZT4nLCAnLW9tYWUnLCAnPG91dGZpbGUubWFlPic=

> <r_lp_tautomer_probability>
1

> <r_epik_Ionization_Penalty>
0.112474

> <r_epik_Ionization_Penalty_Charging>
0.108916

> <r_epik_Ionization_Penalty_Neutral>
0.00355844

> <r_epik_State_Penalty>
0.0565397

> <r_epik_Charging_Adjusted_Penalty>
0.165456

> <i_epik_Tot_Q>
1

> <i_epik_Tot_abs_Q>
1

> <r_epik_Metal_State_Penalty>
0.422831

> <b_epik_Metal_Only>
0

> <s_lp_Force_Field>
OPLS_2005

> <r_lp_Energy>
33.5148

> <b_lp_Chiralities_Consistent>
1

> <s_lp_Variant>
AV-unprocessed.smi:1809-4

> <Gold.Version>
5.8.1

> <Gold.Id.Protein>
6NUR|6NUR_protein|mol2

> <Gold.PLP.Fitness>
39.4595

> <Gold.PLP.PLP>
-26.6997

> <Gold.PLP.part.hbond>
-4.3232

> <Gold.PLP.part.metal>
0.0000

> <Gold.PLP.part.buried>
-5.7458

> <Gold.PLP.part.nonpolar>
-18.3116

> <Gold.PLP.part.repulsive>
0.3723

> <Gold.PLP.ligand.clash>
0.0000

> <Gold.PLP.ligand.torsion>
0.6973

> <Gold.PLP.Chemscore.Hbond>
4.7174

> <Gold.PLP.Chemscore.CHOScore>
0.0000

> <Gold.PLP.Chemscore.Metal>
0.0000

> <Gold.Chemscore.Hbonds>
donor molecule, donor type, donor heavy atom, donor atom, acceptor molecule, acceptor atom, score
      L1  H     6    24       P1  7948  0.99
      L1  H     9    25       P1  7948  0.99
      L1  H    13    40       P1 10957  1.85
      P1  H  7989  7998       L1     3  0.85

> <Gold.PLP.Chemscore.Internal.Correction>
0.0023

> <Gold.Rescore>
     Score         DG    S(hbond)    S(metal)    S(lipo)     H(rot)  DE(clash)    DE(int)     intcor
     16.88     -18.60       2.40        0.00      72.80       1.34       0.32       1.40       ----

> <Gold.Chemscore.Fitness>
16.8791

> <Gold.Chemscore.DG>
-18.5972

> <Gold.Chemscore.ZeroCoef>
-5.4800

> <Gold.Chemscore.Hbond>
2.4036

> <Gold.Chemscore.Metal>
0.0000

> <Gold.Chemscore.Lipo>
72.7960

> <Gold.Chemscore.Internal_Hbond>
0.0000

> <Gold.Chemscore.DEClash>
0.3227

> <Gold.Chemscore.DEInternal>
1.3954

> <Gold.Chemscore.Rot>
1.3391

> <Gold.Chemscore.Internal.Correction>
   9.000000E+99

> <Gold.Chemscore.Hbonds>
donor molecule, donor type, donor heavy atom, donor atom, acceptor molecule, acceptor atom, score
      L1  H     6    24       P1  7948  0.93
      L1  H     9    25       P1  7948  0.93
      L1  H    13    40       P1 10957  0.20
      P1  H  7989  7998       L1     3  0.07

> <Gold.Chemscore.Hbond.Weighted>
-8.0281

> <Gold.Chemscore.Metal.Weighted>
-0.0000

> <Gold.Chemscore.Lipo.Weighted>
-8.5171

> <Gold.Chemscore.Internal_Hbond.Weighted>
0.0000

> <Gold.Chemscore.DEClash.Weighted>
0.3227

> <Gold.Chemscore.DEInternal.Weighted>
1.3954

> <Gold.Chemscore.Rot.Weighted>
3.4281

> <Gold.Chemscore.Internal.Correction.Weighted>
   9.000000E+99

> <Gold.Protein.RotatedTorsions>
[ 6907 6896 6895 6894 ] final   43.15 input  -60.11 | X-H torsion
[ 7974 7965 7964 7962 ] final   36.26 input  175.53 | X-H torsion
[ 8008 7997 7996 7995 ] final    3.99 input   59.86 | X-H torsion
[ 10167 10162 10161 10158 ] final  -28.59 input  -65.29 | X-H torsion
[ 10718 10713 10712 10709 ] final  129.96 input   66.30 | X-H torsion
[ 10763 10752 10751 10750 ] final  102.88 input  -60.55 | X-H torsion
[ 11005 11000 10999 10996 ] final   37.80 input  -57.11 | X-H torsion

> <Gold.Protein.ActiveResidues>
 VAL166  LYS551  ARG553  GLY616  TRP617  ASP618  TYR619  PRO620  LYS621  CYS622 
 ASP623  PHE694  ASN695  SER759  ASP760  ASP761  ALA762  ILE779  LEU786  VAL792 
 PHE793  MET794  SER795  GLU796  ALA797  LYS798  CYS799  TRP800  GLU811  SER814 

> <Gold.Protein.RotatedAtoms>
  152.2167  134.8451  160.0490 H   0  0  0  0  0  0  0  0  0  0  0  0  # atno 6907 bound_to 6896
  151.9250  133.3590  159.3918 H   0  0  0  0  0  0  0  0  0  0  0  0  # atno 6908 bound_to 6896
  150.6989  134.4521  159.5385 H   0  0  0  0  0  0  0  0  0  0  0  0  # atno 6909 bound_to 6896
  146.1224  139.6040  142.9281 H   0  0  0  0  0  0  0  0  0  0  0  0  # atno 7974 bound_to 7965
  154.7105  140.2691  155.6634 H   0  0  0  0  0  0  0  0  0  0  0  0  # atno 8008 bound_to 7997
  156.2794  140.2754  156.1669 H   0  0  0  0  0  0  0  0  0  0  0  0  # atno 8009 bound_to 7997
  155.0642  140.0371  157.2577 H   0  0  0  0  0  0  0  0  0  0  0  0  # atno 8010 bound_to 7997
  140.7268  143.3998  151.1285 H   0  0  0  0  0  0  0  0  0  0  0  0  # atno 10167 bound_to 10162
  157.5106  131.1096  150.9298 H   0  0  0  0  0  0  0  0  0  0  0  0  # atno 10718 bound_to 10713
  153.3453  135.3995  155.1604 H   0  0  0  0  0  0  0  0  0  0  0  0  # atno 10763 bound_to 10752
  154.8652  135.3643  154.5292 H   0  0  0  0  0  0  0  0  0  0  0  0  # atno 10764 bound_to 10752
  153.5740  135.7078  153.5552 H   0  0  0  0  0  0  0  0  0  0  0  0  # atno 10765 bound_to 10752
  140.2189  134.3665  155.8014 H   0  0  0  0  0  0  0  0  0  0  0  0  # atno 11005 bound_to 11000
  145.5437  141.0419  143.2316 LP  0  0  0  0  0  0  0  0  0  0  0  0  # atno 17320 bound_to 7965
  144.7610  139.6957  143.7234 LP  0  0  0  0  0  0  0  0  0  0  0  0  # atno 17321 bound_to 7965
  139.7616  143.8627  152.3101 LP  0  0  0  0  0  0  0  0  0  0  0  0  # atno 17342 bound_to 10162
  139.8515  144.7162  150.9208 LP  0  0  0  0  0  0  0  0  0  0  0  0  # atno 17343 bound_to 10162
  156.9940  130.5574  149.5305 LP  0  0  0  0  0  0  0  0  0  0  0  0  # atno 17370 bound_to 10713
  156.0287  130.5379  150.8475 LP  0  0  0  0  0  0  0  0  0  0  0  0  # atno 17371 bound_to 10713
  141.2224  133.7183  156.8543 LP  0  0  0  0  0  0  0  0  0  0  0  0  # atno 17394 bound_to 11000
  140.1871  134.8992  157.3016 LP  0  0  0  0  0  0  0  0  0  0  0  0  # atno 17395 bound_to 11000

$$$$
