AV-unprocessed.smi:1179|AV-procd|sdf|4958|dock7
  -GOLD-   22720 3553D 1   1.00000     0.00000
 Structure written by MMmdl.
 47 48  0  0  0  0  0  0  0  0  2 V2000
  143.3998  142.3996  156.2190 C   0  0  0  0  0  0  0  0  0  0  0  0
  144.4182  142.8216  155.2015 C   0  0  0  0  0  0  0  0  0  0  0  0
  144.3965  143.9649  154.3551 C   0  0  0  0  0  0  0  0  0  0  0  0
  145.5523  143.8728  153.6323 C   0  0  0  0  0  0  0  0  0  0  0  0
  146.1033  144.7758  152.5781 C   0  0  0  0  0  0  0  0  0  0  0  0
  146.1984  142.7238  154.0534 N   0  0  0  0  0  0  0  0  0  0  0  0
  147.4686  142.1694  153.6105 C   0  0  0  0  0  0  0  0  0  0  0  0
  147.5394  140.6645  153.8750 C   0  0  0  0  0  0  0  0  0  0  0  0
  148.4649  140.1974  154.5384 O   0  0  0  0  0  0  0  0  0  0  0  0
  146.5548  139.9165  153.3529 N   0  0  0  0  0  0  0  0  0  0  0  0
  146.4321  138.4725  153.5055 C   0  0  0  0  0  0  0  0  0  0  0  0
  145.8895  137.8165  152.2209 C   0  0  0  0  0  0  0  0  0  0  0  0
  146.0130  136.3375  152.2437 N   0  3  2  0  0  0  0  0  0  0  0  0
  145.4091  135.7069  151.0414 C   0  0  0  0  0  0  0  0  0  0  0  0
  145.6669  134.1909  151.0180 C   0  0  0  0  0  0  0  0  0  0  0  0
  145.1403  133.5150  152.2949 C   0  0  1  0  0  0  0  0  0  0  0  0
  145.4206  132.0057  152.2972 C   0  0  0  0  0  0  0  0  0  0  0  0
  145.7521  134.2099  153.5228 C   0  0  0  0  0  0  0  0  0  0  0  0
  145.4930  135.7257  153.4958 C   0  0  0  0  0  0  0  0  0  0  0  0
  145.5009  142.0837  155.0179 N   0  0  0  0  0  0  0  0  0  0  0  0
  142.5223  143.0457  156.1892 H   0  0  0  0  0  0  0  0  0  0  0  0
  143.8110  142.4446  157.2276 H   0  0  0  0  0  0  0  0  0  0  0  0
  143.0639  141.3778  156.0401 H   0  0  0  0  0  0  0  0  0  0  0  0
  143.6444  144.7371  154.2885 H   0  0  0  0  0  0  0  0  0  0  0  0
  145.4434  145.6274  152.4122 H   0  0  0  0  0  0  0  0  0  0  0  0
  146.2125  144.2474  151.6312 H   0  0  0  0  0  0  0  0  0  0  0  0
  147.0807  145.1615  152.8676 H   0  0  0  0  0  0  0  0  0  0  0  0
  147.6003  142.3642  152.5448 H   0  0  0  0  0  0  0  0  0  0  0  0
  148.2809  142.6810  154.1279 H   0  0  0  0  0  0  0  0  0  0  0  0
  145.8344  140.3869  152.8233 H   0  0  0  0  0  0  0  0  0  0  0  0
  147.4190  138.0720  153.7385 H   0  0  0  0  0  0  0  0  0  0  0  0
  145.7987  138.2581  154.3667 H   0  0  0  0  0  0  0  0  0  0  0  0
  144.8485  138.0924  152.0456 H   0  0  0  0  0  0  0  0  0  0  0  0
  146.4570  138.2133  151.3778 H   0  0  0  0  0  0  0  0  0  0  0  0
  144.3364  135.9076  151.0238 H   0  0  0  0  0  0  0  0  0  0  0  0
  145.8303  136.1523  150.1394 H   0  0  0  0  0  0  0  0  0  0  0  0
  145.1914  133.7526  150.1398 H   0  0  0  0  0  0  0  0  0  0  0  0
  146.7371  134.0051  150.9144 H   0  0  0  0  0  0  0  0  0  0  0  0
  144.0582  133.6511  152.3303 H   0  0  0  0  0  0  0  0  0  0  0  0
  146.4911  131.7996  152.2679 H   0  0  0  0  0  0  0  0  0  0  0  0
  144.9650  131.5202  151.4336 H   0  0  0  0  0  0  0  0  0  0  0  0
  145.0151  131.5332  153.1921 H   0  0  0  0  0  0  0  0  0  0  0  0
  145.3374  133.7843  154.4373 H   0  0  0  0  0  0  0  0  0  0  0  0
  146.8269  134.0253  153.5565 H   0  0  0  0  0  0  0  0  0  0  0  0
  145.9666  136.1773  154.3665 H   0  0  0  0  0  0  0  0  0  0  0  0
  144.4235  135.9239  153.5824 H   0  0  0  0  0  0  0  0  0  0  0  0
  147.0010  136.1319  152.2021 H   0  0  0  0  0  0  0  0  0  0  0  0
  1  2  1  0  0  0  0
  1 21  1  0  0  0  0
  1 22  1  0  0  0  0
  1 23  1  0  0  0  0
  2 20  2  0  0  0  0
  2  3  1  0  0  0  0
  3  4  2  0  0  0  0
  3 24  1  0  0  0  0
  4  5  1  0  0  0  0
  4  6  1  0  0  0  0
  5 25  1  0  0  0  0
  5 26  1  0  0  0  0
  5 27  1  0  0  0  0
  6  7  1  0  0  0  0
  6 20  1  0  0  0  0
  7  8  1  0  0  0  0
  7 28  1  0  0  0  0
  7 29  1  0  0  0  0
  8  9  2  0  0  0  0
  8 10  1  0  0  0  0
 10 11  1  0  0  0  0
 10 30  1  0  0  0  0
 11 12  1  0  0  0  0
 11 31  1  0  0  0  0
 11 32  1  0  0  0  0
 12 13  1  0  0  0  0
 12 33  1  0  0  0  0
 12 34  1  0  0  0  0
 13 19  1  0  0  0  0
 13 14  1  0  0  0  0
 13 47  1  0  0  0  0
 14 15  1  0  0  0  0
 14 35  1  0  0  0  0
 14 36  1  0  0  0  0
 15 16  1  0  0  0  0
 15 37  1  0  0  0  0
 15 38  1  0  0  0  0
 16 17  1  0  0  0  0
 16 18  1  0  0  0  0
 16 39  1  0  0  0  0
 17 40  1  0  0  0  0
 17 41  1  0  0  0  0
 17 42  1  0  0  0  0
 18 19  1  0  0  0  0
 18 43  1  0  0  0  0
 18 44  1  0  0  0  0
 19 45  1  0  0  0  0
 19 46  1  0  0  0  0
M  CHG  1  13   1
M  END
> <s_m_source_file>
AV-unprocessed.smi

> <i_m_source_file_index>
1179

> <i_lp_mmshare_version>
43012

> <i_f3d_flags>
0

> <s_epik_input>
W0NIM11jMVtjSF1jKFtDSDNdKW4objEpW0NIMl1DKD1PKVtOSF1bQ0gyXVtDSDJdTjJbQ0gyXVtDSDJdW0NIXShbQ0gzXSlbQ0gyXVtDSDJdMg==

> <s_epik_cmdline>
J2VwaWtfcHl0aG9uJywgJy1waCcsICc3LjAnLCAnLXRuJywgJzgnLCAnLW1hJywgJzIwMCcsICctbWV0YWxfYmluZGluZycsICctaW1hZScsICc8aW5maWxlLm1hZT4nLCAnLW9tYWUnLCAnPG91dGZpbGUubWFlPic=

> <r_lp_tautomer_probability>
1

> <r_epik_Ionization_Penalty>
0.00206343

> <r_epik_Ionization_Penalty_Charging>
0.00187095

> <r_epik_Ionization_Penalty_Neutral>
0.000192474

> <r_epik_State_Penalty>
-0

> <r_epik_Charging_Adjusted_Penalty>
0.00187095

> <i_epik_Tot_Q>
1

> <i_epik_Tot_abs_Q>
1

> <r_epik_Metal_State_Penalty>
-0

> <b_epik_Metal_Only>
0

> <s_lp_Force_Field>
OPLS_2005

> <r_lp_Energy>
13.8345

> <b_lp_Chiralities_Consistent>
1

> <s_lp_Variant>
AV-unprocessed.smi:1179-1

> <Gold.Version>
5.8.1

> <Gold.Id.Protein>
6NUR|6NUR_protein|mol2

> <Gold.PLP.Fitness>
42.2589

> <Gold.PLP.PLP>
-34.4334

> <Gold.PLP.part.hbond>
-2.0000

> <Gold.PLP.part.metal>
0.0000

> <Gold.PLP.part.buried>
-6.0468

> <Gold.PLP.part.nonpolar>
-27.4506

> <Gold.PLP.part.repulsive>
0.3122

> <Gold.PLP.ligand.clash>
0.0000

> <Gold.PLP.ligand.torsion>
0.5886

> <Gold.PLP.Chemscore.Hbond>
2.9913

> <Gold.PLP.Chemscore.CHOScore>
0.0000

> <Gold.PLP.Chemscore.Metal>
0.0000

> <Gold.Chemscore.Hbonds>
donor molecule, donor type, donor heavy atom, donor atom, acceptor molecule, acceptor atom, score
      L1  H    10    30       P1 10175  0.57
      L1  H    13    47       P1  7948  2.00

> <Gold.PLP.Chemscore.Internal.Correction>
0.0290

> <Gold.Rescore>
     Score         DG    S(hbond)    S(metal)    S(lipo)     H(rot)  DE(clash)    DE(int)     intcor
     14.72     -15.40       1.97        0.00      65.01       1.67       0.03       0.64       ----

> <Gold.Chemscore.Fitness>
14.7242

> <Gold.Chemscore.DG>
-15.4008

> <Gold.Chemscore.ZeroCoef>
-5.4800

> <Gold.Chemscore.Hbond>
1.9696

> <Gold.Chemscore.Metal>
0.0000

> <Gold.Chemscore.Lipo>
65.0115

> <Gold.Chemscore.Internal_Hbond>
0.0000

> <Gold.Chemscore.DEClash>
0.0318

> <Gold.Chemscore.DEInternal>
0.6448

> <Gold.Chemscore.Rot>
1.6657

> <Gold.Chemscore.Internal.Correction>
   9.000000E+99

> <Gold.Chemscore.Hbonds>
donor molecule, donor type, donor heavy atom, donor atom, acceptor molecule, acceptor atom, score
      L1  H    10    30       P1 10175  0.47
      L1  H    13    47       P1  7948  0.98

> <Gold.Chemscore.Hbond.Weighted>
-6.5785

> <Gold.Chemscore.Metal.Weighted>
-0.0000

> <Gold.Chemscore.Lipo.Weighted>
-7.6063

> <Gold.Chemscore.Internal_Hbond.Weighted>
0.0000

> <Gold.Chemscore.DEClash.Weighted>
0.0318

> <Gold.Chemscore.DEInternal.Weighted>
0.6448

> <Gold.Chemscore.Rot.Weighted>
4.2641

> <Gold.Chemscore.Internal.Correction.Weighted>
   9.000000E+99

> <Gold.Protein.RotatedTorsions>
[ 6907 6896 6895 6894 ] final  -18.63 input  -60.11 | X-H torsion
[ 7974 7965 7964 7962 ] final   27.01 input  175.53 | X-H torsion
[ 8008 7997 7996 7995 ] final   36.54 input   59.86 | X-H torsion
[ 10167 10162 10161 10158 ] final   44.97 input  -65.29 | X-H torsion
[ 10718 10713 10712 10709 ] final  -21.84 input   66.30 | X-H torsion
[ 10763 10752 10751 10750 ] final  172.84 input  -60.55 | X-H torsion
[ 11005 11000 10999 10996 ] final   41.25 input  -57.11 | X-H torsion

> <Gold.Protein.ActiveResidues>
 VAL166  LYS551  ARG553  GLY616  TRP617  ASP618  TYR619  PRO620  LYS621  CYS622 
 ASP623  PHE694  ASN695  SER759  ASP760  ASP761  ALA762  ILE779  LEU786  VAL792 
 PHE793  MET794  SER795  GLU796  ALA797  LYS798  CYS799  TRP800  GLU811  SER814 

> <Gold.Protein.RotatedAtoms>
  151.2752  135.0697  159.9148 H   0  0  0  0  0  0  0  0  0  0  0  0  # atno 6907 bound_to 6896
  152.5343  134.0088  159.7939 H   0  0  0  0  0  0  0  0  0  0  0  0  # atno 6908 bound_to 6896
  151.0333  133.5720  159.2689 H   0  0  0  0  0  0  0  0  0  0  0  0  # atno 6909 bound_to 6896
  146.1807  139.7249  142.8902 H   0  0  0  0  0  0  0  0  0  0  0  0  # atno 7974 bound_to 7965
  155.1890  140.3306  155.4362 H   0  0  0  0  0  0  0  0  0  0  0  0  # atno 8008 bound_to 7997
  156.2449  140.1913  156.6934 H   0  0  0  0  0  0  0  0  0  0  0  0  # atno 8009 bound_to 7997
  154.6219  140.0594  156.9611 H   0  0  0  0  0  0  0  0  0  0  0  0  # atno 8010 bound_to 7997
  140.3289  144.2613  150.6171 H   0  0  0  0  0  0  0  0  0  0  0  0  # atno 10167 bound_to 10162
  156.5127  130.4614  149.6639 H   0  0  0  0  0  0  0  0  0  0  0  0  # atno 10718 bound_to 10713
  154.4317  135.2760  155.1908 H   0  0  0  0  0  0  0  0  0  0  0  0  # atno 10763 bound_to 10752
  154.3811  135.6087  153.5795 H   0  0  0  0  0  0  0  0  0  0  0  0  # atno 10764 bound_to 10752
  152.9836  135.5880  154.4629 H   0  0  0  0  0  0  0  0  0  0  0  0  # atno 10765 bound_to 10752
  140.1853  134.4054  155.8177 H   0  0  0  0  0  0  0  0  0  0  0  0  # atno 11005 bound_to 11000
  145.4085  141.0393  143.3031 LP  0  0  0  0  0  0  0  0  0  0  0  0  # atno 17320 bound_to 7965
  144.8310  139.5628  143.6944 LP  0  0  0  0  0  0  0  0  0  0  0  0  # atno 17321 bound_to 7965
  140.5415  143.2222  151.8076 LP  0  0  0  0  0  0  0  0  0  0  0  0  # atno 17342 bound_to 10162
  139.4860  144.4594  151.9559 LP  0  0  0  0  0  0  0  0  0  0  0  0  # atno 17343 bound_to 10162
  156.3225  130.7288  151.2202 LP  0  0  0  0  0  0  0  0  0  0  0  0  # atno 17370 bound_to 10713
  157.7448  131.0452  150.4830 LP  0  0  0  0  0  0  0  0  0  0  0  0  # atno 17371 bound_to 10713
  141.2224  133.7020  156.8001 LP  0  0  0  0  0  0  0  0  0  0  0  0  # atno 17394 bound_to 11000
  140.2221  134.8749  157.3388 LP  0  0  0  0  0  0  0  0  0  0  0  0  # atno 17395 bound_to 11000

$$$$
