AV-unprocessed.smi:1047|AV-procd|sdf|4580|dock4
  -GOLD-   22720 3 43D 1   1.00000     0.00000
 Structure written by MMmdl.
 58 60  0  0  0  0  0  0  0  0  4 V2000
  145.7454  133.9320  150.8039 C   0  0  0  0  0  0  0  0  0  0  0  0
  144.8494  134.9970  150.1553 C   0  0  0  0  0  0  0  0  0  0  0  0
  144.7348  136.2266  150.9791 N   0  3  1  0  0  0  0  0  0  0  0  0
  143.9239  136.0109  152.2015 C   0  0  0  0  0  0  0  0  0  0  0  0
  143.7770  137.3225  152.9910 C   0  0  0  0  0  0  0  0  0  0  0  0
  145.0643  137.8343  153.3155 O   0  0  0  0  0  0  0  0  0  0  0  0
  145.8373  138.1221  152.1552 C   0  0  1  0  0  0  0  0  0  0  0  0
  147.1546  138.7906  152.5851 C   0  0  0  0  0  0  0  0  0  0  0  0
  147.8272  138.0489  153.6719 N   0  3  0  0  0  0  0  0  0  0  0  0
  148.5268  138.9095  154.6465 C   0  0  0  0  0  0  0  0  0  0  0  0
  150.0042  139.1031  154.2573 C   0  0  2  0  0  0  0  0  0  0  0  0
  150.4412  137.9621  153.5476 O   0  0  0  0  0  0  0  0  0  0  0  0
  150.9510  139.3005  155.4579 C   0  0  0  0  0  0  0  0  0  0  0  0
  150.7811  140.6053  156.1129 N   0  0  0  0  0  0  0  0  0  0  0  0
  150.0868  141.6982  155.6927 C   0  0  0  0  0  0  0  0  0  0  0  0
  150.2335  142.6674  156.6374 N   0  3  0  0  0  0  0  0  0  0  0  0
  151.0373  142.1898  157.6743 C   0  0  0  0  0  0  0  0  0  0  0  0
  151.4663  142.8012  158.8462 C   0  0  0  0  0  0  0  0  0  0  0  0
  152.2872  142.0397  159.7080 C   0  0  0  0  0  0  0  0  0  0  0  0
  152.7754  142.6798  160.9967 C   0  0  0  0  0  0  0  0  0  0  0  0
  152.6494  140.7073  159.3816 C   0  0  0  0  0  0  0  0  0  0  0  0
  153.5316  139.8969  160.3161 C   0  0  0  0  0  0  0  0  0  0  0  0
  152.2037  140.1035  158.1838 C   0  0  0  0  0  0  0  0  0  0  0  0
  151.3959  140.8679  157.3441 C   0  0  0  0  0  0  0  0  0  0  0  0
  146.0430  136.8341  151.3292 C   0  0  0  0  0  0  0  0  0  0  0  0
  145.8873  133.0886  150.1277 H   0  0  0  0  0  0  0  0  0  0  0  0
  145.3135  133.5369  151.7229 H   0  0  0  0  0  0  0  0  0  0  0  0
  146.7310  134.3345  151.0392 H   0  0  0  0  0  0  0  0  0  0  0  0
  145.2856  135.2577  149.1901 H   0  0  0  0  0  0  0  0  0  0  0  0
  143.8587  134.5904  149.9468 H   0  0  0  0  0  0  0  0  0  0  0  0
  142.9360  135.6363  151.9300 H   0  0  0  0  0  0  0  0  0  0  0  0
  144.3953  135.2494  152.8251 H   0  0  0  0  0  0  0  0  0  0  0  0
  143.2116  138.0603  152.4193 H   0  0  0  0  0  0  0  0  0  0  0  0
  143.2249  137.1455  153.9142 H   0  0  0  0  0  0  0  0  0  0  0  0
  145.2880  138.8428  151.5461 H   0  0  0  0  0  0  0  0  0  0  0  0
  147.8257  138.8642  151.7283 H   0  0  0  0  0  0  0  0  0  0  0  0
  146.9576  139.8092  152.9223 H   0  0  0  0  0  0  0  0  0  0  0  0
  147.1347  137.5052  154.1684 H   0  0  0  0  0  0  0  0  0  0  0  0
  148.0124  139.8704  154.6666 H   0  0  0  0  0  0  0  0  0  0  0  0
  148.4475  138.4826  155.6475 H   0  0  0  0  0  0  0  0  0  0  0  0
  150.0936  139.9646  153.5939 H   0  0  0  0  0  0  0  0  0  0  0  0
  149.7137  137.6095  153.0571 H   0  0  0  0  0  0  0  0  0  0  0  0
  150.8339  138.5040  156.1928 H   0  0  0  0  0  0  0  0  0  0  0  0
  151.9881  139.2519  155.1223 H   0  0  0  0  0  0  0  0  0  0  0  0
  149.5229  141.7826  154.7746 H   0  0  0  0  0  0  0  0  0  0  0  0
  151.1858  143.8161  159.0885 H   0  0  0  0  0  0  0  0  0  0  0  0
  153.8641  142.6544  161.0511 H   0  0  0  0  0  0  0  0  0  0  0  0
  152.3726  142.1525  161.8618 H   0  0  0  0  0  0  0  0  0  0  0  0
  152.4643  143.7225  161.0671 H   0  0  0  0  0  0  0  0  0  0  0  0
  153.6566  138.8736  159.9606 H   0  0  0  0  0  0  0  0  0  0  0  0
  153.0961  139.8497  161.3143 H   0  0  0  0  0  0  0  0  0  0  0  0
  154.5215  140.3479  160.3906 H   0  0  0  0  0  0  0  0  0  0  0  0
  152.4839  139.0897  157.9400 H   0  0  0  0  0  0  0  0  0  0  0  0
  146.6353  136.1087  151.8892 H   0  0  0  0  0  0  0  0  0  0  0  0
  146.6023  137.0742  150.4255 H   0  0  0  0  0  0  0  0  0  0  0  0
  148.5016  137.4159  153.2665 H   0  0  0  0  0  0  0  0  0  0  0  0
  144.2318  136.9018  150.4205 H   0  0  0  0  0  0  0  0  0  0  0  0
  149.8192  143.5890  156.5740 H   0  0  0  0  0  0  0  0  0  0  0  0
  1  2  1  0  0  0  0
  1 26  1  0  0  0  0
  1 27  1  0  0  0  0
  1 28  1  0  0  0  0
  2  3  1  0  0  0  0
  2 29  1  0  0  0  0
  2 30  1  0  0  0  0
  3 25  1  0  0  0  0
  3  4  1  0  0  0  0
  3 57  1  0  0  0  0
  4  5  1  0  0  0  0
  4 31  1  0  0  0  0
  4 32  1  0  0  0  0
  5  6  1  0  0  0  0
  5 33  1  0  0  0  0
  5 34  1  0  0  0  0
  6  7  1  0  0  0  0
  7  8  1  0  0  0  0
  7 25  1  0  0  0  0
  7 35  1  0  0  0  0
  8  9  1  0  0  0  0
  8 36  1  0  0  0  0
  8 37  1  0  0  0  0
  9 10  1  0  0  0  0
  9 38  1  0  0  0  0
  9 56  1  0  0  0  0
 10 11  1  0  0  0  0
 10 39  1  0  0  0  0
 10 40  1  0  0  0  0
 11 12  1  0  0  0  0
 11 13  1  0  0  0  0
 11 41  1  0  0  0  0
 12 42  1  0  0  0  0
 13 14  1  0  0  0  0
 13 43  1  0  0  0  0
 13 44  1  0  0  0  0
 14 24  1  0  0  0  0
 14 15  1  0  0  0  0
 15 16  2  0  0  0  0
 15 45  1  0  0  0  0
 16 17  1  0  0  0  0
 16 58  1  0  0  0  0
 17 24  2  0  0  0  0
 17 18  1  0  0  0  0
 18 19  2  0  0  0  0
 18 46  1  0  0  0  0
 19 20  1  0  0  0  0
 19 21  1  0  0  0  0
 20 47  1  0  0  0  0
 20 48  1  0  0  0  0
 20 49  1  0  0  0  0
 21 22  1  0  0  0  0
 21 23  2  0  0  0  0
 22 50  1  0  0  0  0
 22 51  1  0  0  0  0
 22 52  1  0  0  0  0
 23 24  1  0  0  0  0
 23 53  1  0  0  0  0
 25 54  1  0  0  0  0
 25 55  1  0  0  0  0
M  CHG  1   3   1
M  CHG  1   9   1
M  CHG  1  16   1
M  END
> <s_m_source_file>
AV-unprocessed.smi

> <i_m_source_file_index>
1047

> <i_lp_mmshare_version>
43012

> <i_f3d_flags>
0

> <s_epik_input>
W0NIM11bQ0gyXU4xW0NIMl1bQ0gyXU9bQ0BIXShbQ0gyXTEpW0NIMl1bTkhdW0NIMl1bQ0BIXShbT0hdKVtDSDJdbihbY0hdbjIpYyhjMjMpW2NIXWMoW0NIM10pYyhbY0hdMylbQ0gzXQ==

> <s_epik_cmdline>
J2VwaWtfcHl0aG9uJywgJy1waCcsICc3LjAnLCAnLXRuJywgJzgnLCAnLW1hJywgJzIwMCcsICctbWV0YWxfYmluZGluZycsICctaW1hZScsICc8aW5maWxlLm1hZT4nLCAnLW9tYWUnLCAnPG91dGZpbGUubWFlPic=

> <r_epik_Ionization_Penalty>
1.6114

> <r_epik_Ionization_Penalty_Charging>
1.61139

> <r_epik_Ionization_Penalty_Neutral>
5.04732e-06

> <r_epik_State_Penalty>
1.63724

> <r_epik_Charging_Adjusted_Penalty>
3.24864

> <i_epik_Tot_Q>
3

> <i_epik_Tot_abs_Q>
3

> <r_epik_Metal_State_Penalty>
5.64594

> <b_epik_Metal_Only>
0

> <s_lp_Force_Field>
OPLS_2005

> <r_lp_Energy>
43.5462

> <b_lp_Chiralities_Consistent>
1

> <s_lp_Variant>
AV-unprocessed.smi:1047-21

> <Gold.Version>
5.8.1

> <Gold.Id.Protein>
6NUR|6NUR_protein|mol2

> <Gold.PLP.Fitness>
64.1008

> <Gold.PLP.PLP>
-48.3588

> <Gold.PLP.part.hbond>
-5.3392

> <Gold.PLP.part.metal>
0.0000

> <Gold.PLP.part.buried>
-0.0844

> <Gold.PLP.part.nonpolar>
-42.6687

> <Gold.PLP.part.repulsive>
0.2746

> <Gold.PLP.ligand.clash>
0.0000

> <Gold.PLP.ligand.torsion>
1.1385

> <Gold.PLP.Chemscore.Hbond>
5.9280

> <Gold.PLP.Chemscore.CHOScore>
0.0000

> <Gold.PLP.Chemscore.Metal>
0.0000

> <Gold.Chemscore.Hbonds>
donor molecule, donor type, donor heavy atom, donor atom, acceptor molecule, acceptor atom, score
      L1  H     3    57       P1 10171  1.00
      L1  H     9    56       P1  7948  1.95
      L1  H    12    42       P1  7948  0.98
      L1  H    16    58       P1  8028  1.95

> <Gold.PLP.Chemscore.Internal.Correction>
0.2351

> <Gold.Rescore>
     Score         DG    S(hbond)    S(metal)    S(lipo)     H(rot)  DE(clash)    DE(int)     intcor
     23.71     -25.02       3.47        0.00     128.90       2.78       0.17       1.14       ----

> <Gold.Chemscore.Fitness>
23.7085

> <Gold.Chemscore.DG>
-25.0185

> <Gold.Chemscore.ZeroCoef>
-5.4800

> <Gold.Chemscore.Hbond>
3.4690

> <Gold.Chemscore.Metal>
0.0000

> <Gold.Chemscore.Lipo>
128.8997

> <Gold.Chemscore.Internal_Hbond>
0.0000

> <Gold.Chemscore.DEClash>
0.1706

> <Gold.Chemscore.DEInternal>
1.1394

> <Gold.Chemscore.Rot>
2.7848

> <Gold.Chemscore.Internal.Correction>
   9.000000E+99

> <Gold.Chemscore.Hbonds>
donor molecule, donor type, donor heavy atom, donor atom, acceptor molecule, acceptor atom, score
      L1  H     3    57       P1 10171  0.98
      L1  H     9    56       P1  7948  0.93
      L1  H    12    42       P1  7948  0.56
      L1  H    16    58       P1  8028  0.93

> <Gold.Chemscore.Hbond.Weighted>
-11.5863

> <Gold.Chemscore.Metal.Weighted>
-0.0000

> <Gold.Chemscore.Lipo.Weighted>
-15.0813

> <Gold.Chemscore.Internal_Hbond.Weighted>
0.0000

> <Gold.Chemscore.DEClash.Weighted>
0.1706

> <Gold.Chemscore.DEInternal.Weighted>
1.1394

> <Gold.Chemscore.Rot.Weighted>
7.1291

> <Gold.Chemscore.Internal.Correction.Weighted>
   9.000000E+99

> <Gold.Protein.RotatedTorsions>
[ 6907 6896 6895 6894 ] final -109.68 input  -60.11 | X-H torsion
[ 7974 7965 7964 7962 ] final  -20.42 input  175.53 | X-H torsion
[ 8008 7997 7996 7995 ] final   53.23 input   59.86 | X-H torsion
[ 10167 10162 10161 10158 ] final   41.26 input  -65.29 | X-H torsion
[ 10718 10713 10712 10709 ] final -150.74 input   66.30 | X-H torsion
[ 10763 10752 10751 10750 ] final   26.97 input  -60.55 | X-H torsion
[ 11005 11000 10999 10996 ] final  102.71 input  -57.11 | X-H torsion

> <Gold.Protein.ActiveResidues>
 VAL166  LYS551  ARG553  GLY616  TRP617  ASP618  TYR619  PRO620  LYS621  CYS622 
 ASP623  PHE694  ASN695  SER759  ASP760  ASP761  ALA762  ILE779  LEU786  VAL792 
 PHE793  MET794  SER795  GLU796  ALA797  LYS798  CYS799  TRP800  GLU811  SER814 

> <Gold.Protein.RotatedAtoms>
  150.7577  133.9494  159.3480 H   0  0  0  0  0  0  0  0  0  0  0  0  # atno 6907 bound_to 6896
  151.7409  135.0852  160.0325 H   0  0  0  0  0  0  0  0  0  0  0  0  # atno 6908 bound_to 6896
  152.3529  133.6164  159.5994 H   0  0  0  0  0  0  0  0  0  0  0  0  # atno 6909 bound_to 6896
  146.1789  140.4199  142.8502 H   0  0  0  0  0  0  0  0  0  0  0  0  # atno 7974 bound_to 7965
  155.4648  140.3463  155.4317 H   0  0  0  0  0  0  0  0  0  0  0  0  # atno 8008 bound_to 7997
  156.1138  140.1468  156.9331 H   0  0  0  0  0  0  0  0  0  0  0  0  # atno 8009 bound_to 7997
  154.4774  140.0880  156.7275 H   0  0  0  0  0  0  0  0  0  0  0  0  # atno 8010 bound_to 7997
  140.3661  144.2165  150.6135 H   0  0  0  0  0  0  0  0  0  0  0  0  # atno 10167 bound_to 10162
  156.4501  130.8164  151.2394 H   0  0  0  0  0  0  0  0  0  0  0  0  # atno 10718 bound_to 10713
  153.0587  135.6548  154.0516 H   0  0  0  0  0  0  0  0  0  0  0  0  # atno 10763 bound_to 10752
  154.0188  135.2921  155.3385 H   0  0  0  0  0  0  0  0  0  0  0  0  # atno 10764 bound_to 10752
  154.6914  135.5281  153.8466 H   0  0  0  0  0  0  0  0  0  0  0  0  # atno 10765 bound_to 10752
  139.8779  134.9235  156.5100 H   0  0  0  0  0  0  0  0  0  0  0  0  # atno 11005 bound_to 11000
  144.8282  140.6663  143.6308 LP  0  0  0  0  0  0  0  0  0  0  0  0  # atno 17320 bound_to 7965
  145.4133  139.1576  143.4114 LP  0  0  0  0  0  0  0  0  0  0  0  0  # atno 17321 bound_to 7965
  140.5079  143.2299  151.8580 LP  0  0  0  0  0  0  0  0  0  0  0  0  # atno 17342 bound_to 10162
  139.4808  144.4984  151.9093 LP  0  0  0  0  0  0  0  0  0  0  0  0  # atno 17343 bound_to 10162
  157.7503  131.0140  150.3448 LP  0  0  0  0  0  0  0  0  0  0  0  0  # atno 17370 bound_to 10713
  156.3825  130.3883  149.7091 LP  0  0  0  0  0  0  0  0  0  0  0  0  # atno 17371 bound_to 10713
  140.8527  133.8119  155.9185 LP  0  0  0  0  0  0  0  0  0  0  0  0  # atno 17394 bound_to 11000
  140.9128  134.2239  157.4975 LP  0  0  0  0  0  0  0  0  0  0  0  0  # atno 17395 bound_to 11000

$$$$
