#       Name:                AV-unprocessed.smi:1662
#       Creating user name   scv26
#       Creation time:       Fri Mar 27 07:36:52 2020


#       File generated by GOLD software.
#

@<TRIPOS>MOLECULE
AV-unprocessed.smi:1662
    53    54     1
SMALL
NO_CHARGES


@<TRIPOS>ATOM
      1 ****        -4.8873   2.9816   1.8659 C.3            1 S1                 0.0000
      2 ****        -4.0601   1.7246   1.8395 C.2            1 S1                 0.0000
      3 ****        -2.7765   1.8749   1.8579 N.2            1 S1                 0.0000
      4 ****        -1.9244   0.7880   1.8316 N.am           1 S1                 0.0000
      5 ****        -0.4975   1.1428   1.8403 C.3            1 S1                 0.0000
      6 ****         0.1612   1.0244   0.4586 C.2            1 S1                 0.0000
      7 ****        -0.4942   1.2082  -0.5680 O.2            1 S1                 0.0000
      8 ****         1.4691   0.7259   0.4536 N.am           1 S1                 0.0000
      9 ****         2.2883   0.5328  -0.7408 C.3            1 S1                 0.0000
     10 ****         3.7727   0.7636  -0.3976 C.3            1 S1                 0.0000
     11 ****         4.6629   0.6007  -1.6386 C.3            1 S1                 0.0000
     12 ****         4.4474  -0.7632  -2.3130 C.3            1 S1                 0.0000
     13 ****         2.9609  -0.9979  -2.6496 C.3            1 S1                 0.0000
     14 ****         2.7501  -2.3147  -3.4155 C.3            1 S1                 0.0000
     15 ****         2.0603  -0.8596  -1.3929 C.3            1 S1                 0.0000
     16 ****         2.2067  -2.0318  -0.3941 C.3            1 S1                 0.0000
     17 ****        -2.3282  -0.5150   1.7954 C.2            1 S1                 0.0000
     18 ****        -1.5318  -1.4551   1.7814 O.2            1 S1                 0.0000
     19 ****        -3.7835  -0.6777   1.7743 C.2            1 S1                 0.0000
     20 ****        -4.2491  -2.0261   1.7277 C.1            1 S1                 0.0000
     21 ****        -4.6461  -3.1131   1.6935 N.1            1 S1                 0.0000
     22 ****        -4.6306   0.3818   1.7966 C.2            1 S1                 0.0000
     23 ****        -6.1486   0.2654   1.7766 C.3            1 S1                 0.0000
     24 ****        -5.4556   3.0498   2.7934 H              1 S1                 0.0000
     25 ****        -5.5917   3.0011   1.0345 H              1 S1                 0.0000
     26 ****        -4.2687   3.8770   1.7907 H              1 S1                 0.0000
     27 ****        -0.3617   2.1674   2.1911 H              1 S1                 0.0000
     28 ****         0.0339   0.5148   2.5583 H              1 S1                 0.0000
     29 ****         1.9285   0.5989   1.3437 H              1 S1                 0.0000
     30 ****         2.0041   1.2985  -1.4657 H              1 S1                 0.0000
     31 ****         3.9079   1.7640   0.0153 H              1 S1                 0.0000
     32 ****         4.0949   0.0678   0.3779 H              1 S1                 0.0000
     33 ****         4.4410   1.3967  -2.3505 H              1 S1                 0.0000
     34 ****         5.7112   0.7181  -1.3628 H              1 S1                 0.0000
     35 ****         5.0462  -0.8126  -3.2231 H              1 S1                 0.0000
     36 ****         4.8168  -1.5575  -1.6637 H              1 S1                 0.0000
     37 ****         2.6636  -0.2025  -3.3349 H              1 S1                 0.0000
     38 ****         3.1168  -3.1744  -2.8544 H              1 S1                 0.0000
     39 ****         3.2819  -2.2990  -4.3671 H              1 S1                 0.0000
     40 ****         1.6943  -2.4791  -3.6330 H              1 S1                 0.0000
     41 ****         1.0267  -0.8866  -1.7412 H              1 S1                 0.0000
     42 ****         3.2193  -2.1118  -0.0002 H              1 S1                 0.0000
     43 ****         1.9574  -2.9852  -0.8583 H              1 S1                 0.0000
     44 ****         1.5323  -1.9220   0.4551 H              1 S1                 0.0000
     45 ****        -6.4840  -0.7695   1.8388 H              1 S1                 0.0000
     46 ****        -6.5499   0.6870   0.8543 H              1 S1                 0.0000
     47 ****        -6.5880   0.7999   2.6195 H              1 S1                 0.0000
     48 ****        -2.3921   2.7974   1.8919 LP             1 S1                 0.0000
     49 ****        -1.4657   1.4371  -0.5067 LP             1 S1                 0.0000
     50 ****        -0.0548   1.1284  -1.4627 LP             1 S1                 0.0000
     51 ****        -0.5479  -1.2772   1.7967 LP             1 S1                 0.0000
     52 ****        -1.8694  -2.3960   1.7547 LP             1 S1                 0.0000
     53 ****        -4.9890  -4.0520   1.6639 LP             1 S1                 0.0000
@<TRIPOS>BOND
    1    1    2 1     
    2    1   24 1     
    3    1   25 1     
    4    1   26 1     
    5    2   22 1     
    6    2    3 2     
    7    3    4 1     
    8    4    5 1     
    9    4   17 am    
   10    5    6 1     
   11    5   27 1     
   12    5   28 1     
   13    6    7 2     
   14    6    8 am    
   15    8    9 1     
   16    8   29 1     
   17    9   15 1     
   18    9   10 1     
   19    9   30 1     
   20   10   11 1     
   21   10   31 1     
   22   10   32 1     
   23   11   12 1     
   24   11   33 1     
   25   11   34 1     
   26   12   13 1     
   27   12   35 1     
   28   12   36 1     
   29   13   14 1     
   30   13   15 1     
   31   13   37 1     
   32   14   38 1     
   33   14   39 1     
   34   14   40 1     
   35   15   16 1     
   36   15   41 1     
   37   16   42 1     
   38   16   43 1     
   39   16   44 1     
   40   17   18 2     
   41   17   19 1     
   42   19   20 1     
   43   19   22 2     
   44   20   21 3     
   45   22   23 1     
   46   23   45 1     
   47   23   46 1     
   48   23   47 1     
   49    3   48 1     
   50    7   49 1     
   51    7   50 1     
   52   18   51 1     
   53   18   52 1     
   54   21   53 1     
@<TRIPOS>SUBSTRUCTURE
      1 S1             1
@<TRIPOS>SET
LONE_PAIRS      STATIC     ATOMS    <user>   **** ""
6 48 49 50 51 52 53
DONOR_HYDROGENS      STATIC     ATOMS    <user>   **** ""
1 29
ATOM$BLUE        STATIC     ATOMS    COLORGROUP SYSTEM
6 48 49 50 51 52 53
ATOM$RED        STATIC     ATOMS    COLORGROUP SYSTEM
1 29
