AV-unprocessed.smi:1731|AV-procd|sdf|6975|dock5
  -GOLD-   22720 8183D 1   1.00000     0.00000
 Structure written by MMmdl.
 41 42  0  0  0  0  0  0  0  0  1 V2000
  145.7662  132.5051  151.1380 C   0  0  0  0  0  0  0  0  0  0  0  0
  145.2313  133.5317  152.1465 C   0  0  2  0  0  0  0  0  0  0  0  0
  145.2486  134.9572  151.5619 C   0  0  0  0  0  0  0  0  0  0  0  0
  144.7188  135.9923  152.5706 C   0  0  0  0  0  0  0  0  0  0  0  0
  145.4788  135.9453  153.9100 C   0  0  2  0  0  0  0  0  0  0  0  0
  146.8368  136.4591  153.7384 N   0  0  0  0  0  0  0  0  0  0  0  0
  147.3346  137.5567  154.3253 C   0  0  0  0  0  0  0  0  0  0  0  0
  146.6883  138.2755  155.0880 O   0  0  0  0  0  0  0  0  0  0  0  0
  148.6151  137.7574  153.9741 N   0  0  0  0  0  0  0  0  0  0  0  0
  149.4678  138.8088  154.3946 C   0  0  0  0  0  0  0  0  0  0  0  0
  150.8603  138.8765  154.1303 C   0  0  0  0  0  0  0  0  0  0  0  0
  151.3930  139.9737  154.6459 N   0  0  0  0  0  0  0  0  0  0  0  0
  150.3612  140.6185  155.2464 N   0  0  0  0  0  0  0  0  0  0  0  0
  150.5980  141.8807  155.9247 C   0  0  0  0  0  0  0  0  0  0  0  0
  150.0135  141.8660  157.3388 C   0  0  0  0  0  0  0  0  0  0  0  0
  149.0869  142.7841  157.6257 N   0  0  0  0  0  0  0  0  0  0  0  0
  150.3904  141.0341  158.1616 O   0  0  0  0  0  0  0  0  0  0  0  0
  149.1683  139.9354  155.1070 C   0  0  0  0  0  0  0  0  0  0  0  0
  145.4870  134.5127  154.4840 C   0  0  0  0  0  0  0  0  0  0  0  0
  146.0172  133.4826  153.4709 C   0  0  0  0  0  0  0  0  0  0  0  0
  146.8060  132.7074  150.8791 H   0  0  0  0  0  0  0  0  0  0  0  0
  145.1842  132.5209  150.2161 H   0  0  0  0  0  0  0  0  0  0  0  0
  145.7142  131.4938  151.5423 H   0  0  0  0  0  0  0  0  0  0  0  0
  144.1944  133.2700  152.3619 H   0  0  0  0  0  0  0  0  0  0  0  0
  146.2637  135.2220  151.2633 H   0  0  0  0  0  0  0  0  0  0  0  0
  144.6443  134.9940  150.6548 H   0  0  0  0  0  0  0  0  0  0  0  0
  144.7714  136.9936  152.1414 H   0  0  0  0  0  0  0  0  0  0  0  0
  143.6613  135.7982  152.7543 H   0  0  0  0  0  0  0  0  0  0  0  0
  144.9562  136.5980  154.6116 H   0  0  0  0  0  0  0  0  0  0  0  0
  147.4444  135.9314  153.1290 H   0  0  0  0  0  0  0  0  0  0  0  0
  149.0252  137.0844  153.3430 H   0  0  0  0  0  0  0  0  0  0  0  0
  151.4892  138.1817  153.5934 H   0  0  0  0  0  0  0  0  0  0  0  0
  151.6709  142.0734  155.9767 H   0  0  0  0  0  0  0  0  0  0  0  0
  150.1571  142.6831  155.3316 H   0  0  0  0  0  0  0  0  0  0  0  0
  148.6715  142.8137  158.5457 H   0  0  0  0  0  0  0  0  0  0  0  0
  148.8042  143.4469  156.9183 H   0  0  0  0  0  0  0  0  0  0  0  0
  148.2433  140.3074  155.5218 H   0  0  0  0  0  0  0  0  0  0  0  0
  146.0758  134.4711  155.4012 H   0  0  0  0  0  0  0  0  0  0  0  0
  144.4704  134.2383  154.7684 H   0  0  0  0  0  0  0  0  0  0  0  0
  145.9543  132.4836  153.9035 H   0  0  0  0  0  0  0  0  0  0  0  0
  147.0753  133.6671  153.2806 H   0  0  0  0  0  0  0  0  0  0  0  0
  1  2  1  0  0  0  0
  1 21  1  0  0  0  0
  1 22  1  0  0  0  0
  1 23  1  0  0  0  0
  2 20  1  0  0  0  0
  2  3  1  0  0  0  0
  2 24  1  0  0  0  0
  3  4  1  0  0  0  0
  3 25  1  0  0  0  0
  3 26  1  0  0  0  0
  4  5  1  0  0  0  0
  4 27  1  0  0  0  0
  4 28  1  0  0  0  0
  5  6  1  0  0  0  0
  5 19  1  0  0  0  0
  5 29  1  0  0  0  0
  6  7  1  0  0  0  0
  6 30  1  0  0  0  0
  7  8  2  0  0  0  0
  7  9  1  0  0  0  0
  9 10  1  0  0  0  0
  9 31  1  0  0  0  0
 10 18  2  0  0  0  0
 10 11  1  0  0  0  0
 11 12  2  0  0  0  0
 11 32  1  0  0  0  0
 12 13  1  0  0  0  0
 13 14  1  0  0  0  0
 13 18  1  0  0  0  0
 14 15  1  0  0  0  0
 14 33  1  0  0  0  0
 14 34  1  0  0  0  0
 15 16  1  0  0  0  0
 15 17  2  0  0  0  0
 16 35  1  0  0  0  0
 16 36  1  0  0  0  0
 18 37  1  0  0  0  0
 19 20  1  0  0  0  0
 19 38  1  0  0  0  0
 19 39  1  0  0  0  0
 20 40  1  0  0  0  0
 20 41  1  0  0  0  0
M  END
> <s_m_source_file>
AV-unprocessed.smi

> <i_m_source_file_index>
1731

> <i_lp_mmshare_version>
43012

> <i_f3d_flags>
0

> <s_epik_input>
W0NIM11bQ0BASF0xW0NIMl1bQ0gyXVtDQEhdKFtDSDJdW0NIMl0xKVtOSF1DKD1PKVtOSF1jMltjSF1ubihbY0hdMilbQ0gyXUMoPU8pW05IMl0=

> <s_epik_cmdline>
J2VwaWtfcHl0aG9uJywgJy1waCcsICc3LjAnLCAnLXRuJywgJzgnLCAnLW1hJywgJzIwMCcsICctbWV0YWxfYmluZGluZycsICctaW1hZScsICc8aW5maWxlLm1hZT4nLCAnLW9tYWUnLCAnPG91dGZpbGUubWFlPic=

> <r_lp_tautomer_probability>
1

> <r_epik_Ionization_Penalty>
4.81284e-05

> <r_epik_Ionization_Penalty_Charging>
0

> <r_epik_Ionization_Penalty_Neutral>
4.81284e-05

> <r_epik_State_Penalty>
-0

> <r_epik_Charging_Adjusted_Penalty>
0

> <i_epik_Tot_Q>
0

> <i_epik_Tot_abs_Q>
0

> <r_epik_Metal_State_Penalty>
-0

> <b_epik_Metal_Only>
0

> <s_lp_Force_Field>
OPLS_2005

> <r_lp_Energy>
11.3018

> <b_lp_Chiralities_Consistent>
1

> <s_lp_Variant>
AV-unprocessed.smi:1731-2

> <Gold.Version>
5.8.1

> <Gold.Id.Protein>
6NUR|6NUR_protein|mol2

> <Gold.PLP.Fitness>
40.8494

> <Gold.PLP.PLP>
-29.4110

> <Gold.PLP.part.hbond>
-4.0000

> <Gold.PLP.part.metal>
0.0000

> <Gold.PLP.part.buried>
-4.7161

> <Gold.PLP.part.nonpolar>
-21.3883

> <Gold.PLP.part.repulsive>
0.2153

> <Gold.PLP.ligand.clash>
0.0000

> <Gold.PLP.ligand.torsion>
0.1101

> <Gold.PLP.Chemscore.Hbond>
3.8800

> <Gold.PLP.Chemscore.CHOScore>
0.0000

> <Gold.PLP.Chemscore.Metal>
0.0000

> <Gold.Chemscore.Hbonds>
donor molecule, donor type, donor heavy atom, donor atom, acceptor molecule, acceptor atom, score
      L1  H     6    30       P1  7948  0.80
      L1  H     9    31       P1  7948  0.99
      L1  H    16    36       P1  8028  1.00
      P1  H  7989  7998       L1    12  0.86

> <Gold.PLP.Chemscore.Internal.Correction>
0.0186

> <Gold.Rescore>
     Score         DG    S(hbond)    S(metal)    S(lipo)     H(rot)  DE(clash)    DE(int)     intcor
     14.89     -16.53       2.72        0.00      58.56       1.90       0.46       1.17       ----

> <Gold.Chemscore.Fitness>
14.8947

> <Gold.Chemscore.DG>
-16.5287

> <Gold.Chemscore.ZeroCoef>
-5.4800

> <Gold.Chemscore.Hbond>
2.7153

> <Gold.Chemscore.Metal>
0.0000

> <Gold.Chemscore.Lipo>
58.5564

> <Gold.Chemscore.Internal_Hbond>
0.0000

> <Gold.Chemscore.DEClash>
0.4609

> <Gold.Chemscore.DEInternal>
1.1731

> <Gold.Chemscore.Rot>
1.9029

> <Gold.Chemscore.Internal.Correction>
   9.000000E+99

> <Gold.Chemscore.Hbonds>
donor molecule, donor type, donor heavy atom, donor atom, acceptor molecule, acceptor atom, score
      L1  H     6    30       P1  7948  0.77
      L1  H     9    31       P1  7948  0.94
      L1  H    16    36       P1  8028  0.55
      P1  H  7989  7998       L1    12  0.14

> <Gold.Chemscore.Hbond.Weighted>
-9.0690

> <Gold.Chemscore.Metal.Weighted>
-0.0000

> <Gold.Chemscore.Lipo.Weighted>
-6.8511

> <Gold.Chemscore.Internal_Hbond.Weighted>
0.0000

> <Gold.Chemscore.DEClash.Weighted>
0.4609

> <Gold.Chemscore.DEInternal.Weighted>
1.1731

> <Gold.Chemscore.Rot.Weighted>
4.8714

> <Gold.Chemscore.Internal.Correction.Weighted>
   9.000000E+99

> <Gold.Protein.RotatedTorsions>
[ 6907 6896 6895 6894 ] final  155.99 input  -60.11 | X-H torsion
[ 7974 7965 7964 7962 ] final  -40.55 input  175.53 | X-H torsion
[ 8008 7997 7996 7995 ] final -174.06 input   59.86 | X-H torsion
[ 10167 10162 10161 10158 ] final    5.59 input  -65.29 | X-H torsion
[ 10718 10713 10712 10709 ] final  -34.10 input   66.30 | X-H torsion
[ 10763 10752 10751 10750 ] final   98.29 input  -60.55 | X-H torsion
[ 11005 11000 10999 10996 ] final  -63.38 input  -57.11 | X-H torsion

> <Gold.Protein.ActiveResidues>
 VAL166  LYS551  ARG553  GLY616  TRP617  ASP618  TYR619  PRO620  LYS621  CYS622 
 ASP623  PHE694  ASN695  SER759  ASP760  ASP761  ALA762  ILE779  LEU786  VAL792 
 PHE793  MET794  SER795  GLU796  ALA797  LYS798  CYS799  TRP800  GLU811  SER814 

> <Gold.Protein.RotatedAtoms>
  152.0362  133.3958  159.4317 H   0  0  0  0  0  0  0  0  0  0  0  0  # atno 6907 bound_to 6896
  150.6878  134.3466  159.4900 H   0  0  0  0  0  0  0  0  0  0  0  0  # atno 6908 bound_to 6896
  152.1258  134.9171  160.0611 H   0  0  0  0  0  0  0  0  0  0  0  0  # atno 6909 bound_to 6896
  146.0294  140.6750  142.9140 H   0  0  0  0  0  0  0  0  0  0  0  0  # atno 7974 bound_to 7965
  155.9654  140.1152  157.0860 H   0  0  0  0  0  0  0  0  0  0  0  0  # atno 8008 bound_to 7997
  154.4142  140.1174  156.5301 H   0  0  0  0  0  0  0  0  0  0  0  0  # atno 8009 bound_to 7997
  155.6667  140.3473  155.4805 H   0  0  0  0  0  0  0  0  0  0  0  0  # atno 8010 bound_to 7997
  140.6474  143.7630  150.7520 H   0  0  0  0  0  0  0  0  0  0  0  0  # atno 10167 bound_to 10162
  156.3546  130.4314  149.7675 H   0  0  0  0  0  0  0  0  0  0  0  0  # atno 10718 bound_to 10713
  153.2873  135.4153  155.1134 H   0  0  0  0  0  0  0  0  0  0  0  0  # atno 10763 bound_to 10752
  154.8509  135.3509  154.6030 H   0  0  0  0  0  0  0  0  0  0  0  0  # atno 10764 bound_to 10752
  153.6452  135.7055  153.5285 H   0  0  0  0  0  0  0  0  0  0  0  0  # atno 10765 bound_to 10752
  141.1391  133.6651  156.5672 H   0  0  0  0  0  0  0  0  0  0  0  0  # atno 11005 bound_to 11000
  144.7024  140.3709  143.7145 LP  0  0  0  0  0  0  0  0  0  0  0  0  # atno 17320 bound_to 7965
  145.7065  139.1674  143.2563 LP  0  0  0  0  0  0  0  0  0  0  0  0  # atno 17321 bound_to 7965
  140.1273  143.4557  152.2276 LP  0  0  0  0  0  0  0  0  0  0  0  0  # atno 17342 bound_to 10162
  139.5685  144.7449  151.3955 LP  0  0  0  0  0  0  0  0  0  0  0  0  # atno 17343 bound_to 10162
  156.4862  130.8064  151.3076 LP  0  0  0  0  0  0  0  0  0  0  0  0  # atno 17370 bound_to 10713
  157.7466  130.9990  150.2873 LP  0  0  0  0  0  0  0  0  0  0  0  0  # atno 17371 bound_to 10713
  140.3942  134.7414  157.4740 LP  0  0  0  0  0  0  0  0  0  0  0  0  # atno 17394 bound_to 11000
  140.0544  134.6085  155.8823 LP  0  0  0  0  0  0  0  0  0  0  0  0  # atno 17395 bound_to 11000

$$$$
