AV-unprocessed.smi:837|AV-procd|sdf|3901|dock1
  -GOLD-   22720 1363D 1   1.00000     0.00000
 Structure written by MMmdl.
 48 50  0  0  0  0  0  0  0  0  2 V2000
  149.3586  141.1064  154.2515 C   0  0  0  0  0  0  0  0  0  0  0  0
  150.2354  141.2872  155.5102 C   0  0  1  0  0  0  0  0  0  0  0  0
  149.4034  141.9301  156.6429 C   0  0  0  0  0  0  0  0  0  0  0  0
  150.2505  142.2025  157.8944 C   0  0  0  0  0  0  0  0  0  0  0  0
  150.9270  140.9214  158.3979 C   0  0  0  0  0  0  0  0  0  0  0  0
  151.7714  140.2714  157.2883 C   0  0  0  0  0  0  0  0  0  0  0  0
  150.9728  139.9906  155.9866 C   0  0  2  0  0  0  0  0  0  0  0  0
  151.9021  139.5329  154.9679 N   0  5  0  0  0  0  0  0  0  0  0  0
  151.5879  138.2642  154.6171 C   0  0  0  0  0  0  0  0  0  0  0  0
  152.1755  137.5612  153.7958 O   0  0  0  0  0  0  0  0  0  0  0  0
  150.5098  137.8286  155.2954 N   0  0  0  0  0  0  0  0  0  0  0  0
  149.9173  136.4897  155.1680 C   0  0  0  0  0  0  0  0  0  0  0  0
  148.3984  136.4661  155.3944 C   0  0  0  0  0  0  0  0  0  0  0  0
  147.9213  136.4247  156.5297 O   0  0  0  0  0  0  0  0  0  0  0  0
  147.6439  136.5013  154.2854 N   0  0  0  0  0  0  0  0  0  0  0  0
  146.1862  136.4947  154.2663 C   0  0  0  0  0  0  0  0  0  0  0  0
  145.6355  136.9762  152.9140 C   0  0  0  0  0  0  0  0  0  0  0  0
  145.0609  135.8363  152.0959 C   0  0  0  0  0  0  0  0  0  0  0  0
  143.6814  135.7773  151.8101 C   0  0  0  0  0  0  0  0  0  0  0  0
  143.1936  134.7028  151.0417 C   0  0  0  0  0  0  0  0  0  0  0  0
  144.1092  133.7312  150.5901 C   0  0  0  0  0  0  0  0  0  0  0  0
  145.4324  133.7782  150.8569 N   0  0  0  0  0  0  0  0  0  0  0  0
  145.8920  134.8115  151.5952 C   0  0  0  0  0  0  0  0  0  0  0  0
  150.0659  138.7703  156.1353 C   0  0  0  0  0  0  0  0  0  0  0  0
  149.1033  138.6893  156.8997 O   0  0  0  0  0  0  0  0  0  0  0  0
  148.5216  140.4319  154.4329 H   0  0  0  0  0  0  0  0  0  0  0  0
  149.9327  140.7087  153.4144 H   0  0  0  0  0  0  0  0  0  0  0  0
  148.9425  142.0611  153.9288 H   0  0  0  0  0  0  0  0  0  0  0  0
  151.0071  142.0115  155.2428 H   0  0  0  0  0  0  0  0  0  0  0  0
  148.9714  142.8689  156.2948 H   0  0  0  0  0  0  0  0  0  0  0  0
  148.5601  141.2904  156.9039 H   0  0  0  0  0  0  0  0  0  0  0  0
  151.0104  142.9507  157.6649 H   0  0  0  0  0  0  0  0  0  0  0  0
  149.6257  142.6266  158.6810 H   0  0  0  0  0  0  0  0  0  0  0  0
  151.5615  141.1519  159.2540 H   0  0  0  0  0  0  0  0  0  0  0  0
  150.1730  140.2229  158.7605 H   0  0  0  0  0  0  0  0  0  0  0  0
  152.6113  140.9310  157.0628 H   0  0  0  0  0  0  0  0  0  0  0  0
  152.2146  139.3498  157.6702 H   0  0  0  0  0  0  0  0  0  0  0  0
  150.1263  136.0831  154.1772 H   0  0  0  0  0  0  0  0  0  0  0  0
  150.3916  135.8048  155.8728 H   0  0  0  0  0  0  0  0  0  0  0  0
  148.1142  136.5364  153.3926 H   0  0  0  0  0  0  0  0  0  0  0  0
  145.8151  135.4945  154.4970 H   0  0  0  0  0  0  0  0  0  0  0  0
  145.8338  137.1480  155.0652 H   0  0  0  0  0  0  0  0  0  0  0  0
  144.8601  137.7275  153.0711 H   0  0  0  0  0  0  0  0  0  0  0  0
  146.4218  137.4631  152.3350 H   0  0  0  0  0  0  0  0  0  0  0  0
  143.0088  136.5417  152.1712 H   0  0  0  0  0  0  0  0  0  0  0  0
  142.1430  134.6253  150.8037 H   0  0  0  0  0  0  0  0  0  0  0  0
  143.7695  132.8941  149.9983 H   0  0  0  0  0  0  0  0  0  0  0  0
  146.9543  134.8214  151.7895 H   0  0  0  0  0  0  0  0  0  0  0  0
  1  2  1  0  0  0  0
  1 26  1  0  0  0  0
  1 27  1  0  0  0  0
  1 28  1  0  0  0  0
  2  7  1  0  0  0  0
  2  3  1  0  0  0  0
  2 29  1  0  0  0  0
  3  4  1  0  0  0  0
  3 30  1  0  0  0  0
  3 31  1  0  0  0  0
  4  5  1  0  0  0  0
  4 32  1  0  0  0  0
  4 33  1  0  0  0  0
  5  6  1  0  0  0  0
  5 34  1  0  0  0  0
  5 35  1  0  0  0  0
  6  7  1  0  0  0  0
  6 36  1  0  0  0  0
  6 37  1  0  0  0  0
  7 24  1  0  0  0  0
  7  8  1  0  0  0  0
  8  9  1  0  0  0  0
  9 10  2  0  0  0  0
  9 11  1  0  0  0  0
 11 12  1  0  0  0  0
 11 24  1  0  0  0  0
 12 13  1  0  0  0  0
 12 38  1  0  0  0  0
 12 39  1  0  0  0  0
 13 14  2  0  0  0  0
 13 15  1  0  0  0  0
 15 16  1  0  0  0  0
 15 40  1  0  0  0  0
 16 17  1  0  0  0  0
 16 41  1  0  0  0  0
 16 42  1  0  0  0  0
 17 18  1  0  0  0  0
 17 43  1  0  0  0  0
 17 44  1  0  0  0  0
 18 23  1  0  0  0  0
 18 19  2  0  0  0  0
 19 20  1  0  0  0  0
 19 45  1  0  0  0  0
 20 21  2  0  0  0  0
 20 46  1  0  0  0  0
 21 22  1  0  0  0  0
 21 47  1  0  0  0  0
 22 23  2  0  0  0  0
 23 48  1  0  0  0  0
 24 25  2  0  0  0  0
M  CHG  1   8  -1
M  END
> <s_m_source_file>
AV-unprocessed.smi

> <i_m_source_file_index>
837

> <i_lp_mmshare_version>
43012

> <i_f3d_flags>
0

> <s_epik_input>
W0NIMl0xW0NIMl1bQ0gyXVtDSDJdW0NAQEhdKFtDSDNdKVtDQEBdMTJbTkhdQyg9TylOKEMyPU8pW0NIMl1DKD1PKVtOSF1bQ0gyXVtDSDJdYzNbY0hdW2NIXVtjSF1uW2NIXTM=

> <s_epik_cmdline>
J2VwaWtfcHl0aG9uJywgJy1waCcsICc3LjAnLCAnLXRuJywgJzgnLCAnLW1hJywgJzIwMCcsICctbWV0YWxfYmluZGluZycsICctaW1hZScsICc8aW5maWxlLm1hZT4nLCAnLW9tYWUnLCAnPG91dGZpbGUubWFlPic=

> <r_lp_tautomer_probability>
1

> <r_epik_Ionization_Penalty>
6.03002

> <r_epik_Ionization_Penalty_Charging>
6.01728

> <r_epik_Ionization_Penalty_Neutral>
0.0127382

> <r_epik_State_Penalty>
6.02713

> <r_epik_Charging_Adjusted_Penalty>
12.0444

> <i_epik_Tot_Q>
-1

> <i_epik_Tot_abs_Q>
1

> <r_epik_Metal_State_Penalty>
1.99078

> <b_epik_Metal_Only>
1

> <s_lp_Force_Field>
OPLS_2005

> <r_lp_Energy>
14.5441

> <b_lp_Chiralities_Consistent>
1

> <s_lp_Variant>
AV-unprocessed.smi:837-10

> <Gold.Version>
5.8.1

> <Gold.Id.Protein>
6NUR|6NUR_protein|mol2

> <Gold.PLP.Fitness>
43.3709

> <Gold.PLP.PLP>
-34.4191

> <Gold.PLP.part.hbond>
-3.0000

> <Gold.PLP.part.metal>
0.0000

> <Gold.PLP.part.buried>
-3.1136

> <Gold.PLP.part.nonpolar>
-28.5393

> <Gold.PLP.part.repulsive>
0.9583

> <Gold.PLP.ligand.clash>
0.0000

> <Gold.PLP.ligand.torsion>
1.1863

> <Gold.PLP.Chemscore.Hbond>
2.7600

> <Gold.PLP.Chemscore.CHOScore>
0.9998

> <Gold.PLP.Chemscore.Metal>
0.0000

> <Gold.Chemscore.Hbonds>
donor molecule, donor type, donor heavy atom, donor atom, acceptor molecule, acceptor atom, score
      L1  H    15    40       P1  7948  1.00
      P1  H  7989  7998       L1     8  0.98
      P1  H 10752 10764       L1    10  0.86
      L1  C    23    48       P1  7948  1.00

> <Gold.PLP.Chemscore.Internal.Correction>
0.0450

> <Gold.Rescore>
     Score         DG    S(hbond)    S(metal)    S(lipo)     H(rot)  DE(clash)    DE(int)     intcor
     13.03     -17.24       2.33        0.00      73.64       1.81       0.07       4.14       ----

> <Gold.Chemscore.Fitness>
13.0282

> <Gold.Chemscore.DG>
-17.2381

> <Gold.Chemscore.ZeroCoef>
-5.4800

> <Gold.Chemscore.Hbond>
2.3274

> <Gold.Chemscore.Metal>
0.0000

> <Gold.Chemscore.Lipo>
73.6367

> <Gold.Chemscore.Internal_Hbond>
0.0000

> <Gold.Chemscore.DEClash>
0.0654

> <Gold.Chemscore.DEInternal>
4.1446

> <Gold.Chemscore.Rot>
1.8090

> <Gold.Chemscore.Internal.Correction>
   9.000000E+99

> <Gold.Chemscore.Hbonds>
donor molecule, donor type, donor heavy atom, donor atom, acceptor molecule, acceptor atom, score
      L1  H    15    40       P1  7948  1.00
      P1  H  7989  7998       L1     8  0.36
      P1  H 10752 10764       L1    10  0.80

> <Gold.Chemscore.Hbond.Weighted>
-7.7737

> <Gold.Chemscore.Metal.Weighted>
-0.0000

> <Gold.Chemscore.Lipo.Weighted>
-8.6155

> <Gold.Chemscore.Internal_Hbond.Weighted>
0.0000

> <Gold.Chemscore.DEClash.Weighted>
0.0654

> <Gold.Chemscore.DEInternal.Weighted>
4.1446

> <Gold.Chemscore.Rot.Weighted>
4.6310

> <Gold.Chemscore.Internal.Correction.Weighted>
   9.000000E+99

> <Gold.Protein.RotatedTorsions>
[ 6907 6896 6895 6894 ] final -115.48 input  -60.11 | X-H torsion
[ 7974 7965 7964 7962 ] final   31.09 input  175.53 | X-H torsion
[ 8008 7997 7996 7995 ] final  -59.17 input   59.86 | X-H torsion
[ 10167 10162 10161 10158 ] final -135.75 input  -65.29 | X-H torsion
[ 10718 10713 10712 10709 ] final  126.91 input   66.30 | X-H torsion
[ 10763 10752 10751 10750 ] final  -97.65 input  -60.55 | X-H torsion
[ 11005 11000 10999 10996 ] final   91.11 input  -57.11 | X-H torsion

> <Gold.Protein.ActiveResidues>
 VAL166  LYS551  ARG553  GLY616  TRP617  ASP618  TYR619  PRO620  LYS621  CYS622 
 ASP623  PHE694  ASN695  SER759  ASP760  ASP761  ALA762  ILE779  LEU786  VAL792 
 PHE793  MET794  SER795  GLU796  ALA797  LYS798  CYS799  TRP800  GLU811  SER814 

> <Gold.Protein.RotatedAtoms>
  150.7981  133.8652  159.3242 H   0  0  0  0  0  0  0  0  0  0  0  0  # atno 6907 bound_to 6896
  151.6472  135.1004  160.0163 H   0  0  0  0  0  0  0  0  0  0  0  0  # atno 6908 bound_to 6896
  152.4065  133.6858  159.6396 H   0  0  0  0  0  0  0  0  0  0  0  0  # atno 6909 bound_to 6896
  146.1571  139.6702  142.9059 H   0  0  0  0  0  0  0  0  0  0  0  0  # atno 7974 bound_to 7965
  154.4340  140.1068  156.6073 H   0  0  0  0  0  0  0  0  0  0  0  0  # atno 8008 bound_to 7997
  155.5847  140.3491  155.4531 H   0  0  0  0  0  0  0  0  0  0  0  0  # atno 8009 bound_to 7997
  156.0292  140.1256  157.0266 H   0  0  0  0  0  0  0  0  0  0  0  0  # atno 8010 bound_to 7997
  139.8747  143.6913  152.2635 H   0  0  0  0  0  0  0  0  0  0  0  0  # atno 10167 bound_to 10162
  157.5378  131.1097  150.8907 H   0  0  0  0  0  0  0  0  0  0  0  0  # atno 10718 bound_to 10713
  154.7347  135.5038  153.9021 H   0  0  0  0  0  0  0  0  0  0  0  0  # atno 10763 bound_to 10752
  153.0983  135.6678  153.9729 H   0  0  0  0  0  0  0  0  0  0  0  0  # atno 10764 bound_to 10752
  153.9521  135.3056  155.3417 H   0  0  0  0  0  0  0  0  0  0  0  0  # atno 10765 bound_to 10752
  139.8844  134.8654  156.3381 H   0  0  0  0  0  0  0  0  0  0  0  0  # atno 11005 bound_to 11000
  145.4680  141.0435  143.2714 LP  0  0  0  0  0  0  0  0  0  0  0  0  # atno 17320 bound_to 7965
  144.7978  139.6200  143.7085 LP  0  0  0  0  0  0  0  0  0  0  0  0  # atno 17321 bound_to 7965
  139.7251  144.7594  151.0892 LP  0  0  0  0  0  0  0  0  0  0  0  0  # atno 17342 bound_to 10162
  140.7755  143.5158  150.9597 LP  0  0  0  0  0  0  0  0  0  0  0  0  # atno 17343 bound_to 10162
  156.9469  130.5405  149.5281 LP  0  0  0  0  0  0  0  0  0  0  0  0  # atno 17370 bound_to 10713
  156.0473  130.5547  150.8909 LP  0  0  0  0  0  0  0  0  0  0  0  0  # atno 17371 bound_to 10713
  140.9677  133.7347  156.0490 LP  0  0  0  0  0  0  0  0  0  0  0  0  # atno 17394 bound_to 11000
  140.7910  134.3618  157.5464 LP  0  0  0  0  0  0  0  0  0  0  0  0  # atno 17395 bound_to 11000

$$$$
