AV-unprocessed.smi:3054|AV-procd|sdf|11640|dock5
  -GOLD-   2272017 33D 1   1.00000     0.00000
 Structure written by MMmdl.
 40 41  0  0  0  0  0  0  0  0  2 V2000
  146.6448  142.2902  154.8115 C   0  0  0  0  0  0  0  0  0  0  0  0
  146.7610  141.3470  153.6058 C   0  0  0  0  0  0  0  0  0  0  0  0
  147.5271  140.0345  153.9159 C   0  0  1  0  0  0  0  0  0  0  0  0
  147.1131  138.8783  152.9757 C   0  0  0  0  0  0  0  0  0  0  0  0
  145.6707  138.6413  152.9813 N   0  0  0  0  0  0  0  0  0  0  0  0
  145.0665  137.5106  153.3732 C   0  0  0  0  0  0  0  0  0  0  0  0
  145.6730  136.5330  153.8096 O   0  0  0  0  0  0  0  0  0  0  0  0
  143.7336  137.5957  153.2378 N   0  0  0  0  0  0  0  0  0  0  0  0
  142.7759  136.5991  153.5509 C   0  0  0  0  0  0  0  0  0  0  0  0
  141.3540  136.6524  153.4570 C   0  0  0  0  0  0  0  0  0  0  0  0
  140.8049  135.5108  153.8462 N   0  0  0  0  0  0  0  0  0  0  0  0
  141.8565  134.7334  154.1888 N   0  0  0  0  0  0  0  0  0  0  0  0
  143.0740  135.3564  154.0246 C   0  0  0  0  0  0  0  0  0  0  0  0
  149.0090  140.2095  153.9344 N   0  3  0  0  0  0  0  0  0  0  0  0
  149.5450  141.3532  154.7156 C   0  0  0  0  0  0  0  0  0  0  0  0
  150.5254  140.7601  155.7287 C   0  0  0  0  0  0  0  0  0  0  0  0
  151.0237  139.4985  155.0350 C   0  0  0  0  0  0  0  0  0  0  0  0
  149.7802  138.9976  154.3018 C   0  0  0  0  0  0  0  0  0  0  0  0
  141.7281  133.7912  154.5300 H   0  0  0  0  0  0  0  0  0  0  0  0
  146.1607  143.2238  154.5244 H   0  0  0  0  0  0  0  0  0  0  0  0
  147.6267  142.5388  155.2147 H   0  0  0  0  0  0  0  0  0  0  0  0
  146.0522  141.8513  155.6138 H   0  0  0  0  0  0  0  0  0  0  0  0
  145.7586  141.1283  153.2381 H   0  0  0  0  0  0  0  0  0  0  0  0
  147.2583  141.8947  152.8058 H   0  0  0  0  0  0  0  0  0  0  0  0
  147.2542  139.7259  154.9268 H   0  0  0  0  0  0  0  0  0  0  0  0
  147.3875  139.1136  151.9482 H   0  0  0  0  0  0  0  0  0  0  0  0
  147.6574  137.9666  153.2276 H   0  0  0  0  0  0  0  0  0  0  0  0
  145.0888  139.3905  152.6352 H   0  0  0  0  0  0  0  0  0  0  0  0
  143.3642  138.4606  152.8707 H   0  0  0  0  0  0  0  0  0  0  0  0
  140.7098  137.4549  153.1300 H   0  0  0  0  0  0  0  0  0  0  0  0
  144.0137  134.8746  154.2525 H   0  0  0  0  0  0  0  0  0  0  0  0
  150.0888  141.9966  154.0237 H   0  0  0  0  0  0  0  0  0  0  0  0
  148.7849  141.9737  155.1882 H   0  0  0  0  0  0  0  0  0  0  0  0
  151.3303  141.4471  155.9917 H   0  0  0  0  0  0  0  0  0  0  0  0
  149.9967  140.4938  156.6451 H   0  0  0  0  0  0  0  0  0  0  0  0
  151.8036  139.7548  154.3164 H   0  0  0  0  0  0  0  0  0  0  0  0
  151.4321  138.7636  155.7295 H   0  0  0  0  0  0  0  0  0  0  0  0
  149.2028  138.3569  154.9686 H   0  0  0  0  0  0  0  0  0  0  0  0
  150.0299  138.4090  153.4186 H   0  0  0  0  0  0  0  0  0  0  0  0
  149.2661  140.4056  152.9772 H   0  0  0  0  0  0  0  0  0  0  0  0
  1  2  1  0  0  0  0
  1 20  1  0  0  0  0
  1 21  1  0  0  0  0
  1 22  1  0  0  0  0
  2  3  1  0  0  0  0
  2 23  1  0  0  0  0
  2 24  1  0  0  0  0
  3  4  1  0  0  0  0
  3 14  1  0  0  0  0
  3 25  1  0  0  0  0
  4  5  1  0  0  0  0
  4 26  1  0  0  0  0
  4 27  1  0  0  0  0
  5  6  1  0  0  0  0
  5 28  1  0  0  0  0
  6  7  2  0  0  0  0
  6  8  1  0  0  0  0
  8  9  1  0  0  0  0
  8 29  1  0  0  0  0
  9 13  2  0  0  0  0
  9 10  1  0  0  0  0
 10 11  2  0  0  0  0
 10 30  1  0  0  0  0
 11 12  1  0  0  0  0
 12 19  1  0  0  0  0
 12 13  1  0  0  0  0
 13 31  1  0  0  0  0
 14 18  1  0  0  0  0
 14 15  1  0  0  0  0
 14 40  1  0  0  0  0
 15 16  1  0  0  0  0
 15 32  1  0  0  0  0
 15 33  1  0  0  0  0
 16 17  1  0  0  0  0
 16 34  1  0  0  0  0
 16 35  1  0  0  0  0
 17 18  1  0  0  0  0
 17 36  1  0  0  0  0
 17 37  1  0  0  0  0
 18 38  1  0  0  0  0
 18 39  1  0  0  0  0
M  CHG  1  14   1
M  END
> <s_m_source_file>
AV-unprocessed.smi

> <i_m_source_file_index>
3054

> <i_lp_mmshare_version>
43012

> <i_f3d_flags>
0

> <s_epik_input>
W0NIMl0xW0NIMl1bQ0gyXVtDSDJdTjFbQ0BIXShbQ0gyXVtDSDNdKVtDSDJdW05IXUMoPU8pW05IXWMyW2NIXW5bbkhdW2NIXTI=

> <s_epik_cmdline>
J2VwaWtfcHl0aG9uJywgJy1waCcsICc3LjAnLCAnLXRuJywgJzgnLCAnLW1hJywgJzIwMCcsICctbWV0YWxfYmluZGluZycsICctaW1hZScsICc8aW5maWxlLm1hZT4nLCAnLW9tYWUnLCAnPG91dGZpbGUubWFlPic=

> <r_lp_tautomer_probability>
0.5

> <r_epik_Ionization_Penalty>
0.00108132

> <r_epik_Ionization_Penalty_Charging>
0.00104139

> <r_epik_Ionization_Penalty_Neutral>
3.99244e-05

> <r_epik_State_Penalty>
0.00068071

> <r_epik_Charging_Adjusted_Penalty>
0.0017221

> <i_epik_Tot_Q>
1

> <i_epik_Tot_abs_Q>
1

> <r_epik_Metal_State_Penalty>
-0

> <b_epik_Metal_Only>
0

> <s_lp_Force_Field>
OPLS_2005

> <r_lp_Energy>
40.663

> <b_lp_Chiralities_Consistent>
1

> <s_lp_Variant>
AV-unprocessed.smi:3054-2

> <Gold.Version>
5.8.1

> <Gold.Id.Protein>
6NUR|6NUR_protein|mol2

> <Gold.PLP.Fitness>
44.4552

> <Gold.PLP.PLP>
-33.2254

> <Gold.PLP.part.hbond>
-5.3161

> <Gold.PLP.part.metal>
0.0000

> <Gold.PLP.part.buried>
-2.1800

> <Gold.PLP.part.nonpolar>
-24.6809

> <Gold.PLP.part.repulsive>
0.4689

> <Gold.PLP.ligand.clash>
0.0000

> <Gold.PLP.ligand.torsion>
0.2868

> <Gold.PLP.Chemscore.Hbond>
3.8779

> <Gold.PLP.Chemscore.CHOScore>
0.0000

> <Gold.PLP.Chemscore.Metal>
0.0000

> <Gold.Chemscore.Hbonds>
donor molecule, donor type, donor heavy atom, donor atom, acceptor molecule, acceptor atom, score
      L1  H     5    28       P1 10175  1.00
      L1  H     8    29       P1 10175  0.98
      L1  H    12    19       P1 10957  0.49
      L1  H    14    40       P1  7957  1.00

> <Gold.PLP.Chemscore.Internal.Correction>
0.1699

> <Gold.Rescore>
     Score         DG    S(hbond)    S(metal)    S(lipo)     H(rot)  DE(clash)    DE(int)     intcor
     18.93     -20.67       3.65        0.00      65.38       1.81       0.06       1.69       ----

> <Gold.Chemscore.Fitness>
18.9304

> <Gold.Chemscore.DG>
-20.6740

> <Gold.Chemscore.ZeroCoef>
-5.4800

> <Gold.Chemscore.Hbond>
3.6457

> <Gold.Chemscore.Metal>
0.0000

> <Gold.Chemscore.Lipo>
65.3808

> <Gold.Chemscore.Internal_Hbond>
0.0000

> <Gold.Chemscore.DEClash>
0.0584

> <Gold.Chemscore.DEInternal>
1.6853

> <Gold.Chemscore.Rot>
1.8094

> <Gold.Chemscore.Internal.Correction>
   9.000000E+99

> <Gold.Chemscore.Hbonds>
donor molecule, donor type, donor heavy atom, donor atom, acceptor molecule, acceptor atom, score
      L1  H     5    28       P1 10175  1.00
      L1  H     8    29       P1 10175  0.86
      L1  H    12    19       P1 10957  0.47
      L1  H    14    40       P1  7957  0.99

> <Gold.Chemscore.Hbond.Weighted>
-12.1766

> <Gold.Chemscore.Metal.Weighted>
-0.0000

> <Gold.Chemscore.Lipo.Weighted>
-7.6496

> <Gold.Chemscore.Internal_Hbond.Weighted>
0.0000

> <Gold.Chemscore.DEClash.Weighted>
0.0584

> <Gold.Chemscore.DEInternal.Weighted>
1.6853

> <Gold.Chemscore.Rot.Weighted>
4.6322

> <Gold.Chemscore.Internal.Correction.Weighted>
   9.000000E+99

> <Gold.Protein.RotatedTorsions>
[ 6907 6896 6895 6894 ] final  171.30 input  -60.11 | X-H torsion
[ 7974 7965 7964 7962 ] final  -33.54 input  175.53 | X-H torsion
[ 8008 7997 7996 7995 ] final -101.25 input   59.86 | X-H torsion
[ 10167 10162 10161 10158 ] final    5.73 input  -65.29 | X-H torsion
[ 10718 10713 10712 10709 ] final  160.19 input   66.30 | X-H torsion
[ 10763 10752 10751 10750 ] final  166.55 input  -60.55 | X-H torsion
[ 11005 11000 10999 10996 ] final   25.21 input  -57.11 | X-H torsion

> <Gold.Protein.ActiveResidues>
 VAL166  LYS551  ARG553  GLY616  TRP617  ASP618  TYR619  PRO620  LYS621  CYS622 
 ASP623  PHE694  ASN695  SER759  ASP760  ASP761  ALA762  ILE779  LEU786  VAL792 
 PHE793  MET794  SER795  GLU796  ALA797  LYS798  CYS799  TRP800  GLU811  SER814 

> <Gold.Protein.RotatedAtoms>
  151.8025  133.3371  159.3530 H   0  0  0  0  0  0  0  0  0  0  0  0  # atno 6907 bound_to 6896
  150.7354  134.5740  159.5914 H   0  0  0  0  0  0  0  0  0  0  0  0  # atno 6908 bound_to 6896
  152.3133  134.7472  160.0382 H   0  0  0  0  0  0  0  0  0  0  0  0  # atno 6909 bound_to 6896
  146.0902  140.5929  142.8868 H   0  0  0  0  0  0  0  0  0  0  0  0  # atno 7974 bound_to 7965
  154.8399  140.0435  157.1534 H   0  0  0  0  0  0  0  0  0  0  0  0  # atno 8008 bound_to 7997
  154.9058  140.3006  155.5272 H   0  0  0  0  0  0  0  0  0  0  0  0  # atno 8009 bound_to 7997
  156.2992  140.2367  156.4092 H   0  0  0  0  0  0  0  0  0  0  0  0  # atno 8010 bound_to 7997
  140.6466  143.7647  150.7509 H   0  0  0  0  0  0  0  0  0  0  0  0  # atno 10167 bound_to 10162
  157.1538  131.0570  151.2267 H   0  0  0  0  0  0  0  0  0  0  0  0  # atno 10718 bound_to 10713
  154.3406  135.2754  155.2424 H   0  0  0  0  0  0  0  0  0  0  0  0  # atno 10763 bound_to 10752
  154.4697  135.5886  153.6316 H   0  0  0  0  0  0  0  0  0  0  0  0  # atno 10764 bound_to 10752
  152.9858  135.6085  154.3607 H   0  0  0  0  0  0  0  0  0  0  0  0  # atno 10765 bound_to 10752
  140.3503  134.2236  155.7680 H   0  0  0  0  0  0  0  0  0  0  0  0  # atno 11005 bound_to 11000
  144.7354  140.4795  143.6907 LP  0  0  0  0  0  0  0  0  0  0  0  0  # atno 17320 bound_to 7965
  145.6053  139.1508  143.3106 LP  0  0  0  0  0  0  0  0  0  0  0  0  # atno 17321 bound_to 7965
  140.1289  143.4544  152.2267 LP  0  0  0  0  0  0  0  0  0  0  0  0  # atno 17342 bound_to 10162
  139.5677  144.7445  151.3976 LP  0  0  0  0  0  0  0  0  0  0  0  0  # atno 17343 bound_to 10162
  157.4196  130.7430  149.6903 LP  0  0  0  0  0  0  0  0  0  0  0  0  # atno 17370 bound_to 10713
  155.9766  130.4074  150.3770 LP  0  0  0  0  0  0  0  0  0  0  0  0  # atno 17371 bound_to 10713
  141.2014  133.7964  157.0443 LP  0  0  0  0  0  0  0  0  0  0  0  0  # atno 17394 bound_to 11000
  140.0709  134.9703  157.1465 LP  0  0  0  0  0  0  0  0  0  0  0  0  # atno 17395 bound_to 11000

$$$$
