AV-unprocessed.smi:1433|AV-procd|sdf|5847|dock5
  -GOLD-   22720 5513D 1   1.00000     0.00000
 Structure written by MMmdl.
 45 46  0  0  0  0  0  0  0  0  2 V2000
  149.1724  131.3831  154.0950 C   0  0  0  0  0  0  0  0  0  0  0  0
  148.6545  132.6834  153.4702 C   0  0  2  0  0  0  0  0  0  0  0  0
  148.2093  133.7025  154.5346 C   0  0  0  0  0  0  0  0  0  0  0  0
  147.6543  134.9321  153.9057 N   0  3  2  0  0  0  0  0  0  0  0  0
  147.2990  135.9836  154.9149 C   0  0  1  0  0  0  0  0  0  0  0  0
  145.9908  135.6019  155.6467 C   0  0  0  0  0  0  0  0  0  0  0  0
  148.4291  136.2721  155.9445 C   0  0  0  0  0  0  0  0  0  0  0  0
  149.3277  137.3375  155.5131 N   0  0  0  0  0  0  0  0  0  0  0  0
  150.6623  137.2314  155.4214 C   0  0  0  0  0  0  0  0  0  0  0  0
  151.2872  136.2237  155.7515 O   0  0  0  0  0  0  0  0  0  0  0  0
  151.4018  138.4406  154.8493 C   0  0  0  0  0  0  0  0  0  0  0  0
  150.9711  139.6646  155.5018 N   0  0  0  0  0  0  0  0  0  0  0  0
  151.1158  140.0260  156.8251 C   0  0  0  0  0  0  0  0  0  0  0  0
  150.5708  141.2697  156.9688 C   0  0  0  0  0  0  0  0  0  0  0  0
  150.1120  141.5912  155.6609 C   0  0  0  0  0  0  0  0  0  0  0  0
  150.3552  140.6302  154.7842 N   0  0  0  0  0  0  0  0  0  0  0  0
  146.5684  134.5555  152.9592 C   0  0  0  0  0  0  0  0  0  0  0  0
  147.0498  133.4986  151.9465 C   0  0  2  0  0  0  0  0  0  0  0  0
  145.9215  133.0335  151.0190 C   0  0  0  0  0  0  0  0  0  0  0  0
  147.5417  132.3643  152.6467 O   0  0  0  0  0  0  0  0  0  0  0  0
  150.0355  131.5705  154.7343 H   0  0  0  0  0  0  0  0  0  0  0  0
  149.4784  130.6755  153.3240 H   0  0  0  0  0  0  0  0  0  0  0  0
  148.4044  130.9023  154.7017 H   0  0  0  0  0  0  0  0  0  0  0  0
  149.4490  133.1125  152.8570 H   0  0  0  0  0  0  0  0  0  0  0  0
  147.4541  133.2561  155.1837 H   0  0  0  0  0  0  0  0  0  0  0  0
  149.0653  133.9384  155.1638 H   0  0  0  0  0  0  0  0  0  0  0  0
  147.1233  136.9104  154.3664 H   0  0  0  0  0  0  0  0  0  0  0  0
  145.6886  136.3636  156.3656 H   0  0  0  0  0  0  0  0  0  0  0  0
  146.1053  134.6644  156.1918 H   0  0  0  0  0  0  0  0  0  0  0  0
  145.1476  135.4882  154.9679 H   0  0  0  0  0  0  0  0  0  0  0  0
  147.9994  136.5638  156.9034 H   0  0  0  0  0  0  0  0  0  0  0  0
  149.0408  135.3877  156.1276 H   0  0  0  0  0  0  0  0  0  0  0  0
  148.9023  138.2047  155.2172 H   0  0  0  0  0  0  0  0  0  0  0  0
  152.4791  138.3189  154.9736 H   0  0  0  0  0  0  0  0  0  0  0  0
  151.2084  138.5248  153.7790 H   0  0  0  0  0  0  0  0  0  0  0  0
  151.5908  139.3759  157.5453 H   0  0  0  0  0  0  0  0  0  0  0  0
  150.5089  141.8601  157.8709 H   0  0  0  0  0  0  0  0  0  0  0  0
  149.6144  142.4890  155.3247 H   0  0  0  0  0  0  0  0  0  0  0  0
  145.7101  134.1819  153.5204 H   0  0  0  0  0  0  0  0  0  0  0  0
  146.2380  135.4223  152.3881 H   0  0  0  0  0  0  0  0  0  0  0  0
  147.8502  133.9164  151.3330 H   0  0  0  0  0  0  0  0  0  0  0  0
  145.5132  133.8674  150.4476 H   0  0  0  0  0  0  0  0  0  0  0  0
  145.1049  132.5835  151.5844 H   0  0  0  0  0  0  0  0  0  0  0  0
  146.2828  132.2904  150.3077 H   0  0  0  0  0  0  0  0  0  0  0  0
  148.3887  135.3268  153.3355 H   0  0  0  0  0  0  0  0  0  0  0  0
  1  2  1  0  0  0  0
  1 21  1  0  0  0  0
  1 22  1  0  0  0  0
  1 23  1  0  0  0  0
  2 20  1  0  0  0  0
  2  3  1  0  0  0  0
  2 24  1  0  0  0  0
  3  4  1  0  0  0  0
  3 25  1  0  0  0  0
  3 26  1  0  0  0  0
  4  5  1  0  0  0  0
  4 17  1  0  0  0  0
  4 45  1  0  0  0  0
  5  6  1  0  0  0  0
  5  7  1  0  0  0  0
  5 27  1  0  0  0  0
  6 28  1  0  0  0  0
  6 29  1  0  0  0  0
  6 30  1  0  0  0  0
  7  8  1  0  0  0  0
  7 31  1  0  0  0  0
  7 32  1  0  0  0  0
  8  9  1  0  0  0  0
  8 33  1  0  0  0  0
  9 10  2  0  0  0  0
  9 11  1  0  0  0  0
 11 12  1  0  0  0  0
 11 34  1  0  0  0  0
 11 35  1  0  0  0  0
 12 16  1  0  0  0  0
 12 13  1  0  0  0  0
 13 14  2  0  0  0  0
 13 36  1  0  0  0  0
 14 15  1  0  0  0  0
 14 37  1  0  0  0  0
 15 16  2  0  0  0  0
 15 38  1  0  0  0  0
 17 18  1  0  0  0  0
 17 39  1  0  0  0  0
 17 40  1  0  0  0  0
 18 19  1  0  0  0  0
 18 20  1  0  0  0  0
 18 41  1  0  0  0  0
 19 42  1  0  0  0  0
 19 43  1  0  0  0  0
 19 44  1  0  0  0  0
M  CHG  1   4   1
M  END
> <s_m_source_file>
AV-unprocessed.smi

> <i_m_source_file_index>
1433

> <i_lp_mmshare_version>
43012

> <i_f3d_flags>
0

> <s_epik_input>
W0NIM11bQ0BASF0xW0NIMl1OKFtDSDJdW0NASF0oTzEpW0NIM10pW0NASF0oW0NIM10pW0NIMl1bTkhdQyg9TylbQ0gyXW4yW2NIXVtjSF1bY0hdbjI=

> <s_epik_cmdline>
J2VwaWtfcHl0aG9uJywgJy1waCcsICc3LjAnLCAnLXRuJywgJzgnLCAnLW1hJywgJzIwMCcsICctbWV0YWxfYmluZGluZycsICctaW1hZScsICc8aW5maWxlLm1hZT4nLCAnLW9tYWUnLCAnPG91dGZpbGUubWFlPic=

> <r_lp_tautomer_probability>
1

> <r_epik_Ionization_Penalty>
0.748405

> <r_epik_Ionization_Penalty_Charging>
0.748396

> <r_epik_Ionization_Penalty_Neutral>
8.54426e-06

> <r_epik_State_Penalty>
0.775162

> <r_epik_Charging_Adjusted_Penalty>
1.52356

> <i_epik_Tot_Q>
1

> <i_epik_Tot_abs_Q>
1

> <r_epik_Metal_State_Penalty>
0.775167

> <b_epik_Metal_Only>
0

> <s_lp_Force_Field>
OPLS_2005

> <r_lp_Energy>
17.7412

> <b_lp_Chiralities_Consistent>
1

> <s_lp_Variant>
AV-unprocessed.smi:1433-13

> <Gold.Version>
5.8.1

> <Gold.Id.Protein>
6NUR|6NUR_protein|mol2

> <Gold.PLP.Fitness>
45.3590

> <Gold.PLP.PLP>
-31.7349

> <Gold.PLP.part.hbond>
-3.0000

> <Gold.PLP.part.metal>
0.0000

> <Gold.PLP.part.buried>
-2.4072

> <Gold.PLP.part.nonpolar>
-24.9576

> <Gold.PLP.part.repulsive>
0.7044

> <Gold.PLP.ligand.clash>
0.0000

> <Gold.PLP.ligand.torsion>
0.6885

> <Gold.PLP.Chemscore.Hbond>
3.9920

> <Gold.PLP.Chemscore.CHOScore>
0.9808

> <Gold.PLP.Chemscore.Metal>
0.0000

> <Gold.Chemscore.Hbonds>
donor molecule, donor type, donor heavy atom, donor atom, acceptor molecule, acceptor atom, score
      L1  H     4    45       P1  7948  2.00
      P1  H  7989  7998       L1    16  0.87
      P1  H 10752 10763       L1    10  0.86
      L1  C    15    38       P1  8028  1.00

> <Gold.PLP.Chemscore.Internal.Correction>
0.0826

> <Gold.Rescore>
     Score         DG    S(hbond)    S(metal)    S(lipo)     H(rot)  DE(clash)    DE(int)     intcor
     16.59     -17.50       2.92        0.00      60.26       1.87       0.03       0.88       ----

> <Gold.Chemscore.Fitness>
16.5873

> <Gold.Chemscore.DG>
-17.4979

> <Gold.Chemscore.ZeroCoef>
-5.4800

> <Gold.Chemscore.Hbond>
2.9171

> <Gold.Chemscore.Metal>
0.0000

> <Gold.Chemscore.Lipo>
60.2637

> <Gold.Chemscore.Internal_Hbond>
0.0000

> <Gold.Chemscore.DEClash>
0.0277

> <Gold.Chemscore.DEInternal>
0.8829

> <Gold.Chemscore.Rot>
1.8657

> <Gold.Chemscore.Internal.Correction>
   9.000000E+99

> <Gold.Chemscore.Hbonds>
donor molecule, donor type, donor heavy atom, donor atom, acceptor molecule, acceptor atom, score
      L1  H     4    45       P1  7948  0.94
      P1  H  7989  7998       L1    16  0.19
      P1  H 10752 10763       L1    10  0.83

> <Gold.Chemscore.Hbond.Weighted>
-9.7432

> <Gold.Chemscore.Metal.Weighted>
-0.0000

> <Gold.Chemscore.Lipo.Weighted>
-7.0509

> <Gold.Chemscore.Internal_Hbond.Weighted>
0.0000

> <Gold.Chemscore.DEClash.Weighted>
0.0277

> <Gold.Chemscore.DEInternal.Weighted>
0.8829

> <Gold.Chemscore.Rot.Weighted>
4.7761

> <Gold.Chemscore.Internal.Correction.Weighted>
   9.000000E+99

> <Gold.Protein.RotatedTorsions>
[ 6907 6896 6895 6894 ] final  -81.41 input  -60.11 | X-H torsion
[ 7974 7965 7964 7962 ] final   41.37 input  175.53 | X-H torsion
[ 8008 7997 7996 7995 ] final -146.86 input   59.86 | X-H torsion
[ 10167 10162 10161 10158 ] final  -51.37 input  -65.29 | X-H torsion
[ 10718 10713 10712 10709 ] final -110.74 input   66.30 | X-H torsion
[ 10763 10752 10751 10750 ] final   63.30 input  -60.55 | X-H torsion
[ 11005 11000 10999 10996 ] final  167.74 input  -57.11 | X-H torsion

> <Gold.Protein.ActiveResidues>
 VAL166  LYS551  ARG553  GLY616  TRP617  ASP618  TYR619  PRO620  LYS621  CYS622 
 ASP623  PHE694  ASN695  SER759  ASP760  ASP761  ALA762  ILE779  LEU786  VAL792 
 PHE793  MET794  SER795  GLU796  ALA797  LYS798  CYS799  TRP800  GLU811  SER814 

> <Gold.Protein.RotatedAtoms>
  150.6912  134.3821  159.5038 H   0  0  0  0  0  0  0  0  0  0  0  0  # atno 6907 bound_to 6896
  152.1622  134.8900  160.0550 H   0  0  0  0  0  0  0  0  0  0  0  0  # atno 6908 bound_to 6896
  151.9958  133.3772  159.4199 H   0  0  0  0  0  0  0  0  0  0  0  0  # atno 6909 bound_to 6896
  146.0829  139.5424  142.9525 H   0  0  0  0  0  0  0  0  0  0  0  0  # atno 7974 bound_to 7965
  155.5662  140.0630  157.2817 H   0  0  0  0  0  0  0  0  0  0  0  0  # atno 8008 bound_to 7997
  154.4375  140.1877  156.0879 H   0  0  0  0  0  0  0  0  0  0  0  0  # atno 8009 bound_to 7997
  156.0410  140.3295  155.7247 H   0  0  0  0  0  0  0  0  0  0  0  0  # atno 8010 bound_to 7997
  140.6591  143.2622  151.4494 H   0  0  0  0  0  0  0  0  0  0  0  0  # atno 10167 bound_to 10162
  156.0607  130.5831  150.8278 H   0  0  0  0  0  0  0  0  0  0  0  0  # atno 10718 bound_to 10713
  153.0013  135.5434  154.6330 H   0  0  0  0  0  0  0  0  0  0  0  0  # atno 10763 bound_to 10752
  154.5603  135.2833  155.0928 H   0  0  0  0  0  0  0  0  0  0  0  0  # atno 10764 bound_to 10752
  154.2133  135.6463  153.5174 H   0  0  0  0  0  0  0  0  0  0  0  0  # atno 10765 bound_to 10752
  140.2800  134.7758  157.3749 H   0  0  0  0  0  0  0  0  0  0  0  0  # atno 11005 bound_to 11000
  145.6184  141.0327  143.1928 LP  0  0  0  0  0  0  0  0  0  0  0  0  # atno 17320 bound_to 7965
  144.7305  139.7739  143.7349 LP  0  0  0  0  0  0  0  0  0  0  0  0  # atno 17321 bound_to 7965
  139.5821  144.1687  152.1981 LP  0  0  0  0  0  0  0  0  0  0  0  0  # atno 17342 bound_to 10162
  140.1015  144.5535  150.6986 LP  0  0  0  0  0  0  0  0  0  0  0  0  # atno 17343 bound_to 10162
  157.5614  131.0946  150.9554 LP  0  0  0  0  0  0  0  0  0  0  0  0  # atno 17370 bound_to 10713
  156.9791  130.5520  149.5295 LP  0  0  0  0  0  0  0  0  0  0  0  0  # atno 17371 bound_to 10713
  140.1293  134.5117  155.8119 LP  0  0  0  0  0  0  0  0  0  0  0  0  # atno 17394 bound_to 11000
  141.2164  133.6784  156.7009 LP  0  0  0  0  0  0  0  0  0  0  0  0  # atno 17395 bound_to 11000

$$$$
