#       Name:                AV-unprocessed.smi:3028
#       Creating user name   scv26
#       Creation time:       Fri Mar 27 16:45:39 2020


#       File generated by GOLD software.
#

@<TRIPOS>MOLECULE
AV-unprocessed.smi:3028
    53    54     1
SMALL
NO_CHARGES


@<TRIPOS>ATOM
      1 ****        -4.2468  -1.8956   1.0072 C.3            1 S1                 0.0000
      2 ****        -3.5430  -0.7235   0.3869 C.2            1 S1                 0.0000
      3 ****        -2.9282   0.3780   1.0465 C.2            1 S1                 0.0000
      4 ****        -2.3895   1.2440   0.2043 N.2            1 S1                 0.0000
      5 ****        -2.6397   0.7302  -1.0206 N.pl3          1 S1                 0.0000
      6 ****        -2.1721   1.4193  -2.2183 C.3            1 S1                 0.0000
      7 ****        -2.8670   2.7891  -2.3370 C.3            1 S1                 0.0000
      8 ****        -0.6225   1.5117  -2.2494 C.3            1 S1                 0.0000
      9 ****        -0.0857   2.1491  -3.5416 C.3            1 S1                 0.0000
     10 ****        -0.0257   0.1638  -2.1036 N.4            1 S1                 1.0000
     11 ****         0.8096  -0.0232  -0.8985 C.3            1 S1                 0.0000
     12 ****         1.3187  -1.4637  -0.7614 C.2            1 S1                 0.0000
     13 ****         1.0490  -2.2956  -1.6264 O.2            1 S1                 0.0000
     14 ****         2.0567  -1.8023   0.3092 N.am           1 S1                 0.0000
     15 ****         2.6360  -3.1058   0.6325 C.3            1 S1                 0.0000
     16 ****         2.0679  -3.6152   1.9657 C.3            1 S1                 0.0000
     17 ****         2.7952  -4.8941   2.4125 C.3            1 S1                 0.0000
     18 ****         4.1951  -4.6523   2.5024 O.3            1 S1                 0.0000
     19 ****         4.7785  -4.2975   1.2532 C.3            1 S1                 0.0000
     20 ****         4.1638  -2.9854   0.7387 C.3            1 S1                 0.0000
     21 ****        -3.3403  -0.4551  -0.9370 C.2            1 S1                 0.0000
     22 ****        -4.1997  -1.8682   2.0961 H              1 S1                 0.0000
     23 ****        -3.8073  -2.8417   0.6909 H              1 S1                 0.0000
     24 ****        -5.3012  -1.9223   0.7322 H              1 S1                 0.0000
     25 ****        -2.8556   0.5717   2.1066 H              1 S1                 0.0000
     26 ****        -2.4910   0.8187  -3.0718 H              1 S1                 0.0000
     27 ****        -2.6751   3.2568  -3.3023 H              1 S1                 0.0000
     28 ****        -2.5323   3.4769  -1.5598 H              1 S1                 0.0000
     29 ****        -3.9488   2.6863  -2.2443 H              1 S1                 0.0000
     30 ****        -0.2958   2.1385  -1.4175 H              1 S1                 0.0000
     31 ****        -0.4018   3.1871  -3.6416 H              1 S1                 0.0000
     32 ****        -0.4260   1.6078  -4.4251 H              1 S1                 0.0000
     33 ****         1.0048   2.1488  -3.5516 H              1 S1                 0.0000
     34 ****        -0.7754  -0.5123  -2.0698 H              1 S1                 0.0000
     35 ****         1.6587   0.6601  -0.9438 H              1 S1                 0.0000
     36 ****         0.2213   0.2284  -0.0158 H              1 S1                 0.0000
     37 ****         2.2401  -1.0680   0.9783 H              1 S1                 0.0000
     38 ****         2.4114  -3.8496  -0.1313 H              1 S1                 0.0000
     39 ****         2.1837  -2.8516   2.7364 H              1 S1                 0.0000
     40 ****         0.9982  -3.8066   1.8730 H              1 S1                 0.0000
     41 ****         2.4294  -5.2105   3.3893 H              1 S1                 0.0000
     42 ****         2.6009  -5.7141   1.7194 H              1 S1                 0.0000
     43 ****         5.8536  -4.1790   1.3889 H              1 S1                 0.0000
     44 ****         4.6360  -5.1030   0.5313 H              1 S1                 0.0000
     45 ****         4.5920  -2.7271  -0.2306 H              1 S1                 0.0000
     46 ****         4.4274  -2.1768   1.4223 H              1 S1                 0.0000
     47 ****        -3.6310  -1.0086  -1.8179 H              1 S1                 0.0000
     48 ****         0.5403  -0.0320  -2.9168 H              1 S1                 0.0000
     49 ****        -1.9049   2.0906   0.4247 LP             1 S1                 0.0000
     50 ****         0.4981  -2.0327  -2.4185 LP             1 S1                 0.0000
     51 ****         1.3806  -3.2348  -1.5375 LP             1 S1                 0.0000
     52 ****         4.6410  -5.4819   2.8384 LP             1 S1                 0.0000
     53 ****         4.3488  -3.9057   3.1497 LP             1 S1                 0.0000
@<TRIPOS>BOND
    1    1    2 1     
    2    1   22 1     
    3    1   23 1     
    4    1   24 1     
    5    2   21 2     
    6    2    3 1     
    7    3    4 2     
    8    3   25 1     
    9    4    5 1     
   10    5    6 1     
   11    5   21 1     
   12    6    7 1     
   13    6    8 1     
   14    6   26 1     
   15    7   27 1     
   16    7   28 1     
   17    7   29 1     
   18    8    9 1     
   19    8   10 1     
   20    8   30 1     
   21    9   31 1     
   22    9   32 1     
   23    9   33 1     
   24   10   11 1     
   25   10   34 1     
   26   10   48 1     
   27   11   12 1     
   28   11   35 1     
   29   11   36 1     
   30   12   13 2     
   31   12   14 am    
   32   14   15 1     
   33   14   37 1     
   34   15   20 1     
   35   15   16 1     
   36   15   38 1     
   37   16   17 1     
   38   16   39 1     
   39   16   40 1     
   40   17   18 1     
   41   17   41 1     
   42   17   42 1     
   43   18   19 1     
   44   19   20 1     
   45   19   43 1     
   46   19   44 1     
   47   20   45 1     
   48   20   46 1     
   49   21   47 1     
   50    4   49 1     
   51   13   50 1     
   52   13   51 1     
   53   18   52 1     
   54   18   53 1     
@<TRIPOS>SUBSTRUCTURE
      1 S1             1
@<TRIPOS>SET
LONE_PAIRS      STATIC     ATOMS    <user>   **** ""
5 49 50 51 52 53
DONOR_HYDROGENS      STATIC     ATOMS    <user>   **** ""
3 34 48 37
ATOM$BLUE        STATIC     ATOMS    COLORGROUP SYSTEM
5 49 50 51 52 53
ATOM$RED        STATIC     ATOMS    COLORGROUP SYSTEM
3 34 48 37
