AV-unprocessed.smi:2475|AV-procd|sdf|9755|dock10
  -GOLD-   2272013393D 1   1.00000     0.00000
 Structure written by MMmdl.
 37 38  0  0  0  0  0  0  0  0  1 V2000
  154.7213  140.2469  160.8945 C   0  0  0  0  0  0  0  0  0  0  0  0
  153.6038  140.8002  160.0359 C   0  0  0  0  0  0  0  0  0  0  0  0
  153.0488  140.0546  158.9748 C   0  0  0  0  0  0  0  0  0  0  0  0
  152.0091  140.6613  158.2352 C   0  0  0  0  0  0  0  0  0  0  0  0
  151.4712  139.8881  157.1741 N   0  0  0  0  0  0  0  0  0  0  0  0
  152.1244  139.0852  156.3120 C   0  0  0  0  0  0  0  0  0  0  0  0
  153.3368  138.8710  156.3459 O   0  0  0  0  0  0  0  0  0  0  0  0
  151.2619  138.3800  155.2541 C   0  0  2  0  0  0  0  0  0  0  0  0
  150.4677  139.3292  154.3346 C   0  0  0  0  0  0  0  0  0  0  0  0
  149.0286  138.8576  154.4644 C   0  0  0  0  0  0  0  0  0  0  0  0
  149.1798  137.4402  154.9981 C   0  0  0  0  0  0  0  0  0  0  0  0
  150.2760  137.5655  155.8865 O   0  0  0  0  0  0  0  0  0  0  0  0
  151.5857  141.9073  158.5614 N   0  0  0  0  0  0  0  0  0  0  0  0
  152.1805  142.5311  159.5836 C   0  0  0  0  0  0  0  0  0  0  0  0
  151.6755  143.9256  159.9307 C   0  0  0  0  0  0  0  0  0  0  0  0
  151.9558  144.9330  158.8052 C   0  0  0  0  0  0  0  0  0  0  0  0
  152.1854  144.3996  161.3006 C   0  0  0  0  0  0  0  0  0  0  0  0
  153.1671  142.0406  160.3387 N   0  0  0  0  0  0  0  0  0  0  0  0
  154.9963  139.2392  160.5824 H   0  0  0  0  0  0  0  0  0  0  0  0
  154.4125  140.2075  161.9394 H   0  0  0  0  0  0  0  0  0  0  0  0
  155.6055  140.8805  160.8202 H   0  0  0  0  0  0  0  0  0  0  0  0
  153.4056  139.0624  158.7392 H   0  0  0  0  0  0  0  0  0  0  0  0
  150.4719  139.9553  157.0462 H   0  0  0  0  0  0  0  0  0  0  0  0
  151.9029  137.7359  154.6504 H   0  0  0  0  0  0  0  0  0  0  0  0
  150.5540  140.3830  154.6033 H   0  0  0  0  0  0  0  0  0  0  0  0
  150.8143  139.2245  153.3059 H   0  0  0  0  0  0  0  0  0  0  0  0
  148.5029  139.4720  155.1965 H   0  0  0  0  0  0  0  0  0  0  0  0
  148.4775  138.9016  153.5248 H   0  0  0  0  0  0  0  0  0  0  0  0
  148.2848  137.0825  155.5077 H   0  0  0  0  0  0  0  0  0  0  0  0
  149.4290  136.7416  154.1976 H   0  0  0  0  0  0  0  0  0  0  0  0
  150.5894  143.8611  160.0179 H   0  0  0  0  0  0  0  0  0  0  0  0
  151.5146  144.6010  157.8650 H   0  0  0  0  0  0  0  0  0  0  0  0
  153.0265  145.0624  158.6441 H   0  0  0  0  0  0  0  0  0  0  0  0
  151.5353  145.9110  159.0405 H   0  0  0  0  0  0  0  0  0  0  0  0
  151.9091  143.6956  162.0861 H   0  0  0  0  0  0  0  0  0  0  0  0
  151.7626  145.3698  161.5623 H   0  0  0  0  0  0  0  0  0  0  0  0
  153.2714  144.4992  161.3091 H   0  0  0  0  0  0  0  0  0  0  0  0
  1  2  1  0  0  0  0
  1 19  1  0  0  0  0
  1 20  1  0  0  0  0
  1 21  1  0  0  0  0
  2 18  1  0  0  0  0
  2  3  2  0  0  0  0
  3  4  1  0  0  0  0
  3 22  1  0  0  0  0
  4  5  1  0  0  0  0
  4 13  2  0  0  0  0
  5  6  1  0  0  0  0
  5 23  1  0  0  0  0
  6  7  2  0  0  0  0
  6  8  1  0  0  0  0
  8 12  1  0  0  0  0
  8  9  1  0  0  0  0
  8 24  1  0  0  0  0
  9 10  1  0  0  0  0
  9 25  1  0  0  0  0
  9 26  1  0  0  0  0
 10 11  1  0  0  0  0
 10 27  1  0  0  0  0
 10 28  1  0  0  0  0
 11 12  1  0  0  0  0
 11 29  1  0  0  0  0
 11 30  1  0  0  0  0
 13 14  1  0  0  0  0
 14 15  1  0  0  0  0
 14 18  2  0  0  0  0
 15 16  1  0  0  0  0
 15 17  1  0  0  0  0
 15 31  1  0  0  0  0
 16 32  1  0  0  0  0
 16 33  1  0  0  0  0
 16 34  1  0  0  0  0
 17 35  1  0  0  0  0
 17 36  1  0  0  0  0
 17 37  1  0  0  0  0
M  END
> <s_m_source_file>
AV-unprocessed.smi

> <i_m_source_file_index>
2475

> <i_lp_mmshare_version>
43012

> <i_f3d_flags>
0

> <s_epik_input>
W0NIM11bQ0hdKFtDSDNdKWMobjEpbmMoW2NIXWMxW0NIM10pW05IXUMoPU8pW0NAQEhdMltDSDJdW0NIMl1bQ0gyXU8y

> <s_epik_cmdline>
J2VwaWtfcHl0aG9uJywgJy1waCcsICc3LjAnLCAnLXRuJywgJzgnLCAnLW1hJywgJzIwMCcsICctbWV0YWxfYmluZGluZycsICctaW1hZScsICc8aW5maWxlLm1hZT4nLCAnLW9tYWUnLCAnPG91dGZpbGUubWFlPic=

> <r_lp_tautomer_probability>
1

> <r_epik_Ionization_Penalty>
1.42804e-05

> <r_epik_Ionization_Penalty_Charging>
0

> <r_epik_Ionization_Penalty_Neutral>
1.42804e-05

> <r_epik_State_Penalty>
-0

> <r_epik_Charging_Adjusted_Penalty>
0

> <i_epik_Tot_Q>
0

> <i_epik_Tot_abs_Q>
0

> <r_epik_Metal_State_Penalty>
-0

> <b_epik_Metal_Only>
0

> <s_lp_Force_Field>
OPLS_2005

> <r_lp_Energy>
10.8571

> <b_lp_Chiralities_Consistent>
1

> <s_lp_Variant>
AV-unprocessed.smi:2475-1

> <Gold.Version>
5.8.1

> <Gold.Id.Protein>
6NUR|6NUR_protein|mol2

> <Gold.PLP.Fitness>
37.2134

> <Gold.PLP.PLP>
-35.1106

> <Gold.PLP.part.hbond>
-1.0000

> <Gold.PLP.part.metal>
0.0000

> <Gold.PLP.part.buried>
-5.3594

> <Gold.PLP.part.nonpolar>
-29.3053

> <Gold.PLP.part.repulsive>
0.1087

> <Gold.PLP.ligand.clash>
0.0000

> <Gold.PLP.ligand.torsion>
0.4850

> <Gold.PLP.Chemscore.Hbond>
1.0000

> <Gold.PLP.Chemscore.CHOScore>
0.0000

> <Gold.PLP.Chemscore.Metal>
0.0000

> <Gold.Chemscore.Hbonds>
donor molecule, donor type, donor heavy atom, donor atom, acceptor molecule, acceptor atom, score
      P1  H  7997  8009       L1     7  1.00

> <Gold.PLP.Chemscore.Internal.Correction>
0.0728

> <Gold.Rescore>
     Score         DG    S(hbond)    S(metal)    S(lipo)     H(rot)  DE(clash)    DE(int)     intcor
     13.86     -15.60       0.96        0.00      84.91       1.18       0.07       1.67       ----

> <Gold.Chemscore.Fitness>
13.8591

> <Gold.Chemscore.DG>
-15.5951

> <Gold.Chemscore.ZeroCoef>
-5.4800

> <Gold.Chemscore.Hbond>
0.9616

> <Gold.Chemscore.Metal>
0.0000

> <Gold.Chemscore.Lipo>
84.9135

> <Gold.Chemscore.Internal_Hbond>
0.0000

> <Gold.Chemscore.DEClash>
0.0673

> <Gold.Chemscore.DEInternal>
1.6688

> <Gold.Chemscore.Rot>
1.1842

> <Gold.Chemscore.Internal.Correction>
   9.000000E+99

> <Gold.Chemscore.Hbonds>
donor molecule, donor type, donor heavy atom, donor atom, acceptor molecule, acceptor atom, score
      P1  H  7997  8009       L1     7  0.93

> <Gold.Chemscore.Hbond.Weighted>
-3.2117

> <Gold.Chemscore.Metal.Weighted>
-0.0000

> <Gold.Chemscore.Lipo.Weighted>
-9.9349

> <Gold.Chemscore.Internal_Hbond.Weighted>
0.0000

> <Gold.Chemscore.DEClash.Weighted>
0.0673

> <Gold.Chemscore.DEInternal.Weighted>
1.6688

> <Gold.Chemscore.Rot.Weighted>
3.0315

> <Gold.Chemscore.Internal.Correction.Weighted>
   9.000000E+99

> <Gold.Protein.RotatedTorsions>
[ 6907 6896 6895 6894 ] final    7.31 input  -60.11 | X-H torsion
[ 7974 7965 7964 7962 ] final -102.51 input  175.53 | X-H torsion
[ 8008 7997 7996 7995 ] final -174.48 input   59.86 | X-H torsion
[ 10167 10162 10161 10158 ] final -101.10 input  -65.29 | X-H torsion
[ 10718 10713 10712 10709 ] final  130.76 input   66.30 | X-H torsion
[ 10763 10752 10751 10750 ] final  176.57 input  -60.55 | X-H torsion
[ 11005 11000 10999 10996 ] final -116.43 input  -57.11 | X-H torsion

> <Gold.Protein.ActiveResidues>
 VAL166  LYS551  ARG553  GLY616  TRP617  ASP618  TYR619  PRO620  LYS621  CYS622 
 ASP623  PHE694  ASN695  SER759  ASP760  ASP761  ALA762  ILE779  LEU786  VAL792 
 PHE793  MET794  SER795  GLU796  ALA797  LYS798  CYS799  TRP800  GLU811  SER814 

> <Gold.Protein.RotatedAtoms>
  151.6878  135.0951  160.0227 H   0  0  0  0  0  0  0  0  0  0  0  0  # atno 6907 bound_to 6896
  152.3797  133.6525  159.6160 H   0  0  0  0  0  0  0  0  0  0  0  0  # atno 6908 bound_to 6896
  150.7737  133.9051  159.3394 H   0  0  0  0  0  0  0  0  0  0  0  0  # atno 6909 bound_to 6896
  145.2678  140.9289  143.3004 H   0  0  0  0  0  0  0  0  0  0  0  0  # atno 7974 bound_to 7965
  155.9706  140.1162  157.0815 H   0  0  0  0  0  0  0  0  0  0  0  0  # atno 8008 bound_to 7997
  154.4155  140.1164  156.5369 H   0  0  0  0  0  0  0  0  0  0  0  0  # atno 8009 bound_to 7997
  155.6601  140.3473  155.4782 H   0  0  0  0  0  0  0  0  0  0  0  0  # atno 8010 bound_to 7997
  140.2449  143.3513  152.0768 H   0  0  0  0  0  0  0  0  0  0  0  0  # atno 10167 bound_to 10162
  157.5032  131.1095  150.9398 H   0  0  0  0  0  0  0  0  0  0  0  0  # atno 10718 bound_to 10713
  154.4829  135.2775  155.1556 H   0  0  0  0  0  0  0  0  0  0  0  0  # atno 10763 bound_to 10752
  154.3259  135.6200  153.5532 H   0  0  0  0  0  0  0  0  0  0  0  0  # atno 10764 bound_to 10752
  152.9877  135.5754  154.5234 H   0  0  0  0  0  0  0  0  0  0  0  0  # atno 10765 bound_to 10752
  141.0422  133.9817  157.2975 H   0  0  0  0  0  0  0  0  0  0  0  0  # atno 11005 bound_to 11000
  144.9362  139.4242  143.6471 LP  0  0  0  0  0  0  0  0  0  0  0  0  # atno 17320 bound_to 7965
  146.3256  139.8298  142.8910 LP  0  0  0  0  0  0  0  0  0  0  0  0  # atno 17321 bound_to 7965
  139.5065  144.6815  151.5996 LP  0  0  0  0  0  0  0  0  0  0  0  0  # atno 17342 bound_to 10162
  140.6085  143.9479  150.6436 LP  0  0  0  0  0  0  0  0  0  0  0  0  # atno 17343 bound_to 10162
  157.0062  130.5619  149.5316 LP  0  0  0  0  0  0  0  0  0  0  0  0  # atno 17370 bound_to 10713
  156.0242  130.5336  150.8360 LP  0  0  0  0  0  0  0  0  0  0  0  0  # atno 17371 bound_to 10713
  139.9284  135.0201  156.8317 LP  0  0  0  0  0  0  0  0  0  0  0  0  # atno 17394 bound_to 11000
  140.6213  133.9992  155.7619 LP  0  0  0  0  0  0  0  0  0  0  0  0  # atno 17395 bound_to 11000

$$$$
