AV-unprocessed.smi:2165|AV-procd|sdf|8812|dock6
  -GOLD-   2272012 03D 1   1.00000     0.00000
 Structure written by MMmdl.
 36 37  0  0  0  0  0  0  0  0  1 V2000
  150.8527  141.6990  157.0018 C   0  0  0  0  0  0  0  0  0  0  0  0
  150.5112  140.7560  155.9574 N   0  0  0  0  0  0  0  0  0  0  0  0
  151.4809  139.8175  155.5281 C   0  0  0  0  0  0  0  0  0  0  0  0
  152.6146  139.7667  156.0062 O   0  0  0  0  0  0  0  0  0  0  0  0
  151.0259  138.9222  154.4708 C   0  0  0  0  0  0  0  0  0  0  0  0
  149.7751  139.0183  153.9690 C   0  0  0  0  0  0  0  0  0  0  0  0
  148.8487  139.9486  154.4036 N   0  0  0  0  0  0  0  0  0  0  0  0
  147.5066  139.9772  153.8083 C   0  0  0  0  0  0  0  0  0  0  0  0
  146.7508  138.6557  153.9968 C   0  0  0  0  0  0  0  0  0  0  0  0
  147.2958  137.6970  154.5455 O   0  0  0  0  0  0  0  0  0  0  0  0
  145.4965  138.6180  153.5233 N   0  0  0  0  0  0  0  0  0  0  0  0
  144.5907  137.4814  153.6377 C   0  0  0  0  0  0  0  0  0  0  0  0
  144.4531  136.7361  152.2994 C   0  0  2  0  0  0  0  0  0  0  0  0
  143.5804  135.4849  152.3703 C   0  0  0  0  0  0  0  0  0  0  0  0
  144.1041  134.6197  151.2331 C   0  0  0  0  0  0  0  0  0  0  0  0
  145.4343  135.2729  150.8461 C   0  0  0  0  0  0  0  0  0  0  0  0
  145.7013  136.2070  151.8820 O   0  0  0  0  0  0  0  0  0  0  0  0
  149.2073  140.8549  155.4248 C   0  0  0  0  0  0  0  0  0  0  0  0
  148.4038  141.6997  155.8288 O   0  0  0  0  0  0  0  0  0  0  0  0
  151.8413  141.4965  157.4123 H   0  0  0  0  0  0  0  0  0  0  0  0
  150.1061  141.5968  157.7915 H   0  0  0  0  0  0  0  0  0  0  0  0
  150.8260  142.6945  156.5553 H   0  0  0  0  0  0  0  0  0  0  0  0
  151.6999  138.1716  154.0849 H   0  0  0  0  0  0  0  0  0  0  0  0
  149.4862  138.3290  153.1888 H   0  0  0  0  0  0  0  0  0  0  0  0
  146.9319  140.8038  154.2306 H   0  0  0  0  0  0  0  0  0  0  0  0
  147.5739  140.1805  152.7388 H   0  0  0  0  0  0  0  0  0  0  0  0
  145.1292  139.4500  153.0845 H   0  0  0  0  0  0  0  0  0  0  0  0
  144.9775  136.8098  154.4048 H   0  0  0  0  0  0  0  0  0  0  0  0
  143.6134  137.8208  153.9846 H   0  0  0  0  0  0  0  0  0  0  0  0
  144.0721  137.4019  151.5223 H   0  0  0  0  0  0  0  0  0  0  0  0
  143.7337  134.9697  153.3196 H   0  0  0  0  0  0  0  0  0  0  0  0
  142.5176  135.7101  152.2788 H   0  0  0  0  0  0  0  0  0  0  0  0
  144.2426  133.5892  151.5623 H   0  0  0  0  0  0  0  0  0  0  0  0
  143.4181  134.6123  150.3853 H   0  0  0  0  0  0  0  0  0  0  0  0
  146.2448  134.5510  150.7471 H   0  0  0  0  0  0  0  0  0  0  0  0
  145.3374  135.8074  149.9000 H   0  0  0  0  0  0  0  0  0  0  0  0
  1  2  1  0  0  0  0
  1 20  1  0  0  0  0
  1 21  1  0  0  0  0
  1 22  1  0  0  0  0
  2 18  1  0  0  0  0
  2  3  1  0  0  0  0
  3  4  2  0  0  0  0
  3  5  1  0  0  0  0
  5  6  2  0  0  0  0
  5 23  1  0  0  0  0
  6  7  1  0  0  0  0
  6 24  1  0  0  0  0
  7  8  1  0  0  0  0
  7 18  1  0  0  0  0
  8  9  1  0  0  0  0
  8 25  1  0  0  0  0
  8 26  1  0  0  0  0
  9 10  2  0  0  0  0
  9 11  1  0  0  0  0
 11 12  1  0  0  0  0
 11 27  1  0  0  0  0
 12 13  1  0  0  0  0
 12 28  1  0  0  0  0
 12 29  1  0  0  0  0
 13 17  1  0  0  0  0
 13 14  1  0  0  0  0
 13 30  1  0  0  0  0
 14 15  1  0  0  0  0
 14 31  1  0  0  0  0
 14 32  1  0  0  0  0
 15 16  1  0  0  0  0
 15 33  1  0  0  0  0
 15 34  1  0  0  0  0
 16 17  1  0  0  0  0
 16 35  1  0  0  0  0
 16 36  1  0  0  0  0
 18 19  2  0  0  0  0
M  END
> <s_m_source_file>
AV-unprocessed.smi

> <i_m_source_file_index>
2165

> <i_lp_mmshare_version>
43012

> <i_f3d_flags>
0

> <s_epik_input>
W0NIM11uMWMoPU8pW2NIXVtjSF1uKGMxPU8pW0NIMl1DKD1PKVtOSF1bQ0gyXVtDQEBIXTJbQ0gyXVtDSDJdW0NIMl1PMg==

> <s_epik_cmdline>
J2VwaWtfcHl0aG9uJywgJy1waCcsICc3LjAnLCAnLXRuJywgJzgnLCAnLW1hJywgJzIwMCcsICctbWV0YWxfYmluZGluZycsICctaW1hZScsICc8aW5maWxlLm1hZT4nLCAnLW9tYWUnLCAnPG91dGZpbGUubWFlPic=

> <r_lp_tautomer_probability>
1

> <r_epik_Ionization_Penalty>
3.89869e-08

> <r_epik_Ionization_Penalty_Charging>
1.21279e-08

> <r_epik_Ionization_Penalty_Neutral>
2.6859e-08

> <r_epik_State_Penalty>
-0

> <r_epik_Charging_Adjusted_Penalty>
1.21279e-08

> <i_epik_Tot_Q>
0

> <i_epik_Tot_abs_Q>
0

> <r_epik_Metal_State_Penalty>
-0

> <b_epik_Metal_Only>
0

> <s_lp_Force_Field>
OPLS_2005

> <r_lp_Energy>
24.9398

> <b_lp_Chiralities_Consistent>
1

> <s_lp_Variant>
AV-unprocessed.smi:2165-1

> <Gold.Version>
5.8.1

> <Gold.Id.Protein>
6NUR|6NUR_protein|mol2

> <Gold.PLP.Fitness>
40.2845

> <Gold.PLP.PLP>
-30.5662

> <Gold.PLP.part.hbond>
-2.0000

> <Gold.PLP.part.metal>
0.0000

> <Gold.PLP.part.buried>
-0.9292

> <Gold.PLP.part.nonpolar>
-27.4818

> <Gold.PLP.part.repulsive>
0.9169

> <Gold.PLP.ligand.clash>
0.0000

> <Gold.PLP.ligand.torsion>
0.1070

> <Gold.PLP.Chemscore.Hbond>
2.0000

> <Gold.PLP.Chemscore.CHOScore>
1.3065

> <Gold.PLP.Chemscore.Metal>
0.0000

> <Gold.Chemscore.Hbonds>
donor molecule, donor type, donor heavy atom, donor atom, acceptor molecule, acceptor atom, score
      L1  H    11    27       P1 10175  1.00
      P1  H  7997  8009       L1     4  1.00
      L1  C     6    24       P1  7948  1.00
      L1  C     6    24       P1  7957  0.26

> <Gold.PLP.Chemscore.Internal.Correction>
0.0128

> <Gold.Rescore>
     Score         DG    S(hbond)    S(metal)    S(lipo)     H(rot)  DE(clash)    DE(int)     intcor
     11.55     -13.11       1.96        0.00      50.12       1.87       0.08       1.48       ----

> <Gold.Chemscore.Fitness>
11.5527

> <Gold.Chemscore.DG>
-13.1099

> <Gold.Chemscore.ZeroCoef>
-5.4800

> <Gold.Chemscore.Hbond>
1.9603

> <Gold.Chemscore.Metal>
0.0000

> <Gold.Chemscore.Lipo>
50.1248

> <Gold.Chemscore.Internal_Hbond>
0.0000

> <Gold.Chemscore.DEClash>
0.0753

> <Gold.Chemscore.DEInternal>
1.4819

> <Gold.Chemscore.Rot>
1.8681

> <Gold.Chemscore.Internal.Correction>
   9.000000E+99

> <Gold.Chemscore.Hbonds>
donor molecule, donor type, donor heavy atom, donor atom, acceptor molecule, acceptor atom, score
      L1  H    11    27       P1 10175  0.95
      P1  H  7997  8009       L1     4  1.00

> <Gold.Chemscore.Hbond.Weighted>
-6.5475

> <Gold.Chemscore.Metal.Weighted>
-0.0000

> <Gold.Chemscore.Lipo.Weighted>
-5.8646

> <Gold.Chemscore.Internal_Hbond.Weighted>
0.0000

> <Gold.Chemscore.DEClash.Weighted>
0.0753

> <Gold.Chemscore.DEInternal.Weighted>
1.4819

> <Gold.Chemscore.Rot.Weighted>
4.7822

> <Gold.Chemscore.Internal.Correction.Weighted>
   9.000000E+99

> <Gold.Protein.RotatedTorsions>
[ 6907 6896 6895 6894 ] final   -7.00 input  -60.11 | X-H torsion
[ 7974 7965 7964 7962 ] final    7.09 input  175.53 | X-H torsion
[ 8008 7997 7996 7995 ] final -157.84 input   59.86 | X-H torsion
[ 10167 10162 10161 10158 ] final  138.87 input  -65.29 | X-H torsion
[ 10718 10713 10712 10709 ] final  141.89 input   66.30 | X-H torsion
[ 10763 10752 10751 10750 ] final   68.78 input  -60.55 | X-H torsion
[ 11005 11000 10999 10996 ] final  -87.89 input  -57.11 | X-H torsion

> <Gold.Protein.ActiveResidues>
 VAL166  LYS551  ARG553  GLY616  TRP617  ASP618  TYR619  PRO620  LYS621  CYS622 
 ASP623  PHE694  ASN695  SER759  ASP760  ASP761  ALA762  ILE779  LEU786  VAL792 
 PHE793  MET794  SER795  GLU796  ALA797  LYS798  CYS799  TRP800  GLU811  SER814 

> <Gold.Protein.RotatedAtoms>
  151.4565  135.1034  159.9712 H   0  0  0  0  0  0  0  0  0  0  0  0  # atno 6907 bound_to 6896
  152.4869  133.8391  159.7154 H   0  0  0  0  0  0  0  0  0  0  0  0  # atno 6908 bound_to 6896
  150.8986  133.7088  159.2912 H   0  0  0  0  0  0  0  0  0  0  0  0  # atno 6909 bound_to 6896
  146.2429  140.0135  142.8404 H   0  0  0  0  0  0  0  0  0  0  0  0  # atno 7974 bound_to 7965
  155.7385  140.0811  157.2257 H   0  0  0  0  0  0  0  0  0  0  0  0  # atno 8008 bound_to 7997
  154.4024  140.1582  156.2644 H   0  0  0  0  0  0  0  0  0  0  0  0  # atno 8009 bound_to 7997
  155.9043  140.3408  155.6053 H   0  0  0  0  0  0  0  0  0  0  0  0  # atno 8010 bound_to 7997
  139.5097  144.6328  151.5774 H   0  0  0  0  0  0  0  0  0  0  0  0  # atno 10167 bound_to 10162
  157.3868  131.0999  151.0685 H   0  0  0  0  0  0  0  0  0  0  0  0  # atno 10718 bound_to 10713
  153.0253  135.5234  154.7188 H   0  0  0  0  0  0  0  0  0  0  0  0  # atno 10763 bound_to 10752
  154.6249  135.2893  155.0286 H   0  0  0  0  0  0  0  0  0  0  0  0  # atno 10764 bound_to 10752
  154.1259  135.6600  153.4964 H   0  0  0  0  0  0  0  0  0  0  0  0  # atno 10765 bound_to 10752
  141.1610  133.7538  156.9372 H   0  0  0  0  0  0  0  0  0  0  0  0  # atno 11005 bound_to 11000
  145.1306  140.9515  143.4547 LP  0  0  0  0  0  0  0  0  0  0  0  0  # atno 17320 bound_to 7965
  145.0391  139.3275  143.5985 LP  0  0  0  0  0  0  0  0  0  0  0  0  # atno 17321 bound_to 7965
  140.6067  143.9512  150.6423 LP  0  0  0  0  0  0  0  0  0  0  0  0  # atno 17342 bound_to 10162
  140.2741  143.3435  152.1211 LP  0  0  0  0  0  0  0  0  0  0  0  0  # atno 17343 bound_to 10162
  157.1734  130.6277  149.5648 LP  0  0  0  0  0  0  0  0  0  0  0  0  # atno 17370 bound_to 10713
  155.9788  130.4777  150.6681 LP  0  0  0  0  0  0  0  0  0  0  0  0  # atno 17371 bound_to 10713
  140.1346  134.9333  157.2384 LP  0  0  0  0  0  0  0  0  0  0  0  0  # atno 17394 bound_to 11000
  140.2911  134.3239  155.7315 LP  0  0  0  0  0  0  0  0  0  0  0  0  # atno 17395 bound_to 11000

$$$$
