AV-unprocessed.smi:2572|AV-procd|sdf|10111|dock3
  -GOLD-   2272014133D 1   1.00000     0.00000
 Structure written by MMmdl.
 38 39  0  0  0  0  0  0  0  0  1 V2000
  147.4073  141.4629  153.9358 C   0  0  0  0  0  0  0  0  0  0  0  0
  148.8127  141.5047  154.1746 O   0  0  0  0  0  0  0  0  0  0  0  0
  149.4518  140.2912  154.3599 C   0  0  0  0  0  0  0  0  0  0  0  0
  148.7920  139.0879  153.8996 C   0  0  0  0  0  0  0  0  0  0  0  0
  149.4025  137.8968  154.0785 C   0  0  0  0  0  0  0  0  0  0  0  0
  150.7110  137.7899  154.7235 C   0  0  0  0  0  0  0  0  0  0  0  0
  151.2860  136.7169  154.9035 O   0  0  0  0  0  0  0  0  0  0  0  0
  151.2345  138.9916  155.1089 N   0  0  0  0  0  0  0  0  0  0  0  0
  152.5338  139.0754  155.7859 C   0  0  0  0  0  0  0  0  0  0  0  0
  152.3763  139.2940  157.3070 C   0  0  1  0  0  0  0  0  0  0  0  0
  153.5432  138.8246  157.9537 O   0  0  0  0  0  0  0  0  0  0  0  0
  152.2115  140.7853  157.6559 C   0  0  0  0  0  0  0  0  0  0  0  0
  152.2271  141.0671  159.1677 C   0  0  0  0  0  0  0  0  0  0  0  0
  151.9900  142.5328  159.4784 C   0  0  0  0  0  0  0  0  0  0  0  0
  151.7650  143.4530  158.4329 C   0  0  0  0  0  0  0  0  0  0  0  0
  151.5422  144.8132  158.7239 C   0  0  0  0  0  0  0  0  0  0  0  0
  151.5408  145.2572  160.0605 C   0  0  0  0  0  0  0  0  0  0  0  0
  151.7624  144.3406  161.1066 C   0  0  0  0  0  0  0  0  0  0  0  0
  151.9878  142.9808  160.8162 C   0  0  0  0  0  0  0  0  0  0  0  0
  150.6131  140.2165  154.9301 N   0  0  0  0  0  0  0  0  0  0  0  0
  147.0373  142.4803  153.8103 H   0  0  0  0  0  0  0  0  0  0  0  0
  146.8653  141.0201  154.7735 H   0  0  0  0  0  0  0  0  0  0  0  0
  147.1669  140.9140  153.0233 H   0  0  0  0  0  0  0  0  0  0  0  0
  147.8254  139.1537  153.4220 H   0  0  0  0  0  0  0  0  0  0  0  0
  148.9128  136.9969  153.7367 H   0  0  0  0  0  0  0  0  0  0  0  0
  153.1688  138.2125  155.5760 H   0  0  0  0  0  0  0  0  0  0  0  0
  153.0703  139.9219  155.3531 H   0  0  0  0  0  0  0  0  0  0  0  0
  151.5119  138.7428  157.6799 H   0  0  0  0  0  0  0  0  0  0  0  0
  153.4156  138.8859  158.8879 H   0  0  0  0  0  0  0  0  0  0  0  0
  152.9845  141.3730  157.1583 H   0  0  0  0  0  0  0  0  0  0  0  0
  151.2593  141.1362  157.2555 H   0  0  0  0  0  0  0  0  0  0  0  0
  151.4592  140.4738  159.6659 H   0  0  0  0  0  0  0  0  0  0  0  0
  153.1797  140.7611  159.6018 H   0  0  0  0  0  0  0  0  0  0  0  0
  151.7615  143.1188  157.4056 H   0  0  0  0  0  0  0  0  0  0  0  0
  151.3718  145.5159  157.9218 H   0  0  0  0  0  0  0  0  0  0  0  0
  151.3696  146.3001  160.2831 H   0  0  0  0  0  0  0  0  0  0  0  0
  151.7595  144.6805  162.1319 H   0  0  0  0  0  0  0  0  0  0  0  0
  152.1565  142.2822  161.6228 H   0  0  0  0  0  0  0  0  0  0  0  0
  1  2  1  0  0  0  0
  1 21  1  0  0  0  0
  1 22  1  0  0  0  0
  1 23  1  0  0  0  0
  2  3  1  0  0  0  0
  3 20  2  0  0  0  0
  3  4  1  0  0  0  0
  4  5  2  0  0  0  0
  4 24  1  0  0  0  0
  5  6  1  0  0  0  0
  5 25  1  0  0  0  0
  6  7  2  0  0  0  0
  6  8  1  0  0  0  0
  8  9  1  0  0  0  0
  8 20  1  0  0  0  0
  9 10  1  0  0  0  0
  9 26  1  0  0  0  0
  9 27  1  0  0  0  0
 10 11  1  0  0  0  0
 10 12  1  0  0  0  0
 10 28  1  0  0  0  0
 11 29  1  0  0  0  0
 12 13  1  0  0  0  0
 12 30  1  0  0  0  0
 12 31  1  0  0  0  0
 13 14  1  0  0  0  0
 13 32  1  0  0  0  0
 13 33  1  0  0  0  0
 14 19  1  0  0  0  0
 14 15  2  0  0  0  0
 15 16  1  0  0  0  0
 15 34  1  0  0  0  0
 16 17  2  0  0  0  0
 16 35  1  0  0  0  0
 17 18  1  0  0  0  0
 17 36  1  0  0  0  0
 18 19  2  0  0  0  0
 18 37  1  0  0  0  0
 19 38  1  0  0  0  0
M  END
> <s_m_source_file>
AV-unprocessed.smi

> <i_m_source_file_index>
2572

> <i_lp_mmshare_version>
43012

> <i_f3d_flags>
0

> <s_epik_input>
W0NIM11PYzFbY0hdW2NIXWMoPU8pbihuMSlbQ0gyXVtDQEhdKFtPSF0pW0NIMl1bQ0gyXWMyW2NIXVtjSF1bY0hdW2NIXVtjSF0y

> <s_epik_cmdline>
J2VwaWtfcHl0aG9uJywgJy1waCcsICc3LjAnLCAnLXRuJywgJzgnLCAnLW1hJywgJzIwMCcsICctbWV0YWxfYmluZGluZycsICctaW1hZScsICc8aW5maWxlLm1hZT4nLCAnLW9tYWUnLCAnPG91dGZpbGUubWFlPic=

> <r_lp_tautomer_probability>
1

> <r_epik_Ionization_Penalty>
8.48543e-06

> <r_epik_Ionization_Penalty_Charging>
6.90219e-06

> <r_epik_Ionization_Penalty_Neutral>
1.58323e-06

> <r_epik_State_Penalty>
-0

> <r_epik_Charging_Adjusted_Penalty>
6.90219e-06

> <i_epik_Tot_Q>
0

> <i_epik_Tot_abs_Q>
0

> <r_epik_Metal_State_Penalty>
-0

> <b_epik_Metal_Only>
0

> <s_lp_Force_Field>
OPLS_2005

> <r_lp_Energy>
30.5458

> <b_lp_Chiralities_Consistent>
1

> <s_lp_Variant>
AV-unprocessed.smi:2572-2

> <Gold.Version>
5.8.1

> <Gold.Id.Protein>
6NUR|6NUR_protein|mol2

> <Gold.PLP.Fitness>
52.7014

> <Gold.PLP.PLP>
-45.5273

> <Gold.PLP.part.hbond>
-3.9890

> <Gold.PLP.part.metal>
0.0000

> <Gold.PLP.part.buried>
1.4335

> <Gold.PLP.part.nonpolar>
-41.0895

> <Gold.PLP.part.repulsive>
0.3719

> <Gold.PLP.ligand.clash>
0.0236

> <Gold.PLP.ligand.torsion>
0.7928

> <Gold.PLP.Chemscore.Hbond>
2.9149

> <Gold.PLP.Chemscore.CHOScore>
0.0000

> <Gold.PLP.Chemscore.Metal>
0.0000

> <Gold.Chemscore.Hbonds>
donor molecule, donor type, donor heavy atom, donor atom, acceptor molecule, acceptor atom, score
      P1  H  7989  7998       L1    20  0.85
      P1  H  7997  8008       L1    11  0.85
      P1  H  8011  8017       L1     2  0.25
      P1  H 10752 10765       L1     7  1.00

> <Gold.PLP.Chemscore.Internal.Correction>
0.0389

> <Gold.Rescore>
     Score         DG    S(hbond)    S(metal)    S(lipo)     H(rot)  DE(clash)    DE(int)     intcor
     15.90     -17.16       1.32        0.00     117.27       2.52       0.51       0.76       ----

> <Gold.Chemscore.Fitness>
15.8953

> <Gold.Chemscore.DG>
-17.1620

> <Gold.Chemscore.ZeroCoef>
-5.4800

> <Gold.Chemscore.Hbond>
1.3220

> <Gold.Chemscore.Metal>
0.0000

> <Gold.Chemscore.Lipo>
117.2730

> <Gold.Chemscore.Internal_Hbond>
0.0000

> <Gold.Chemscore.DEClash>
0.5050

> <Gold.Chemscore.DEInternal>
0.7617

> <Gold.Chemscore.Rot>
2.5212

> <Gold.Chemscore.Internal.Correction>
   9.000000E+99

> <Gold.Chemscore.Hbonds>
donor molecule, donor type, donor heavy atom, donor atom, acceptor molecule, acceptor atom, score
      P1  H  7989  7998       L1    20  0.04
      P1  H  7997  8008       L1    11  0.33
      P1  H  8011  8017       L1     2  0.08
      P1  H 10752 10765       L1     7  0.94

> <Gold.Chemscore.Hbond.Weighted>
-4.4153

> <Gold.Chemscore.Metal.Weighted>
-0.0000

> <Gold.Chemscore.Lipo.Weighted>
-13.7209

> <Gold.Chemscore.Internal_Hbond.Weighted>
0.0000

> <Gold.Chemscore.DEClash.Weighted>
0.5050

> <Gold.Chemscore.DEInternal.Weighted>
0.7617

> <Gold.Chemscore.Rot.Weighted>
6.4543

> <Gold.Chemscore.Internal.Correction.Weighted>
   9.000000E+99

> <Gold.Protein.RotatedTorsions>
[ 6907 6896 6895 6894 ] final  124.65 input  -60.11 | X-H torsion
[ 7974 7965 7964 7962 ] final  117.66 input  175.53 | X-H torsion
[ 8008 7997 7996 7995 ] final -113.40 input   59.86 | X-H torsion
[ 10167 10162 10161 10158 ] final   66.71 input  -65.29 | X-H torsion
[ 10718 10713 10712 10709 ] final   74.23 input   66.30 | X-H torsion
[ 10763 10752 10751 10750 ] final  175.01 input  -60.55 | X-H torsion
[ 11005 11000 10999 10996 ] final  129.73 input  -57.11 | X-H torsion

> <Gold.Protein.ActiveResidues>
 VAL166  LYS551  ARG553  GLY616  TRP617  ASP618  TYR619  PRO620  LYS621  CYS622 
 ASP623  PHE694  ASN695  SER759  ASP760  ASP761  ALA762  ILE779  LEU786  VAL792 
 PHE793  MET794  SER795  GLU796  ALA797  LYS798  CYS799  TRP800  GLU811  SER814 

> <Gold.Protein.RotatedAtoms>
  152.4059  133.6889  159.6355 H   0  0  0  0  0  0  0  0  0  0  0  0  # atno 6907 bound_to 6896
  150.7944  133.8709  159.3267 H   0  0  0  0  0  0  0  0  0  0  0  0  # atno 6908 bound_to 6896
  151.6463  135.1008  160.0203 H   0  0  0  0  0  0  0  0  0  0  0  0  # atno 6909 bound_to 6896
  145.1647  139.3135  143.4499 H   0  0  0  0  0  0  0  0  0  0  0  0  # atno 7974 bound_to 7965
  155.0201  140.0393  157.2434 H   0  0  0  0  0  0  0  0  0  0  0  0  # atno 8008 bound_to 7997
  154.7385  140.2744  155.6370 H   0  0  0  0  0  0  0  0  0  0  0  0  # atno 8009 bound_to 7997
  156.2859  140.2670  156.2106 H   0  0  0  0  0  0  0  0  0  0  0  0  # atno 8010 bound_to 7997
  140.0974  144.4934  150.7059 H   0  0  0  0  0  0  0  0  0  0  0  0  # atno 10167 bound_to 10162
  157.6583  130.9668  150.1182 H   0  0  0  0  0  0  0  0  0  0  0  0  # atno 10718 bound_to 10713
  154.4618  135.2768  155.1707 H   0  0  0  0  0  0  0  0  0  0  0  0  # atno 10763 bound_to 10752
  154.3492  135.6153  153.5638 H   0  0  0  0  0  0  0  0  0  0  0  0  # atno 10764 bound_to 10752
  152.9855  135.5807  154.4982 H   0  0  0  0  0  0  0  0  0  0  0  0  # atno 10765 bound_to 10752
  139.9632  134.9597  156.9191 H   0  0  0  0  0  0  0  0  0  0  0  0  # atno 11005 bound_to 11000
  146.3477  140.1770  142.8589 LP  0  0  0  0  0  0  0  0  0  0  0  0  # atno 17320 bound_to 7965
  145.0295  140.8859  143.5118 LP  0  0  0  0  0  0  0  0  0  0  0  0  # atno 17321 bound_to 7965
  140.6996  143.2426  151.4903 LP  0  0  0  0  0  0  0  0  0  0  0  0  # atno 17342 bound_to 10162
  139.5690  144.1973  152.1808 LP  0  0  0  0  0  0  0  0  0  0  0  0  # atno 17343 bound_to 10162
  156.2060  130.3663  149.8729 LP  0  0  0  0  0  0  0  0  0  0  0  0  # atno 17370 bound_to 10713
  156.6620  130.8786  151.3549 LP  0  0  0  0  0  0  0  0  0  0  0  0  # atno 17371 bound_to 10713
  140.5454  134.0679  155.7353 LP  0  0  0  0  0  0  0  0  0  0  0  0  # atno 17394 bound_to 11000
  141.1310  133.9301  157.2534 LP  0  0  0  0  0  0  0  0  0  0  0  0  # atno 17395 bound_to 11000

$$$$
