AV-unprocessed.smi:1246|AV-procd|sdf|5241|dock1
  -GOLD-   22720 4353D 1   1.00000     0.00000
 Structure written by MMmdl.
 35 36  0  0  0  0  0  0  0  0  1 V2000
  149.3617  124.2374  150.7436 C   0  0  0  0  0  0  0  0  0  0  0  0
  148.7787  125.5106  151.2822 C   0  0  0  0  0  0  0  0  0  0  0  0
  148.6098  126.7538  150.6059 C   0  0  0  0  0  0  0  0  0  0  0  0
  148.0402  127.5438  151.5668 C   0  0  0  0  0  0  0  0  0  0  0  0
  147.6598  128.8466  151.4886 N   0  0  0  0  0  0  0  0  0  0  0  0
  146.5198  129.4171  151.9158 C   0  0  0  0  0  0  0  0  0  0  0  0
  145.5943  128.8319  152.4788 O   0  0  0  0  0  0  0  0  0  0  0  0
  146.5113  130.7317  151.6547 N   0  0  0  0  0  0  0  0  0  0  0  0
  145.4337  131.6489  152.0068 C   0  0  0  0  0  0  0  0  0  0  0  0
  145.3817  132.8527  151.0518 C   0  0  2  0  0  0  0  0  0  0  0  0
  146.4658  133.8938  151.3145 C   0  0  0  0  0  0  0  0  0  0  0  0
  145.8721  135.1182  150.6544 C   0  0  0  0  0  0  0  0  0  0  0  0
  144.3801  134.9599  150.9464 C   0  0  0  0  0  0  0  0  0  0  0  0
  144.1666  133.5759  151.2168 O   0  0  0  0  0  0  0  0  0  0  0  0
  147.8910  126.8052  152.7194 N   0  0  0  0  0  0  0  0  0  0  0  0
  147.3422  127.2010  154.0017 C   0  0  0  0  0  0  0  0  0  0  0  0
  148.3493  125.5478  152.5387 N   0  0  0  0  0  0  0  0  0  0  0  0
  149.6781  124.3563  149.7073 H   0  0  0  0  0  0  0  0  0  0  0  0
  148.6328  123.4274  150.7771 H   0  0  0  0  0  0  0  0  0  0  0  0
  150.2321  123.9281  151.3226 H   0  0  0  0  0  0  0  0  0  0  0  0
  148.8712  127.0022  149.5884 H   0  0  0  0  0  0  0  0  0  0  0  0
  148.3299  129.4646  151.0551 H   0  0  0  0  0  0  0  0  0  0  0  0
  147.3145  131.1326  151.1933 H   0  0  0  0  0  0  0  0  0  0  0  0
  144.4914  131.1018  151.9724 H   0  0  0  0  0  0  0  0  0  0  0  0
  145.5576  131.9881  153.0366 H   0  0  0  0  0  0  0  0  0  0  0  0
  145.4483  132.5241  150.0129 H   0  0  0  0  0  0  0  0  0  0  0  0
  146.5835  134.0661  152.3854 H   0  0  0  0  0  0  0  0  0  0  0  0
  147.4352  133.6130  150.9021 H   0  0  0  0  0  0  0  0  0  0  0  0
  146.2841  136.0531  151.0348 H   0  0  0  0  0  0  0  0  0  0  0  0
  146.0486  135.0808  149.5786 H   0  0  0  0  0  0  0  0  0  0  0  0
  144.0931  135.5344  151.8277 H   0  0  0  0  0  0  0  0  0  0  0  0
  143.7666  135.2949  150.1097 H   0  0  0  0  0  0  0  0  0  0  0  0
  146.3447  127.6172  153.8615 H   0  0  0  0  0  0  0  0  0  0  0  0
  147.9837  127.9566  154.4552 H   0  0  0  0  0  0  0  0  0  0  0  0
  147.2754  126.3436  154.6728 H   0  0  0  0  0  0  0  0  0  0  0  0
  1  2  1  0  0  0  0
  1 18  1  0  0  0  0
  1 19  1  0  0  0  0
  1 20  1  0  0  0  0
  2 17  2  0  0  0  0
  2  3  1  0  0  0  0
  3  4  2  0  0  0  0
  3 21  1  0  0  0  0
  4  5  1  0  0  0  0
  4 15  1  0  0  0  0
  5  6  1  0  0  0  0
  5 22  1  0  0  0  0
  6  7  2  0  0  0  0
  6  8  1  0  0  0  0
  8  9  1  0  0  0  0
  8 23  1  0  0  0  0
  9 10  1  0  0  0  0
  9 24  1  0  0  0  0
  9 25  1  0  0  0  0
 10 14  1  0  0  0  0
 10 11  1  0  0  0  0
 10 26  1  0  0  0  0
 11 12  1  0  0  0  0
 11 27  1  0  0  0  0
 11 28  1  0  0  0  0
 12 13  1  0  0  0  0
 12 29  1  0  0  0  0
 12 30  1  0  0  0  0
 13 14  1  0  0  0  0
 13 31  1  0  0  0  0
 13 32  1  0  0  0  0
 15 16  1  0  0  0  0
 15 17  1  0  0  0  0
 16 33  1  0  0  0  0
 16 34  1  0  0  0  0
 16 35  1  0  0  0  0
M  END
> <s_m_source_file>
AV-unprocessed.smi

> <i_m_source_file_index>
1246

> <i_lp_mmshare_version>
43012

> <i_f3d_flags>
0

> <s_epik_input>
W0NIM11jMVtjSF1jKG4objEpW0NIM10pW05IXUMoPU8pW05IXVtDSDJdW0NAQEhdMltDSDJdW0NIMl1bQ0gyXU8y

> <s_epik_cmdline>
J2VwaWtfcHl0aG9uJywgJy1waCcsICc3LjAnLCAnLXRuJywgJzgnLCAnLW1hJywgJzIwMCcsICctbWV0YWxfYmluZGluZycsICctaW1hZScsICc8aW5maWxlLm1hZT4nLCAnLW9tYWUnLCAnPG91dGZpbGUubWFlPic=

> <r_lp_tautomer_probability>
1

> <r_epik_Ionization_Penalty>
9.6187e-05

> <r_epik_Ionization_Penalty_Charging>
0

> <r_epik_Ionization_Penalty_Neutral>
9.6187e-05

> <r_epik_State_Penalty>
-0

> <r_epik_Charging_Adjusted_Penalty>
0

> <i_epik_Tot_Q>
0

> <i_epik_Tot_abs_Q>
0

> <r_epik_Metal_State_Penalty>
-0

> <b_epik_Metal_Only>
0

> <s_lp_Force_Field>
OPLS_2005

> <r_lp_Energy>
17.9178

> <b_lp_Chiralities_Consistent>
1

> <s_lp_Variant>
AV-unprocessed.smi:1246-1

> <Gold.Version>
5.8.1

> <Gold.Id.Protein>
6NUR|6NUR_protein|mol2

> <Gold.PLP.Fitness>
37.8401

> <Gold.PLP.PLP>
-33.3730

> <Gold.PLP.part.hbond>
-2.0000

> <Gold.PLP.part.metal>
0.0000

> <Gold.PLP.part.buried>
-5.7012

> <Gold.PLP.part.nonpolar>
-24.9851

> <Gold.PLP.part.repulsive>
0.4241

> <Gold.PLP.ligand.clash>
0.0000

> <Gold.PLP.ligand.torsion>
0.6665

> <Gold.PLP.Chemscore.Hbond>
1.9280

> <Gold.PLP.Chemscore.CHOScore>
0.0000

> <Gold.PLP.Chemscore.Metal>
0.0000

> <Gold.Chemscore.Hbonds>
donor molecule, donor type, donor heavy atom, donor atom, acceptor molecule, acceptor atom, score
      L1  H     5    22       P1 10747  1.00
      L1  H     8    23       P1 10747  0.96

> <Gold.PLP.Chemscore.Internal.Correction>
0.0161

> <Gold.Rescore>
     Score         DG    S(hbond)    S(metal)    S(lipo)     H(rot)  DE(clash)    DE(int)     intcor
     12.25     -13.00       1.35        0.00      53.00       1.25       0.03       0.73       ----

> <Gold.Chemscore.Fitness>
12.2509

> <Gold.Chemscore.DG>
-13.0034

> <Gold.Chemscore.ZeroCoef>
-5.4800

> <Gold.Chemscore.Hbond>
1.3524

> <Gold.Chemscore.Metal>
0.0000

> <Gold.Chemscore.Lipo>
52.9985

> <Gold.Chemscore.Internal_Hbond>
0.0000

> <Gold.Chemscore.DEClash>
0.0262

> <Gold.Chemscore.DEInternal>
0.7263

> <Gold.Chemscore.Rot>
1.2478

> <Gold.Chemscore.Internal.Correction>
   9.000000E+99

> <Gold.Chemscore.Hbonds>
donor molecule, donor type, donor heavy atom, donor atom, acceptor molecule, acceptor atom, score
      L1  H     5    22       P1 10747  0.26
      L1  H     8    23       P1 10747  0.92

> <Gold.Chemscore.Hbond.Weighted>
-4.5171

> <Gold.Chemscore.Metal.Weighted>
-0.0000

> <Gold.Chemscore.Lipo.Weighted>
-6.2008

> <Gold.Chemscore.Internal_Hbond.Weighted>
0.0000

> <Gold.Chemscore.DEClash.Weighted>
0.0262

> <Gold.Chemscore.DEInternal.Weighted>
0.7263

> <Gold.Chemscore.Rot.Weighted>
3.1944

> <Gold.Chemscore.Internal.Correction.Weighted>
   9.000000E+99

> <Gold.Protein.RotatedTorsions>
[ 6907 6896 6895 6894 ] final   69.10 input  -60.11 | X-H torsion
[ 7974 7965 7964 7962 ] final   53.90 input  175.53 | X-H torsion
[ 8008 7997 7996 7995 ] final  -48.31 input   59.86 | X-H torsion
[ 10167 10162 10161 10158 ] final -157.09 input  -65.29 | X-H torsion
[ 10718 10713 10712 10709 ] final  -70.94 input   66.30 | X-H torsion
[ 10763 10752 10751 10750 ] final   16.73 input  -60.55 | X-H torsion
[ 11005 11000 10999 10996 ] final -161.84 input  -57.11 | X-H torsion

> <Gold.Protein.ActiveResidues>
 VAL166  LYS551  ARG553  GLY616  TRP617  ASP618  TYR619  PRO620  LYS621  CYS622 
 ASP623  PHE694  ASN695  SER759  ASP760  ASP761  ALA762  ILE779  LEU786  VAL792 
 PHE793  MET794  SER795  GLU796  ALA797  LYS798  CYS799  TRP800  GLU811  SER814 

> <Gold.Protein.RotatedAtoms>
  152.4664  134.5065  159.9740 H   0  0  0  0  0  0  0  0  0  0  0  0  # atno 6907 bound_to 6896
  151.5101  133.3481  159.2891 H   0  0  0  0  0  0  0  0  0  0  0  0  # atno 6908 bound_to 6896
  150.8651  134.8041  159.7174 H   0  0  0  0  0  0  0  0  0  0  0  0  # atno 6909 bound_to 6896
  145.9664  139.4107  143.0217 H   0  0  0  0  0  0  0  0  0  0  0  0  # atno 7974 bound_to 7965
  154.4027  140.1324  156.4318 H   0  0  0  0  0  0  0  0  0  0  0  0  # atno 8008 bound_to 7997
  155.7543  140.3487  155.5146 H   0  0  0  0  0  0  0  0  0  0  0  0  # atno 8009 bound_to 7997
  155.8919  140.1004  157.1402 H   0  0  0  0  0  0  0  0  0  0  0  0  # atno 8010 bound_to 7997
  139.6798  143.9601  152.2330 H   0  0  0  0  0  0  0  0  0  0  0  0  # atno 10167 bound_to 10162
  156.0385  130.4341  150.2370 H   0  0  0  0  0  0  0  0  0  0  0  0  # atno 10718 bound_to 10713
  153.1404  135.6759  153.9036 H   0  0  0  0  0  0  0  0  0  0  0  0  # atno 10763 bound_to 10752
  153.8495  135.3095  155.3433 H   0  0  0  0  0  0  0  0  0  0  0  0  # atno 10764 bound_to 10752
  154.7783  135.4902  153.9873 H   0  0  0  0  0  0  0  0  0  0  0  0  # atno 10765 bound_to 10752
  140.6160  134.4800  157.5219 H   0  0  0  0  0  0  0  0  0  0  0  0  # atno 11005 bound_to 11000
  145.7968  140.9789  143.1020 LP  0  0  0  0  0  0  0  0  0  0  0  0  # atno 17320 bound_to 7965
  144.6826  139.9751  143.7482 LP  0  0  0  0  0  0  0  0  0  0  0  0  # atno 17321 bound_to 7965
  139.9388  144.6695  150.8287 LP  0  0  0  0  0  0  0  0  0  0  0  0  # atno 17342 bound_to 10162
  140.7648  143.3258  151.2518 LP  0  0  0  0  0  0  0  0  0  0  0  0  # atno 17343 bound_to 10162
  157.0467  131.0051  151.3266 LP  0  0  0  0  0  0  0  0  0  0  0  0  # atno 17370 bound_to 10713
  157.5170  130.7974  149.7767 LP  0  0  0  0  0  0  0  0  0  0  0  0  # atno 17371 bound_to 10713
  139.9173  134.8221  156.1325 LP  0  0  0  0  0  0  0  0  0  0  0  0  # atno 17394 bound_to 11000
  141.0775  133.6769  156.2268 LP  0  0  0  0  0  0  0  0  0  0  0  0  # atno 17395 bound_to 11000

$$$$
