AV-unprocessed.smi:2666|AV-procd|sdf|10333|dock2
  -GOLD-   2272014353D 1   1.00000     0.00000
 Structure written by MMmdl.
 43 44  0  0  0  0  0  0  0  0  1 V2000
  145.2270  135.4276  154.1009 O   0  0  0  0  0  0  0  0  0  0  0  0
  146.2525  135.4723  153.4224 C   0  0  0  0  0  0  0  0  0  0  0  0
  146.4930  134.7246  152.3318 N   0  0  0  0  0  0  0  0  0  0  0  0
  145.6393  133.7730  151.7113 C   0  0  0  0  0  0  0  0  0  0  0  0
  144.2506  133.8853  151.9286 C   0  0  0  0  0  0  0  0  0  0  0  0
  143.3851  132.9448  151.3382 C   0  0  0  0  0  0  0  0  0  0  0  0
  143.9467  131.9162  150.5573 C   0  0  0  0  0  0  0  0  0  0  0  0
  145.2741  131.7834  150.3529 N   0  0  0  0  0  0  0  0  0  0  0  0
  146.0985  132.6905  150.9201 C   0  0  0  0  0  0  0  0  0  0  0  0
  147.2956  136.2694  153.6997 N   0  0  0  0  0  0  0  0  0  0  0  0
  147.3935  137.2038  154.8251 C   0  0  1  0  0  0  0  0  0  0  0  0
  148.3895  136.6338  155.8672 C   0  0  0  0  0  0  0  0  0  0  0  0
  149.7708  136.2444  155.3072 C   0  0  0  0  0  0  0  0  0  0  0  0
  149.6446  135.2164  154.3475 O   0  0  0  0  0  0  0  0  0  0  0  0
  147.7765  138.6210  154.3068 C   0  0  0  0  0  0  0  0  0  0  0  0
  148.0181  139.6291  155.4579 C   0  0  0  0  0  0  0  0  0  0  0  0
  148.3758  141.0336  154.9449 C   0  0  0  0  0  0  0  0  0  0  0  0
  147.3008  141.5734  153.9943 C   0  0  0  0  0  0  0  0  0  0  0  0
  147.0741  140.6014  152.8305 C   0  0  0  0  0  0  0  0  0  0  0  0
  146.7103  139.1976  153.3391 C   0  0  0  0  0  0  0  0  0  0  0  0
  147.4162  134.8051  151.9319 H   0  0  0  0  0  0  0  0  0  0  0  0
  143.8497  134.6846  152.5348 H   0  0  0  0  0  0  0  0  0  0  0  0
  142.3166  133.0096  151.4809 H   0  0  0  0  0  0  0  0  0  0  0  0
  143.3132  131.1768  150.0900 H   0  0  0  0  0  0  0  0  0  0  0  0
  147.1485  132.5174  150.7431 H   0  0  0  0  0  0  0  0  0  0  0  0
  148.0925  136.2298  153.0816 H   0  0  0  0  0  0  0  0  0  0  0  0
  146.4212  137.2927  155.3132 H   0  0  0  0  0  0  0  0  0  0  0  0
  148.5296  137.3675  156.6620 H   0  0  0  0  0  0  0  0  0  0  0  0
  147.9733  135.7491  156.3466 H   0  0  0  0  0  0  0  0  0  0  0  0
  150.2835  137.0978  154.8634 H   0  0  0  0  0  0  0  0  0  0  0  0
  150.4074  135.8813  156.1144 H   0  0  0  0  0  0  0  0  0  0  0  0
  149.3517  135.5975  153.5338 H   0  0  0  0  0  0  0  0  0  0  0  0
  148.7092  138.5290  153.7479 H   0  0  0  0  0  0  0  0  0  0  0  0
  147.1297  139.6877  156.0880 H   0  0  0  0  0  0  0  0  0  0  0  0
  148.8313  139.2965  156.1007 H   0  0  0  0  0  0  0  0  0  0  0  0
  148.5020  141.7150  155.7866 H   0  0  0  0  0  0  0  0  0  0  0  0
  149.3359  140.9995  154.4284 H   0  0  0  0  0  0  0  0  0  0  0  0
  146.3671  141.7210  154.5389 H   0  0  0  0  0  0  0  0  0  0  0  0
  147.5964  142.5509  153.6126 H   0  0  0  0  0  0  0  0  0  0  0  0
  146.2827  140.9778  152.1817 H   0  0  0  0  0  0  0  0  0  0  0  0
  147.9753  140.5462  152.2186 H   0  0  0  0  0  0  0  0  0  0  0  0
  146.5811  138.5491  152.4729 H   0  0  0  0  0  0  0  0  0  0  0  0
  145.7425  139.2330  153.8414 H   0  0  0  0  0  0  0  0  0  0  0  0
  1  2  2  0  0  0  0
  2  3  1  0  0  0  0
  2 10  1  0  0  0  0
  3  4  1  0  0  0  0
  3 21  1  0  0  0  0
  4  9  1  0  0  0  0
  4  5  2  0  0  0  0
  5  6  1  0  0  0  0
  5 22  1  0  0  0  0
  6  7  2  0  0  0  0
  6 23  1  0  0  0  0
  7  8  1  0  0  0  0
  7 24  1  0  0  0  0
  8  9  2  0  0  0  0
  9 25  1  0  0  0  0
 10 11  1  0  0  0  0
 10 26  1  0  0  0  0
 11 12  1  0  0  0  0
 11 15  1  0  0  0  0
 11 27  1  0  0  0  0
 12 13  1  0  0  0  0
 12 28  1  0  0  0  0
 12 29  1  0  0  0  0
 13 14  1  0  0  0  0
 13 30  1  0  0  0  0
 13 31  1  0  0  0  0
 14 32  1  0  0  0  0
 15 20  1  0  0  0  0
 15 16  1  0  0  0  0
 15 33  1  0  0  0  0
 16 17  1  0  0  0  0
 16 34  1  0  0  0  0
 16 35  1  0  0  0  0
 17 18  1  0  0  0  0
 17 36  1  0  0  0  0
 17 37  1  0  0  0  0
 18 19  1  0  0  0  0
 18 38  1  0  0  0  0
 18 39  1  0  0  0  0
 19 20  1  0  0  0  0
 19 40  1  0  0  0  0
 19 41  1  0  0  0  0
 20 42  1  0  0  0  0
 20 43  1  0  0  0  0
M  END
> <s_m_source_file>
AV-unprocessed.smi

> <i_m_source_file_index>
2666

> <i_lp_mmshare_version>
43012

> <i_f3d_flags>
0

> <s_epik_input>
W2NIXTFuW2NIXVtjSF1bY0hdYzFbTkhdQyg9TylbTkhdW0NASF0oW0NIMl1bQ0gyXVtPSF0pW0NIXTJbQ0gyXVtDSDJdW0NIMl1bQ0gyXVtDSDJdMg==

> <s_epik_cmdline>
J2VwaWtfcHl0aG9uJywgJy1waCcsICc3LjAnLCAnLXRuJywgJzgnLCAnLW1hJywgJzIwMCcsICctbWV0YWxfYmluZGluZycsICctaW1hZScsICc8aW5maWxlLm1hZT4nLCAnLW9tYWUnLCAnPG91dGZpbGUubWFlPic=

> <r_epik_Ionization_Penalty>
0.00500145

> <r_epik_Ionization_Penalty_Charging>
0

> <r_epik_Ionization_Penalty_Neutral>
0.00500145

> <r_epik_State_Penalty>
0.00360517

> <r_epik_Charging_Adjusted_Penalty>
0.00360517

> <i_epik_Tot_Q>
0

> <i_epik_Tot_abs_Q>
0

> <r_epik_Metal_State_Penalty>
-0

> <b_epik_Metal_Only>
0

> <s_lp_Force_Field>
OPLS_2005

> <r_lp_Energy>
18.9025

> <b_lp_Chiralities_Consistent>
1

> <s_lp_Variant>
AV-unprocessed.smi:2666-2

> <Gold.Version>
5.8.1

> <Gold.Id.Protein>
6NUR|6NUR_protein|mol2

> <Gold.PLP.Fitness>
41.2431

> <Gold.PLP.PLP>
-28.5740

> <Gold.PLP.part.hbond>
-2.9137

> <Gold.PLP.part.metal>
0.0000

> <Gold.PLP.part.buried>
-3.8550

> <Gold.PLP.part.nonpolar>
-22.0737

> <Gold.PLP.part.repulsive>
0.1761

> <Gold.PLP.ligand.clash>
0.0000

> <Gold.PLP.ligand.torsion>
0.2854

> <Gold.PLP.Chemscore.Hbond>
2.7453

> <Gold.PLP.Chemscore.CHOScore>
1.6531

> <Gold.PLP.Chemscore.Metal>
0.0000

> <Gold.Chemscore.Hbonds>
donor molecule, donor type, donor heavy atom, donor atom, acceptor molecule, acceptor atom, score
      L1  H     3    21       P1  7948  0.74
      L1  H    10    26       P1  7948  0.91
      L1  H    14    32       P1  7948  1.00
      L1  C     7    24       P1 10952  0.63
      L1  C     9    25       P1 10747  1.00

> <Gold.PLP.Chemscore.Internal.Correction>
0.0447

> <Gold.Rescore>
     Score         DG    S(hbond)    S(metal)    S(lipo)     H(rot)  DE(clash)    DE(int)     intcor
     13.57     -16.89       2.67        0.00      70.04       2.23       0.03       3.29       ----

> <Gold.Chemscore.Fitness>
13.5667

> <Gold.Chemscore.DG>
-16.8869

> <Gold.Chemscore.ZeroCoef>
-5.4800

> <Gold.Chemscore.Hbond>
2.6670

> <Gold.Chemscore.Metal>
0.0000

> <Gold.Chemscore.Lipo>
70.0443

> <Gold.Chemscore.Internal_Hbond>
0.0000

> <Gold.Chemscore.DEClash>
0.0346

> <Gold.Chemscore.DEInternal>
3.2856

> <Gold.Chemscore.Rot>
2.2251

> <Gold.Chemscore.Internal.Correction>
   9.000000E+99

> <Gold.Chemscore.Hbonds>
donor molecule, donor type, donor heavy atom, donor atom, acceptor molecule, acceptor atom, score
      L1  H     3    21       P1  7948  0.55
      L1  H    10    26       P1  7948  0.87
      L1  H    14    32       P1  7948  0.35

> <Gold.Chemscore.Hbond.Weighted>
-8.9078

> <Gold.Chemscore.Metal.Weighted>
-0.0000

> <Gold.Chemscore.Lipo.Weighted>
-8.1952

> <Gold.Chemscore.Internal_Hbond.Weighted>
0.0000

> <Gold.Chemscore.DEClash.Weighted>
0.0346

> <Gold.Chemscore.DEInternal.Weighted>
3.2856

> <Gold.Chemscore.Rot.Weighted>
5.6962

> <Gold.Chemscore.Internal.Correction.Weighted>
   9.000000E+99

> <Gold.Protein.RotatedTorsions>
[ 6907 6896 6895 6894 ] final -176.67 input  -60.11 | X-H torsion
[ 7974 7965 7964 7962 ] final    3.69 input  175.53 | X-H torsion
[ 8008 7997 7996 7995 ] final   59.33 input   59.86 | X-H torsion
[ 10167 10162 10161 10158 ] final   47.31 input  -65.29 | X-H torsion
[ 10718 10713 10712 10709 ] final -151.62 input   66.30 | X-H torsion
[ 10763 10752 10751 10750 ] final   43.43 input  -60.55 | X-H torsion
[ 11005 11000 10999 10996 ] final -160.03 input  -57.11 | X-H torsion

> <Gold.Protein.ActiveResidues>
 VAL166  LYS551  ARG553  GLY616  TRP617  ASP618  TYR619  PRO620  LYS621  CYS622 
 ASP623  PHE694  ASN695  SER759  ASP760  ASP761  ALA762  ILE779  LEU786  VAL792 
 PHE793  MET794  SER795  GLU796  ALA797  LYS798  CYS799  TRP800  GLU811  SER814 

> <Gold.Protein.RotatedAtoms>
  151.6085  133.3349  159.3062 H   0  0  0  0  0  0  0  0  0  0  0  0  # atno 6907 bound_to 6896
  150.8169  134.7359  159.6749 H   0  0  0  0  0  0  0  0  0  0  0  0  # atno 6908 bound_to 6896
  152.4264  134.5865  160.0014 H   0  0  0  0  0  0  0  0  0  0  0  0  # atno 6909 bound_to 6896
  146.2445  140.0647  142.8366 H   0  0  0  0  0  0  0  0  0  0  0  0  # atno 7974 bound_to 7965
  155.5645  140.3489  155.4499 H   0  0  0  0  0  0  0  0  0  0  0  0  # atno 8008 bound_to 7997
  156.0490  140.1313  157.0097 H   0  0  0  0  0  0  0  0  0  0  0  0  # atno 8009 bound_to 7997
  154.4425  140.1008  156.6333 H   0  0  0  0  0  0  0  0  0  0  0  0  # atno 8010 bound_to 7997
  140.3050  144.2889  150.6211 H   0  0  0  0  0  0  0  0  0  0  0  0  # atno 10167 bound_to 10162
  156.4617  130.8216  151.2447 H   0  0  0  0  0  0  0  0  0  0  0  0  # atno 10718 bound_to 10713
  152.9861  135.6101  154.3110 H   0  0  0  0  0  0  0  0  0  0  0  0  # atno 10763 bound_to 10752
  154.2825  135.2776  155.2692 H   0  0  0  0  0  0  0  0  0  0  0  0  # atno 10764 bound_to 10752
  154.5025  135.5863  153.6598 H   0  0  0  0  0  0  0  0  0  0  0  0  # atno 10765 bound_to 10752
  140.6360  134.4601  157.5231 H   0  0  0  0  0  0  0  0  0  0  0  0  # atno 11005 bound_to 11000
  145.0869  140.9258  143.4792 LP  0  0  0  0  0  0  0  0  0  0  0  0  # atno 17320 bound_to 7965
  145.0812  139.2959  143.5783 LP  0  0  0  0  0  0  0  0  0  0  0  0  # atno 17321 bound_to 7965
  140.5618  143.2191  151.7751 LP  0  0  0  0  0  0  0  0  0  0  0  0  # atno 17342 bound_to 10162
  139.4906  144.4338  151.9843 LP  0  0  0  0  0  0  0  0  0  0  0  0  # atno 17343 bound_to 10162
  157.7497  131.0105  150.3308 LP  0  0  0  0  0  0  0  0  0  0  0  0  # atno 17370 bound_to 10713
  156.3709  130.3863  149.7176 LP  0  0  0  0  0  0  0  0  0  0  0  0  # atno 17371 bound_to 10713
  139.9098  134.8370  156.1571 LP  0  0  0  0  0  0  0  0  0  0  0  0  # atno 17394 bound_to 11000
  141.0641  133.6827  156.2010 LP  0  0  0  0  0  0  0  0  0  0  0  0  # atno 17395 bound_to 11000

$$$$
