AV-unprocessed.smi:1403|AV-procd|sdf|5702|dock1
  -GOLD-   22720 5333D 1   1.00000     0.00000
 Structure written by MMmdl.
 35 36  0  0  0  0  0  0  0  0  2 V2000
  153.2745  141.9952  162.0586 C   0  0  0  0  0  0  0  0  0  0  0  0
  153.3162  142.0817  160.5238 C   0  0  1  0  0  0  0  0  0  0  0  0
  152.2644  141.2462  159.9500 N   0  0  0  0  0  0  0  0  0  0  0  0
  152.4575  140.2115  159.1181 C   0  0  0  0  0  0  0  0  0  0  0  0
  153.5696  139.8588  158.7234 O   0  0  0  0  0  0  0  0  0  0  0  0
  151.1936  139.4848  158.6405 C   0  0  0  0  0  0  0  0  0  0  0  0
  150.7030  139.9893  157.3481 N   0  0  0  0  0  0  0  0  0  0  0  0
  149.4042  140.5263  157.3040 C   0  0  0  0  0  0  0  0  0  0  0  0
  148.8750  141.0126  156.1650 C   0  0  0  0  0  0  0  0  0  0  0  0
  149.6860  140.9721  154.9545 C   0  0  0  0  0  0  0  0  0  0  0  0
  149.2166  141.4055  153.9040 O   0  0  0  0  0  0  0  0  0  0  0  0
  150.9427  140.4472  155.0500 N   0  5  0  0  0  0  0  0  0  0  0  0
  151.4689  139.9582  156.2157 C   0  0  0  0  0  0  0  0  0  0  0  0
  152.6062  139.4897  156.2801 O   0  0  0  0  0  0  0  0  0  0  0  0
  153.1572  143.5318  160.0287 C   0  0  2  0  0  0  0  0  0  0  0  0
  152.0091  144.3100  160.6778 C   0  0  0  0  0  0  0  0  0  0  0  0
  151.6129  145.3303  159.6203 C   0  0  0  0  0  0  0  0  0  0  0  0
  152.3622  144.8797  158.3643 C   0  0  0  0  0  0  0  0  0  0  0  0
  152.7990  143.5609  158.6558 O   0  0  0  0  0  0  0  0  0  0  0  0
  154.0633  142.5984  162.5087 H   0  0  0  0  0  0  0  0  0  0  0  0
  153.4138  140.9694  162.4013 H   0  0  0  0  0  0  0  0  0  0  0  0
  152.3204  142.3494  162.4504 H   0  0  0  0  0  0  0  0  0  0  0  0
  154.2856  141.7138  160.1820 H   0  0  0  0  0  0  0  0  0  0  0  0
  151.3154  141.4626  160.2182 H   0  0  0  0  0  0  0  0  0  0  0  0
  151.3804  138.4112  158.5764 H   0  0  0  0  0  0  0  0  0  0  0  0
  150.4284  139.5964  159.4096 H   0  0  0  0  0  0  0  0  0  0  0  0
  148.8733  140.5245  158.2445 H   0  0  0  0  0  0  0  0  0  0  0  0
  147.8768  141.4247  156.1482 H   0  0  0  0  0  0  0  0  0  0  0  0
  154.0918  144.0815  160.1585 H   0  0  0  0  0  0  0  0  0  0  0  0
  151.1660  143.6465  160.8758 H   0  0  0  0  0  0  0  0  0  0  0  0
  152.2996  144.7714  161.6221 H   0  0  0  0  0  0  0  0  0  0  0  0
  150.5336  145.3193  159.4647 H   0  0  0  0  0  0  0  0  0  0  0  0
  151.9013  146.3432  159.9033 H   0  0  0  0  0  0  0  0  0  0  0  0
  151.7376  144.9026  157.4711 H   0  0  0  0  0  0  0  0  0  0  0  0
  153.2324  145.5140  158.1881 H   0  0  0  0  0  0  0  0  0  0  0  0
  1  2  1  0  0  0  0
  1 20  1  0  0  0  0
  1 21  1  0  0  0  0
  1 22  1  0  0  0  0
  2  3  1  0  0  0  0
  2 15  1  0  0  0  0
  2 23  1  0  0  0  0
  3  4  1  0  0  0  0
  3 24  1  0  0  0  0
  4  5  2  0  0  0  0
  4  6  1  0  0  0  0
  6  7  1  0  0  0  0
  6 25  1  0  0  0  0
  6 26  1  0  0  0  0
  7 13  1  0  0  0  0
  7  8  1  0  0  0  0
  8  9  2  0  0  0  0
  8 27  1  0  0  0  0
  9 10  1  0  0  0  0
  9 28  1  0  0  0  0
 10 11  2  0  0  0  0
 10 12  1  0  0  0  0
 12 13  1  0  0  0  0
 13 14  2  0  0  0  0
 15 19  1  0  0  0  0
 15 16  1  0  0  0  0
 15 29  1  0  0  0  0
 16 17  1  0  0  0  0
 16 30  1  0  0  0  0
 16 31  1  0  0  0  0
 17 18  1  0  0  0  0
 17 32  1  0  0  0  0
 17 33  1  0  0  0  0
 18 19  1  0  0  0  0
 18 34  1  0  0  0  0
 18 35  1  0  0  0  0
M  CHG  1  12  -1
M  END
> <s_m_source_file>
AV-unprocessed.smi

> <i_m_source_file_index>
1403

> <i_lp_mmshare_version>
43012

> <i_f3d_flags>
0

> <s_epik_input>
TzFbQ0gyXVtDSDJdW0NIMl1bQ0BIXTFbQ0BIXShbQ0gzXSlbTkhdQyg9TylbQ0gyXW4yW2NIXVtjSF1jKD1PKVtuSF1jMj1P

> <s_epik_cmdline>
J2VwaWtfcHl0aG9uJywgJy1waCcsICc3LjAnLCAnLXRuJywgJzgnLCAnLW1hJywgJzIwMCcsICctbWV0YWxfYmluZGluZycsICctaW1hZScsICc8aW5maWxlLm1hZT4nLCAnLW9tYWUnLCAnPG91dGZpbGUubWFlPic=

> <r_lp_tautomer_probability>
0.999537

> <r_epik_Ionization_Penalty>
3.07438

> <r_epik_Ionization_Penalty_Charging>
2.82466e-08

> <r_epik_Ionization_Penalty_Neutral>
3.07438

> <r_epik_State_Penalty>
3.07341

> <r_epik_Charging_Adjusted_Penalty>
3.07341

> <i_epik_Tot_Q>
-1

> <i_epik_Tot_abs_Q>
1

> <r_epik_Metal_State_Penalty>
0.45947

> <b_epik_Metal_Only>
1

> <s_lp_Force_Field>
OPLS_2005

> <r_lp_Energy>
26.8934

> <b_lp_Chiralities_Consistent>
1

> <s_lp_Variant>
AV-unprocessed.smi:1403-6

> <Gold.Version>
5.8.1

> <Gold.Id.Protein>
6NUR|6NUR_protein|mol2

> <Gold.PLP.Fitness>
49.8236

> <Gold.PLP.PLP>
-42.6082

> <Gold.PLP.part.hbond>
-5.0000

> <Gold.PLP.part.metal>
0.0000

> <Gold.PLP.part.buried>
-5.2941

> <Gold.PLP.part.nonpolar>
-32.1015

> <Gold.PLP.part.repulsive>
1.0834

> <Gold.PLP.ligand.clash>
0.0000

> <Gold.PLP.ligand.torsion>
0.6118

> <Gold.PLP.Chemscore.Hbond>
2.7840

> <Gold.PLP.Chemscore.CHOScore>
0.0000

> <Gold.PLP.Chemscore.Metal>
0.0000

> <Gold.Chemscore.Hbonds>
donor molecule, donor type, donor heavy atom, donor atom, acceptor molecule, acceptor atom, score
      P1  H  7989  7998       L1    12  1.00
      P1  H  7997  8009       L1     5  1.00
      P1  H  8011  8017       L1    11  0.77

> <Gold.PLP.Chemscore.Internal.Correction>
0.0870

> <Gold.Rescore>
     Score         DG    S(hbond)    S(metal)    S(lipo)     H(rot)  DE(clash)    DE(int)     intcor
     16.27     -18.29       2.45        0.00      83.29       1.99       0.02       2.01       ----

> <Gold.Chemscore.Fitness>
16.2672

> <Gold.Chemscore.DG>
-18.2928

> <Gold.Chemscore.ZeroCoef>
-5.4800

> <Gold.Chemscore.Hbond>
2.4468

> <Gold.Chemscore.Metal>
0.0000

> <Gold.Chemscore.Lipo>
83.2912

> <Gold.Chemscore.Internal_Hbond>
0.0000

> <Gold.Chemscore.DEClash>
0.0199

> <Gold.Chemscore.DEInternal>
2.0056

> <Gold.Chemscore.Rot>
1.9940

> <Gold.Chemscore.Internal.Correction>
   9.000000E+99

> <Gold.Chemscore.Hbonds>
donor molecule, donor type, donor heavy atom, donor atom, acceptor molecule, acceptor atom, score
      P1  H  7989  7998       L1    12  0.33
      P1  H  7997  8009       L1     5  0.93
      P1  H  8011  8017       L1    11  0.75

> <Gold.Chemscore.Hbond.Weighted>
-8.1724

> <Gold.Chemscore.Metal.Weighted>
-0.0000

> <Gold.Chemscore.Lipo.Weighted>
-9.7451

> <Gold.Chemscore.Internal_Hbond.Weighted>
0.0000

> <Gold.Chemscore.DEClash.Weighted>
0.0199

> <Gold.Chemscore.DEInternal.Weighted>
2.0056

> <Gold.Chemscore.Rot.Weighted>
5.1047

> <Gold.Chemscore.Internal.Correction.Weighted>
   9.000000E+99

> <Gold.Protein.RotatedTorsions>
[ 6907 6896 6895 6894 ] final  -19.78 input  -60.11 | X-H torsion
[ 7974 7965 7964 7962 ] final  162.44 input  175.53 | X-H torsion
[ 8008 7997 7996 7995 ] final  155.77 input   59.86 | X-H torsion
[ 10167 10162 10161 10158 ] final  175.19 input  -65.29 | X-H torsion
[ 10718 10713 10712 10709 ] final  128.09 input   66.30 | X-H torsion
[ 10763 10752 10751 10750 ] final   77.06 input  -60.55 | X-H torsion
[ 11005 11000 10999 10996 ] final   91.27 input  -57.11 | X-H torsion

> <Gold.Protein.ActiveResidues>
 VAL166  LYS551  ARG553  GLY616  TRP617  ASP618  TYR619  PRO620  LYS621  CYS622 
 ASP623  PHE694  ASN695  SER759  ASP760  ASP761  ALA762  ILE779  LEU786  VAL792 
 PHE793  MET794  SER795  GLU796  ALA797  LYS798  CYS799  TRP800  GLU811  SER814 

> <Gold.Protein.RotatedAtoms>
  151.2580  135.0644  159.9087 H   0  0  0  0  0  0  0  0  0  0  0  0  # atno 6907 bound_to 6896
  152.5370  134.0261  159.8014 H   0  0  0  0  0  0  0  0  0  0  0  0  # atno 6908 bound_to 6896
  151.0479  133.5599  159.2676 H   0  0  0  0  0  0  0  0  0  0  0  0  # atno 6909 bound_to 6896
  144.7636  139.8041  143.6323 H   0  0  0  0  0  0  0  0  0  0  0  0  # atno 7974 bound_to 7965
  156.2460  140.1930  156.6853 H   0  0  0  0  0  0  0  0  0  0  0  0  # atno 8008 bound_to 7997
  154.6292  140.0598  156.9737 H   0  0  0  0  0  0  0  0  0  0  0  0  # atno 8009 bound_to 7997
  155.1738  140.3270  155.4390 H   0  0  0  0  0  0  0  0  0  0  0  0  # atno 8010 bound_to 7997
  139.5168  144.3060  152.0335 H   0  0  0  0  0  0  0  0  0  0  0  0  # atno 10167 bound_to 10162
  157.5275  131.1098  150.9060 H   0  0  0  0  0  0  0  0  0  0  0  0  # atno 10718 bound_to 10713
  153.0771  135.4928  154.8426 H   0  0  0  0  0  0  0  0  0  0  0  0  # atno 10763 bound_to 10752
  154.7101  135.3018  154.9212 H   0  0  0  0  0  0  0  0  0  0  0  0  # atno 10764 bound_to 10752
  153.9908  135.6778  153.4807 H   0  0  0  0  0  0  0  0  0  0  0  0  # atno 10765 bound_to 10752
  139.8841  134.8664  156.3404 H   0  0  0  0  0  0  0  0  0  0  0  0  # atno 11005 bound_to 11000
  146.1723  139.4879  142.9919 LP  0  0  0  0  0  0  0  0  0  0  0  0  # atno 17320 bound_to 7965
  145.6539  141.0256  143.1745 LP  0  0  0  0  0  0  0  0  0  0  0  0  # atno 17321 bound_to 7965
  140.2506  144.4173  150.6223 LP  0  0  0  0  0  0  0  0  0  0  0  0  # atno 17342 bound_to 10162
  140.6227  143.2178  151.6660 LP  0  0  0  0  0  0  0  0  0  0  0  0  # atno 17343 bound_to 10162
  156.9652  130.5470  149.5288 LP  0  0  0  0  0  0  0  0  0  0  0  0  # atno 17370 bound_to 10713
  156.0398  130.5481  150.8742 LP  0  0  0  0  0  0  0  0  0  0  0  0  # atno 17371 bound_to 10713
  140.9662  133.7356  156.0471 LP  0  0  0  0  0  0  0  0  0  0  0  0  # atno 17394 bound_to 11000
  140.7927  134.3599  157.5460 LP  0  0  0  0  0  0  0  0  0  0  0  0  # atno 17395 bound_to 11000

$$$$
