#       Name:                AV-unprocessed.smi:1630
#       Creating user name   scv26
#       Creation time:       Fri Mar 27 07:20:19 2020


#       File generated by GOLD software.
#

@<TRIPOS>MOLECULE
AV-unprocessed.smi:1630
    39    40     1
SMALL
NO_CHARGES


@<TRIPOS>ATOM
      1 ****        -6.0800   1.9097  -0.2470 C.3            1 S1                 0.0000
      2 ****        -5.6803   0.1465  -0.5842 S.o2           1 S1                 0.0000
      3 ****        -6.1310  -0.6564   0.5632 O.2            1 S1                 0.0000
      4 ****        -6.1697  -0.1771  -1.9335 O.2            1 S1                 0.0000
      5 ****        -3.8911   0.1122  -0.6110 C.ar           1 S1                 0.0000
      6 ****        -3.1971  -0.0191  -1.8307 C.ar           1 S1                 0.0000
      7 ****        -1.7894  -0.0067  -1.7987 C.ar           1 S1                 0.0000
      8 ****        -1.1335   0.1552  -0.5532 C.ar           1 S1                 0.0000
      9 ****         0.2774   0.1668  -0.3792 N.am           1 S1                 0.0000
     10 ****         1.2486   0.3408  -1.2976 C.2            1 S1                 0.0000
     11 ****         1.0559   0.5567  -2.4918 O.2            1 S1                 0.0000
     12 ****         2.4961   0.2676  -0.7983 N.am           1 S1                 0.0000
     13 ****         3.7683   0.4090  -1.5115 C.3            1 S1                 0.0000
     14 ****         4.9314  -0.1354  -0.6606 C.3            1 S1                 0.0000
     15 ****         6.0430   0.9111  -0.7457 C.3            1 S1                 0.0000
     16 ****         5.3000   2.2327  -0.9063 C.3            1 S1                 0.0000
     17 ****         4.1073   1.8871  -1.7990 C.3            1 S1                 0.0000
     18 ****        -1.9351   0.2825   0.6017 C.ar           1 S1                 0.0000
     19 ****        -3.2845   0.2727   0.5841 N.ar           1 S1                 0.0000
     20 ****        -7.1617   2.0350  -0.2064 H              1 S1                 0.0000
     21 ****        -5.6712   2.5340  -1.0411 H              1 S1                 0.0000
     22 ****        -5.6446   2.2049   0.7075 H              1 S1                 0.0000
     23 ****        -3.7225  -0.1340  -2.7672 H              1 S1                 0.0000
     24 ****        -1.2503  -0.1321  -2.7240 H              1 S1                 0.0000
     25 ****         0.5933   0.0623   0.5741 H              1 S1                 0.0000
     26 ****         2.5710   0.0682   0.1890 H              1 S1                 0.0000
     27 ****         3.7298  -0.1464  -2.4503 H              1 S1                 0.0000
     28 ****         4.6273  -0.2408   0.3824 H              1 S1                 0.0000
     29 ****         5.2668  -1.1166  -0.9978 H              1 S1                 0.0000
     30 ****         6.6983   0.9000   0.1259 H              1 S1                 0.0000
     31 ****         6.6570   0.7259  -1.6279 H              1 S1                 0.0000
     32 ****         4.9450   2.5744   0.0668 H              1 S1                 0.0000
     33 ****         5.9264   3.0192  -1.3280 H              1 S1                 0.0000
     34 ****         4.3987   1.9900  -2.8450 H              1 S1                 0.0000
     35 ****         3.2703   2.5667  -1.6337 H              1 S1                 0.0000
     36 ****        -1.4789   0.4010   1.5737 H              1 S1                 0.0000
     37 ****         0.1222   0.6143  -2.8452 LP             1 S1                 0.0000
     38 ****         1.8328   0.6747  -3.1103 LP             1 S1                 0.0000
     39 ****        -3.8151   0.3803   1.4249 LP             1 S1                 0.0000
@<TRIPOS>BOND
    1    1    2 1     
    2    1   20 1     
    3    1   21 1     
    4    1   22 1     
    5    2    3 2     
    6    2    4 2     
    7    2    5 1     
    8    5   19 ar    
    9    5    6 ar    
   10    6    7 ar    
   11    6   23 1     
   12    7    8 ar    
   13    7   24 1     
   14    8    9 1     
   15    8   18 ar    
   16    9   10 am    
   17    9   25 1     
   18   10   11 2     
   19   10   12 am    
   20   12   13 1     
   21   12   26 1     
   22   13   17 1     
   23   13   14 1     
   24   13   27 1     
   25   14   15 1     
   26   14   28 1     
   27   14   29 1     
   28   15   16 1     
   29   15   30 1     
   30   15   31 1     
   31   16   17 1     
   32   16   32 1     
   33   16   33 1     
   34   17   34 1     
   35   17   35 1     
   36   18   19 ar    
   37   18   36 1     
   38   11   37 1     
   39   11   38 1     
   40   19   39 1     
@<TRIPOS>SUBSTRUCTURE
      1 S1             1
@<TRIPOS>SET
LONE_PAIRS      STATIC     ATOMS    <user>   **** ""
5 3 4 37 38 39
DONOR_HYDROGENS      STATIC     ATOMS    <user>   **** ""
2 25 26
ATOM$BLUE        STATIC     ATOMS    COLORGROUP SYSTEM
5 3 4 37 38 39
ATOM$RED        STATIC     ATOMS    COLORGROUP SYSTEM
2 25 26
