#       Name:                AV-unprocessed.smi:3313
#       Creating user name   scv26
#       Creation time:       Fri Mar 27 19:07:25 2020


#       File generated by GOLD software.
#

@<TRIPOS>MOLECULE
AV-unprocessed.smi:3313
    46    46     1
SMALL
NO_CHARGES


@<TRIPOS>ATOM
      1 ****        -2.6366  -2.9788   0.9508 C.3            1 S1                 0.0000
      2 ****        -2.0847  -1.8219   0.1007 C.3            1 S1                 0.0000
      3 ****        -2.3697  -2.0117  -1.4076 C.3            1 S1                 0.0000
      4 ****        -3.7840  -2.1595  -1.7003 N.pl3          1 S1                 0.0000
      5 ****        -4.4595  -3.2767  -2.1455 C.2            1 S1                 0.0000
      6 ****        -5.7724  -2.9280  -2.2845 C.2            1 S1                 0.0000
      7 ****        -5.8013  -1.5579  -1.9012 C.2            1 S1                 0.0000
      8 ****        -4.6090  -1.1004  -1.5542 N.2            1 S1                 0.0000
      9 ****        -0.6348  -1.6725   0.3611 N.4            1 S1                 1.0000
     10 ****        -0.0466  -0.3792  -0.0482 C.3            1 S1                 0.0000
     11 ****         1.4117  -0.2632   0.4272 C.3            1 S1                 0.0000
     12 ****         2.0459   1.0824   0.0620 C.2            1 S1                 0.0000
     13 ****         1.7922   1.6085  -1.0213 O.2            1 S1                 0.0000
     14 ****         2.8714   1.6164   0.9804 N.am           1 S1                 0.0000
     15 ****         3.6162   2.8799   0.9134 C.3            1 S1                 0.0000
     16 ****         4.3932   3.0116   2.2353 C.3            1 S1                 0.0000
     17 ****         2.6507   4.0769   0.7792 C.3            1 S1                 0.0000
     18 ****         4.6202   2.8572  -0.2582 C.3            1 S1                 0.0000
     19 ****        -3.7207  -3.0587   0.8659 H              1 S1                 0.0000
     20 ****        -2.4083  -2.8329   2.0070 H              1 S1                 0.0000
     21 ****        -2.2081  -3.9345   0.6465 H              1 S1                 0.0000
     22 ****        -2.5765  -0.9093   0.4408 H              1 S1                 0.0000
     23 ****        -2.0016  -1.1642  -1.9861 H              1 S1                 0.0000
     24 ****        -1.8472  -2.8934  -1.7817 H              1 S1                 0.0000
     25 ****        -3.9571  -4.2164  -2.3220 H              1 S1                 0.0000
     26 ****        -6.5882  -3.5553  -2.6121 H              1 S1                 0.0000
     27 ****        -6.6466  -0.8863  -1.8659 H              1 S1                 0.0000
     28 ****        -0.4985  -1.7580   1.3582 H              1 S1                 0.0000
     29 ****        -0.0950  -0.2866  -1.1334 H              1 S1                 0.0000
     30 ****        -0.6382   0.4347   0.3736 H              1 S1                 0.0000
     31 ****         1.4561  -0.4024   1.5086 H              1 S1                 0.0000
     32 ****         2.0148  -1.0562  -0.0164 H              1 S1                 0.0000
     33 ****         3.0027   1.0862   1.8297 H              1 S1                 0.0000
     34 ****         4.9749   3.9338   2.2642 H              1 S1                 0.0000
     35 ****         5.0886   2.1827   2.3742 H              1 S1                 0.0000
     36 ****         3.7200   3.0231   3.0936 H              1 S1                 0.0000
     37 ****         1.9108   4.0832   1.5806 H              1 S1                 0.0000
     38 ****         2.1113   4.0661  -0.1679 H              1 S1                 0.0000
     39 ****         3.1909   5.0232   0.8258 H              1 S1                 0.0000
     40 ****         5.2435   3.7521  -0.2579 H              1 S1                 0.0000
     41 ****         4.1209   2.8172  -1.2262 H              1 S1                 0.0000
     42 ****         5.2858   1.9956  -0.1947 H              1 S1                 0.0000
     43 ****        -0.1385  -2.4248  -0.0948 H              1 S1                 0.0000
     44 ****        -4.3720  -0.1773  -1.2516 LP             1 S1                 0.0000
     45 ****         1.1720   1.1574  -1.6631 LP             1 S1                 0.0000
     46 ****         2.2063   2.4869  -1.2597 LP             1 S1                 0.0000
@<TRIPOS>BOND
    1    1    2 1     
    2    1   19 1     
    3    1   20 1     
    4    1   21 1     
    5    2    3 1     
    6    2    9 1     
    7    2   22 1     
    8    3    4 1     
    9    3   23 1     
   10    3   24 1     
   11    4    8 1     
   12    4    5 1     
   13    5    6 2     
   14    5   25 1     
   15    6    7 1     
   16    6   26 1     
   17    7    8 2     
   18    7   27 1     
   19    9   10 1     
   20    9   28 1     
   21    9   43 1     
   22   10   11 1     
   23   10   29 1     
   24   10   30 1     
   25   11   12 1     
   26   11   31 1     
   27   11   32 1     
   28   12   13 2     
   29   12   14 am    
   30   14   15 1     
   31   14   33 1     
   32   15   16 1     
   33   15   17 1     
   34   15   18 1     
   35   16   34 1     
   36   16   35 1     
   37   16   36 1     
   38   17   37 1     
   39   17   38 1     
   40   17   39 1     
   41   18   40 1     
   42   18   41 1     
   43   18   42 1     
   44    8   44 1     
   45   13   45 1     
   46   13   46 1     
@<TRIPOS>SUBSTRUCTURE
      1 S1             1
@<TRIPOS>SET
LONE_PAIRS      STATIC     ATOMS    <user>   **** ""
3 44 45 46
DONOR_HYDROGENS      STATIC     ATOMS    <user>   **** ""
3 28 43 33
ATOM$BLUE        STATIC     ATOMS    COLORGROUP SYSTEM
3 44 45 46
ATOM$RED        STATIC     ATOMS    COLORGROUP SYSTEM
3 28 43 33
