AV-unprocessed.smi:54|AV-procd|sdf|544|dock9
  -GOLD-   2262016433D 1   1.00000     0.00000
 Structure written by MMmdl.
 44 46  0  0  0  0  0  0  0  0  1 V2000
  148.0539  133.2127  155.0067 C   0  0  0  0  0  0  0  0  0  0  0  0
  149.4183  133.7413  154.5368 C   0  0  0  0  0  0  0  0  0  0  0  0
  150.5369  132.7232  154.8127 C   0  0  0  0  0  0  0  0  0  0  0  0
  149.7316  135.0869  155.2009 C   0  0  0  0  0  0  0  0  0  0  0  0
  149.9198  135.1897  156.4140 O   0  0  0  0  0  0  0  0  0  0  0  0
  149.7795  136.2273  154.3039 N   0  0  0  0  0  0  0  0  0  0  0  0
  150.0358  137.5143  154.6331 C   0  0  0  0  0  0  0  0  0  0  0  0
  149.2071  138.5102  154.3521 N   0  0  0  0  0  0  0  0  0  0  0  0
  149.6333  139.7387  154.7746 C   0  0  0  0  0  0  0  0  0  0  0  0
  150.8043  140.0177  155.4473 C   0  0  0  0  0  0  0  0  0  0  0  0
  150.8942  141.3811  155.7057 N   0  0  0  0  0  0  0  0  0  0  0  0
  149.8012  141.8742  155.1926 C   0  0  0  0  0  0  0  0  0  0  0  0
  148.9797  140.9400  154.6055 N   0  0  0  0  0  0  0  0  0  0  0  0
  147.6620  141.1238  153.9243 C   0  0  1  0  0  0  0  0  0  0  0  0
  147.6495  140.3159  152.7814 O   0  0  0  0  0  0  0  0  0  0  0  0
  146.6212  139.3353  152.8827 C   0  0  1  0  0  0  0  0  0  0  0  0
  146.9987  138.0458  152.1304 C   0  0  0  0  0  0  0  0  0  0  0  0
  146.7879  138.1530  150.7378 O   0  0  0  0  0  0  0  0  0  0  0  0
  146.3229  139.2127  154.3784 C   0  0  2  0  0  0  0  0  0  0  0  0
  145.0218  138.7299  154.6533 O   0  0  0  0  0  0  0  0  0  0  0  0
  146.5353  140.6437  154.8541 C   0  0  2  0  0  0  0  0  0  0  0  0
  145.3854  141.4587  154.7135 O   0  0  0  0  0  0  0  0  0  0  0  0
  151.7062  138.9491  155.7677 C   0  0  0  0  0  0  0  0  0  0  0  0
  152.7819  139.0104  156.3592 O   0  0  0  0  0  0  0  0  0  0  0  0
  151.2352  137.7083  155.3183 N   0  0  0  0  0  0  0  0  0  0  0  0
  147.6285  142.1858  153.6769 H   0  0  0  0  0  0  0  0  0  0  0  0
  145.7525  139.7747  152.3890 H   0  0  0  0  0  0  0  0  0  0  0  0
  147.0545  138.5677  154.8661 H   0  0  0  0  0  0  0  0  0  0  0  0
  146.8438  140.6808  155.9000 H   0  0  0  0  0  0  0  0  0  0  0  0
  147.2592  133.9319  154.8042 H   0  0  0  0  0  0  0  0  0  0  0  0
  148.0511  133.0050  156.0776 H   0  0  0  0  0  0  0  0  0  0  0  0
  147.7956  132.2880  154.4900 H   0  0  0  0  0  0  0  0  0  0  0  0
  149.3675  133.8984  153.4584 H   0  0  0  0  0  0  0  0  0  0  0  0
  151.5088  133.1054  154.4981 H   0  0  0  0  0  0  0  0  0  0  0  0
  150.3602  131.7946  154.2692 H   0  0  0  0  0  0  0  0  0  0  0  0
  150.6029  132.4765  155.8733 H   0  0  0  0  0  0  0  0  0  0  0  0
  149.5590  136.0400  153.3369 H   0  0  0  0  0  0  0  0  0  0  0  0
  149.5700  142.9281  155.2329 H   0  0  0  0  0  0  0  0  0  0  0  0
  148.0554  137.8290  152.2874 H   0  0  0  0  0  0  0  0  0  0  0  0
  146.4384  137.1961  152.5207 H   0  0  0  0  0  0  0  0  0  0  0  0
  145.9223  138.5027  150.5907 H   0  0  0  0  0  0  0  0  0  0  0  0
  144.4179  139.1540  154.0625 H   0  0  0  0  0  0  0  0  0  0  0  0
  144.9341  141.2032  153.9230 H   0  0  0  0  0  0  0  0  0  0  0  0
  151.8214  136.9089  155.5075 H   0  0  0  0  0  0  0  0  0  0  0  0
  1  2  1  0  0  0  0
  1 30  1  0  0  0  0
  1 31  1  0  0  0  0
  1 32  1  0  0  0  0
  2  3  1  0  0  0  0
  2  4  1  0  0  0  0
  2 33  1  0  0  0  0
  3 34  1  0  0  0  0
  3 35  1  0  0  0  0
  3 36  1  0  0  0  0
  4  5  2  0  0  0  0
  4  6  1  0  0  0  0
  6 37  1  0  0  0  0
  6  7  1  0  0  0  0
  7 25  1  0  0  0  0
  7  8  2  0  0  0  0
  8  9  1  0  0  0  0
  9 13  1  0  0  0  0
  9 10  2  0  0  0  0
 10 11  1  0  0  0  0
 10 23  1  0  0  0  0
 11 12  2  0  0  0  0
 12 13  1  0  0  0  0
 12 38  1  0  0  0  0
 13 14  1  0  0  0  0
 14 26  1  0  0  0  0
 14 21  1  0  0  0  0
 14 15  1  0  0  0  0
 15 16  1  0  0  0  0
 16 27  1  0  0  0  0
 16 17  1  0  0  0  0
 16 19  1  0  0  0  0
 17 18  1  0  0  0  0
 17 39  1  0  0  0  0
 17 40  1  0  0  0  0
 18 41  1  0  0  0  0
 19 28  1  0  0  0  0
 19 20  1  0  0  0  0
 19 21  1  0  0  0  0
 20 42  1  0  0  0  0
 21 29  1  0  0  0  0
 21 22  1  0  0  0  0
 22 43  1  0  0  0  0
 23 24  2  0  0  0  0
 23 25  1  0  0  0  0
 25 44  1  0  0  0  0
M  END
> <s_m_source_file>
AV-unprocessed.smi

> <i_m_source_file_index>
54

> <i_lp_mmshare_version>
43012

> <i_f3d_flags>
0

> <s_epik_input>
W0NIM11bQ0hdKFtDSDNdKUMoPU8pW05IXWMobjEpW25IXWMoPU8pYyhjMTIpbltjSF1uMltDQEBIXTNPW0NASF0oW0NIMl1bT0hdKVtDQEBIXShbT0hdKVtDQEhdM1tPSF0=

> <s_epik_cmdline>
J2VwaWtfcHl0aG9uJywgJy1waCcsICc3LjAnLCAnLXRuJywgJzgnLCAnLW1hJywgJzIwMCcsICctbWV0YWxfYmluZGluZycsICctaW1hZScsICc8aW5maWxlLm1hZT4nLCAnLW9tYWUnLCAnPG91dGZpbGUubWFlPic=

> <r_lp_tautomer_probability>
0.85571

> <r_epik_Ionization_Penalty>
0.0316551

> <r_epik_Ionization_Penalty_Charging>
0.0316043

> <r_epik_Ionization_Penalty_Neutral>
5.07097e-05

> <r_epik_State_Penalty>
3.15494e-07

> <r_epik_Charging_Adjusted_Penalty>
0.0316047

> <i_epik_Tot_Q>
0

> <i_epik_Tot_abs_Q>
0

> <r_epik_Metal_State_Penalty>
0.421206

> <b_epik_Metal_Only>
0

> <s_epik_Chemistry_Notes>
This compound contains an acetal/aminal-like group ( X-CH(R)-Y where X, Y are N, S, or O) that may be acid/base labile, releasing an aldehyde.

> <s_lp_Force_Field>
OPLS_2005

> <r_lp_Energy>
44.5551

> <b_lp_Chiralities_Consistent>
1

> <s_lp_Variant>
AV-unprocessed.smi:54-16

> <Gold.Version>
5.8.1

> <Gold.Id.Protein>
6NUR|6NUR_protein|mol2

> <Gold.PLP.Fitness>
48.2301

> <Gold.PLP.PLP>
-29.9908

> <Gold.PLP.part.hbond>
-7.6093

> <Gold.PLP.part.metal>
0.0000

> <Gold.PLP.part.buried>
1.9618

> <Gold.PLP.part.nonpolar>
-28.2468

> <Gold.PLP.part.repulsive>
4.0362

> <Gold.PLP.ligand.clash>
0.0000

> <Gold.PLP.ligand.torsion>
1.2040

> <Gold.PLP.Chemscore.Hbond>
5.9913

> <Gold.PLP.Chemscore.CHOScore>
0.8789

> <Gold.PLP.Chemscore.Metal>
0.0000

> <Gold.Chemscore.Hbonds>
donor molecule, donor type, donor heavy atom, donor atom, acceptor molecule, acceptor atom, score
      L1  H     6    37       P1  7948  1.00
      L1  H    18    41       P1 10171  0.63
      L1  H    20    42       P1 10175  0.62
      L1  H    22    43       P1 10175  1.00
      P1  H  7954  7966       L1    18  1.00
      P1  H  7997  8010       L1    24  1.00
      L1  C    12    38       P1  8028  0.82

> <Gold.PLP.Chemscore.Internal.Correction>
0.0369

> <Gold.Rescore>
     Score         DG    S(hbond)    S(metal)    S(lipo)     H(rot)  DE(clash)    DE(int)     intcor
      4.94     -12.74       3.84        0.00      41.10       4.05       3.56       4.24       ----

> <Gold.Chemscore.Fitness>
4.9415

> <Gold.Chemscore.DG>
-12.7400

> <Gold.Chemscore.ZeroCoef>
-5.4800

> <Gold.Chemscore.Hbond>
3.8376

> <Gold.Chemscore.Metal>
0.0000

> <Gold.Chemscore.Lipo>
41.0995

> <Gold.Chemscore.Internal_Hbond>
0.0000

> <Gold.Chemscore.DEClash>
3.5587

> <Gold.Chemscore.DEInternal>
4.2397

> <Gold.Chemscore.Rot>
4.0493

> <Gold.Chemscore.Internal.Correction>
   9.000000E+99

> <Gold.Chemscore.Hbonds>
donor molecule, donor type, donor heavy atom, donor atom, acceptor molecule, acceptor atom, score
      L1  H     6    37       P1  7948  0.25
      L1  H    18    41       P1 10171  0.62
      L1  H    20    42       P1 10175  0.62
      L1  H    22    43       P1 10175  0.56
      P1  H  7954  7966       L1    18  0.80
      P1  H  7997  8010       L1    24  1.00

> <Gold.Chemscore.Hbond.Weighted>
-12.8175

> <Gold.Chemscore.Metal.Weighted>
-0.0000

> <Gold.Chemscore.Lipo.Weighted>
-4.8086

> <Gold.Chemscore.Internal_Hbond.Weighted>
0.0000

> <Gold.Chemscore.DEClash.Weighted>
3.5587

> <Gold.Chemscore.DEInternal.Weighted>
4.2397

> <Gold.Chemscore.Rot.Weighted>
10.3662

> <Gold.Chemscore.Internal.Correction.Weighted>
   9.000000E+99

> <Gold.Protein.RotatedTorsions>
[ 6907 6896 6895 6894 ] final   66.57 input  -60.11 | X-H torsion
[ 7974 7965 7964 7962 ] final   97.45 input  175.53 | X-H torsion
[ 8008 7997 7996 7995 ] final   81.23 input   59.86 | X-H torsion
[ 10167 10162 10161 10158 ] final  -58.62 input  -65.29 | X-H torsion
[ 10718 10713 10712 10709 ] final -160.45 input   66.30 | X-H torsion
[ 10763 10752 10751 10750 ] final   53.47 input  -60.55 | X-H torsion
[ 11005 11000 10999 10996 ] final  -28.69 input  -57.11 | X-H torsion

> <Gold.Protein.ActiveResidues>
 VAL166  LYS551  ARG553  GLY616  TRP617  ASP618  TYR619  PRO620  LYS621  CYS622 
 ASP623  PHE694  ASN695  SER759  ASP760  ASP761  ALA762  ILE779  LEU786  VAL792 
 PHE793  MET794  SER795  GLU796  ALA797  LYS798  CYS799  TRP800  GLU811  SER814 

> <Gold.Protein.RotatedAtoms>
  152.4491  134.5432  159.9845 H   0  0  0  0  0  0  0  0  0  0  0  0  # atno 6907 bound_to 6896
  151.5510  133.3412  159.2961 H   0  0  0  0  0  0  0  0  0  0  0  0  # atno 6908 bound_to 6896
  150.8414  134.7740  159.6999 H   0  0  0  0  0  0  0  0  0  0  0  0  # atno 6909 bound_to 6896
  145.4253  139.2316  143.3173 H   0  0  0  0  0  0  0  0  0  0  0  0  # atno 7974 bound_to 7965
  155.8944  140.3437  155.5979 H   0  0  0  0  0  0  0  0  0  0  0  0  # atno 8008 bound_to 7997
  155.7574  140.0828  157.2191 H   0  0  0  0  0  0  0  0  0  0  0  0  # atno 8009 bound_to 7997
  154.4036  140.1542  156.2780 H   0  0  0  0  0  0  0  0  0  0  0  0  # atno 8010 bound_to 7997
  140.6186  143.2411  151.5537 H   0  0  0  0  0  0  0  0  0  0  0  0  # atno 10167 bound_to 10162
  156.5822  130.8734  151.2867 H   0  0  0  0  0  0  0  0  0  0  0  0  # atno 10718 bound_to 10713
  152.9796  135.5777  154.4747 H   0  0  0  0  0  0  0  0  0  0  0  0  # atno 10763 bound_to 10752
  154.4305  135.2773  155.1917 H   0  0  0  0  0  0  0  0  0  0  0  0  # atno 10764 bound_to 10752
  154.3628  135.6185  153.5753 H   0  0  0  0  0  0  0  0  0  0  0  0  # atno 10765 bound_to 10752
  140.9230  133.7386  156.0828 H   0  0  0  0  0  0  0  0  0  0  0  0  # atno 11005 bound_to 11000
  146.2635  140.4983  142.8843 LP  0  0  0  0  0  0  0  0  0  0  0  0  # atno 17320 bound_to 7965
  144.8218  140.6562  143.6348 LP  0  0  0  0  0  0  0  0  0  0  0  0  # atno 17321 bound_to 7965
  139.5419  144.2625  152.1367 LP  0  0  0  0  0  0  0  0  0  0  0  0  # atno 17342 bound_to 10162
  140.1839  144.4817  150.6514 LP  0  0  0  0  0  0  0  0  0  0  0  0  # atno 17343 bound_to 10162
  157.7324  130.9714  150.1925 LP  0  0  0  0  0  0  0  0  0  0  0  0  # atno 17370 bound_to 10713
  156.2621  130.3712  149.8119 LP  0  0  0  0  0  0  0  0  0  0  0  0  # atno 17371 bound_to 10713
  140.7963  134.3560  157.5451 LP  0  0  0  0  0  0  0  0  0  0  0  0  # atno 17394 bound_to 11000
  139.8779  134.9170  156.3169 LP  0  0  0  0  0  0  0  0  0  0  0  0  # atno 17395 bound_to 11000

$$$$
