AV-unprocessed.smi:160|AV-procd|sdf|1350|dock2
  -GOLD-   2262019 53D 1   1.00000     0.00000
 Structure written by MMmdl.
 29 30  0  0  0  0  0  0  0  0  1 V2000
  154.3036  138.3694  159.5283 N   0  0  0  0  0  0  0  0  0  0  0  0
  153.0612  137.8756  159.5048 C   0  0  0  0  0  0  0  0  0  0  0  0
  152.7119  136.9375  160.2196 O   0  0  0  0  0  0  0  0  0  0  0  0
  152.1037  138.5309  158.5484 C   0  0  0  0  0  0  0  0  0  0  0  0
  150.7935  138.1498  158.4874 N   0  0  0  0  0  0  0  0  0  0  0  0
  150.3783  138.9836  157.5424 C   0  0  0  0  0  0  0  0  0  0  0  0
  151.3320  139.7885  157.0623 N   0  0  0  0  0  0  0  0  0  0  0  0
  151.2414  140.8626  156.0173 C   0  0  1  0  0  0  0  0  0  0  0  0
  150.8550  140.2524  154.8252 O   0  0  0  0  0  0  0  0  0  0  0  0
  149.5014  140.5660  154.4928 C   0  0  1  0  0  0  0  0  0  0  0  0
  148.7277  139.2771  154.1709 C   0  0  0  0  0  0  0  0  0  0  0  0
  149.4574  138.4885  153.2553 O   0  0  0  0  0  0  0  0  0  0  0  0
  148.9342  141.3346  155.6976 C   0  0  2  0  0  0  0  0  0  0  0  0
  148.0626  142.3598  155.2633 O   0  0  0  0  0  0  0  0  0  0  0  0
  150.1782  141.9241  156.3452 C   0  0  1  0  0  0  0  0  0  0  0  0
  149.9930  142.1446  157.7318 O   0  0  0  0  0  0  0  0  0  0  0  0
  152.4821  139.5112  157.7270 N   0  0  0  0  0  0  0  0  0  0  0  0
  152.2540  141.2626  155.9531 H   0  0  0  0  0  0  0  0  0  0  0  0
  149.5260  141.2261  153.6234 H   0  0  0  0  0  0  0  0  0  0  0  0
  148.4146  140.6625  156.3819 H   0  0  0  0  0  0  0  0  0  0  0  0
  150.4705  142.8513  155.8499 H   0  0  0  0  0  0  0  0  0  0  0  0
  154.9926  137.9701  160.1485 H   0  0  0  0  0  0  0  0  0  0  0  0
  154.5444  139.1399  158.9215 H   0  0  0  0  0  0  0  0  0  0  0  0
  149.3567  139.0074  157.1922 H   0  0  0  0  0  0  0  0  0  0  0  0
  148.5087  138.7060  155.0733 H   0  0  0  0  0  0  0  0  0  0  0  0
  147.7736  139.5196  153.7020 H   0  0  0  0  0  0  0  0  0  0  0  0
  149.6647  139.0180  152.5005 H   0  0  0  0  0  0  0  0  0  0  0  0
  148.5545  143.1634  155.1939 H   0  0  0  0  0  0  0  0  0  0  0  0
  150.7820  142.5266  158.0846 H   0  0  0  0  0  0  0  0  0  0  0  0
  1  2  1  0  0  0  0
  1 22  1  0  0  0  0
  1 23  1  0  0  0  0
  2  3  2  0  0  0  0
  2  4  1  0  0  0  0
  4 17  2  0  0  0  0
  4  5  1  0  0  0  0
  5  6  2  0  0  0  0
  6  7  1  0  0  0  0
  6 24  1  0  0  0  0
  7  8  1  0  0  0  0
  7 17  1  0  0  0  0
  8 18  1  0  0  0  0
  8 15  1  0  0  0  0
  8  9  1  0  0  0  0
  9 10  1  0  0  0  0
 10 19  1  0  0  0  0
 10 11  1  0  0  0  0
 10 13  1  0  0  0  0
 11 12  1  0  0  0  0
 11 25  1  0  0  0  0
 11 26  1  0  0  0  0
 12 27  1  0  0  0  0
 13 20  1  0  0  0  0
 13 14  1  0  0  0  0
 13 15  1  0  0  0  0
 14 28  1  0  0  0  0
 15 21  1  0  0  0  0
 15 16  1  0  0  0  0
 16 29  1  0  0  0  0
M  END
> <s_m_source_file>
AV-unprocessed.smi

> <i_m_source_file_index>
160

> <i_lp_mmshare_version>
43012

> <i_f3d_flags>
0

> <s_epik_input>
W05IMl1DKD1PKWMxbltjSF1uKG4xKVtDQEBIXTJPW0NASF0oW0NIMl1bT0hdKVtDQEBIXShbT0hdKVtDQEhdMltPSF0=

> <s_epik_cmdline>
J2VwaWtfcHl0aG9uJywgJy1waCcsICc3LjAnLCAnLXRuJywgJzgnLCAnLW1hJywgJzIwMCcsICctbWV0YWxfYmluZGluZycsICctaW1hZScsICc8aW5maWxlLm1hZT4nLCAnLW9tYWUnLCAnPG91dGZpbGUubWFlPic=

> <r_lp_tautomer_probability>
1

> <r_epik_Ionization_Penalty>
1.06932e-05

> <r_epik_Ionization_Penalty_Charging>
0

> <r_epik_Ionization_Penalty_Neutral>
1.06932e-05

> <r_epik_State_Penalty>
-0

> <r_epik_Charging_Adjusted_Penalty>
0

> <i_epik_Tot_Q>
0

> <i_epik_Tot_abs_Q>
0

> <r_epik_Metal_State_Penalty>
0.0142097

> <b_epik_Metal_Only>
0

> <s_epik_Chemistry_Notes>
This compound contains an acetal/aminal-like group ( X-CH(R)-Y where X, Y are N, S, or O) that may be acid/base labile, releasing an aldehyde.

> <s_lp_Force_Field>
OPLS_2005

> <r_lp_Energy>
40.695

> <b_lp_Chiralities_Consistent>
1

> <s_lp_Variant>
AV-unprocessed.smi:160-8

> <Gold.Version>
5.8.1

> <Gold.Id.Protein>
6NUR|6NUR_protein|mol2

> <Gold.PLP.Fitness>
39.0088

> <Gold.PLP.PLP>
-24.1695

> <Gold.PLP.part.hbond>
-6.0000

> <Gold.PLP.part.metal>
0.0000

> <Gold.PLP.part.buried>
-3.0706

> <Gold.PLP.part.nonpolar>
-14.3905

> <Gold.PLP.part.repulsive>
0.1516

> <Gold.PLP.ligand.clash>
0.0000

> <Gold.PLP.ligand.torsion>
0.0859

> <Gold.PLP.Chemscore.Hbond>
5.0000

> <Gold.PLP.Chemscore.CHOScore>
0.0000

> <Gold.PLP.Chemscore.Metal>
0.0000

> <Gold.Chemscore.Hbonds>
donor molecule, donor type, donor heavy atom, donor atom, acceptor molecule, acceptor atom, score
      L1  H    12    27       P1  7957  1.00
      L1  H    14    28       P1  8028  1.00
      P1  H  6896  6908       L1     3  1.00
      P1  H  7989  7998       L1     9  1.00
      P1  H  7997  8009       L1    17  0.47

> <Gold.PLP.Chemscore.Internal.Correction>
0.0110

> <Gold.Rescore>
     Score         DG    S(hbond)    S(metal)    S(lipo)     H(rot)  DE(clash)    DE(int)     intcor
     13.32     -13.49       4.63        0.00      25.14       4.06       0.01       0.16       ----

> <Gold.Chemscore.Fitness>
13.3211

> <Gold.Chemscore.DG>
-13.4907

> <Gold.Chemscore.ZeroCoef>
-5.4800

> <Gold.Chemscore.Hbond>
4.6296

> <Gold.Chemscore.Metal>
0.0000

> <Gold.Chemscore.Lipo>
25.1409

> <Gold.Chemscore.Internal_Hbond>
0.0000

> <Gold.Chemscore.DEClash>
0.0120

> <Gold.Chemscore.DEInternal>
0.1576

> <Gold.Chemscore.Rot>
4.0600

> <Gold.Chemscore.Internal.Correction>
   9.000000E+99

> <Gold.Chemscore.Hbonds>
donor molecule, donor type, donor heavy atom, donor atom, acceptor molecule, acceptor atom, score
      L1  H    12    27       P1  7957  0.85
      L1  H    14    28       P1  8028  0.96
      P1  H  6896  6908       L1     3  0.95
      P1  H  7989  7998       L1     9  0.22
      P1  H  7997  8009       L1    17  0.45

> <Gold.Chemscore.Hbond.Weighted>
-15.4628

> <Gold.Chemscore.Metal.Weighted>
-0.0000

> <Gold.Chemscore.Lipo.Weighted>
-2.9415

> <Gold.Chemscore.Internal_Hbond.Weighted>
0.0000

> <Gold.Chemscore.DEClash.Weighted>
0.0120

> <Gold.Chemscore.DEInternal.Weighted>
0.1576

> <Gold.Chemscore.Rot.Weighted>
10.3936

> <Gold.Chemscore.Internal.Correction.Weighted>
   9.000000E+99

> <Gold.Protein.RotatedTorsions>
[ 6907 6896 6895 6894 ] final  -91.63 input  -60.11 | X-H torsion
[ 7974 7965 7964 7962 ] final   22.90 input  175.53 | X-H torsion
[ 8008 7997 7996 7995 ] final  176.89 input   59.86 | X-H torsion
[ 10167 10162 10161 10158 ] final  123.55 input  -65.29 | X-H torsion
[ 10718 10713 10712 10709 ] final   45.24 input   66.30 | X-H torsion
[ 10763 10752 10751 10750 ] final  -63.84 input  -60.55 | X-H torsion
[ 11005 11000 10999 10996 ] final  162.10 input  -57.11 | X-H torsion

> <Gold.Protein.ActiveResidues>
 VAL166  LYS551  ARG553  GLY616  TRP617  ASP618  TYR619  PRO620  LYS621  CYS622 
 ASP623  PHE694  ASN695  SER759  ASP760  ASP761  ALA762  ILE779  LEU786  VAL792 
 PHE793  MET794  SER795  GLU796  ALA797  LYS798  CYS799  TRP800  GLU811  SER814 

> <Gold.Protein.RotatedAtoms>
  150.6895  134.2248  159.4410 H   0  0  0  0  0  0  0  0  0  0  0  0  # atno 6907 bound_to 6896
  152.0202  134.9824  160.0579 H   0  0  0  0  0  0  0  0  0  0  0  0  # atno 6908 bound_to 6896
  152.1404  133.4426  159.4801 H   0  0  0  0  0  0  0  0  0  0  0  0  # atno 6909 bound_to 6896
  146.2008  139.7819  142.8763 H   0  0  0  0  0  0  0  0  0  0  0  0  # atno 7974 bound_to 7965
  156.0716  140.1372  156.9822 H   0  0  0  0  0  0  0  0  0  0  0  0  # atno 8008 bound_to 7997
  154.4535  140.0970  156.6739 H   0  0  0  0  0  0  0  0  0  0  0  0  # atno 8009 bound_to 7997
  155.5219  140.3456  155.4411 H   0  0  0  0  0  0  0  0  0  0  0  0  # atno 8010 bound_to 7997
  139.5793  144.6978  151.3571 H   0  0  0  0  0  0  0  0  0  0  0  0  # atno 10167 bound_to 10162
  157.4355  130.8050  149.7643 H   0  0  0  0  0  0  0  0  0  0  0  0  # atno 10718 bound_to 10713
  154.3212  135.6196  153.5508 H   0  0  0  0  0  0  0  0  0  0  0  0  # atno 10763 bound_to 10752
  152.9820  135.5724  154.5068 H   0  0  0  0  0  0  0  0  0  0  0  0  # atno 10764 bound_to 10752
  154.4736  135.2860  155.1600 H   0  0  0  0  0  0  0  0  0  0  0  0  # atno 10765 bound_to 10752
  140.2224  134.8186  157.3233 H   0  0  0  0  0  0  0  0  0  0  0  0  # atno 11005 bound_to 11000
  145.3490  141.0303  143.3349 LP  0  0  0  0  0  0  0  0  0  0  0  0  # atno 17320 bound_to 7965
  144.8680  139.5080  143.6781 LP  0  0  0  0  0  0  0  0  0  0  0  0  # atno 17321 bound_to 7965
  140.7073  143.7482  150.7503 LP  0  0  0  0  0  0  0  0  0  0  0  0  # atno 17342 bound_to 10162
  140.1010  143.4788  152.2425 LP  0  0  0  0  0  0  0  0  0  0  0  0  # atno 17343 bound_to 10162
  155.9929  130.3928  150.2924 LP  0  0  0  0  0  0  0  0  0  0  0  0  # atno 17370 bound_to 10713
  157.1084  131.0215  151.3058 LP  0  0  0  0  0  0  0  0  0  0  0  0  # atno 17371 bound_to 10713
  140.1836  134.4459  155.7757 LP  0  0  0  0  0  0  0  0  0  0  0  0  # atno 17394 bound_to 11000
  141.2222  133.6995  156.7910 LP  0  0  0  0  0  0  0  0  0  0  0  0  # atno 17395 bound_to 11000

$$$$
