#       Name:                AV-unprocessed.smi:3204
#       Creating user name   scv26
#       Creation time:       Fri Mar 27 18:08:34 2020


#       File generated by GOLD software.
#

@<TRIPOS>MOLECULE
AV-unprocessed.smi:3204
    36    37     1
SMALL
NO_CHARGES


@<TRIPOS>ATOM
      1 ****        -3.4276  -3.0765   1.0560 C.3            1 S1                 0.0000
      2 ****        -3.1238  -2.5960  -0.3675 C.3            1 S1                 0.0000
      3 ****        -2.3232  -1.3070  -0.3833 C.ar           1 S1                 0.0000
      4 ****        -3.0171  -0.1586  -0.2176 N.ar           1 S1                 0.0000
      5 ****        -2.3132   0.9760  -0.2283 C.ar           1 S1                 0.0000
      6 ****        -0.9920   1.0952  -0.3830 N.ar           1 S1                 0.0000
      7 ****        -0.2813  -0.0466  -0.5448 C.ar           1 S1                 0.0000
      8 ****         1.1092   0.0206  -0.7130 N.pl3          1 S1                 0.0000
      9 ****         1.8284   1.2873  -0.6349 C.3            1 S1                 0.0000
     10 ****         3.2724   1.1352  -1.1161 C.3            1 S1                 0.0000
     11 ****         3.9682   2.1467  -0.4109 O.3            1 S1                 0.0000
     12 ****         3.4859   2.1258   0.9235 C.3            1 S1                 0.0000
     13 ****         1.9906   1.8070   0.7975 C.3            1 S1                 0.0000
     14 ****         1.2428   2.9918   0.9808 O.3            1 S1                 0.0000
     15 ****        -0.9208  -1.3051  -0.5507 C.ar           1 S1                 0.0000
     16 ****        -0.2208  -2.4554  -0.7070 F              1 S1                 0.0000
     17 ****        -4.0010  -4.0035   1.0385 H              1 S1                 0.0000
     18 ****        -4.0083  -2.3362   1.6071 H              1 S1                 0.0000
     19 ****        -2.5082  -3.2638   1.6115 H              1 S1                 0.0000
     20 ****        -2.5815  -3.3699  -0.9114 H              1 S1                 0.0000
     21 ****        -4.0572  -2.4408  -0.9104 H              1 S1                 0.0000
     22 ****        -2.8694   1.8924  -0.0982 H              1 S1                 0.0000
     23 ****         1.6377  -0.8334  -0.8184 H              1 S1                 0.0000
     24 ****         1.3373   2.0361  -1.2588 H              1 S1                 0.0000
     25 ****         3.6884   0.1643  -0.8397 H              1 S1                 0.0000
     26 ****         3.3705   1.2543  -2.1954 H              1 S1                 0.0000
     27 ****         3.9958   1.3269   1.4640 H              1 S1                 0.0000
     28 ****         3.6942   3.0632   1.4407 H              1 S1                 0.0000
     29 ****         1.6923   1.0752   1.5497 H              1 S1                 0.0000
     30 ****         0.3321   2.7951   0.8210 H              1 S1                 0.0000
     31 ****        -4.0093  -0.1589  -0.0931 LP             1 S1                 0.0000
     32 ****        -0.5459   1.9902  -0.3796 LP             1 S1                 0.0000
     33 ****         3.7916   3.0390  -0.8264 LP             1 S1                 0.0000
     34 ****         4.9508   1.9613  -0.4243 LP             1 S1                 0.0000
     35 ****         1.5554   3.6918   0.3387 LP             1 S1                 0.0000
     36 ****         1.3580   3.3231   1.9172 LP             1 S1                 0.0000
@<TRIPOS>BOND
    1    1    2 1     
    2    1   17 1     
    3    1   18 1     
    4    1   19 1     
    5    2    3 1     
    6    2   20 1     
    7    2   21 1     
    8    3   15 ar    
    9    3    4 ar    
   10    4    5 ar    
   11    5    6 ar    
   12    5   22 1     
   13    6    7 ar    
   14    7    8 1     
   15    7   15 ar    
   16    8    9 1     
   17    8   23 1     
   18    9   13 1     
   19    9   10 1     
   20    9   24 1     
   21   10   11 1     
   22   10   25 1     
   23   10   26 1     
   24   11   12 1     
   25   12   13 1     
   26   12   27 1     
   27   12   28 1     
   28   13   14 1     
   29   13   29 1     
   30   14   30 1     
   31   15   16 1     
   32    4   31 1     
   33    6   32 1     
   34   11   33 1     
   35   11   34 1     
   36   14   35 1     
   37   14   36 1     
@<TRIPOS>SUBSTRUCTURE
      1 S1             1
@<TRIPOS>SET
LONE_PAIRS      STATIC     ATOMS    <user>   **** ""
6 31 32 33 34 35 36
DONOR_HYDROGENS      STATIC     ATOMS    <user>   **** ""
2 23 30
ATOM$BLUE        STATIC     ATOMS    COLORGROUP SYSTEM
6 31 32 33 34 35 36
ATOM$RED        STATIC     ATOMS    COLORGROUP SYSTEM
2 23 30
