#       Name:                AV-unprocessed.smi:77
#       Creating user name   scv26
#       Creation time:       Thu Mar 26 17:12:34 2020


#       File generated by GOLD software.
#

@<TRIPOS>MOLECULE
AV-unprocessed.smi:77
    66    70     1
SMALL
NO_CHARGES


@<TRIPOS>ATOM
      1 ****        -3.7418   0.6634   1.1497 O.2            1 S1                 0.0000
      2 ****        -3.5731  -0.3431   0.4594 C.2            1 S1                 0.0000
      3 ****        -2.7987  -0.2751  -0.8636 C.3            1 S1                 0.0000
      4 ****        -2.4250   1.0928  -1.2462 N.pl3          1 S1                 0.0000
      5 ****        -1.1049   1.4267  -1.1729 C.ar           1 S1                 0.0000
      6 ****        -0.5365   2.1093  -2.2040 N.ar           1 S1                 0.0000
      7 ****         0.7544   2.4491  -2.1701 C.ar           1 S1                 0.0000
      8 ****         1.6540   2.2076  -1.2168 N.ar           1 S1                 0.0000
      9 ****         1.0993   1.5243  -0.1763 C.ar           1 S1                 0.0000
     10 ****        -0.2585   1.1038  -0.0695 C.ar           1 S1                 0.0000
     11 ****        -0.4486   0.4573   1.1470 N.2            1 S1                 0.0000
     12 ****         0.7228   0.4864   1.7190 C.2            1 S1                 0.0000
     13 ****         1.7186   1.0844   0.9816 N.pl3          1 S1                 0.0000
     14 ****         3.1056   1.2534   1.3809 C.3            1 S1                 0.0000
     15 ****         4.1523   0.6156   0.4238 C.3            1 S1                 0.0000
     16 ****         5.5718   1.0399   0.8733 C.3            1 S1                 0.0000
     17 ****         5.7521   2.4368   0.7617 O.3            1 S1                 0.0000
     18 ****         4.0403  -0.9353   0.3152 C.3            1 S1                 0.0000
     19 ****         2.7927  -1.4749  -0.3705 C.3            1 S1                 0.0000
     20 ****         3.1985  -2.8910  -0.7616 C.3            1 S1                 0.0000
     21 ****         4.6010  -2.8460  -0.9826 O.3            1 S1                 0.0000
     22 ****         5.1147  -1.5865  -0.5673 C.3            1 S1                 0.0000
     23 ****        -3.2441   1.7378  -2.2722 C.3            1 S1                 0.0000
     24 ****        -3.5125   3.2237  -2.1774 C.3            1 S1                 0.0000
     25 ****        -4.6230   2.2374  -1.9060 C.3            1 S1                 0.0000
     26 ****        -4.0339  -1.5550   0.8001 N.am           1 S1                 0.0000
     27 ****        -4.7698  -1.8598   1.9842 C.3            1 S1                 0.0000
     28 ****        -4.5870  -3.2352   2.5887 C.3            1 S1                 0.0000
     29 ****        -5.8697  -2.8942   1.8821 C.3            1 S1                 0.0000
     30 ****        -1.9244  -0.9249  -0.8021 H              1 S1                 0.0000
     31 ****        -3.4264  -0.7033  -1.6468 H              1 S1                 0.0000
     32 ****         1.1185   2.9901  -3.0307 H              1 S1                 0.0000
     33 ****         0.8951   0.0563   2.6948 H              1 S1                 0.0000
     34 ****         3.2726   2.3271   1.4688 H              1 S1                 0.0000
     35 ****         3.2298   0.8454   2.3846 H              1 S1                 0.0000
     36 ****         4.0039   1.0241  -0.5762 H              1 S1                 0.0000
     37 ****         5.7618   0.7321   1.9021 H              1 S1                 0.0000
     38 ****         6.3426   0.5814   0.2558 H              1 S1                 0.0000
     39 ****         6.6336   2.6495   1.0279 H              1 S1                 0.0000
     40 ****         4.1037  -1.3723   1.3131 H              1 S1                 0.0000
     41 ****         1.9107  -1.4860   0.2671 H              1 S1                 0.0000
     42 ****         2.5642  -0.8912  -1.2634 H              1 S1                 0.0000
     43 ****         2.9996  -3.5842   0.0562 H              1 S1                 0.0000
     44 ****         2.6662  -3.2463  -1.6442 H              1 S1                 0.0000
     45 ****         5.2972  -0.9844  -1.4587 H              1 S1                 0.0000
     46 ****         6.0641  -1.7163  -0.0473 H              1 S1                 0.0000
     47 ****        -3.1387   1.3354  -3.2783 H              1 S1                 0.0000
     48 ****        -3.1011   3.7613  -1.3253 H              1 S1                 0.0000
     49 ****        -3.5516   3.7850  -3.1084 H              1 S1                 0.0000
     50 ****        -5.4058   2.1440  -2.6559 H              1 S1                 0.0000
     51 ****        -4.9524   2.1325  -0.8746 H              1 S1                 0.0000
     52 ****        -3.8459  -2.3236   0.1729 H              1 S1                 0.0000
     53 ****        -4.9401  -1.0483   2.6905 H              1 S1                 0.0000
     54 ****        -3.9080  -3.9249   2.0907 H              1 S1                 0.0000
     55 ****        -4.6177  -3.3150   3.6735 H              1 S1                 0.0000
     56 ****        -6.7564  -2.7444   2.4947 H              1 S1                 0.0000
     57 ****        -6.0468  -3.3550   0.9122 H              1 S1                 0.0000
     58 ****        -3.3715   1.5428   0.8504 LP             1 S1                 0.0000
     59 ****        -4.2490   0.6010   2.0092 LP             1 S1                 0.0000
     60 ****        -1.0924   2.3595  -2.9968 LP             1 S1                 0.0000
     61 ****         2.6120   2.4911  -1.2596 LP             1 S1                 0.0000
     62 ****        -1.2940   0.0594   1.5031 LP             1 S1                 0.0000
     63 ****         5.0985   2.9091   1.3530 LP             1 S1                 0.0000
     64 ****         5.6090   2.7202  -0.1866 LP             1 S1                 0.0000
     65 ****         4.7879  -2.9758  -1.9564 LP             1 S1                 0.0000
     66 ****         5.0431  -3.5738  -0.4585 LP             1 S1                 0.0000
@<TRIPOS>BOND
    1    1    2 2     
    2    2    3 1     
    3    2   26 am    
    4    3    4 1     
    5    3   30 1     
    6    3   31 1     
    7    4    5 1     
    8    4   23 1     
    9    5   10 ar    
   10    5    6 ar    
   11    6    7 ar    
   12    7    8 ar    
   13    7   32 1     
   14    8    9 ar    
   15    9   13 1     
   16    9   10 ar    
   17   10   11 1     
   18   11   12 2     
   19   12   13 1     
   20   12   33 1     
   21   13   14 1     
   22   14   15 1     
   23   14   34 1     
   24   14   35 1     
   25   15   16 1     
   26   15   18 1     
   27   15   36 1     
   28   16   17 1     
   29   16   37 1     
   30   16   38 1     
   31   17   39 1     
   32   18   22 1     
   33   18   19 1     
   34   18   40 1     
   35   19   20 1     
   36   19   41 1     
   37   19   42 1     
   38   20   21 1     
   39   20   43 1     
   40   20   44 1     
   41   21   22 1     
   42   22   45 1     
   43   22   46 1     
   44   23   25 1     
   45   23   24 1     
   46   23   47 1     
   47   24   25 1     
   48   24   48 1     
   49   24   49 1     
   50   25   50 1     
   51   25   51 1     
   52   26   27 1     
   53   26   52 1     
   54   27   29 1     
   55   27   28 1     
   56   27   53 1     
   57   28   29 1     
   58   28   54 1     
   59   28   55 1     
   60   29   56 1     
   61   29   57 1     
   62    1   58 1     
   63    1   59 1     
   64    6   60 1     
   65    8   61 1     
   66   11   62 1     
   67   17   63 1     
   68   17   64 1     
   69   21   65 1     
   70   21   66 1     
@<TRIPOS>SUBSTRUCTURE
      1 S1             1
@<TRIPOS>SET
LONE_PAIRS      STATIC     ATOMS    <user>   **** ""
9 58 59 60 61 62 63 64 65 66
DONOR_HYDROGENS      STATIC     ATOMS    <user>   **** ""
2 39 52
ATOM$BLUE        STATIC     ATOMS    COLORGROUP SYSTEM
9 58 59 60 61 62 63 64 65 66
ATOM$RED        STATIC     ATOMS    COLORGROUP SYSTEM
2 39 52
