AV-unprocessed.smi:2159|AV-procd|sdf|8796|dock10
  -GOLD-   2272011583D 1   1.00000     0.00000
 Structure written by MMmdl.
 48 50  0  0  0  0  0  0  0  0  2 V2000
  153.3926  136.6011  160.7135 O   0  0  0  0  0  0  0  0  0  0  0  0
  153.9081  137.0881  161.7204 C   0  0  0  0  0  0  0  0  0  0  0  0
  153.9412  138.6058  161.9226 C   0  0  0  0  0  0  0  0  0  0  0  0
  154.5701  139.3566  160.7318 C   0  0  0  0  0  0  0  0  0  0  0  0
  153.8732  140.6180  160.4690 N   0  0  0  0  0  0  0  0  0  0  0  0
  153.1834  140.8847  159.3435 C   0  0  0  0  0  0  0  0  0  0  0  0
  153.1086  140.1870  158.3327 O   0  0  0  0  0  0  0  0  0  0  0  0
  152.4003  142.1745  159.5403 C   0  0  2  0  0  0  0  0  0  0  0  0
  152.1539  143.1707  158.4063 C   0  0  0  0  0  0  0  0  0  0  0  0
  151.3135  144.3307  159.0040 C   0  0  0  0  0  0  0  0  0  0  0  0
  151.9008  144.9274  160.3174 C   0  0  0  0  0  0  0  0  0  0  0  0
  152.3149  143.8599  161.3649 C   0  0  0  0  0  0  0  0  0  0  0  0
  153.2013  142.8479  160.6374 C   0  0  1  0  0  0  0  0  0  0  0  0
  153.8178  141.6462  161.3371 C   0  0  0  0  0  0  0  0  0  0  0  0
  154.2410  141.6684  162.4924 O   0  0  0  0  0  0  0  0  0  0  0  0
  154.4749  136.3458  162.6842 N   0  0  0  0  0  0  0  0  0  0  0  0
  154.5553  134.8897  162.6744 C   0  0  0  0  0  0  0  0  0  0  0  0
  154.6350  134.3185  164.1005 C   0  0  0  0  0  0  0  0  0  0  0  0
  154.0614  132.9181  164.1913 C   0  0  0  0  0  0  0  0  0  0  0  0
  153.1748  132.5315  165.2198 C   0  0  0  0  0  0  0  0  0  0  0  0
  152.6776  131.2114  165.2402 C   0  0  0  0  0  0  0  0  0  0  0  0
  153.0766  130.3076  164.2335 C   0  0  0  0  0  0  0  0  0  0  0  0
  153.9632  130.7475  163.2294 C   0  0  0  0  0  0  0  0  0  0  0  0
  154.4169  132.0201  163.2438 N   0  3  0  0  0  0  0  0  0  0  0  0
  152.9265  138.9705  162.0909 H   0  0  0  0  0  0  0  0  0  0  0  0
  154.5033  138.8130  162.8339 H   0  0  0  0  0  0  0  0  0  0  0  0
  155.6257  139.5595  160.9230 H   0  0  0  0  0  0  0  0  0  0  0  0
  154.5477  138.7283  159.8394 H   0  0  0  0  0  0  0  0  0  0  0  0
  151.4281  141.8588  159.9261 H   0  0  0  0  0  0  0  0  0  0  0  0
  153.0970  143.5440  158.0046 H   0  0  0  0  0  0  0  0  0  0  0  0
  151.6186  142.6972  157.5826 H   0  0  0  0  0  0  0  0  0  0  0  0
  151.1919  145.1198  158.2614 H   0  0  0  0  0  0  0  0  0  0  0  0
  150.3089  143.9606  159.2133 H   0  0  0  0  0  0  0  0  0  0  0  0
  152.7778  145.5243  160.0636 H   0  0  0  0  0  0  0  0  0  0  0  0
  151.1857  145.6213  160.7602 H   0  0  0  0  0  0  0  0  0  0  0  0
  152.8535  144.3254  162.1909 H   0  0  0  0  0  0  0  0  0  0  0  0
  151.4356  143.3726  161.7885 H   0  0  0  0  0  0  0  0  0  0  0  0
  154.0463  143.3901  160.2062 H   0  0  0  0  0  0  0  0  0  0  0  0
  154.8758  136.8233  163.4786 H   0  0  0  0  0  0  0  0  0  0  0  0
  153.6712  134.5019  162.1675 H   0  0  0  0  0  0  0  0  0  0  0  0
  155.4157  134.5714  162.0828 H   0  0  0  0  0  0  0  0  0  0  0  0
  155.6709  134.2900  164.4413 H   0  0  0  0  0  0  0  0  0  0  0  0
  154.1021  134.9707  164.7937 H   0  0  0  0  0  0  0  0  0  0  0  0
  152.8781  133.2352  165.9841 H   0  0  0  0  0  0  0  0  0  0  0  0
  151.9988  130.8955  166.0188 H   0  0  0  0  0  0  0  0  0  0  0  0
  152.7077  129.2922  164.2320 H   0  0  0  0  0  0  0  0  0  0  0  0
  154.3211  130.1250  162.4221 H   0  0  0  0  0  0  0  0  0  0  0  0
  155.0586  132.3174  162.5078 H   0  0  0  0  0  0  0  0  0  0  0  0
  1  2  2  0  0  0  0
  2  3  1  0  0  0  0
  2 16  1  0  0  0  0
  3  4  1  0  0  0  0
  3 25  1  0  0  0  0
  3 26  1  0  0  0  0
  4  5  1  0  0  0  0
  4 27  1  0  0  0  0
  4 28  1  0  0  0  0
  5 14  1  0  0  0  0
  5  6  1  0  0  0  0
  6  7  2  0  0  0  0
  6  8  1  0  0  0  0
  8 13  1  0  0  0  0
  8  9  1  0  0  0  0
  8 29  1  0  0  0  0
  9 10  1  0  0  0  0
  9 30  1  0  0  0  0
  9 31  1  0  0  0  0
 10 11  1  0  0  0  0
 10 32  1  0  0  0  0
 10 33  1  0  0  0  0
 11 12  1  0  0  0  0
 11 34  1  0  0  0  0
 11 35  1  0  0  0  0
 12 13  1  0  0  0  0
 12 36  1  0  0  0  0
 12 37  1  0  0  0  0
 13 14  1  0  0  0  0
 13 38  1  0  0  0  0
 14 15  2  0  0  0  0
 16 17  1  0  0  0  0
 16 39  1  0  0  0  0
 17 18  1  0  0  0  0
 17 40  1  0  0  0  0
 17 41  1  0  0  0  0
 18 19  1  0  0  0  0
 18 42  1  0  0  0  0
 18 43  1  0  0  0  0
 19 24  1  0  0  0  0
 19 20  2  0  0  0  0
 20 21  1  0  0  0  0
 20 44  1  0  0  0  0
 21 22  2  0  0  0  0
 21 45  1  0  0  0  0
 22 23  1  0  0  0  0
 22 46  1  0  0  0  0
 23 24  2  0  0  0  0
 23 47  1  0  0  0  0
 24 48  1  0  0  0  0
M  CHG  1  24   1
M  END
> <s_m_source_file>
AV-unprocessed.smi

> <i_m_source_file_index>
2159

> <i_lp_mmshare_version>
43012

> <i_f3d_flags>
0

> <s_epik_input>
bjFbY0hdW2NIXVtjSF1bY0hdYzFbQ0gyXVtDSDJdW05IXUMoPU8pW0NIMl1bQ0gyXU4oQzI9TylDKD1PKVtDQEhdKFtDQEBIXTIzKVtDSDJdW0NIMl1bQ0gyXVtDSDJdMw==

> <s_epik_cmdline>
J2VwaWtfcHl0aG9uJywgJy1waCcsICc3LjAnLCAnLXRuJywgJzgnLCAnLW1hJywgJzIwMCcsICctbWV0YWxfYmluZGluZycsICctaW1hZScsICc8aW5maWxlLm1hZT4nLCAnLW9tYWUnLCAnPG91dGZpbGUubWFlPic=

> <r_lp_tautomer_probability>
1

> <r_epik_Ionization_Penalty>
1.85146

> <r_epik_Ionization_Penalty_Charging>
1.85146

> <r_epik_Ionization_Penalty_Neutral>
2.95922e-08

> <r_epik_State_Penalty>
1.96899

> <r_epik_Charging_Adjusted_Penalty>
3.82044

> <i_epik_Tot_Q>
1

> <i_epik_Tot_abs_Q>
1

> <r_epik_Metal_State_Penalty>
1.99467

> <b_epik_Metal_Only>
0

> <s_lp_Force_Field>
OPLS_2005

> <r_lp_Energy>
35.9889

> <b_lp_Chiralities_Consistent>
1

> <s_lp_Variant>
AV-unprocessed.smi:2159-6

> <Gold.Version>
5.8.1

> <Gold.Id.Protein>
6NUR|6NUR_protein|mol2

> <Gold.PLP.Fitness>
55.7364

> <Gold.PLP.PLP>
-52.1436

> <Gold.PLP.part.hbond>
-2.6603

> <Gold.PLP.part.metal>
0.0000

> <Gold.PLP.part.buried>
-6.0796

> <Gold.PLP.part.nonpolar>
-44.1984

> <Gold.PLP.part.repulsive>
0.0323

> <Gold.PLP.ligand.clash>
0.0000

> <Gold.PLP.ligand.torsion>
0.8256

> <Gold.PLP.Chemscore.Hbond>
1.7235

> <Gold.PLP.Chemscore.CHOScore>
0.0000

> <Gold.PLP.Chemscore.Metal>
0.0000

> <Gold.Chemscore.Hbonds>
donor molecule, donor type, donor heavy atom, donor atom, acceptor molecule, acceptor atom, score
      P1  H  6896  6909       L1     1  0.73
      P1  H  7997  8009       L1     7  0.96

> <Gold.PLP.Chemscore.Internal.Correction>
0.0736

> <Gold.Rescore>
     Score         DG    S(hbond)    S(metal)    S(lipo)     H(rot)  DE(clash)    DE(int)     intcor
     20.23     -21.84       1.88        0.00     132.02       2.10       0.89       0.72       ----

> <Gold.Chemscore.Fitness>
20.2346

> <Gold.Chemscore.DG>
-21.8440

> <Gold.Chemscore.ZeroCoef>
-5.4800

> <Gold.Chemscore.Hbond>
1.8812

> <Gold.Chemscore.Metal>
0.0000

> <Gold.Chemscore.Lipo>
132.0198

> <Gold.Chemscore.Internal_Hbond>
0.0000

> <Gold.Chemscore.DEClash>
0.8943

> <Gold.Chemscore.DEInternal>
0.7151

> <Gold.Chemscore.Rot>
2.0959

> <Gold.Chemscore.Internal.Correction>
   9.000000E+99

> <Gold.Chemscore.Hbonds>
donor molecule, donor type, donor heavy atom, donor atom, acceptor molecule, acceptor atom, score
      P1  H  6896  6909       L1     1  0.73
      P1  H  7997  8009       L1     7  0.90

> <Gold.Chemscore.Hbond.Weighted>
-6.2832

> <Gold.Chemscore.Metal.Weighted>
-0.0000

> <Gold.Chemscore.Lipo.Weighted>
-15.4463

> <Gold.Chemscore.Internal_Hbond.Weighted>
0.0000

> <Gold.Chemscore.DEClash.Weighted>
0.8943

> <Gold.Chemscore.DEInternal.Weighted>
0.7151

> <Gold.Chemscore.Rot.Weighted>
5.3655

> <Gold.Chemscore.Internal.Correction.Weighted>
   9.000000E+99

> <Gold.Protein.RotatedTorsions>
[ 6907 6896 6895 6894 ] final  157.36 input  -60.11 | X-H torsion
[ 7974 7965 7964 7962 ] final   38.30 input  175.53 | X-H torsion
[ 8008 7997 7996 7995 ] final  159.42 input   59.86 | X-H torsion
[ 10167 10162 10161 10158 ] final  -82.62 input  -65.29 | X-H torsion
[ 10718 10713 10712 10709 ] final  -21.77 input   66.30 | X-H torsion
[ 10763 10752 10751 10750 ] final  -38.24 input  -60.55 | X-H torsion
[ 11005 11000 10999 10996 ] final  -65.74 input  -57.11 | X-H torsion

> <Gold.Protein.ActiveResidues>
 VAL166  LYS551  ARG553  GLY616  TRP617  ASP618  TYR619  PRO620  LYS621  CYS622 
 ASP623  PHE694  ASN695  SER759  ASP760  ASP761  ALA762  ILE779  LEU786  VAL792 
 PHE793  MET794  SER795  GLU796  ALA797  LYS798  CYS799  TRP800  GLU811  SER814 

> <Gold.Protein.RotatedAtoms>
  152.0162  133.3880  159.4239 H   0  0  0  0  0  0  0  0  0  0  0  0  # atno 6907 bound_to 6896
  150.6894  134.3676  159.4987 H   0  0  0  0  0  0  0  0  0  0  0  0  # atno 6908 bound_to 6896
  152.1444  134.9037  160.0602 H   0  0  0  0  0  0  0  0  0  0  0  0  # atno 6909 bound_to 6896
  146.1073  139.5789  142.9375 H   0  0  0  0  0  0  0  0  0  0  0  0  # atno 7974 bound_to 7965
  156.2240  140.1831  156.7409 H   0  0  0  0  0  0  0  0  0  0  0  0  # atno 8008 bound_to 7997
  154.5910  140.0651  156.9267 H   0  0  0  0  0  0  0  0  0  0  0  0  # atno 8009 bound_to 7997
  155.2336  140.3316  155.4303 H   0  0  0  0  0  0  0  0  0  0  0  0  # atno 8010 bound_to 7997
  140.4303  143.2551  151.8769 H   0  0  0  0  0  0  0  0  0  0  0  0  # atno 10167 bound_to 10162
  156.5136  130.4616  149.6635 H   0  0  0  0  0  0  0  0  0  0  0  0  # atno 10718 bound_to 10713
  153.9096  135.6794  153.4751 H   0  0  0  0  0  0  0  0  0  0  0  0  # atno 10763 bound_to 10752
  153.1085  135.4794  154.8992 H   0  0  0  0  0  0  0  0  0  0  0  0  # atno 10764 bound_to 10752
  154.7534  135.3191  154.8471 H   0  0  0  0  0  0  0  0  0  0  0  0  # atno 10765 bound_to 10752
  141.1463  133.6687  156.6032 H   0  0  0  0  0  0  0  0  0  0  0  0  # atno 11005 bound_to 11000
  145.5736  141.0391  143.2161 LP  0  0  0  0  0  0  0  0  0  0  0  0  # atno 17320 bound_to 7965
  144.7481  139.7266  143.7284 LP  0  0  0  0  0  0  0  0  0  0  0  0  # atno 17321 bound_to 7965
  139.4785  144.5342  151.8622 LP  0  0  0  0  0  0  0  0  0  0  0  0  # atno 17342 bound_to 10162
  140.4435  144.1954  150.5892 LP  0  0  0  0  0  0  0  0  0  0  0  0  # atno 17343 bound_to 10162
  156.3217  130.7284  151.2197 LP  0  0  0  0  0  0  0  0  0  0  0  0  # atno 17370 bound_to 10713
  157.7447  131.0454  150.4841 LP  0  0  0  0  0  0  0  0  0  0  0  0  # atno 17371 bound_to 10713
  140.3672  134.7637  157.4574 LP  0  0  0  0  0  0  0  0  0  0  0  0  # atno 17394 bound_to 11000
  140.0739  134.5824  155.8612 LP  0  0  0  0  0  0  0  0  0  0  0  0  # atno 17395 bound_to 11000

$$$$
