AV-unprocessed.smi:1215|AV-procd|sdf|5097|dock5
  -GOLD-   22720 4153D 1   1.00000     0.00000
 Structure written by MMmdl.
 46 47  0  0  0  0  0  0  0  0  2 V2000
  150.7532  141.1700  157.4037 C   0  0  0  0  0  0  0  0  0  0  0  0
  151.3463  140.5994  156.1100 C   0  0  0  0  0  0  0  0  0  0  0  0
  151.0717  139.1825  155.9721 N   0  0  0  0  0  0  0  0  0  0  0  0
  150.3842  138.5397  154.9619 C   0  0  0  0  0  0  0  0  0  0  0  0
  150.3970  137.2166  155.2870 C   0  0  0  0  0  0  0  0  0  0  0  0
  149.7981  136.1872  154.5180 N   0  0  0  0  0  0  0  0  0  0  0  0
  149.6868  134.8906  154.8481 C   0  0  0  0  0  0  0  0  0  0  0  0
  150.1053  134.3863  155.8900 O   0  0  0  0  0  0  0  0  0  0  0  0
  149.0628  134.1901  153.8899 N   0  0  0  0  0  0  0  0  0  0  0  0
  148.7927  132.7576  153.9528 C   0  0  0  0  0  0  0  0  0  0  0  0
  147.5887  132.3709  153.0683 C   0  0  0  0  0  0  0  0  0  0  0  0
  147.6361  130.9563  152.5973 N   0  3  1  0  0  0  0  0  0  0  0  0
  148.2030  130.0496  153.6382 C   0  0  0  0  0  0  0  0  0  0  0  0
  148.3757  128.6138  153.1243 C   0  0  0  0  0  0  0  0  0  0  0  0
  147.0401  128.0576  152.6331 C   0  0  0  0  0  0  0  0  0  0  0  0
  146.4716  128.9895  151.5613 C   0  0  0  0  0  0  0  0  0  0  0  0
  146.3284  130.4424  152.0681 C   0  0  2  0  0  0  0  0  0  0  0  0
  145.7521  131.3008  150.9218 C   0  0  0  0  0  0  0  0  0  0  0  0
  151.1106  137.1258  156.5158 C   0  0  0  0  0  0  0  0  0  0  0  0
  151.5148  138.3203  156.9201 N   0  0  0  0  0  0  0  0  0  0  0  0
  150.9569  142.2375  157.4857 H   0  0  0  0  0  0  0  0  0  0  0  0
  151.1781  140.6825  158.2815 H   0  0  0  0  0  0  0  0  0  0  0  0
  149.6720  141.0340  157.4343 H   0  0  0  0  0  0  0  0  0  0  0  0
  150.9337  141.1203  155.2453 H   0  0  0  0  0  0  0  0  0  0  0  0
  152.4262  140.7526  156.0871 H   0  0  0  0  0  0  0  0  0  0  0  0
  149.9573  139.0683  154.1222 H   0  0  0  0  0  0  0  0  0  0  0  0
  149.4191  136.4675  153.6253 H   0  0  0  0  0  0  0  0  0  0  0  0
  148.7491  134.6812  153.0653 H   0  0  0  0  0  0  0  0  0  0  0  0
  149.6819  132.1983  153.6561 H   0  0  0  0  0  0  0  0  0  0  0  0
  148.6091  132.5201  154.9995 H   0  0  0  0  0  0  0  0  0  0  0  0
  146.6505  132.5514  153.5953 H   0  0  0  0  0  0  0  0  0  0  0  0
  147.5959  133.0522  152.2220 H   0  0  0  0  0  0  0  0  0  0  0  0
  149.1786  130.4013  153.9680 H   0  0  0  0  0  0  0  0  0  0  0  0
  147.5550  130.0549  154.5162 H   0  0  0  0  0  0  0  0  0  0  0  0
  149.1062  128.5957  152.3142 H   0  0  0  0  0  0  0  0  0  0  0  0
  148.7742  127.9789  153.9164 H   0  0  0  0  0  0  0  0  0  0  0  0
  147.1726  127.0530  152.2299 H   0  0  0  0  0  0  0  0  0  0  0  0
  146.3398  127.9743  153.4652 H   0  0  0  0  0  0  0  0  0  0  0  0
  147.1191  128.9676  150.6831 H   0  0  0  0  0  0  0  0  0  0  0  0
  145.5025  128.6090  151.2358 H   0  0  0  0  0  0  0  0  0  0  0  0
  145.6094  130.4472  152.8891 H   0  0  0  0  0  0  0  0  0  0  0  0
  144.9092  130.7985  150.4459 H   0  0  0  0  0  0  0  0  0  0  0  0
  146.4987  131.4890  150.1494 H   0  0  0  0  0  0  0  0  0  0  0  0
  145.3673  132.2592  151.2682 H   0  0  0  0  0  0  0  0  0  0  0  0
  151.3475  136.2630  157.1203 H   0  0  0  0  0  0  0  0  0  0  0  0
  148.2762  130.9397  151.8161 H   0  0  0  0  0  0  0  0  0  0  0  0
  1  2  1  0  0  0  0
  1 21  1  0  0  0  0
  1 22  1  0  0  0  0
  1 23  1  0  0  0  0
  2  3  1  0  0  0  0
  2 24  1  0  0  0  0
  2 25  1  0  0  0  0
  3 20  1  0  0  0  0
  3  4  1  0  0  0  0
  4  5  2  0  0  0  0
  4 26  1  0  0  0  0
  5  6  1  0  0  0  0
  5 19  1  0  0  0  0
  6  7  1  0  0  0  0
  6 27  1  0  0  0  0
  7  8  2  0  0  0  0
  7  9  1  0  0  0  0
  9 10  1  0  0  0  0
  9 28  1  0  0  0  0
 10 11  1  0  0  0  0
 10 29  1  0  0  0  0
 10 30  1  0  0  0  0
 11 12  1  0  0  0  0
 11 31  1  0  0  0  0
 11 32  1  0  0  0  0
 12 17  1  0  0  0  0
 12 13  1  0  0  0  0
 12 46  1  0  0  0  0
 13 14  1  0  0  0  0
 13 33  1  0  0  0  0
 13 34  1  0  0  0  0
 14 15  1  0  0  0  0
 14 35  1  0  0  0  0
 14 36  1  0  0  0  0
 15 16  1  0  0  0  0
 15 37  1  0  0  0  0
 15 38  1  0  0  0  0
 16 17  1  0  0  0  0
 16 39  1  0  0  0  0
 16 40  1  0  0  0  0
 17 18  1  0  0  0  0
 17 41  1  0  0  0  0
 18 42  1  0  0  0  0
 18 43  1  0  0  0  0
 18 44  1  0  0  0  0
 19 20  2  0  0  0  0
 19 45  1  0  0  0  0
M  CHG  1  12   1
M  END
> <s_m_source_file>
AV-unprocessed.smi

> <i_m_source_file_index>
1215

> <i_lp_mmshare_version>
43012

> <i_f3d_flags>
0

> <s_epik_input>
W0NIM11bQ0gyXW4xW2NIXWMoW2NIXW4xKVtOSF1DKD1PKVtOSF1bQ0gyXVtDSDJdTjJbQ0gyXVtDSDJdW0NIMl1bQ0gyXVtDQEhdMltDSDNd

> <s_epik_cmdline>
J2VwaWtfcHl0aG9uJywgJy1waCcsICc3LjAnLCAnLXRuJywgJzgnLCAnLW1hJywgJzIwMCcsICctbWV0YWxfYmluZGluZycsICctaW1hZScsICc8aW5maWxlLm1hZT4nLCAnLW9tYWUnLCAnPG91dGZpbGUubWFlPic=

> <r_lp_tautomer_probability>
1

> <r_epik_Ionization_Penalty>
0.00247187

> <r_epik_Ionization_Penalty_Charging>
0.00232067

> <r_epik_Ionization_Penalty_Neutral>
0.000151201

> <r_epik_State_Penalty>
0.00160128

> <r_epik_Charging_Adjusted_Penalty>
0.00392194

> <i_epik_Tot_Q>
1

> <i_epik_Tot_abs_Q>
1

> <r_epik_Metal_State_Penalty>
-0

> <b_epik_Metal_Only>
0

> <s_lp_Force_Field>
OPLS_2005

> <r_lp_Energy>
23.8268

> <b_lp_Chiralities_Consistent>
1

> <s_lp_Variant>
AV-unprocessed.smi:1215-4

> <Gold.Version>
5.8.1

> <Gold.Id.Protein>
6NUR|6NUR_protein|mol2

> <Gold.PLP.Fitness>
44.6499

> <Gold.PLP.PLP>
-37.3640

> <Gold.PLP.part.hbond>
-3.6747

> <Gold.PLP.part.metal>
0.0000

> <Gold.PLP.part.buried>
-3.6705

> <Gold.PLP.part.nonpolar>
-30.0853

> <Gold.PLP.part.repulsive>
0.1201

> <Gold.PLP.ligand.clash>
0.0000

> <Gold.PLP.ligand.torsion>
0.5209

> <Gold.PLP.Chemscore.Hbond>
2.7408

> <Gold.PLP.Chemscore.CHOScore>
0.0000

> <Gold.PLP.Chemscore.Metal>
0.0000

> <Gold.Chemscore.Hbonds>
donor molecule, donor type, donor heavy atom, donor atom, acceptor molecule, acceptor atom, score
      L1  H     6    27       P1  7948  1.00
      L1  H     9    28       P1  7948  0.86
      L1  H    12    46       P1 10747  1.00

> <Gold.PLP.Chemscore.Internal.Correction>
0.1054

> <Gold.Rescore>
     Score         DG    S(hbond)    S(metal)    S(lipo)     H(rot)  DE(clash)    DE(int)     intcor
     17.14     -19.01       2.24        0.00      86.61       1.59       0.37       1.50       ----

> <Gold.Chemscore.Fitness>
17.1394

> <Gold.Chemscore.DG>
-19.0137

> <Gold.Chemscore.ZeroCoef>
-5.4800

> <Gold.Chemscore.Hbond>
2.2375

> <Gold.Chemscore.Metal>
0.0000

> <Gold.Chemscore.Lipo>
86.6099

> <Gold.Chemscore.Internal_Hbond>
0.0000

> <Gold.Chemscore.DEClash>
0.3696

> <Gold.Chemscore.DEInternal>
1.5047

> <Gold.Chemscore.Rot>
1.5909

> <Gold.Chemscore.Internal.Correction>
   9.000000E+99

> <Gold.Chemscore.Hbonds>
donor molecule, donor type, donor heavy atom, donor atom, acceptor molecule, acceptor atom, score
      L1  H     6    27       P1  7948  0.80
      L1  H     9    28       P1  7948  0.16
      L1  H    12    46       P1 10747  1.00

> <Gold.Chemscore.Hbond.Weighted>
-7.4731

> <Gold.Chemscore.Metal.Weighted>
-0.0000

> <Gold.Chemscore.Lipo.Weighted>
-10.1334

> <Gold.Chemscore.Internal_Hbond.Weighted>
0.0000

> <Gold.Chemscore.DEClash.Weighted>
0.3696

> <Gold.Chemscore.DEInternal.Weighted>
1.5047

> <Gold.Chemscore.Rot.Weighted>
4.0728

> <Gold.Chemscore.Internal.Correction.Weighted>
   9.000000E+99

> <Gold.Protein.RotatedTorsions>
[ 6907 6896 6895 6894 ] final  -15.06 input  -60.11 | X-H torsion
[ 7974 7965 7964 7962 ] final -169.72 input  175.53 | X-H torsion
[ 8008 7997 7996 7995 ] final   69.82 input   59.86 | X-H torsion
[ 10167 10162 10161 10158 ] final   47.41 input  -65.29 | X-H torsion
[ 10718 10713 10712 10709 ] final   68.74 input   66.30 | X-H torsion
[ 10763 10752 10751 10750 ] final  -34.86 input  -60.55 | X-H torsion
[ 11005 11000 10999 10996 ] final -112.98 input  -57.11 | X-H torsion

> <Gold.Protein.ActiveResidues>
 VAL166  LYS551  ARG553  GLY616  TRP617  ASP618  TYR619  PRO620  LYS621  CYS622 
 ASP623  PHE694  ASN695  SER759  ASP760  ASP761  ALA762  ILE779  LEU786  VAL792 
 PHE793  MET794  SER795  GLU796  ALA797  LYS798  CYS799  TRP800  GLU811  SER814 

> <Gold.Protein.RotatedAtoms>
  151.3298  135.0839  159.9334 H   0  0  0  0  0  0  0  0  0  0  0  0  # atno 6907 bound_to 6896
  152.5237  133.9555  159.7702 H   0  0  0  0  0  0  0  0  0  0  0  0  # atno 6908 bound_to 6896
  150.9891  133.6115  159.2741 H   0  0  0  0  0  0  0  0  0  0  0  0  # atno 6909 bound_to 6896
  144.7181  140.2179  143.6319 H   0  0  0  0  0  0  0  0  0  0  0  0  # atno 7974 bound_to 7965
  155.7294  140.3492  155.5052 H   0  0  0  0  0  0  0  0  0  0  0  0  # atno 8008 bound_to 7997
  155.9197  140.1065  157.1238 H   0  0  0  0  0  0  0  0  0  0  0  0  # atno 8009 bound_to 7997
  154.4068  140.1252  156.4650 H   0  0  0  0  0  0  0  0  0  0  0  0  # atno 8010 bound_to 7997
  140.3039  144.2901  150.6213 H   0  0  0  0  0  0  0  0  0  0  0  0  # atno 10167 bound_to 10162
  157.6306  130.9389  150.0418 H   0  0  0  0  0  0  0  0  0  0  0  0  # atno 10718 bound_to 10713
  153.8537  135.6846  153.4790 H   0  0  0  0  0  0  0  0  0  0  0  0  # atno 10763 bound_to 10752
  153.1382  135.4668  154.9453 H   0  0  0  0  0  0  0  0  0  0  0  0  # atno 10764 bound_to 10752
  154.7791  135.3263  154.7977 H   0  0  0  0  0  0  0  0  0  0  0  0  # atno 10765 bound_to 10752
  141.0642  133.9486  157.2610 H   0  0  0  0  0  0  0  0  0  0  0  0  # atno 11005 bound_to 11000
  145.8529  139.2184  143.1761 LP  0  0  0  0  0  0  0  0  0  0  0  0  # atno 17320 bound_to 7965
  146.0244  140.8318  142.9907 LP  0  0  0  0  0  0  0  0  0  0  0  0  # atno 17321 bound_to 7965
  140.5627  143.2190  151.7737 LP  0  0  0  0  0  0  0  0  0  0  0  0  # atno 17342 bound_to 10162
  139.4909  144.4326  151.9855 LP  0  0  0  0  0  0  0  0  0  0  0  0  # atno 17343 bound_to 10162
  156.1508  130.3642  149.9442 LP  0  0  0  0  0  0  0  0  0  0  0  0  # atno 17370 bound_to 10713
  156.7462  130.9098  151.3635 LP  0  0  0  0  0  0  0  0  0  0  0  0  # atno 17371 bound_to 10713
  139.9461  135.0184  156.8855 LP  0  0  0  0  0  0  0  0  0  0  0  0  # atno 17394 bound_to 11000
  140.5807  134.0355  155.7463 LP  0  0  0  0  0  0  0  0  0  0  0  0  # atno 17395 bound_to 11000

$$$$
