#       Name:                AV-unprocessed.smi:1742
#       Creating user name   scv26
#       Creation time:       Fri Mar 27 08:23:59 2020


#       File generated by GOLD software.
#

@<TRIPOS>MOLECULE
AV-unprocessed.smi:1742
    37    38     1
SMALL
NO_CHARGES


@<TRIPOS>ATOM
      1 ****        -5.5751   1.0934   1.4956 C.3            1 S1                 0.0000
      2 ****        -5.0109  -0.3302   1.4245 C.3            1 S1                 0.0000
      3 ****        -3.5628  -0.3291   1.3554 N.pl3          1 S1                 0.0000
      4 ****        -2.7640  -0.3573   0.2298 C.2            1 S1                 0.0000
      5 ****        -1.4773  -0.3353   0.6888 C.2            1 S1                 0.0000
      6 ****        -0.2618  -0.3491  -0.0405 N.am           1 S1                 0.0000
      7 ****        -0.1095  -0.3805  -1.3783 C.2            1 S1                 0.0000
      8 ****        -1.0379  -0.3982  -2.1840 O.2            1 S1                 0.0000
      9 ****         1.1702  -0.3844  -1.7923 N.am           1 S1                 0.0000
     10 ****         1.6822  -0.4148  -3.1630 C.3            1 S1                 0.0000
     11 ****         3.1415   0.0755  -3.2130 C.3            1 S1                 0.0000
     12 ****         3.7498  -0.3123  -4.5666 C.3            1 S1                 0.0000
     13 ****         2.9018  -1.8526  -5.0849 S.o2           1 S1                 0.0000
     14 ****         2.2448  -1.6202  -6.3800 O.2            1 S1                 0.0000
     15 ****         3.7972  -3.0021  -4.8848 O.2            1 S1                 0.0000
     16 ****         1.6440  -1.8338  -3.7536 C.3            1 S1                 0.0000
     17 ****        -1.5722  -0.2934   2.1042 C.2            1 S1                 0.0000
     18 ****        -2.8363  -0.2877   2.4997 N.2            1 S1                 0.0000
     19 ****        -6.6645   1.0771   1.5293 H              1 S1                 0.0000
     20 ****        -5.2776   1.6785   0.6250 H              1 S1                 0.0000
     21 ****        -5.2221   1.6137   2.3864 H              1 S1                 0.0000
     22 ****        -5.3242  -0.9073   2.2957 H              1 S1                 0.0000
     23 ****        -5.4001  -0.8460   0.5459 H              1 S1                 0.0000
     24 ****        -3.1798  -0.3883  -0.7664 H              1 S1                 0.0000
     25 ****         0.5826  -0.3315   0.5125 H              1 S1                 0.0000
     26 ****         1.8715  -0.3487  -1.0665 H              1 S1                 0.0000
     27 ****         1.0934   0.2492  -3.7988 H              1 S1                 0.0000
     28 ****         3.2154   1.1488  -3.0351 H              1 S1                 0.0000
     29 ****         3.7124  -0.4162  -2.4238 H              1 S1                 0.0000
     30 ****         3.5459   0.4521  -5.3166 H              1 S1                 0.0000
     31 ****         4.8270  -0.4726  -4.5172 H              1 S1                 0.0000
     32 ****         1.9358  -2.5774  -3.0110 H              1 S1                 0.0000
     33 ****         0.6688  -2.1088  -4.1554 H              1 S1                 0.0000
     34 ****        -0.7841  -0.2668   2.8422 H              1 S1                 0.0000
     35 ****        -1.9832  -0.3894  -1.8579 LP             1 S1                 0.0000
     36 ****        -0.8478  -0.4213  -3.1655 LP             1 S1                 0.0000
     37 ****        -3.1802  -0.2590   3.4383 LP             1 S1                 0.0000
@<TRIPOS>BOND
    1    1    2 1     
    2    1   19 1     
    3    1   20 1     
    4    1   21 1     
    5    2    3 1     
    6    2   22 1     
    7    2   23 1     
    8    3   18 1     
    9    3    4 1     
   10    4    5 2     
   11    4   24 1     
   12    5    6 1     
   13    5   17 1     
   14    6    7 am    
   15    6   25 1     
   16    7    8 2     
   17    7    9 am    
   18    9   10 1     
   19    9   26 1     
   20   10   16 1     
   21   10   11 1     
   22   10   27 1     
   23   11   12 1     
   24   11   28 1     
   25   11   29 1     
   26   12   13 1     
   27   12   30 1     
   28   12   31 1     
   29   13   14 2     
   30   13   15 2     
   31   13   16 1     
   32   16   32 1     
   33   16   33 1     
   34   17   18 2     
   35   17   34 1     
   36    8   35 1     
   37    8   36 1     
   38   18   37 1     
@<TRIPOS>SUBSTRUCTURE
      1 S1             1
@<TRIPOS>SET
LONE_PAIRS      STATIC     ATOMS    <user>   **** ""
5 35 36 14 15 37
DONOR_HYDROGENS      STATIC     ATOMS    <user>   **** ""
2 25 26
ATOM$BLUE        STATIC     ATOMS    COLORGROUP SYSTEM
5 35 36 14 15 37
ATOM$RED        STATIC     ATOMS    COLORGROUP SYSTEM
2 25 26
