AV-unprocessed.smi:1703|AV-procd|sdf|6864|dock10
  -GOLD-   22720 8 53D 1   1.00000     0.00000
 Structure written by MMmdl.
 49 51  0  0  0  0  0  0  0  0  2 V2000
  146.0010  143.2620  153.9377 C   0  0  0  0  0  0  0  0  0  0  0  0
  145.5843  142.2173  154.9882 C   0  0  1  0  0  0  0  0  0  0  0  0
  146.7680  141.4083  155.5543 C   0  0  0  0  0  0  0  0  0  0  0  0
  147.5790  142.2259  156.4868 N   0  3  2  0  0  0  0  0  0  0  0  0
  148.7681  141.4956  156.9940 C   0  0  0  0  0  0  0  0  0  0  0  0
  150.0166  141.7073  156.1095 C   0  0  2  0  0  0  0  0  0  0  0  0
  149.7019  141.3490  154.7791 O   0  0  0  0  0  0  0  0  0  0  0  0
  151.2361  140.8707  156.5461 C   0  0  0  0  0  0  0  0  0  0  0  0
  151.7853  141.3049  157.8239 N   0  0  0  0  0  0  0  0  0  0  0  0
  152.3755  140.5576  158.7923 C   0  0  0  0  0  0  0  0  0  0  0  0
  152.5585  139.0758  158.6673 C   0  0  0  0  0  0  0  0  0  0  0  0
  153.9093  138.7057  158.4928 O   0  0  0  0  0  0  0  0  0  0  0  0
  152.7808  141.2253  159.8727 N   0  0  0  0  0  0  0  0  0  0  0  0
  152.4348  142.5283  159.5742 C   0  0  0  0  0  0  0  0  0  0  0  0
  152.6024  143.7169  160.3199 C   0  0  0  0  0  0  0  0  0  0  0  0
  152.1644  144.9528  159.8006 C   0  0  0  0  0  0  0  0  0  0  0  0
  151.5531  145.0177  158.5319 C   0  0  0  0  0  0  0  0  0  0  0  0
  151.3744  143.8449  157.7736 C   0  0  0  0  0  0  0  0  0  0  0  0
  151.8131  142.6136  158.2965 C   0  0  0  0  0  0  0  0  0  0  0  0
  146.7196  142.7829  157.5590 C   0  0  0  0  0  0  0  0  0  0  0  0
  145.5726  143.6085  156.9496 C   0  0  2  0  0  0  0  0  0  0  0  0
  144.6121  144.1348  158.0216 C   0  0  0  0  0  0  0  0  0  0  0  0
  144.8248  142.7921  156.0518 O   0  0  0  0  0  0  0  0  0  0  0  0
  146.4632  142.7795  153.0761 H   0  0  0  0  0  0  0  0  0  0  0  0
  146.7205  143.9806  154.3289 H   0  0  0  0  0  0  0  0  0  0  0  0
  145.1347  143.8170  153.5775 H   0  0  0  0  0  0  0  0  0  0  0  0
  144.9162  141.5170  154.4858 H   0  0  0  0  0  0  0  0  0  0  0  0
  146.3931  140.5320  156.0858 H   0  0  0  0  0  0  0  0  0  0  0  0
  147.3890  141.0398  154.7368 H   0  0  0  0  0  0  0  0  0  0  0  0
  148.9544  141.8079  158.0225 H   0  0  0  0  0  0  0  0  0  0  0  0
  148.5532  140.4268  157.0354 H   0  0  0  0  0  0  0  0  0  0  0  0
  150.3047  142.7576  156.1104 H   0  0  0  0  0  0  0  0  0  0  0  0
  150.5037  141.1411  154.3234 H   0  0  0  0  0  0  0  0  0  0  0  0
  150.9727  139.8148  156.5991 H   0  0  0  0  0  0  0  0  0  0  0  0
  152.0269  140.9461  155.7986 H   0  0  0  0  0  0  0  0  0  0  0  0
  152.1787  138.5881  159.5658 H   0  0  0  0  0  0  0  0  0  0  0  0
  151.9659  138.6995  157.8336 H   0  0  0  0  0  0  0  0  0  0  0  0
  154.2419  138.3815  159.3159 H   0  0  0  0  0  0  0  0  0  0  0  0
  153.0706  143.6785  161.2923 H   0  0  0  0  0  0  0  0  0  0  0  0
  152.3000  145.8554  160.3783 H   0  0  0  0  0  0  0  0  0  0  0  0
  151.2226  145.9690  158.1411 H   0  0  0  0  0  0  0  0  0  0  0  0
  150.9084  143.8931  156.8006 H   0  0  0  0  0  0  0  0  0  0  0  0
  146.3188  141.9684  158.1649 H   0  0  0  0  0  0  0  0  0  0  0  0
  147.3020  143.4169  158.2262 H   0  0  0  0  0  0  0  0  0  0  0  0
  145.9820  144.4657  156.4144 H   0  0  0  0  0  0  0  0  0  0  0  0
  145.1305  144.7809  158.7307 H   0  0  0  0  0  0  0  0  0  0  0  0
  144.1594  143.3172  158.5834 H   0  0  0  0  0  0  0  0  0  0  0  0
  143.8066  144.7157  157.5715 H   0  0  0  0  0  0  0  0  0  0  0  0
  147.9313  143.0061  155.9501 H   0  0  0  0  0  0  0  0  0  0  0  0
  1  2  1  0  0  0  0
  1 24  1  0  0  0  0
  1 25  1  0  0  0  0
  1 26  1  0  0  0  0
  2 23  1  0  0  0  0
  2  3  1  0  0  0  0
  2 27  1  0  0  0  0
  3  4  1  0  0  0  0
  3 28  1  0  0  0  0
  3 29  1  0  0  0  0
  4  5  1  0  0  0  0
  4 20  1  0  0  0  0
  4 49  1  0  0  0  0
  5  6  1  0  0  0  0
  5 30  1  0  0  0  0
  5 31  1  0  0  0  0
  6  7  1  0  0  0  0
  6  8  1  0  0  0  0
  6 32  1  0  0  0  0
  7 33  1  0  0  0  0
  8  9  1  0  0  0  0
  8 34  1  0  0  0  0
  8 35  1  0  0  0  0
  9 19  1  0  0  0  0
  9 10  1  0  0  0  0
 10 11  1  0  0  0  0
 10 13  2  0  0  0  0
 11 12  1  0  0  0  0
 11 36  1  0  0  0  0
 11 37  1  0  0  0  0
 12 38  1  0  0  0  0
 13 14  1  0  0  0  0
 14 19  2  0  0  0  0
 14 15  1  0  0  0  0
 15 16  2  0  0  0  0
 15 39  1  0  0  0  0
 16 17  1  0  0  0  0
 16 40  1  0  0  0  0
 17 18  2  0  0  0  0
 17 41  1  0  0  0  0
 18 19  1  0  0  0  0
 18 42  1  0  0  0  0
 20 21  1  0  0  0  0
 20 43  1  0  0  0  0
 20 44  1  0  0  0  0
 21 22  1  0  0  0  0
 21 23  1  0  0  0  0
 21 45  1  0  0  0  0
 22 46  1  0  0  0  0
 22 47  1  0  0  0  0
 22 48  1  0  0  0  0
M  CHG  1   4   1
M  END
> <s_m_source_file>
AV-unprocessed.smi

> <i_m_source_file_index>
1703

> <i_lp_mmshare_version>
43012

> <i_f3d_flags>
0

> <s_epik_input>
W0NIM11bQ0BASF0xW0NIMl1OKFtDSDJdW0NASF0oTzEpW0NIM10pW0NIMl1bQ0BIXShbT0hdKVtDSDJdbihjKG4yKVtDSDJdW09IXSljKGMyMylbY0hdW2NIXVtjSF1bY0hdMw==

> <s_epik_cmdline>
J2VwaWtfcHl0aG9uJywgJy1waCcsICc3LjAnLCAnLXRuJywgJzgnLCAnLW1hJywgJzIwMCcsICctbWV0YWxfYmluZGluZycsICctaW1hZScsICc8aW5maWxlLm1hZT4nLCAnLW9tYWUnLCAnPG91dGZpbGUubWFlPic=

> <r_epik_Ionization_Penalty>
0.655661

> <r_epik_Ionization_Penalty_Charging>
0.608065

> <r_epik_Ionization_Penalty_Neutral>
0.0475963

> <r_epik_State_Penalty>
0.695267

> <r_epik_Charging_Adjusted_Penalty>
1.30333

> <i_epik_Tot_Q>
1

> <i_epik_Tot_abs_Q>
1

> <r_epik_Metal_State_Penalty>
0.653591

> <b_epik_Metal_Only>
0

> <s_lp_Force_Field>
OPLS_2005

> <r_lp_Energy>
25.3139

> <b_lp_Chiralities_Consistent>
1

> <s_lp_Variant>
AV-unprocessed.smi:1703-12

> <Gold.Version>
5.8.1

> <Gold.Id.Protein>
6NUR|6NUR_protein|mol2

> <Gold.PLP.Fitness>
52.2075

> <Gold.PLP.PLP>
-45.0145

> <Gold.PLP.part.hbond>
-3.1435

> <Gold.PLP.part.metal>
0.0000

> <Gold.PLP.part.buried>
-6.3602

> <Gold.PLP.part.nonpolar>
-36.8040

> <Gold.PLP.part.repulsive>
0.1109

> <Gold.PLP.ligand.clash>
0.0000

> <Gold.PLP.ligand.torsion>
0.9632

> <Gold.PLP.Chemscore.Hbond>
3.0000

> <Gold.PLP.Chemscore.CHOScore>
0.0000

> <Gold.PLP.Chemscore.Metal>
0.0000

> <Gold.Chemscore.Hbonds>
donor molecule, donor type, donor heavy atom, donor atom, acceptor molecule, acceptor atom, score
      L1  H     4    49       P1  8028  2.00
      P1  H  7997  8009       L1    12  0.98

> <Gold.PLP.Chemscore.Internal.Correction>
0.1194

> <Gold.Rescore>
     Score         DG    S(hbond)    S(metal)    S(lipo)     H(rot)  DE(clash)    DE(int)     intcor
     13.78     -15.73       1.44        0.00     111.33       2.96       0.16       1.79       ----

> <Gold.Chemscore.Fitness>
13.7830

> <Gold.Chemscore.DG>
-15.7268

> <Gold.Chemscore.ZeroCoef>
-5.4800

> <Gold.Chemscore.Hbond>
1.4375

> <Gold.Chemscore.Metal>
0.0000

> <Gold.Chemscore.Lipo>
111.3328

> <Gold.Chemscore.Internal_Hbond>
0.0000

> <Gold.Chemscore.DEClash>
0.1580

> <Gold.Chemscore.DEInternal>
1.7858

> <Gold.Chemscore.Rot>
2.9611

> <Gold.Chemscore.Internal.Correction>
   9.000000E+99

> <Gold.Chemscore.Hbonds>
donor molecule, donor type, donor heavy atom, donor atom, acceptor molecule, acceptor atom, score
      L1  H     4    49       P1  8028  0.54
      P1  H  7997  8009       L1    12  0.69

> <Gold.Chemscore.Hbond.Weighted>
-4.8012

> <Gold.Chemscore.Metal.Weighted>
-0.0000

> <Gold.Chemscore.Lipo.Weighted>
-13.0259

> <Gold.Chemscore.Internal_Hbond.Weighted>
0.0000

> <Gold.Chemscore.DEClash.Weighted>
0.1580

> <Gold.Chemscore.DEInternal.Weighted>
1.7858

> <Gold.Chemscore.Rot.Weighted>
7.5803

> <Gold.Chemscore.Internal.Correction.Weighted>
   9.000000E+99

> <Gold.Protein.RotatedTorsions>
[ 6907 6896 6895 6894 ] final   59.63 input  -60.11 | X-H torsion
[ 7974 7965 7964 7962 ] final   77.79 input  175.53 | X-H torsion
[ 8008 7997 7996 7995 ] final  138.24 input   59.86 | X-H torsion
[ 10167 10162 10161 10158 ] final   50.50 input  -65.29 | X-H torsion
[ 10718 10713 10712 10709 ] final  130.71 input   66.30 | X-H torsion
[ 10763 10752 10751 10750 ] final -128.20 input  -60.55 | X-H torsion
[ 11005 11000 10999 10996 ] final   85.82 input  -57.11 | X-H torsion

> <Gold.Protein.ActiveResidues>
 VAL166  LYS551  ARG553  GLY616  TRP617  ASP618  TYR619  PRO620  LYS621  CYS622 
 ASP623  PHE694  ASN695  SER759  ASP760  ASP761  ALA762  ILE779  LEU786  VAL792 
 PHE793  MET794  SER795  GLU796  ALA797  LYS798  CYS799  TRP800  GLU811  SER814 

> <Gold.Protein.RotatedAtoms>
  152.3932  134.6408  160.0099 H   0  0  0  0  0  0  0  0  0  0  0  0  # atno 6907 bound_to 6896
  151.6636  133.3310  159.3188 H   0  0  0  0  0  0  0  0  0  0  0  0  # atno 6908 bound_to 6896
  150.7844  134.6860  159.6515 H   0  0  0  0  0  0  0  0  0  0  0  0  # atno 6909 bound_to 6896
  145.6855  139.2536  143.1790 H   0  0  0  0  0  0  0  0  0  0  0  0  # atno 7974 bound_to 7965
  156.2998  140.2399  156.4040 H   0  0  0  0  0  0  0  0  0  0  0  0  # atno 8008 bound_to 7997
  154.8501  140.0424  157.1618 H   0  0  0  0  0  0  0  0  0  0  0  0  # atno 8009 bound_to 7997
  154.9008  140.2976  155.5322 H   0  0  0  0  0  0  0  0  0  0  0  0  # atno 8010 bound_to 7997
  140.2718  144.3256  150.6288 H   0  0  0  0  0  0  0  0  0  0  0  0  # atno 10167 bound_to 10162
  157.5036  131.1095  150.9392 H   0  0  0  0  0  0  0  0  0  0  0  0  # atno 10718 bound_to 10713
  154.8755  135.3936  154.3718 H   0  0  0  0  0  0  0  0  0  0  0  0  # atno 10763 bound_to 10752
  153.4477  135.7028  153.6134 H   0  0  0  0  0  0  0  0  0  0  0  0  # atno 10764 bound_to 10752
  153.4687  135.3795  155.2348 H   0  0  0  0  0  0  0  0  0  0  0  0  # atno 10765 bound_to 10752
  139.8961  134.8313  156.2635 H   0  0  0  0  0  0  0  0  0  0  0  0  # atno 11005 bound_to 11000
  146.0928  140.7636  142.9587 LP  0  0  0  0  0  0  0  0  0  0  0  0  # atno 17320 bound_to 7965
  144.7013  140.3663  143.7154 LP  0  0  0  0  0  0  0  0  0  0  0  0  # atno 17321 bound_to 7965
  140.5883  143.2169  151.7300 LP  0  0  0  0  0  0  0  0  0  0  0  0  # atno 17342 bound_to 10162
  139.4987  144.3977  152.0214 LP  0  0  0  0  0  0  0  0  0  0  0  0  # atno 17343 bound_to 10162
  157.0055  130.5616  149.5315 LP  0  0  0  0  0  0  0  0  0  0  0  0  # atno 17370 bound_to 10713
  156.0244  130.5338  150.8366 LP  0  0  0  0  0  0  0  0  0  0  0  0  # atno 17371 bound_to 10713
  141.0147  133.7075  156.1169 LP  0  0  0  0  0  0  0  0  0  0  0  0  # atno 17394 bound_to 11000
  140.7318  134.4246  157.5565 LP  0  0  0  0  0  0  0  0  0  0  0  0  # atno 17395 bound_to 11000

$$$$
