AV-unprocessed.smi:3002|AV-procd|sdf|11434|dock2
  -GOLD-   2272016363D 1   1.00000     0.00000
 Structure written by MMmdl.
 34 35  0  0  0  0  0  0  0  0  1 V2000
  145.7678  135.3627  151.7487 C   0  0  0  0  0  0  0  0  0  0  0  0
  146.3749  134.0161  151.3058 C   0  0  1  0  0  0  0  0  0  0  0  0
  147.1033  133.2952  152.4508 C   0  0  0  0  0  0  0  0  0  0  0  0
  146.7117  132.1988  152.8521 O   0  0  0  0  0  0  0  0  0  0  0  0
  148.1674  133.9268  152.9713 N   0  0  0  0  0  0  0  0  0  0  0  0
  148.9965  133.4166  154.0581 C   0  0  0  0  0  0  0  0  0  0  0  0
  149.0957  134.4041  155.2385 C   0  0  2  0  0  0  0  0  0  0  0  0
  148.9620  135.8832  154.8182 C   0  0  0  0  0  0  0  0  0  0  0  0
  149.3668  136.7659  156.0025 C   0  0  0  0  0  0  0  0  0  0  0  0
  150.7066  135.8564  156.8566 S   0  0  0  0  0  0  0  0  0  0  0  0
  152.0091  136.3860  156.4255 O   0  0  0  0  0  0  0  0  0  0  0  0
  150.3722  135.7364  158.2838 O   0  0  0  0  0  0  0  0  0  0  0  0
  150.4127  134.2526  156.0173 C   0  0  0  0  0  0  0  0  0  0  0  0
  145.3830  133.1330  150.7041 N   0  0  0  0  0  0  0  0  0  0  0  0
  145.5158  131.8926  150.2288 C   0  0  0  0  0  0  0  0  0  0  0  0
  144.3848  131.3594  149.7889 N   0  0  0  0  0  0  0  0  0  0  0  0
  143.5294  132.3919  150.0507 C   0  0  0  0  0  0  0  0  0  0  0  0
  144.0731  133.4732  150.6085 N   0  0  0  0  0  0  0  0  0  0  0  0
  146.5353  136.0268  152.1475 H   0  0  0  0  0  0  0  0  0  0  0  0
  145.0068  135.2378  152.5201 H   0  0  0  0  0  0  0  0  0  0  0  0
  145.3009  135.8732  150.9058 H   0  0  0  0  0  0  0  0  0  0  0  0
  147.1143  134.2374  150.5340 H   0  0  0  0  0  0  0  0  0  0  0  0
  148.4240  134.8232  152.5843 H   0  0  0  0  0  0  0  0  0  0  0  0
  148.6046  132.4571  154.4001 H   0  0  0  0  0  0  0  0  0  0  0  0
  149.9898  133.2155  153.6557 H   0  0  0  0  0  0  0  0  0  0  0  0
  148.2860  134.1945  155.9392 H   0  0  0  0  0  0  0  0  0  0  0  0
  149.6358  136.0813  153.9836 H   0  0  0  0  0  0  0  0  0  0  0  0
  147.9538  136.1207  154.4774 H   0  0  0  0  0  0  0  0  0  0  0  0
  149.7106  137.7564  155.7040 H   0  0  0  0  0  0  0  0  0  0  0  0
  148.5374  136.8790  156.7011 H   0  0  0  0  0  0  0  0  0  0  0  0
  150.3794  133.4461  156.7501 H   0  0  0  0  0  0  0  0  0  0  0  0
  151.2516  134.0731  155.3445 H   0  0  0  0  0  0  0  0  0  0  0  0
  146.4592  131.3672  150.2068 H   0  0  0  0  0  0  0  0  0  0  0  0
  142.4732  132.3425  149.8295 H   0  0  0  0  0  0  0  0  0  0  0  0
  1  2  1  0  0  0  0
  1 19  1  0  0  0  0
  1 20  1  0  0  0  0
  1 21  1  0  0  0  0
  2  3  1  0  0  0  0
  2 14  1  0  0  0  0
  2 22  1  0  0  0  0
  3  4  2  0  0  0  0
  3  5  1  0  0  0  0
  5  6  1  0  0  0  0
  5 23  1  0  0  0  0
  6  7  1  0  0  0  0
  6 24  1  0  0  0  0
  6 25  1  0  0  0  0
  7 13  1  0  0  0  0
  7  8  1  0  0  0  0
  7 26  1  0  0  0  0
  8  9  1  0  0  0  0
  8 27  1  0  0  0  0
  8 28  1  0  0  0  0
  9 10  1  0  0  0  0
  9 29  1  0  0  0  0
  9 30  1  0  0  0  0
 10 11  2  0  0  0  0
 10 12  2  0  0  0  0
 10 13  1  0  0  0  0
 13 31  1  0  0  0  0
 13 32  1  0  0  0  0
 14 18  1  0  0  0  0
 14 15  1  0  0  0  0
 15 16  2  0  0  0  0
 15 33  1  0  0  0  0
 16 17  1  0  0  0  0
 17 18  2  0  0  0  0
 17 34  1  0  0  0  0
M  END
> <s_m_source_file>
AV-unprocessed.smi

> <i_m_source_file_index>
3002

> <i_lp_mmshare_version>
43012

> <i_f3d_flags>
0

> <s_epik_input>
bjFbY0hdbltjSF1uMVtDQEhdKFtDSDNdKUMoPU8pW05IXVtDSDJdW0NAQEhdKFtDSDJdMilbQ0gyXVtDSDJdUzIoPU8pPU8=

> <s_epik_cmdline>
J2VwaWtfcHl0aG9uJywgJy1waCcsICc3LjAnLCAnLXRuJywgJzgnLCAnLW1hJywgJzIwMCcsICctbWV0YWxfYmluZGluZycsICctaW1hZScsICc8aW5maWxlLm1hZT4nLCAnLW9tYWUnLCAnPG91dGZpbGUubWFlPic=

> <r_lp_tautomer_probability>
1

> <r_epik_Ionization_Penalty>
1.1748e-05

> <r_epik_Ionization_Penalty_Charging>
0

> <r_epik_Ionization_Penalty_Neutral>
1.1748e-05

> <r_epik_State_Penalty>
-0

> <r_epik_Charging_Adjusted_Penalty>
0

> <i_epik_Tot_Q>
0

> <i_epik_Tot_abs_Q>
0

> <r_epik_Metal_State_Penalty>
-0

> <b_epik_Metal_Only>
0

> <s_lp_Force_Field>
OPLS_2005

> <r_lp_Energy>
11.4636

> <b_lp_Chiralities_Consistent>
1

> <s_lp_Variant>
AV-unprocessed.smi:3002-2

> <Gold.Version>
5.8.1

> <Gold.Id.Protein>
6NUR|6NUR_protein|mol2

> <Gold.PLP.Fitness>
40.7637

> <Gold.PLP.PLP>
-24.6166

> <Gold.PLP.part.hbond>
-3.6194

> <Gold.PLP.part.metal>
0.0000

> <Gold.PLP.part.buried>
0.0436

> <Gold.PLP.part.nonpolar>
-21.5694

> <Gold.PLP.part.repulsive>
0.4306

> <Gold.PLP.ligand.clash>
0.0000

> <Gold.PLP.ligand.torsion>
0.4975

> <Gold.PLP.Chemscore.Hbond>
3.1040

> <Gold.PLP.Chemscore.CHOScore>
2.5757

> <Gold.PLP.Chemscore.Metal>
0.0000

> <Gold.Chemscore.Hbonds>
donor molecule, donor type, donor heavy atom, donor atom, acceptor molecule, acceptor atom, score
      L1  H     5    23       P1  7948  1.00
      P1  H  6896  6908       L1    12  0.78
      P1  H 10752 10763       L1    11  1.00
      P1  H 10785 10796       L1    16  0.46
      L1  C    15    33       P1 10747  0.93
      L1  C    17    34       P1 10186  0.83
      L1  C    17    34       P1 10952  0.84

> <Gold.PLP.Chemscore.Internal.Correction>
0.1029

> <Gold.Rescore>
     Score         DG    S(hbond)    S(metal)    S(lipo)     H(rot)  DE(clash)    DE(int)     intcor
      9.42     -12.30       2.82        0.00      30.24       2.39       0.94       1.94       ----

> <Gold.Chemscore.Fitness>
9.4209

> <Gold.Chemscore.DG>
-12.2989

> <Gold.Chemscore.ZeroCoef>
-5.4800

> <Gold.Chemscore.Hbond>
2.8176

> <Gold.Chemscore.Metal>
0.0000

> <Gold.Chemscore.Lipo>
30.2398

> <Gold.Chemscore.Internal_Hbond>
0.0000

> <Gold.Chemscore.DEClash>
0.9379

> <Gold.Chemscore.DEInternal>
1.9401

> <Gold.Chemscore.Rot>
2.3946

> <Gold.Chemscore.Internal.Correction>
   9.000000E+99

> <Gold.Chemscore.Hbonds>
donor molecule, donor type, donor heavy atom, donor atom, acceptor molecule, acceptor atom, score
      L1  H     5    23       P1  7948  0.30
      P1  H  6896  6908       L1    12  0.80
      P1  H 10752 10763       L1    11  0.95
      P1  H 10785 10796       L1    16  0.16

> <Gold.Chemscore.Hbond.Weighted>
-9.4109

> <Gold.Chemscore.Metal.Weighted>
-0.0000

> <Gold.Chemscore.Lipo.Weighted>
-3.5381

> <Gold.Chemscore.Internal_Hbond.Weighted>
0.0000

> <Gold.Chemscore.DEClash.Weighted>
0.9379

> <Gold.Chemscore.DEInternal.Weighted>
1.9401

> <Gold.Chemscore.Rot.Weighted>
6.1301

> <Gold.Chemscore.Internal.Correction.Weighted>
   9.000000E+99

> <Gold.Protein.RotatedTorsions>
[ 6907 6896 6895 6894 ] final  177.72 input  -60.11 | X-H torsion
[ 7974 7965 7964 7962 ] final  -93.80 input  175.53 | X-H torsion
[ 8008 7997 7996 7995 ] final  165.25 input   59.86 | X-H torsion
[ 10167 10162 10161 10158 ] final  171.36 input  -65.29 | X-H torsion
[ 10718 10713 10712 10709 ] final  132.53 input   66.30 | X-H torsion
[ 10763 10752 10751 10750 ] final  100.07 input  -60.55 | X-H torsion
[ 11005 11000 10999 10996 ] final -105.47 input  -57.11 | X-H torsion

> <Gold.Protein.ActiveResidues>
 VAL166  LYS551  ARG553  GLY616  TRP617  ASP618  TYR619  PRO620  LYS621  CYS622 
 ASP623  PHE694  ASN695  SER759  ASP760  ASP761  ALA762  ILE779  LEU786  VAL792 
 PHE793  MET794  SER795  GLU796  ALA797  LYS798  CYS799  TRP800  GLU811  SER814 

> <Gold.Protein.RotatedAtoms>
  151.6994  133.3311  159.3262 H   0  0  0  0  0  0  0  0  0  0  0  0  # atno 6907 bound_to 6896
  150.7743  134.6629  159.6359 H   0  0  0  0  0  0  0  0  0  0  0  0  # atno 6908 bound_to 6896
  152.3779  134.6639  160.0205 H   0  0  0  0  0  0  0  0  0  0  0  0  # atno 6909 bound_to 6896
  145.3817  140.9518  143.2390 H   0  0  0  0  0  0  0  0  0  0  0  0  # atno 7974 bound_to 7965
  156.1815  140.1675  156.8265 H   0  0  0  0  0  0  0  0  0  0  0  0  # atno 8008 bound_to 7997
  154.5366  140.0745  156.8470 H   0  0  0  0  0  0  0  0  0  0  0  0  # atno 8009 bound_to 7997
  155.3299  140.3378  155.4242 H   0  0  0  0  0  0  0  0  0  0  0  0  # atno 8010 bound_to 7997
  139.5044  144.3495  151.9937 H   0  0  0  0  0  0  0  0  0  0  0  0  # atno 10167 bound_to 10162
  157.4862  131.1088  150.9618 H   0  0  0  0  0  0  0  0  0  0  0  0  # atno 10718 bound_to 10713
  153.3093  135.4091  155.1322 H   0  0  0  0  0  0  0  0  0  0  0  0  # atno 10763 bound_to 10752
  154.8571  135.3560  154.5745 H   0  0  0  0  0  0  0  0  0  0  0  0  # atno 10764 bound_to 10752
  153.6173  135.7065  153.5382 H   0  0  0  0  0  0  0  0  0  0  0  0  # atno 10765 bound_to 10752
  141.1052  133.8811  157.1738 H   0  0  0  0  0  0  0  0  0  0  0  0  # atno 11005 bound_to 11000
  144.8503  139.5332  143.6859 LP  0  0  0  0  0  0  0  0  0  0  0  0  # atno 17320 bound_to 7965
  146.2839  139.6951  142.9209 LP  0  0  0  0  0  0  0  0  0  0  0  0  # atno 17321 bound_to 7965
  140.2932  144.3731  150.6082 LP  0  0  0  0  0  0  0  0  0  0  0  0  # atno 17342 bound_to 10162
  140.5931  143.2167  151.7216 LP  0  0  0  0  0  0  0  0  0  0  0  0  # atno 17343 bound_to 10162
  157.0334  130.5720  149.5346 LP  0  0  0  0  0  0  0  0  0  0  0  0  # atno 17370 bound_to 10713
  156.0148  130.5241  150.8100 LP  0  0  0  0  0  0  0  0  0  0  0  0  # atno 17371 bound_to 10713
  139.9919  135.0061  156.9993 LP  0  0  0  0  0  0  0  0  0  0  0  0  # atno 17394 bound_to 11000
  140.4921  134.1182  155.7234 LP  0  0  0  0  0  0  0  0  0  0  0  0  # atno 17395 bound_to 11000

$$$$
