AV-unprocessed.smi:67|AV-procd|sdf|638|dock7
  -GOLD-   2262016533D 1   1.00000     0.00000
 Structure written by MMmdl.
 48 50  0  0  0  0  0  0  0  0  2 V2000
  144.6567  138.1309  153.6697 O   0  0  0  0  0  0  0  0  0  0  0  0
  145.9127  137.6745  153.2055 C   0  0  2  0  0  0  0  0  0  0  0  0
  146.9788  137.8872  154.3135 C   0  0  0  0  0  0  0  0  0  0  0  0
  147.1673  139.3027  154.7420 N   0  3  2  0  0  0  0  0  0  0  0  0
  147.9726  140.0705  153.7549 C   0  0  0  0  0  0  0  0  0  0  0  0
  148.0571  141.5618  154.1226 C   0  0  0  0  0  0  0  0  0  0  0  0
  148.6175  141.7651  155.5431 C   0  0  2  0  0  0  0  0  0  0  0  0
  149.9696  141.3213  155.6376 O   0  0  0  0  0  0  0  0  0  0  0  0
  150.6810  141.5120  156.8046 C   0  0  0  0  0  0  0  0  0  0  0  0
  151.2707  140.3665  157.3762 C   0  0  0  0  0  0  0  0  0  0  0  0
  152.0140  140.4563  158.5674 C   0  0  0  0  0  0  0  0  0  0  0  0
  152.1744  141.6997  159.2053 C   0  0  0  0  0  0  0  0  0  0  0  0
  151.5880  142.8589  158.6541 C   0  0  0  0  0  0  0  0  0  0  0  0
  151.7556  144.2142  159.3250 C   0  0  0  0  0  0  0  0  0  0  0  0
  150.5621  144.7634  159.5520 F   0  0  0  0  0  0  0  0  0  0  0  0
  152.3973  144.1123  160.4895 F   0  0  0  0  0  0  0  0  0  0  0  0
  152.4518  145.0174  158.5216 F   0  0  0  0  0  0  0  0  0  0  0  0
  150.8485  142.7606  157.4555 C   0  0  0  0  0  0  0  0  0  0  0  0
  147.7865  140.9363  156.5320 C   0  0  0  0  0  0  0  0  0  0  0  0
  147.7094  139.4563  156.1189 C   0  0  0  0  0  0  0  0  0  0  0  0
  146.2766  138.3131  151.8495 C   0  0  0  0  0  0  0  0  0  0  0  0
  146.1094  137.1895  150.8288 C   0  0  0  0  0  0  0  0  0  0  0  0
  146.3522  135.9670  151.5749 N   0  0  0  0  0  0  0  0  0  0  0  0
  145.7323  136.1777  152.8743 C   0  0  0  0  0  0  0  0  0  0  0  0
  144.5103  139.0044  153.3392 H   0  0  0  0  0  0  0  0  0  0  0  0
  146.7791  137.2546  155.1801 H   0  0  0  0  0  0  0  0  0  0  0  0
  147.9301  137.5394  153.9075 H   0  0  0  0  0  0  0  0  0  0  0  0
  148.9741  139.6418  153.6905 H   0  0  0  0  0  0  0  0  0  0  0  0
  147.5269  139.9795  152.7636 H   0  0  0  0  0  0  0  0  0  0  0  0
  148.6634  142.0865  153.3850 H   0  0  0  0  0  0  0  0  0  0  0  0
  147.0613  142.0030  154.0625 H   0  0  0  0  0  0  0  0  0  0  0  0
  148.5359  142.8089  155.8468 H   0  0  0  0  0  0  0  0  0  0  0  0
  151.1524  139.4065  156.8951 H   0  0  0  0  0  0  0  0  0  0  0  0
  152.4622  139.5702  158.9921 H   0  0  0  0  0  0  0  0  0  0  0  0
  152.7505  141.7546  160.1170 H   0  0  0  0  0  0  0  0  0  0  0  0
  150.4212  143.6657  157.0536 H   0  0  0  0  0  0  0  0  0  0  0  0
  148.2066  141.0221  157.5348 H   0  0  0  0  0  0  0  0  0  0  0  0
  146.7771  141.3463  156.5885 H   0  0  0  0  0  0  0  0  0  0  0  0
  147.0742  138.9475  156.8403 H   0  0  0  0  0  0  0  0  0  0  0  0
  148.6951  138.9922  156.1797 H   0  0  0  0  0  0  0  0  0  0  0  0
  145.6666  139.1843  151.6066 H   0  0  0  0  0  0  0  0  0  0  0  0
  147.3185  138.6348  151.8384 H   0  0  0  0  0  0  0  0  0  0  0  0
  145.0882  137.1899  150.4448 H   0  0  0  0  0  0  0  0  0  0  0  0
  146.7847  137.2907  149.9788 H   0  0  0  0  0  0  0  0  0  0  0  0
  147.3532  135.8653  151.7073 H   0  0  0  0  0  0  0  0  0  0  0  0
  146.1588  135.5204  153.6325 H   0  0  0  0  0  0  0  0  0  0  0  0
  144.6727  135.9265  152.8003 H   0  0  0  0  0  0  0  0  0  0  0  0
  146.2486  139.7225  154.7426 H   0  0  0  0  0  0  0  0  0  0  0  0
  1  2  1  0  0  0  0
  1 25  1  0  0  0  0
  2 24  1  0  0  0  0
  2  3  1  0  0  0  0
  2 21  1  0  0  0  0
  3  4  1  0  0  0  0
  3 26  1  0  0  0  0
  3 27  1  0  0  0  0
  4 20  1  0  0  0  0
  4  5  1  0  0  0  0
  4 48  1  0  0  0  0
  5  6  1  0  0  0  0
  5 28  1  0  0  0  0
  5 29  1  0  0  0  0
  6  7  1  0  0  0  0
  6 30  1  0  0  0  0
  6 31  1  0  0  0  0
  7  8  1  0  0  0  0
  7 19  1  0  0  0  0
  7 32  1  0  0  0  0
  8  9  1  0  0  0  0
  9 18  1  0  0  0  0
  9 10  2  0  0  0  0
 10 11  1  0  0  0  0
 10 33  1  0  0  0  0
 11 12  2  0  0  0  0
 11 34  1  0  0  0  0
 12 13  1  0  0  0  0
 12 35  1  0  0  0  0
 13 14  1  0  0  0  0
 13 18  2  0  0  0  0
 14 15  1  0  0  0  0
 14 16  1  0  0  0  0
 14 17  1  0  0  0  0
 18 36  1  0  0  0  0
 19 20  1  0  0  0  0
 19 37  1  0  0  0  0
 19 38  1  0  0  0  0
 20 39  1  0  0  0  0
 20 40  1  0  0  0  0
 21 22  1  0  0  0  0
 21 41  1  0  0  0  0
 21 42  1  0  0  0  0
 22 23  1  0  0  0  0
 22 43  1  0  0  0  0
 22 44  1  0  0  0  0
 23 24  1  0  0  0  0
 23 45  1  0  0  0  0
 24 46  1  0  0  0  0
 24 47  1  0  0  0  0
M  CHG  1   4   1
M  END
> <s_m_source_file>
AV-unprocessed.smi

> <i_m_source_file_index>
67

> <i_lp_mmshare_version>
43012

> <i_f3d_flags>
0

> <s_epik_input>
W0NIMl0xW05IXVtDSDJdW0NIMl1bQ0BAXTEoW09IXSlbQ0gyXU4yW0NIMl1bQ0gyXVtDSF0oW0NIMl1bQ0gyXTIpT2MzW2NIXVtjSF1bY0hdYyhDKEYpKEYpRilbY0hdMw==

> <s_epik_cmdline>
J2VwaWtfcHl0aG9uJywgJy1waCcsICc3LjAnLCAnLXRuJywgJzgnLCAnLW1hJywgJzIwMCcsICctbWV0YWxfYmluZGluZycsICctaW1hZScsICc8aW5maWxlLm1hZT4nLCAnLW9tYWUnLCAnPG91dGZpbGUubWFlPic=

> <r_epik_Ionization_Penalty>
2.37709

> <r_epik_Ionization_Penalty_Charging>
0.0305656

> <r_epik_Ionization_Penalty_Neutral>
2.34653

> <r_epik_State_Penalty>
2.56959

> <r_epik_Charging_Adjusted_Penalty>
2.60016

> <i_epik_Tot_Q>
1

> <i_epik_Tot_abs_Q>
1

> <r_epik_Metal_State_Penalty>
2.56925

> <b_epik_Metal_Only>
0

> <s_lp_Force_Field>
OPLS_2005

> <r_lp_Energy>
52.4549

> <b_lp_Chiralities_Consistent>
1

> <s_lp_Variant>
AV-unprocessed.smi:67-10

> <Gold.Version>
5.8.1

> <Gold.Id.Protein>
6NUR|6NUR_protein|mol2

> <Gold.PLP.Fitness>
48.5308

> <Gold.PLP.PLP>
-42.8343

> <Gold.PLP.part.hbond>
-2.0000

> <Gold.PLP.part.metal>
0.0000

> <Gold.PLP.part.buried>
1.6277

> <Gold.PLP.part.nonpolar>
-42.7071

> <Gold.PLP.part.repulsive>
0.0880

> <Gold.PLP.ligand.clash>
0.2841

> <Gold.PLP.ligand.torsion>
0.3353

> <Gold.PLP.Chemscore.Hbond>
2.0000

> <Gold.PLP.Chemscore.CHOScore>
0.0000

> <Gold.PLP.Chemscore.Metal>
0.0000

> <Gold.Chemscore.Hbonds>
donor molecule, donor type, donor heavy atom, donor atom, acceptor molecule, acceptor atom, score
      L1  H     1    25       P1 10175  1.00
      L1  H    23    45       P1  7948  1.00

> <Gold.PLP.Chemscore.Internal.Correction>
0.6513

> <Gold.Rescore>
     Score         DG    S(hbond)    S(metal)    S(lipo)     H(rot)  DE(clash)    DE(int)     intcor
     17.42     -19.34       1.99        0.00     109.28       2.17       1.58       0.33       ----

> <Gold.Chemscore.Fitness>
17.4199

> <Gold.Chemscore.DG>
-19.3366

> <Gold.Chemscore.ZeroCoef>
-5.4800

> <Gold.Chemscore.Hbond>
1.9866

> <Gold.Chemscore.Metal>
0.0000

> <Gold.Chemscore.Lipo>
109.2763

> <Gold.Chemscore.Internal_Hbond>
0.0000

> <Gold.Chemscore.DEClash>
1.5842

> <Gold.Chemscore.DEInternal>
0.3325

> <Gold.Chemscore.Rot>
2.1734

> <Gold.Chemscore.Internal.Correction>
   9.000000E+99

> <Gold.Chemscore.Hbonds>
donor molecule, donor type, donor heavy atom, donor atom, acceptor molecule, acceptor atom, score
      L1  H     1    25       P1 10175  0.99
      L1  H    23    45       P1  7948  0.99

> <Gold.Chemscore.Hbond.Weighted>
-6.6352

> <Gold.Chemscore.Metal.Weighted>
-0.0000

> <Gold.Chemscore.Lipo.Weighted>
-12.7853

> <Gold.Chemscore.Internal_Hbond.Weighted>
0.0000

> <Gold.Chemscore.DEClash.Weighted>
1.5842

> <Gold.Chemscore.DEInternal.Weighted>
0.3325

> <Gold.Chemscore.Rot.Weighted>
5.5640

> <Gold.Chemscore.Internal.Correction.Weighted>
   9.000000E+99

> <Gold.Protein.RotatedTorsions>
[ 6907 6896 6895 6894 ] final -117.01 input  -60.11 | X-H torsion
[ 7974 7965 7964 7962 ] final   93.72 input  175.53 | X-H torsion
[ 8008 7997 7996 7995 ] final   75.73 input   59.86 | X-H torsion
[ 10167 10162 10161 10158 ] final -170.29 input  -65.29 | X-H torsion
[ 10718 10713 10712 10709 ] final  -78.61 input   66.30 | X-H torsion
[ 10763 10752 10751 10750 ] final -174.53 input  -60.55 | X-H torsion
[ 11005 11000 10999 10996 ] final -137.95 input  -57.11 | X-H torsion

> <Gold.Protein.ActiveResidues>
 VAL166  LYS551  ARG553  GLY616  TRP617  ASP618  TYR619  PRO620  LYS621  CYS622 
 ASP623  PHE694  ASN695  SER759  ASP760  ASP761  ALA762  ILE779  LEU786  VAL792 
 PHE793  MET794  SER795  GLU796  ALA797  LYS798  CYS799  TRP800  GLU811  SER814 

> <Gold.Protein.RotatedAtoms>
  150.8102  133.8436  159.3185 H   0  0  0  0  0  0  0  0  0  0  0  0  # atno 6907 bound_to 6896
  151.6224  135.1029  160.0114 H   0  0  0  0  0  0  0  0  0  0  0  0  # atno 6908 bound_to 6896
  152.4193  133.7050  159.6503 H   0  0  0  0  0  0  0  0  0  0  0  0  # atno 6909 bound_to 6896
  145.4751  139.2280  143.2913 H   0  0  0  0  0  0  0  0  0  0  0  0  # atno 7974 bound_to 7965
  155.8171  140.3471  155.5492 H   0  0  0  0  0  0  0  0  0  0  0  0  # atno 8008 bound_to 7997
  155.8380  140.0937  157.1772 H   0  0  0  0  0  0  0  0  0  0  0  0  # atno 8009 bound_to 7997
  154.4004  140.1399  156.3682 H   0  0  0  0  0  0  0  0  0  0  0  0  # atno 8010 bound_to 7997
  139.5870  144.1295  152.1588 H   0  0  0  0  0  0  0  0  0  0  0  0  # atno 10167 bound_to 10162
  156.0113  130.4523  150.3523 H   0  0  0  0  0  0  0  0  0  0  0  0  # atno 10718 bound_to 10713
  154.5952  135.2849  155.0594 H   0  0  0  0  0  0  0  0  0  0  0  0  # atno 10763 bound_to 10752
  154.1880  135.6445  153.5056 H   0  0  0  0  0  0  0  0  0  0  0  0  # atno 10764 bound_to 10752
  153.0136  135.5439  154.6651 H   0  0  0  0  0  0  0  0  0  0  0  0  # atno 10765 bound_to 10752
  140.8663  134.2107  157.4678 H   0  0  0  0  0  0  0  0  0  0  0  0  # atno 11005 bound_to 11000
  146.2374  140.5533  142.8949 LP  0  0  0  0  0  0  0  0  0  0  0  0  # atno 17320 bound_to 7965
  144.7922  140.6053  143.6534 LP  0  0  0  0  0  0  0  0  0  0  0  0  # atno 17321 bound_to 7965
  140.0861  144.5660  150.7087 LP  0  0  0  0  0  0  0  0  0  0  0  0  # atno 17342 bound_to 10162
  140.7140  143.2529  151.4491 LP  0  0  0  0  0  0  0  0  0  0  0  0  # atno 17343 bound_to 10162
  157.1615  131.0346  151.2839 LP  0  0  0  0  0  0  0  0  0  0  0  0  # atno 17370 bound_to 10713
  157.4307  130.7489  149.6988 LP  0  0  0  0  0  0  0  0  0  0  0  0  # atno 17371 bound_to 10713
  139.8709  134.9753  156.4878 LP  0  0  0  0  0  0  0  0  0  0  0  0  # atno 17394 bound_to 11000
  140.8625  133.8049  155.9280 LP  0  0  0  0  0  0  0  0  0  0  0  0  # atno 17395 bound_to 11000

$$$$
