#       Name:                AV-unprocessed.smi:2567
#       Creating user name   scv26
#       Creation time:       Fri Mar 27 14:11:03 2020


#       File generated by GOLD software.
#

@<TRIPOS>MOLECULE
AV-unprocessed.smi:2567
    38    39     1
SMALL
NO_CHARGES


@<TRIPOS>ATOM
      1 ****        -2.9633   1.7978  -0.7880 C.3            1 S1                 0.0000
      2 ****        -2.6684   0.3258  -1.1277 C.3            1 S1                 0.0000
      3 ****        -3.3116  -0.5909  -0.0642 C.3            1 S1                 0.0000
      4 ****        -3.3189  -0.0401  -2.4804 C.3            1 S1                 0.0000
      5 ****        -1.1739   0.1063  -1.1747 C.2            1 S1                 0.0000
      6 ****        -0.4643   0.3860  -2.2710 N.2            1 S1                 0.0000
      7 ****         0.8039   0.1899  -1.8552 N.pl3          1 S1                 0.0000
      8 ****         0.7992  -0.1304  -0.5613 C.2            1 S1                 0.0000
      9 ****         2.0621  -0.3752   0.2027 C.3            1 S1                 0.0000
     10 ****         2.4736   0.8384   1.0589 C.3            1 S1                 0.0000
     11 ****         3.6589   0.5196   1.8531 N.3            1 S1                 0.0000
     12 ****         3.4443  -0.6781   2.6640 C.3            1 S1                 0.0000
     13 ****         3.0019  -1.8547   1.7754 C.3            1 S1                 0.0000
     14 ****         1.8288  -1.4945   1.0538 O.3            1 S1                 0.0000
     15 ****        -0.4297  -0.1654  -0.0563 N.2            1 S1                 0.0000
     16 ****         1.6067   0.3049  -2.4572 H              1 S1                 0.0000
     17 ****        -4.0361   1.9872  -0.7403 H              1 S1                 0.0000
     18 ****        -2.5433   2.4696  -1.5376 H              1 S1                 0.0000
     19 ****        -2.5364   2.0742   0.1769 H              1 S1                 0.0000
     20 ****        -2.9452  -0.3666   0.9383 H              1 S1                 0.0000
     21 ****        -3.1006  -1.6421  -0.2646 H              1 S1                 0.0000
     22 ****        -4.3955  -0.4726  -0.0406 H              1 S1                 0.0000
     23 ****        -4.4025   0.0777  -2.4440 H              1 S1                 0.0000
     24 ****        -3.1111  -1.0752  -2.7551 H              1 S1                 0.0000
     25 ****        -2.9577   0.5955  -3.2895 H              1 S1                 0.0000
     26 ****         2.8539  -0.6200  -0.5083 H              1 S1                 0.0000
     27 ****         2.6716   1.6996   0.4201 H              1 S1                 0.0000
     28 ****         1.6521   1.1194   1.7192 H              1 S1                 0.0000
     29 ****         3.8829   1.3032   2.4583 H              1 S1                 0.0000
     30 ****         4.3574  -0.9359   3.2005 H              1 S1                 0.0000
     31 ****         2.6815  -0.4832   3.4186 H              1 S1                 0.0000
     32 ****         3.7961  -2.1435   1.0848 H              1 S1                 0.0000
     33 ****         2.7833  -2.7272   2.3909 H              1 S1                 0.0000
     34 ****        -0.7908   0.6694  -3.1727 LP             1 S1                 0.0000
     35 ****         4.4184   0.3435   1.2269 LP             1 S1                 0.0000
     36 ****         1.5389  -2.2721   0.4959 LP             1 S1                 0.0000
     37 ****         1.1055  -1.2629   1.7043 LP             1 S1                 0.0000
     38 ****        -0.7289  -0.3415   0.8815 LP             1 S1                 0.0000
@<TRIPOS>BOND
    1    1    2 1     
    2    1   17 1     
    3    1   18 1     
    4    1   19 1     
    5    2    3 1     
    6    2    4 1     
    7    2    5 1     
    8    3   20 1     
    9    3   21 1     
   10    3   22 1     
   11    4   23 1     
   12    4   24 1     
   13    4   25 1     
   14    5   15 1     
   15    5    6 2     
   16    6    7 1     
   17    7   16 1     
   18    7    8 1     
   19    8    9 1     
   20    8   15 2     
   21    9   14 1     
   22    9   10 1     
   23    9   26 1     
   24   10   11 1     
   25   10   27 1     
   26   10   28 1     
   27   11   12 1     
   28   11   29 1     
   29   12   13 1     
   30   12   30 1     
   31   12   31 1     
   32   13   14 1     
   33   13   32 1     
   34   13   33 1     
   35    6   34 1     
   36   11   35 1     
   37   14   36 1     
   38   14   37 1     
   39   15   38 1     
@<TRIPOS>SUBSTRUCTURE
      1 S1             1
@<TRIPOS>SET
LONE_PAIRS      STATIC     ATOMS    <user>   **** ""
5 34 35 36 37 38
DONOR_HYDROGENS      STATIC     ATOMS    <user>   **** ""
2 16 29
ATOM$BLUE        STATIC     ATOMS    COLORGROUP SYSTEM
5 34 35 36 37 38
ATOM$RED        STATIC     ATOMS    COLORGROUP SYSTEM
2 16 29
