AV-unprocessed.smi:394|AV-procd|sdf|2485|dock6
  -GOLD-   2262022423D 1   1.00000     0.00000
 Structure written by MMmdl.
 30 31  0  0  0  0  0  0  0  0  1 V2000
  146.5135  142.1701  154.3109 C   0  0  0  0  0  0  0  0  0  0  0  0
  147.8695  142.5318  154.6926 N   0  0  0  0  0  0  0  0  0  0  0  0
  148.9011  141.6730  154.7325 C   0  0  0  0  0  0  0  0  0  0  0  0
  148.7843  140.4833  154.4406 O   0  0  0  0  0  0  0  0  0  0  0  0
  150.2816  142.2028  155.1615 C   0  0  0  0  0  0  0  0  0  0  0  0
  150.9728  141.3957  156.1942 N   0  0  0  0  0  0  0  0  0  0  0  0
  151.3278  140.0569  155.8874 C   0  0  0  0  0  0  0  0  0  0  0  0
  151.0899  139.5751  154.7788 O   0  0  0  0  0  0  0  0  0  0  0  0
  151.9831  139.3170  156.9638 C   0  0  0  0  0  0  0  0  0  0  0  0
  152.3113  137.9530  156.7111 C   0  0  0  0  0  0  0  0  0  0  0  0
  152.6019  136.8527  156.5007 N   0  0  0  0  0  0  0  0  0  0  0  0
  152.2577  139.9071  158.1453 C   0  0  0  0  0  0  0  0  0  0  0  0
  151.9569  141.2268  158.4022 N   0  0  0  0  0  0  0  0  0  0  0  0
  152.1277  141.7925  159.7108 C   0  0  0  0  0  0  0  0  0  0  0  0
  152.8103  143.1357  159.8827 C   0  0  0  0  0  0  0  0  0  0  0  0
  153.5191  141.8705  160.3004 C   0  0  0  0  0  0  0  0  0  0  0  0
  151.2592  141.9953  157.4451 C   0  0  0  0  0  0  0  0  0  0  0  0
  150.9098  143.1530  157.6879 O   0  0  0  0  0  0  0  0  0  0  0  0
  145.8711  143.0500  154.3450 H   0  0  0  0  0  0  0  0  0  0  0  0
  146.1050  141.4232  154.9928 H   0  0  0  0  0  0  0  0  0  0  0  0
  146.4889  141.7684  153.2971 H   0  0  0  0  0  0  0  0  0  0  0  0
  148.0368  143.4946  154.9460 H   0  0  0  0  0  0  0  0  0  0  0  0
  150.8991  142.2963  154.2668 H   0  0  0  0  0  0  0  0  0  0  0  0
  150.1559  143.2344  155.4938 H   0  0  0  0  0  0  0  0  0  0  0  0
  152.7391  139.3273  158.9200 H   0  0  0  0  0  0  0  0  0  0  0  0
  151.3271  141.5761  160.4161 H   0  0  0  0  0  0  0  0  0  0  0  0
  153.1833  143.6432  158.9949 H   0  0  0  0  0  0  0  0  0  0  0  0
  152.4387  143.7882  160.6699 H   0  0  0  0  0  0  0  0  0  0  0  0
  153.6227  141.6817  161.3670 H   0  0  0  0  0  0  0  0  0  0  0  0
  154.3566  141.5445  159.6867 H   0  0  0  0  0  0  0  0  0  0  0  0
  1  2  1  0  0  0  0
  1 19  1  0  0  0  0
  1 20  1  0  0  0  0
  1 21  1  0  0  0  0
  2  3  1  0  0  0  0
  2 22  1  0  0  0  0
  3  4  2  0  0  0  0
  3  5  1  0  0  0  0
  5  6  1  0  0  0  0
  5 23  1  0  0  0  0
  5 24  1  0  0  0  0
  6 17  1  0  0  0  0
  6  7  1  0  0  0  0
  7  8  2  0  0  0  0
  7  9  1  0  0  0  0
  9 10  1  0  0  0  0
  9 12  2  0  0  0  0
 10 11  3  0  0  0  0
 12 13  1  0  0  0  0
 12 25  1  0  0  0  0
 13 14  1  0  0  0  0
 13 17  1  0  0  0  0
 14 16  1  0  0  0  0
 14 15  1  0  0  0  0
 14 26  1  0  0  0  0
 15 16  1  0  0  0  0
 15 27  1  0  0  0  0
 15 28  1  0  0  0  0
 16 29  1  0  0  0  0
 16 30  1  0  0  0  0
 17 18  2  0  0  0  0
M  END
> <s_m_source_file>
AV-unprocessed.smi

> <i_m_source_file_index>
394

> <i_lp_mmshare_version>
43012

> <i_f3d_flags>
0

> <s_epik_input>
W0NIM11bTkhdQyg9TylbQ0gyXW4xYyg9TyljKEMjTilbY0hdbihjMT1PKVtDSF0yW0NIMl1bQ0gyXTI=

> <s_epik_cmdline>
J2VwaWtfcHl0aG9uJywgJy1waCcsICc3LjAnLCAnLXRuJywgJzgnLCAnLW1hJywgJzIwMCcsICctbWV0YWxfYmluZGluZycsICctaW1hZScsICc8aW5maWxlLm1hZT4nLCAnLW9tYWUnLCAnPG91dGZpbGUubWFlPic=

> <r_lp_tautomer_probability>
1

> <r_epik_Ionization_Penalty>
1.93483e-08

> <r_epik_Ionization_Penalty_Charging>
8.13451e-11

> <r_epik_Ionization_Penalty_Neutral>
1.9267e-08

> <r_epik_State_Penalty>
-0

> <r_epik_Charging_Adjusted_Penalty>
8.13451e-11

> <i_epik_Tot_Q>
0

> <i_epik_Tot_abs_Q>
0

> <r_epik_Metal_State_Penalty>
-0

> <b_epik_Metal_Only>
0

> <s_lp_Force_Field>
OPLS_2005

> <r_lp_Energy>
29.0516

> <b_lp_Chiralities_Consistent>
1

> <s_lp_Variant>
AV-unprocessed.smi:394-1

> <Gold.Version>
5.8.1

> <Gold.Id.Protein>
6NUR|6NUR_protein|mol2

> <Gold.PLP.Fitness>
40.9280

> <Gold.PLP.PLP>
-32.7572

> <Gold.PLP.part.hbond>
-3.0000

> <Gold.PLP.part.metal>
0.0000

> <Gold.PLP.part.buried>
-2.8819

> <Gold.PLP.part.nonpolar>
-27.4462

> <Gold.PLP.part.repulsive>
0.4254

> <Gold.PLP.ligand.clash>
0.0000

> <Gold.PLP.ligand.torsion>
0.2381

> <Gold.PLP.Chemscore.Hbond>
2.8160

> <Gold.PLP.Chemscore.CHOScore>
0.0000

> <Gold.PLP.Chemscore.Metal>
0.0000

> <Gold.Chemscore.Hbonds>
donor molecule, donor type, donor heavy atom, donor atom, acceptor molecule, acceptor atom, score
      L1  H     2    22       P1  8028  1.00
      P1  H  7989  7998       L1     8  1.00
      P1  H 10752 10765       L1    11  0.98

> <Gold.PLP.Chemscore.Internal.Correction>
0.1991

> <Gold.Rescore>
     Score         DG    S(hbond)    S(metal)    S(lipo)     H(rot)  DE(clash)    DE(int)     intcor
     10.99     -15.61       2.45        0.00      54.43       1.73       1.46       3.16       ----

> <Gold.Chemscore.Fitness>
10.9908

> <Gold.Chemscore.DG>
-15.6090

> <Gold.Chemscore.ZeroCoef>
-5.4800

> <Gold.Chemscore.Hbond>
2.4530

> <Gold.Chemscore.Metal>
0.0000

> <Gold.Chemscore.Lipo>
54.4275

> <Gold.Chemscore.Internal_Hbond>
0.0000

> <Gold.Chemscore.DEClash>
1.4552

> <Gold.Chemscore.DEInternal>
3.1629

> <Gold.Chemscore.Rot>
1.7313

> <Gold.Chemscore.Internal.Correction>
   9.000000E+99

> <Gold.Chemscore.Hbonds>
donor molecule, donor type, donor heavy atom, donor atom, acceptor molecule, acceptor atom, score
      L1  H     2    22       P1  8028  0.73
      P1  H  7989  7998       L1     8  0.60
      P1  H 10752 10765       L1    11  0.86

> <Gold.Chemscore.Hbond.Weighted>
-8.1930

> <Gold.Chemscore.Metal.Weighted>
-0.0000

> <Gold.Chemscore.Lipo.Weighted>
-6.3680

> <Gold.Chemscore.Internal_Hbond.Weighted>
0.0000

> <Gold.Chemscore.DEClash.Weighted>
1.4552

> <Gold.Chemscore.DEInternal.Weighted>
3.1629

> <Gold.Chemscore.Rot.Weighted>
4.4320

> <Gold.Chemscore.Internal.Correction.Weighted>
   9.000000E+99

> <Gold.Protein.RotatedTorsions>
[ 6907 6896 6895 6894 ] final  -15.81 input  -60.11 | X-H torsion
[ 7974 7965 7964 7962 ] final  -65.37 input  175.53 | X-H torsion
[ 8008 7997 7996 7995 ] final  -17.60 input   59.86 | X-H torsion
[ 10167 10162 10161 10158 ] final -175.73 input  -65.29 | X-H torsion
[ 10718 10713 10712 10709 ] final -104.07 input   66.30 | X-H torsion
[ 10763 10752 10751 10750 ] final -134.65 input  -60.55 | X-H torsion
[ 11005 11000 10999 10996 ] final -131.54 input  -57.11 | X-H torsion

> <Gold.Protein.ActiveResidues>
 VAL166  LYS551  ARG553  GLY616  TRP617  ASP618  TYR619  PRO620  LYS621  CYS622 
 ASP623  PHE694  ASN695  SER759  ASP760  ASP761  ALA762  ILE779  LEU786  VAL792 
 PHE793  MET794  SER795  GLU796  ALA797  LYS798  CYS799  TRP800  GLU811  SER814 

> <Gold.Protein.RotatedAtoms>
  151.3182  135.0812  159.9296 H   0  0  0  0  0  0  0  0  0  0  0  0  # atno 6907 bound_to 6896
  152.5262  133.9666  159.7752 H   0  0  0  0  0  0  0  0  0  0  0  0  # atno 6908 bound_to 6896
  150.9982  133.6030  159.2729 H   0  0  0  0  0  0  0  0  0  0  0  0  # atno 6909 bound_to 6896
  145.7551  140.8889  143.0459 H   0  0  0  0  0  0  0  0  0  0  0  0  # atno 7974 bound_to 7965
  154.4967  140.2138  155.9433 H   0  0  0  0  0  0  0  0  0  0  0  0  # atno 8008 bound_to 7997
  156.1379  140.3185  155.8417 H   0  0  0  0  0  0  0  0  0  0  0  0  # atno 8009 bound_to 7997
  155.4175  140.0494  157.3018 H   0  0  0  0  0  0  0  0  0  0  0  0  # atno 8010 bound_to 7997
  139.5566  144.1974  152.1169 H   0  0  0  0  0  0  0  0  0  0  0  0  # atno 10167 bound_to 10162
  156.0290  130.5497  150.7344 H   0  0  0  0  0  0  0  0  0  0  0  0  # atno 10718 bound_to 10713
  154.8716  135.3728  154.4770 H   0  0  0  0  0  0  0  0  0  0  0  0  # atno 10763 bound_to 10752
  153.5426  135.7026  153.5634 H   0  0  0  0  0  0  0  0  0  0  0  0  # atno 10764 bound_to 10752
  153.3789  135.4002  155.1807 H   0  0  0  0  0  0  0  0  0  0  0  0  # atno 10765 bound_to 10752
  140.9249  134.1395  157.4283 H   0  0  0  0  0  0  0  0  0  0  0  0  # atno 11005 bound_to 11000
  144.6841  139.9645  143.7481 LP  0  0  0  0  0  0  0  0  0  0  0  0  # atno 17320 bound_to 7965
  146.0319  139.3342  143.0750 LP  0  0  0  0  0  0  0  0  0  0  0  0  # atno 17321 bound_to 7965
  140.1479  144.5141  150.6704 LP  0  0  0  0  0  0  0  0  0  0  0  0  # atno 17342 bound_to 10162
  140.6840  143.2340  151.5310 LP  0  0  0  0  0  0  0  0  0  0  0  0  # atno 17343 bound_to 10162
  157.4928  131.0912  151.0406 LP  0  0  0  0  0  0  0  0  0  0  0  0  # atno 17370 bound_to 10713
  157.0808  130.5902  149.5420 LP  0  0  0  0  0  0  0  0  0  0  0  0  # atno 17371 bound_to 10713
  139.8783  134.9985  156.5902 LP  0  0  0  0  0  0  0  0  0  0  0  0  # atno 17394 bound_to 11000
  140.7939  133.8560  155.8669 LP  0  0  0  0  0  0  0  0  0  0  0  0  # atno 17395 bound_to 11000

$$$$
