AV-unprocessed.smi:496|AV-procd|sdf|2722|dock7
  -GOLD-   2262023163D 1   1.00000     0.00000
 Structure written by MMmdl.
 42 44  0  0  0  0  0  0  0  0  3 V2000
  153.5017  139.1751  159.7592 C   0  0  0  0  0  0  0  0  0  0  0  0
  153.5876  139.6154  158.4128 O   0  0  0  0  0  0  0  0  0  0  0  0
  152.5531  139.1180  157.5766 C   0  0  0  0  0  0  0  0  0  0  0  0
  151.1631  139.5543  158.0708 C   0  0  0  0  0  0  0  0  0  0  0  0
  150.8578  140.9437  157.6780 N   0  0  0  0  0  0  0  0  0  0  0  0
  149.9651  141.4591  156.7719 C   0  0  0  0  0  0  0  0  0  0  0  0
  148.9975  140.7203  155.8816 C   0  0  2  0  0  0  0  0  0  0  0  0
  149.2576  141.0667  154.4093 C   0  0  0  0  0  0  0  0  0  0  0  0
  147.6059  141.0331  156.2106 N   0  5  0  0  0  0  0  0  0  0  0  0
  147.0178  140.7317  157.4035 C   0  0  0  0  0  0  0  0  0  0  0  0
  147.0052  139.6644  158.0266 O   0  0  0  0  0  0  0  0  0  0  0  0
  146.3161  141.8947  157.9960 C   0  0  0  0  0  0  0  0  0  0  0  0
  146.0154  143.1138  157.4484 C   0  0  0  0  0  0  0  0  0  0  0  0
  145.3329  143.8588  158.4496 C   0  0  0  0  0  0  0  0  0  0  0  0
  145.2631  143.0429  159.5416 C   0  0  0  0  0  0  0  0  0  0  0  0
  145.8550  141.8454  159.2841 O   0  0  0  0  0  0  0  0  0  0  0  0
  150.1018  142.8163  156.8106 N   0  3  0  0  0  0  0  0  0  0  0  0
  151.0613  143.1770  157.7543 C   0  0  0  0  0  0  0  0  0  0  0  0
  151.5248  144.4281  158.1486 C   0  0  0  0  0  0  0  0  0  0  0  0
  152.5116  144.4482  159.1557 C   0  0  0  0  0  0  0  0  0  0  0  0
  152.9977  143.2559  159.7301 C   0  0  0  0  0  0  0  0  0  0  0  0
  152.5205  141.9937  159.3199 C   0  0  0  0  0  0  0  0  0  0  0  0
  151.5468  141.9814  158.3206 C   0  0  0  0  0  0  0  0  0  0  0  0
  154.2937  139.6431  160.3436 H   0  0  0  0  0  0  0  0  0  0  0  0
  153.6245  138.0956  159.8435 H   0  0  0  0  0  0  0  0  0  0  0  0
  152.5471  139.4546  160.2065 H   0  0  0  0  0  0  0  0  0  0  0  0
  152.7153  139.4147  156.5390 H   0  0  0  0  0  0  0  0  0  0  0  0
  152.6151  138.0297  157.5981 H   0  0  0  0  0  0  0  0  0  0  0  0
  150.3872  138.8950  157.6824 H   0  0  0  0  0  0  0  0  0  0  0  0
  151.0909  139.4867  159.1555 H   0  0  0  0  0  0  0  0  0  0  0  0
  149.1911  139.6534  156.0007 H   0  0  0  0  0  0  0  0  0  0  0  0
  150.2774  140.8073  154.1236 H   0  0  0  0  0  0  0  0  0  0  0  0
  149.1179  142.1310  154.2163 H   0  0  0  0  0  0  0  0  0  0  0  0
  148.5840  140.5174  153.7505 H   0  0  0  0  0  0  0  0  0  0  0  0
  146.2587  143.4308  156.4450 H   0  0  0  0  0  0  0  0  0  0  0  0
  144.9426  144.8632  158.3790 H   0  0  0  0  0  0  0  0  0  0  0  0
  144.8490  143.1489  160.5334 H   0  0  0  0  0  0  0  0  0  0  0  0
  151.1487  145.3418  157.7124 H   0  0  0  0  0  0  0  0  0  0  0  0
  152.9000  145.3969  159.4968 H   0  0  0  0  0  0  0  0  0  0  0  0
  153.7510  143.3101  160.5026 H   0  0  0  0  0  0  0  0  0  0  0  0
  152.8971  141.0879  159.7716 H   0  0  0  0  0  0  0  0  0  0  0  0
  149.5489  143.4417  156.2385 H   0  0  0  0  0  0  0  0  0  0  0  0
  1  2  1  0  0  0  0
  1 24  1  0  0  0  0
  1 25  1  0  0  0  0
  1 26  1  0  0  0  0
  2  3  1  0  0  0  0
  3  4  1  0  0  0  0
  3 27  1  0  0  0  0
  3 28  1  0  0  0  0
  4  5  1  0  0  0  0
  4 29  1  0  0  0  0
  4 30  1  0  0  0  0
  5 23  1  0  0  0  0
  5  6  1  0  0  0  0
  6  7  1  0  0  0  0
  6 17  2  0  0  0  0
  7  8  1  0  0  0  0
  7  9  1  0  0  0  0
  7 31  1  0  0  0  0
  8 32  1  0  0  0  0
  8 33  1  0  0  0  0
  8 34  1  0  0  0  0
  9 10  1  0  0  0  0
 10 11  2  0  0  0  0
 10 12  1  0  0  0  0
 12 16  1  0  0  0  0
 12 13  2  0  0  0  0
 13 14  1  0  0  0  0
 13 35  1  0  0  0  0
 14 15  2  0  0  0  0
 14 36  1  0  0  0  0
 15 16  1  0  0  0  0
 15 37  1  0  0  0  0
 17 18  1  0  0  0  0
 17 42  1  0  0  0  0
 18 23  2  0  0  0  0
 18 19  1  0  0  0  0
 19 20  2  0  0  0  0
 19 38  1  0  0  0  0
 20 21  1  0  0  0  0
 20 39  1  0  0  0  0
 21 22  2  0  0  0  0
 21 40  1  0  0  0  0
 22 23  1  0  0  0  0
 22 41  1  0  0  0  0
M  CHG  1   9  -1
M  CHG  1  17   1
M  END
> <s_m_source_file>
AV-unprocessed.smi

> <i_m_source_file_index>
496

> <i_lp_mmshare_version>
43012

> <i_f3d_flags>
0

> <s_epik_input>
W2NIXTFbY0hdW2NIXVtjSF1jKGMxMiluKFtDSDJdW0NIMl1PW0NIM10pYyhuMilbQ0BIXShbQ0gzXSlbTkhdQyg9TyljM1tjSF1bY0hdW2NIXW8z

> <s_epik_cmdline>
J2VwaWtfcHl0aG9uJywgJy1waCcsICc3LjAnLCAnLXRuJywgJzgnLCAnLW1hJywgJzIwMCcsICctbWV0YWxfYmluZGluZycsICctaW1hZScsICc8aW5maWxlLm1hZT4nLCAnLW9tYWUnLCAnPG91dGZpbGUubWFlPic=

> <r_epik_Ionization_Penalty>
6.2189

> <r_epik_Ionization_Penalty_Charging>
6.2189

> <r_epik_Ionization_Penalty_Neutral>
2.56052e-12

> <r_epik_State_Penalty>
7.14475

> <r_epik_Charging_Adjusted_Penalty>
13.3636

> <i_epik_Tot_Q>
0

> <i_epik_Tot_abs_Q>
2

> <r_epik_Metal_State_Penalty>
3.17915

> <b_epik_Metal_Only>
1

> <s_lp_Force_Field>
OPLS_2005

> <r_lp_Energy>
11.1611

> <b_lp_Chiralities_Consistent>
1

> <s_lp_Variant>
AV-unprocessed.smi:496-7

> <Gold.Version>
5.8.1

> <Gold.Id.Protein>
6NUR|6NUR_protein|mol2

> <Gold.PLP.Fitness>
51.2032

> <Gold.PLP.PLP>
-40.5867

> <Gold.PLP.part.hbond>
-3.9462

> <Gold.PLP.part.metal>
0.0000

> <Gold.PLP.part.buried>
-5.2767

> <Gold.PLP.part.nonpolar>
-32.1782

> <Gold.PLP.part.repulsive>
0.0879

> <Gold.PLP.ligand.clash>
0.0000

> <Gold.PLP.ligand.torsion>
0.7265

> <Gold.PLP.Chemscore.Hbond>
4.0000

> <Gold.PLP.Chemscore.CHOScore>
0.0000

> <Gold.PLP.Chemscore.Metal>
0.0000

> <Gold.Chemscore.Hbonds>
donor molecule, donor type, donor heavy atom, donor atom, acceptor molecule, acceptor atom, score
      L1  H    17    42       P1  8028  2.00
      P1  H  6934  6946       L1    16  1.00
      P1  H  7997  8010       L1     2  1.00

> <Gold.PLP.Chemscore.Internal.Correction>
0.0695

> <Gold.Rescore>
     Score         DG    S(hbond)    S(metal)    S(lipo)     H(rot)  DE(clash)    DE(int)     intcor
     19.83     -22.01       2.83        0.00     100.55       1.83       0.00       2.18       ----

> <Gold.Chemscore.Fitness>
19.8321

> <Gold.Chemscore.DG>
-22.0090

> <Gold.Chemscore.ZeroCoef>
-5.4800

> <Gold.Chemscore.Hbond>
2.8326

> <Gold.Chemscore.Metal>
0.0000

> <Gold.Chemscore.Lipo>
100.5451

> <Gold.Chemscore.Internal_Hbond>
0.0000

> <Gold.Chemscore.DEClash>
0.0000

> <Gold.Chemscore.DEInternal>
2.1768

> <Gold.Chemscore.Rot>
1.8343

> <Gold.Chemscore.Internal.Correction>
   9.000000E+99

> <Gold.Chemscore.Hbonds>
donor molecule, donor type, donor heavy atom, donor atom, acceptor molecule, acceptor atom, score
      L1  H    17    42       P1  8028  0.95
      P1  H  6934  6946       L1    16  0.88
      P1  H  7997  8010       L1     2  0.30

> <Gold.Chemscore.Hbond.Weighted>
-9.4609

> <Gold.Chemscore.Metal.Weighted>
-0.0000

> <Gold.Chemscore.Lipo.Weighted>
-11.7638

> <Gold.Chemscore.Internal_Hbond.Weighted>
0.0000

> <Gold.Chemscore.DEClash.Weighted>
0.0000

> <Gold.Chemscore.DEInternal.Weighted>
2.1768

> <Gold.Chemscore.Rot.Weighted>
4.6958

> <Gold.Chemscore.Internal.Correction.Weighted>
   9.000000E+99

> <Gold.Protein.RotatedTorsions>
[ 6907 6896 6895 6894 ] final  -91.86 input  -60.11 | X-H torsion
[ 7974 7965 7964 7962 ] final  111.76 input  175.53 | X-H torsion
[ 8008 7997 7996 7995 ] final   16.11 input   59.86 | X-H torsion
[ 10167 10162 10161 10158 ] final  146.71 input  -65.29 | X-H torsion
[ 10718 10713 10712 10709 ] final  -25.10 input   66.30 | X-H torsion
[ 10763 10752 10751 10750 ] final  123.48 input  -60.55 | X-H torsion
[ 11005 11000 10999 10996 ] final  177.00 input  -57.11 | X-H torsion

> <Gold.Protein.ActiveResidues>
 VAL166  LYS551  ARG553  GLY616  TRP617  ASP618  TYR619  PRO620  LYS621  CYS622 
 ASP623  PHE694  ASN695  SER759  ASP760  ASP761  ALA762  ILE779  LEU786  VAL792 
 PHE793  MET794  SER795  GLU796  ALA797  LYS798  CYS799  TRP800  GLU811  SER814 

> <Gold.Protein.RotatedAtoms>
  150.6898  134.2211  159.4396 H   0  0  0  0  0  0  0  0  0  0  0  0  # atno 6907 bound_to 6896
  152.0167  134.9843  160.0579 H   0  0  0  0  0  0  0  0  0  0  0  0  # atno 6908 bound_to 6896
  152.1436  133.4444  159.4816 H   0  0  0  0  0  0  0  0  0  0  0  0  # atno 6909 bound_to 6896
  145.2382  139.2790  143.4132 H   0  0  0  0  0  0  0  0  0  0  0  0  # atno 7974 bound_to 7965
  154.8723  140.2960  155.5474 H   0  0  0  0  0  0  0  0  0  0  0  0  # atno 8008 bound_to 7997
  156.3021  140.2458  156.3647 H   0  0  0  0  0  0  0  0  0  0  0  0  # atno 8009 bound_to 7997
  154.8804  140.0398  157.1768 H   0  0  0  0  0  0  0  0  0  0  0  0  # atno 8010 bound_to 7997
  139.4902  144.5810  151.6872 H   0  0  0  0  0  0  0  0  0  0  0  0  # atno 10167 bound_to 10162
  156.4689  130.4520  149.6882 H   0  0  0  0  0  0  0  0  0  0  0  0  # atno 10718 bound_to 10713
  153.6463  135.3370  155.3086 H   0  0  0  0  0  0  0  0  0  0  0  0  # atno 10763 bound_to 10752
  154.8548  135.4330  154.1952 H   0  0  0  0  0  0  0  0  0  0  0  0  # atno 10764 bound_to 10752
  153.2883  135.7015  153.7392 H   0  0  0  0  0  0  0  0  0  0  0  0  # atno 10765 bound_to 10752
  140.3793  134.6961  157.4441 H   0  0  0  0  0  0  0  0  0  0  0  0  # atno 11005 bound_to 11000
  146.3335  140.2737  142.8607 LP  0  0  0  0  0  0  0  0  0  0  0  0  # atno 17320 bound_to 7965
  144.9614  140.8278  143.5511 LP  0  0  0  0  0  0  0  0  0  0  0  0  # atno 17321 bound_to 7965
  140.5416  144.0570  150.6090 LP  0  0  0  0  0  0  0  0  0  0  0  0  # atno 17342 bound_to 10162
  140.3594  143.2916  152.0400 LP  0  0  0  0  0  0  0  0  0  0  0  0  # atno 17343 bound_to 10162
  156.3639  130.7496  151.2471 LP  0  0  0  0  0  0  0  0  0  0  0  0  # atno 17370 bound_to 10713
  157.7493  131.0342  150.4307 LP  0  0  0  0  0  0  0  0  0  0  0  0  # atno 17371 bound_to 10713
  140.0491  134.6156  155.8884 LP  0  0  0  0  0  0  0  0  0  0  0  0  # atno 17394 bound_to 11000
  141.1929  133.6577  156.5522 LP  0  0  0  0  0  0  0  0  0  0  0  0  # atno 17395 bound_to 11000

$$$$
