AV-unprocessed.smi:1585|AV-procd|sdf|6370|dock5
  -GOLD-   22720 6593D 1   1.00000     0.00000
 Structure written by MMmdl.
 43 44  0  0  0  0  0  0  0  0  2 V2000
  151.9804  140.7656  158.5076 C   0  0  0  0  0  0  0  0  0  0  0  0
  151.5261  140.4185  157.1315 C   0  0  0  0  0  0  0  0  0  0  0  0
  150.3438  140.5963  156.4700 C   0  0  0  0  0  0  0  0  0  0  0  0
  150.6037  140.0212  155.1918 C   0  0  0  0  0  0  0  0  0  0  0  0
  149.6910  139.9298  154.1090 N   0  0  0  0  0  0  0  0  0  0  0  0
  148.3520  139.8295  154.1520 C   0  0  0  0  0  0  0  0  0  0  0  0
  147.6656  139.8554  155.1737 O   0  0  0  0  0  0  0  0  0  0  0  0
  147.8337  139.6992  152.9219 N   0  0  0  0  0  0  0  0  0  0  0  0
  146.4147  139.5277  152.6251 C   0  0  0  0  0  0  0  0  0  0  0  0
  146.1165  138.1653  151.9663 C   0  0  1  0  0  0  0  0  0  0  0  0
  147.2098  137.8326  151.1333 O   0  0  0  0  0  0  0  0  0  0  0  0
  145.9750  137.0500  153.0223 C   0  0  0  0  0  0  0  0  0  0  0  0
  146.2950  135.7029  152.4832 N   0  3  0  0  0  0  0  0  0  0  0  0
  146.2457  134.6516  153.5329 C   0  0  0  0  0  0  0  0  0  0  0  0
  146.7215  133.2947  152.9865 C   0  0  0  0  0  0  0  0  0  0  0  0
  145.9030  132.8774  151.7579 C   0  0  0  0  0  0  0  0  0  0  0  0
  145.9381  133.9904  150.7028 C   0  0  0  0  0  0  0  0  0  0  0  0
  145.4755  135.3308  151.2983 C   0  0  0  0  0  0  0  0  0  0  0  0
  151.8303  139.5438  155.0888 N   0  0  0  0  0  0  0  0  0  0  0  0
  152.4291  139.7938  156.3290 O   0  0  0  0  0  0  0  0  0  0  0  0
  151.2315  141.3658  159.0245 H   0  0  0  0  0  0  0  0  0  0  0  0
  152.9088  141.3358  158.4768 H   0  0  0  0  0  0  0  0  0  0  0  0
  152.1553  139.8640  159.0948 H   0  0  0  0  0  0  0  0  0  0  0  0
  149.4491  141.0605  156.8560 H   0  0  0  0  0  0  0  0  0  0  0  0
  150.1137  139.9114  153.1926 H   0  0  0  0  0  0  0  0  0  0  0  0
  148.4678  139.6873  152.1360 H   0  0  0  0  0  0  0  0  0  0  0  0
  145.8358  139.6539  153.5410 H   0  0  0  0  0  0  0  0  0  0  0  0
  146.1059  140.3387  151.9631 H   0  0  0  0  0  0  0  0  0  0  0  0
  145.2123  138.2322  151.3624 H   0  0  0  0  0  0  0  0  0  0  0  0
  147.6626  137.0946  151.5131 H   0  0  0  0  0  0  0  0  0  0  0  0
  146.6379  137.2818  153.8576 H   0  0  0  0  0  0  0  0  0  0  0  0
  144.9645  137.0368  153.4341 H   0  0  0  0  0  0  0  0  0  0  0  0
  146.8811  134.9383  154.3719 H   0  0  0  0  0  0  0  0  0  0  0  0
  145.2282  134.5682  153.9184 H   0  0  0  0  0  0  0  0  0  0  0  0
  147.7774  133.3573  152.7199 H   0  0  0  0  0  0  0  0  0  0  0  0
  146.6432  132.5325  153.7623 H   0  0  0  0  0  0  0  0  0  0  0  0
  146.2948  131.9492  151.3409 H   0  0  0  0  0  0  0  0  0  0  0  0
  144.8714  132.6787  152.0511 H   0  0  0  0  0  0  0  0  0  0  0  0
  146.9512  134.0936  150.3118 H   0  0  0  0  0  0  0  0  0  0  0  0
  145.3057  133.7202  149.8564 H   0  0  0  0  0  0  0  0  0  0  0  0
  144.4246  135.2693  151.5856 H   0  0  0  0  0  0  0  0  0  0  0  0
  145.5453  136.0985  150.5289 H   0  0  0  0  0  0  0  0  0  0  0  0
  147.2567  135.7469  152.1765 H   0  0  0  0  0  0  0  0  0  0  0  0
  1  2  1  0  0  0  0
  1 21  1  0  0  0  0
  1 22  1  0  0  0  0
  1 23  1  0  0  0  0
  2 20  1  0  0  0  0
  2  3  2  0  0  0  0
  3  4  1  0  0  0  0
  3 24  1  0  0  0  0
  4  5  1  0  0  0  0
  4 19  2  0  0  0  0
  5  6  1  0  0  0  0
  5 25  1  0  0  0  0
  6  7  2  0  0  0  0
  6  8  1  0  0  0  0
  8  9  1  0  0  0  0
  8 26  1  0  0  0  0
  9 10  1  0  0  0  0
  9 27  1  0  0  0  0
  9 28  1  0  0  0  0
 10 11  1  0  0  0  0
 10 12  1  0  0  0  0
 10 29  1  0  0  0  0
 11 30  1  0  0  0  0
 12 13  1  0  0  0  0
 12 31  1  0  0  0  0
 12 32  1  0  0  0  0
 13 18  1  0  0  0  0
 13 14  1  0  0  0  0
 13 43  1  0  0  0  0
 14 15  1  0  0  0  0
 14 33  1  0  0  0  0
 14 34  1  0  0  0  0
 15 16  1  0  0  0  0
 15 35  1  0  0  0  0
 15 36  1  0  0  0  0
 16 17  1  0  0  0  0
 16 37  1  0  0  0  0
 16 38  1  0  0  0  0
 17 18  1  0  0  0  0
 17 39  1  0  0  0  0
 17 40  1  0  0  0  0
 18 41  1  0  0  0  0
 18 42  1  0  0  0  0
 19 20  1  0  0  0  0
M  CHG  1  13   1
M  END
> <s_m_source_file>
AV-unprocessed.smi

> <i_m_source_file_index>
1585

> <i_lp_mmshare_version>
43012

> <i_f3d_flags>
0

> <s_epik_input>
W0NIM11jMVtjSF1jKG5vMSlbTkhdQyg9TylbTkhdW0NIMl1bQ0BIXShbT0hdKVtDSDJdTjJbQ0gyXVtDSDJdW0NIMl1bQ0gyXVtDSDJdMg==

> <s_epik_cmdline>
J2VwaWtfcHl0aG9uJywgJy1waCcsICc3LjAnLCAnLXRuJywgJzgnLCAnLW1hJywgJzIwMCcsICctbWV0YWxfYmluZGluZycsICctaW1hZScsICc8aW5maWxlLm1hZT4nLCAnLW9tYWUnLCAnPG91dGZpbGUubWFlPic=

> <r_epik_Ionization_Penalty>
0.00531443

> <r_epik_Ionization_Penalty_Charging>
0.0052814

> <r_epik_Ionization_Penalty_Neutral>
3.3027e-05

> <r_epik_State_Penalty>
0.00385383

> <r_epik_Charging_Adjusted_Penalty>
0.00913523

> <i_epik_Tot_Q>
1

> <i_epik_Tot_abs_Q>
1

> <r_epik_Metal_State_Penalty>
0.0139186

> <b_epik_Metal_Only>
0

> <s_lp_Force_Field>
OPLS_2005

> <r_lp_Energy>
18.0129

> <b_lp_Chiralities_Consistent>
1

> <s_lp_Variant>
AV-unprocessed.smi:1585-2

> <Gold.Version>
5.8.1

> <Gold.Id.Protein>
6NUR|6NUR_protein|mol2

> <Gold.PLP.Fitness>
49.4067

> <Gold.PLP.PLP>
-31.5017

> <Gold.PLP.part.hbond>
-6.8378

> <Gold.PLP.part.metal>
0.0000

> <Gold.PLP.part.buried>
-1.2377

> <Gold.PLP.part.nonpolar>
-24.8034

> <Gold.PLP.part.repulsive>
0.9311

> <Gold.PLP.ligand.clash>
0.0000

> <Gold.PLP.ligand.torsion>
0.7386

> <Gold.PLP.Chemscore.Hbond>
6.4405

> <Gold.PLP.Chemscore.CHOScore>
0.0000

> <Gold.PLP.Chemscore.Metal>
0.0000

> <Gold.Chemscore.Hbonds>
donor molecule, donor type, donor heavy atom, donor atom, acceptor molecule, acceptor atom, score
      L1  H     5    25       P1  7957  0.70
      L1  H     8    26       P1  7957  0.99
      L1  H    11    30       P1  7948  1.00
      L1  H    13    43       P1  7948  2.00
      P1  H  7954  7966       L1    11  0.60
      P1  H  7997  8008       L1    20  1.00

> <Gold.PLP.Chemscore.Internal.Correction>
0.0607

> <Gold.Rescore>
     Score         DG    S(hbond)    S(metal)    S(lipo)     H(rot)  DE(clash)    DE(int)     intcor
     20.07     -22.23       4.76        0.00      61.80       2.50       1.43       0.73       ----

> <Gold.Chemscore.Fitness>
20.0733

> <Gold.Chemscore.DG>
-22.2331

> <Gold.Chemscore.ZeroCoef>
-5.4800

> <Gold.Chemscore.Hbond>
4.7635

> <Gold.Chemscore.Metal>
0.0000

> <Gold.Chemscore.Lipo>
61.8027

> <Gold.Chemscore.Internal_Hbond>
0.0000

> <Gold.Chemscore.DEClash>
1.4320

> <Gold.Chemscore.DEInternal>
0.7278

> <Gold.Chemscore.Rot>
2.4953

> <Gold.Chemscore.Internal.Correction>
   9.000000E+99

> <Gold.Chemscore.Hbonds>
donor molecule, donor type, donor heavy atom, donor atom, acceptor molecule, acceptor atom, score
      L1  H     5    25       P1  7957  0.68
      L1  H     8    26       P1  7957  0.92
      L1  H    11    30       P1  7948  0.92
      L1  H    13    43       P1  7948  1.00
      P1  H  7954  7966       L1    11  0.04
      P1  H  7997  8008       L1    20  0.96

> <Gold.Chemscore.Hbond.Weighted>
-15.9102

> <Gold.Chemscore.Metal.Weighted>
-0.0000

> <Gold.Chemscore.Lipo.Weighted>
-7.2309

> <Gold.Chemscore.Internal_Hbond.Weighted>
0.0000

> <Gold.Chemscore.DEClash.Weighted>
1.4320

> <Gold.Chemscore.DEInternal.Weighted>
0.7278

> <Gold.Chemscore.Rot.Weighted>
6.3880

> <Gold.Chemscore.Internal.Correction.Weighted>
   9.000000E+99

> <Gold.Protein.RotatedTorsions>
[ 6907 6896 6895 6894 ] final    5.34 input  -60.11 | X-H torsion
[ 7974 7965 7964 7962 ] final  -55.25 input  175.53 | X-H torsion
[ 8008 7997 7996 7995 ] final  -47.59 input   59.86 | X-H torsion
[ 10167 10162 10161 10158 ] final   87.03 input  -65.29 | X-H torsion
[ 10718 10713 10712 10709 ] final  144.93 input   66.30 | X-H torsion
[ 10763 10752 10751 10750 ] final -105.42 input  -60.55 | X-H torsion
[ 11005 11000 10999 10996 ] final  -39.07 input  -57.11 | X-H torsion

> <Gold.Protein.ActiveResidues>
 VAL166  LYS551  ARG553  GLY616  TRP617  ASP618  TYR619  PRO620  LYS621  CYS622 
 ASP623  PHE694  ASN695  SER759  ASP760  ASP761  ALA762  ILE779  LEU786  VAL792 
 PHE793  MET794  SER795  GLU796  ALA797  LYS798  CYS799  TRP800  GLU811  SER814 

> <Gold.Protein.RotatedAtoms>
  151.6559  135.0995  160.0169 H   0  0  0  0  0  0  0  0  0  0  0  0  # atno 6907 bound_to 6896
  152.3974  133.6763  159.6296 H   0  0  0  0  0  0  0  0  0  0  0  0  # atno 6908 bound_to 6896
  150.7879  133.8766  159.3315 H   0  0  0  0  0  0  0  0  0  0  0  0  # atno 6909 bound_to 6896
  145.8763  140.8179  142.9863 H   0  0  0  0  0  0  0  0  0  0  0  0  # atno 7974 bound_to 7965
  154.4018  140.1342  156.4200 H   0  0  0  0  0  0  0  0  0  0  0  0  # atno 8008 bound_to 7997
  155.7651  140.3485  155.5198 H   0  0  0  0  0  0  0  0  0  0  0  0  # atno 8009 bound_to 7997
  155.8821  140.0989  157.1468 H   0  0  0  0  0  0  0  0  0  0  0  0  # atno 8010 bound_to 7997
  139.8815  144.6437  150.8837 H   0  0  0  0  0  0  0  0  0  0  0  0  # atno 10167 bound_to 10162
  157.3513  131.0951  151.0998 H   0  0  0  0  0  0  0  0  0  0  0  0  # atno 10718 bound_to 10713
  154.7945  135.4750  154.0129 H   0  0  0  0  0  0  0  0  0  0  0  0  # atno 10763 bound_to 10752
  153.1682  135.6820  153.8652 H   0  0  0  0  0  0  0  0  0  0  0  0  # atno 10764 bound_to 10752
  153.8243  135.3200  155.3391 H   0  0  0  0  0  0  0  0  0  0  0  0  # atno 10765 bound_to 10752
  141.0075  133.6924  156.2137 H   0  0  0  0  0  0  0  0  0  0  0  0  # atno 11005 bound_to 11000
  144.6726  140.1315  143.7443 LP  0  0  0  0  0  0  0  0  0  0  0  0  # atno 17320 bound_to 7965
  145.9077  139.2468  143.1456 LP  0  0  0  0  0  0  0  0  0  0  0  0  # atno 17321 bound_to 7965
  140.7743  143.3582  151.1880 LP  0  0  0  0  0  0  0  0  0  0  0  0  # atno 17342 bound_to 10162
  139.7191  143.9252  152.2978 LP  0  0  0  0  0  0  0  0  0  0  0  0  # atno 17343 bound_to 10162
  157.2172  130.6465  149.5797 LP  0  0  0  0  0  0  0  0  0  0  0  0  # atno 17370 bound_to 10713
  155.9722  130.4641  150.6205 LP  0  0  0  0  0  0  0  0  0  0  0  0  # atno 17371 bound_to 10713
  140.6789  134.4788  157.5588 LP  0  0  0  0  0  0  0  0  0  0  0  0  # atno 17394 bound_to 11000
  139.9071  134.8425  156.1665 LP  0  0  0  0  0  0  0  0  0  0  0  0  # atno 17395 bound_to 11000

$$$$
