AV-unprocessed.smi:1406|AV-procd|sdf|5720|dock2
  -GOLD-   22720 5353D 1   1.00000     0.00000
 Structure written by MMmdl.
 41 43  0  0  0  0  0  0  0  0  2 V2000
  148.5749  139.9252  154.2348 C   0  0  0  0  0  0  0  0  0  0  0  0
  149.9115  140.3134  154.8992 C   0  0  1  0  0  0  0  0  0  0  0  0
  149.7682  140.6124  156.4004 C   0  0  0  0  0  0  0  0  0  0  0  0
  148.6983  140.4266  156.9813 O   0  0  0  0  0  0  0  0  0  0  0  0
  150.8633  141.0814  157.0194 N   0  0  0  0  0  0  0  0  0  0  0  0
  150.9538  141.4055  158.4397 C   0  0  1  0  0  0  0  0  0  0  0  0
  151.9307  140.4919  159.2004 C   0  0  0  0  0  0  0  0  0  0  0  0
  152.6260  141.4044  160.2302 C   0  0  0  0  0  0  0  0  0  0  0  0
  151.9764  142.7212  160.0875 N   0  3  1  0  0  0  0  0  0  0  0  0
  152.7524  143.9057  160.5147 C   0  0  0  0  0  0  0  0  0  0  0  0
  151.8754  145.1657  160.3713 C   0  0  0  0  0  0  0  0  0  0  0  0
  151.2862  145.2939  158.9518 C   0  0  0  0  0  0  0  0  0  0  0  0
  150.5722  143.9966  158.5257 C   0  0  0  0  0  0  0  0  0  0  0  0
  151.5286  142.8027  158.6888 C   0  0  2  0  0  0  0  0  0  0  0  0
  150.9435  139.3076  154.6794 N   0  0  0  0  0  0  0  0  0  0  0  0
  150.8605  138.1020  154.1122 C   0  0  0  0  0  0  0  0  0  0  0  0
  152.0186  137.4616  154.0359 N   0  0  0  0  0  0  0  0  0  0  0  0
  152.8343  138.3963  154.6078 C   0  0  0  0  0  0  0  0  0  0  0  0
  152.2432  139.5243  155.0016 N   0  0  0  0  0  0  0  0  0  0  0  0
  147.8297  140.7115  154.3610 H   0  0  0  0  0  0  0  0  0  0  0  0
  148.1604  139.0069  154.6530 H   0  0  0  0  0  0  0  0  0  0  0  0
  148.7052  139.7692  153.1635 H   0  0  0  0  0  0  0  0  0  0  0  0
  150.2533  141.2327  154.4205 H   0  0  0  0  0  0  0  0  0  0  0  0
  151.7006  141.2043  156.4684 H   0  0  0  0  0  0  0  0  0  0  0  0
  149.9731  141.3259  158.9139 H   0  0  0  0  0  0  0  0  0  0  0  0
  151.4032  139.6662  159.6794 H   0  0  0  0  0  0  0  0  0  0  0  0
  152.6758  140.0590  158.5312 H   0  0  0  0  0  0  0  0  0  0  0  0
  152.5256  141.0333  161.2505 H   0  0  0  0  0  0  0  0  0  0  0  0
  153.6900  141.4836  160.0016 H   0  0  0  0  0  0  0  0  0  0  0  0
  153.0682  143.7829  161.5513 H   0  0  0  0  0  0  0  0  0  0  0  0
  153.6559  143.9971  159.9098 H   0  0  0  0  0  0  0  0  0  0  0  0
  151.0601  145.1210  161.0949 H   0  0  0  0  0  0  0  0  0  0  0  0
  152.4556  146.0556  160.6171 H   0  0  0  0  0  0  0  0  0  0  0  0
  150.5944  146.1356  158.9063 H   0  0  0  0  0  0  0  0  0  0  0  0
  152.0882  145.5147  158.2458 H   0  0  0  0  0  0  0  0  0  0  0  0
  149.6769  143.8478  159.1312 H   0  0  0  0  0  0  0  0  0  0  0  0
  150.2405  144.0807  157.4905 H   0  0  0  0  0  0  0  0  0  0  0  0
  152.4040  142.9489  158.0512 H   0  0  0  0  0  0  0  0  0  0  0  0
  149.9345  137.6856  153.7435 H   0  0  0  0  0  0  0  0  0  0  0  0
  153.8963  138.2438  154.7312 H   0  0  0  0  0  0  0  0  0  0  0  0
  151.1396  142.6904  160.6525 H   0  0  0  0  0  0  0  0  0  0  0  0
  1  2  1  0  0  0  0
  1 20  1  0  0  0  0
  1 21  1  0  0  0  0
  1 22  1  0  0  0  0
  2  3  1  0  0  0  0
  2 15  1  0  0  0  0
  2 23  1  0  0  0  0
  3  4  2  0  0  0  0
  3  5  1  0  0  0  0
  5  6  1  0  0  0  0
  5 24  1  0  0  0  0
  6 14  1  0  0  0  0
  6  7  1  0  0  0  0
  6 25  1  0  0  0  0
  7  8  1  0  0  0  0
  7 26  1  0  0  0  0
  7 27  1  0  0  0  0
  8  9  1  0  0  0  0
  8 28  1  0  0  0  0
  8 29  1  0  0  0  0
  9 14  1  0  0  0  0
  9 10  1  0  0  0  0
  9 41  1  0  0  0  0
 10 11  1  0  0  0  0
 10 30  1  0  0  0  0
 10 31  1  0  0  0  0
 11 12  1  0  0  0  0
 11 32  1  0  0  0  0
 11 33  1  0  0  0  0
 12 13  1  0  0  0  0
 12 34  1  0  0  0  0
 12 35  1  0  0  0  0
 13 14  1  0  0  0  0
 13 36  1  0  0  0  0
 13 37  1  0  0  0  0
 14 38  1  0  0  0  0
 15 19  1  0  0  0  0
 15 16  1  0  0  0  0
 16 17  2  0  0  0  0
 16 39  1  0  0  0  0
 17 18  1  0  0  0  0
 18 19  2  0  0  0  0
 18 40  1  0  0  0  0
M  CHG  1   9   1
M  END
> <s_m_source_file>
AV-unprocessed.smi

> <i_m_source_file_index>
1406

> <i_lp_mmshare_version>
43012

> <i_f3d_flags>
0

> <s_epik_input>
bjFbY0hdbltjSF1uMVtDQEhdKFtDSDNdKUMoPU8pW05IXVtDQEhdKFtDSDJdW0NIMl0yKVtDQEBIXShOMjMpW0NIMl1bQ0gyXVtDSDJdW0NIMl0z

> <s_epik_cmdline>
J2VwaWtfcHl0aG9uJywgJy1waCcsICc3LjAnLCAnLXRuJywgJzgnLCAnLW1hJywgJzIwMCcsICctbWV0YWxfYmluZGluZycsICctaW1hZScsICc8aW5maWxlLm1hZT4nLCAnLW9tYWUnLCAnPG91dGZpbGUubWFlPic=

> <r_lp_tautomer_probability>
1

> <r_epik_Ionization_Penalty>
0.00197066

> <r_epik_Ionization_Penalty_Charging>
0.00196223

> <r_epik_Ionization_Penalty_Neutral>
8.43107e-06

> <r_epik_State_Penalty>
0.00133866

> <r_epik_Charging_Adjusted_Penalty>
0.00330089

> <i_epik_Tot_Q>
1

> <i_epik_Tot_abs_Q>
1

> <r_epik_Metal_State_Penalty>
-0

> <b_epik_Metal_Only>
0

> <s_lp_Force_Field>
OPLS_2005

> <r_lp_Energy>
39.8871

> <b_lp_Chiralities_Consistent>
1

> <s_lp_Variant>
AV-unprocessed.smi:1406-12

> <Gold.Version>
5.8.1

> <Gold.Id.Protein>
6NUR|6NUR_protein|mol2

> <Gold.PLP.Fitness>
44.8347

> <Gold.PLP.PLP>
-39.2599

> <Gold.PLP.part.hbond>
-2.0000

> <Gold.PLP.part.metal>
0.0000

> <Gold.PLP.part.buried>
-5.4797

> <Gold.PLP.part.nonpolar>
-32.1610

> <Gold.PLP.part.repulsive>
0.8314

> <Gold.PLP.ligand.clash>
0.0000

> <Gold.PLP.ligand.torsion>
0.1660

> <Gold.PLP.Chemscore.Hbond>
0.9440

> <Gold.PLP.Chemscore.CHOScore>
0.9891

> <Gold.PLP.Chemscore.Metal>
0.0000

> <Gold.Chemscore.Hbonds>
donor molecule, donor type, donor heavy atom, donor atom, acceptor molecule, acceptor atom, score
      P1  H 10752 10763       L1    17  0.94
      L1  C    16    39       P1  7948  0.99

> <Gold.PLP.Chemscore.Internal.Correction>
0.1075

> <Gold.Rescore>
     Score         DG    S(hbond)    S(metal)    S(lipo)     H(rot)  DE(clash)    DE(int)     intcor
     12.19     -13.81       0.74        0.00      91.48       1.89       0.17       1.44       ----

> <Gold.Chemscore.Fitness>
12.1946

> <Gold.Chemscore.DG>
-13.8082

> <Gold.Chemscore.ZeroCoef>
-5.4800

> <Gold.Chemscore.Hbond>
0.7350

> <Gold.Chemscore.Metal>
0.0000

> <Gold.Chemscore.Lipo>
91.4770

> <Gold.Chemscore.Internal_Hbond>
0.0000

> <Gold.Chemscore.DEClash>
0.1698

> <Gold.Chemscore.DEInternal>
1.4439

> <Gold.Chemscore.Rot>
1.8865

> <Gold.Chemscore.Internal.Correction>
   9.000000E+99

> <Gold.Chemscore.Hbonds>
donor molecule, donor type, donor heavy atom, donor atom, acceptor molecule, acceptor atom, score
      P1  H 10752 10763       L1    17  0.52

> <Gold.Chemscore.Hbond.Weighted>
-2.4550

> <Gold.Chemscore.Metal.Weighted>
-0.0000

> <Gold.Chemscore.Lipo.Weighted>
-10.7028

> <Gold.Chemscore.Internal_Hbond.Weighted>
0.0000

> <Gold.Chemscore.DEClash.Weighted>
0.1698

> <Gold.Chemscore.DEInternal.Weighted>
1.4439

> <Gold.Chemscore.Rot.Weighted>
4.8295

> <Gold.Chemscore.Internal.Correction.Weighted>
   9.000000E+99

> <Gold.Protein.RotatedTorsions>
[ 6907 6896 6895 6894 ] final   70.05 input  -60.11 | X-H torsion
[ 7974 7965 7964 7962 ] final  105.50 input  175.53 | X-H torsion
[ 8008 7997 7996 7995 ] final  -26.07 input   59.86 | X-H torsion
[ 10167 10162 10161 10158 ] final -170.15 input  -65.29 | X-H torsion
[ 10718 10713 10712 10709 ] final -176.80 input   66.30 | X-H torsion
[ 10763 10752 10751 10750 ] final   29.12 input  -60.55 | X-H torsion
[ 11005 11000 10999 10996 ] final  137.72 input  -57.11 | X-H torsion

> <Gold.Protein.ActiveResidues>
 VAL166  LYS551  ARG553  GLY616  TRP617  ASP618  TYR619  PRO620  LYS621  CYS622 
 ASP623  PHE694  ASN695  SER759  ASP760  ASP761  ALA762  ILE779  LEU786  VAL792 
 PHE793  MET794  SER795  GLU796  ALA797  LYS798  CYS799  TRP800  GLU811  SER814 

> <Gold.Protein.RotatedAtoms>
  152.4725  134.4926  159.9699 H   0  0  0  0  0  0  0  0  0  0  0  0  # atno 6907 bound_to 6896
  151.4949  133.3511  159.2867 H   0  0  0  0  0  0  0  0  0  0  0  0  # atno 6908 bound_to 6896
  150.8743  134.8150  159.7239 H   0  0  0  0  0  0  0  0  0  0  0  0  # atno 6909 bound_to 6896
  145.3188  139.2519  143.3723 H   0  0  0  0  0  0  0  0  0  0  0  0  # atno 7974 bound_to 7965
  154.4443  140.1909  156.0718 H   0  0  0  0  0  0  0  0  0  0  0  0  # atno 8008 bound_to 7997
  156.0505  140.3309  155.7319 H   0  0  0  0  0  0  0  0  0  0  0  0  # atno 8009 bound_to 7997
  155.5564  140.0599  157.2829 H   0  0  0  0  0  0  0  0  0  0  0  0  # atno 8010 bound_to 7997
  139.5879  144.1278  152.1598 H   0  0  0  0  0  0  0  0  0  0  0  0  # atno 10167 bound_to 10162
  156.8200  130.9616  151.3112 H   0  0  0  0  0  0  0  0  0  0  0  0  # atno 10718 bound_to 10713
  153.0450  135.6497  154.0841 H   0  0  0  0  0  0  0  0  0  0  0  0  # atno 10763 bound_to 10752
  154.0541  135.2893  155.3337 H   0  0  0  0  0  0  0  0  0  0  0  0  # atno 10764 bound_to 10752
  154.6701  135.5359  153.8192 H   0  0  0  0  0  0  0  0  0  0  0  0  # atno 10765 bound_to 10752
  140.0134  134.9429  157.0324 H   0  0  0  0  0  0  0  0  0  0  0  0  # atno 11005 bound_to 11000
  146.3090  140.3741  142.8677 LP  0  0  0  0  0  0  0  0  0  0  0  0  # atno 17320 bound_to 7965
  144.8956  140.7579  143.5899 LP  0  0  0  0  0  0  0  0  0  0  0  0  # atno 17321 bound_to 7965
  140.0846  144.5672  150.7098 LP  0  0  0  0  0  0  0  0  0  0  0  0  # atno 17342 bound_to 10162
  140.7147  143.2534  151.4471 LP  0  0  0  0  0  0  0  0  0  0  0  0  # atno 17343 bound_to 10162
  157.6462  130.8846  149.9542 LP  0  0  0  0  0  0  0  0  0  0  0  0  # atno 17370 bound_to 10713
  156.0994  130.3657  150.0246 LP  0  0  0  0  0  0  0  0  0  0  0  0  # atno 17371 bound_to 10713
  140.4515  134.1578  155.7182 LP  0  0  0  0  0  0  0  0  0  0  0  0  # atno 17394 bound_to 11000
  141.1726  133.8578  157.1523 LP  0  0  0  0  0  0  0  0  0  0  0  0  # atno 17395 bound_to 11000

$$$$
