AV-unprocessed.smi:2283|AV-procd|sdf|9200|dock8
  -GOLD-   2272012413D 1   1.00000     0.00000
 Structure written by MMmdl.
 37 38  0  0  0  0  0  0  0  0  1 V2000
  151.5970  144.6730  160.2711 C   0  0  0  0  0  0  0  0  0  0  0  0
  152.2107  143.2877  160.1588 C   0  0  0  0  0  0  0  0  0  0  0  0
  153.2252  142.9236  161.0706 C   0  0  0  0  0  0  0  0  0  0  0  0
  153.8131  141.6468  161.0159 C   0  0  0  0  0  0  0  0  0  0  0  0
  153.3865  140.7208  160.0484 C   0  0  0  0  0  0  0  0  0  0  0  0
  152.3775  141.0755  159.1343 C   0  0  0  0  0  0  0  0  0  0  0  0
  151.7854  142.3596  159.1708 C   0  0  0  0  0  0  0  0  0  0  0  0
  150.6874  142.7042  158.1645 C   0  0  1  0  0  0  0  0  0  0  0  0
  151.0961  143.7311  157.2819 O   0  0  0  0  0  0  0  0  0  0  0  0
  150.2951  141.4593  157.3364 C   0  0  0  0  0  0  0  0  0  0  0  0
  149.0070  141.6280  156.6404 N   0  0  0  0  0  0  0  0  0  0  0  0
  147.9230  142.0508  157.4282 C   0  0  0  0  0  0  0  0  0  0  0  0
  146.7477  142.2388  156.9239 N   0  0  0  0  0  0  0  0  0  0  0  0
  146.5320  142.0214  155.5602 C   0  0  0  0  0  0  0  0  0  0  0  0
  145.1166  142.2739  155.0718 C   0  0  0  0  0  0  0  0  0  0  0  0
  147.5390  141.6105  154.7419 C   0  0  0  0  0  0  0  0  0  0  0  0
  147.3631  141.3585  153.2496 C   0  0  0  0  0  0  0  0  0  0  0  0
  148.8823  141.3906  155.3026 C   0  0  0  0  0  0  0  0  0  0  0  0
  149.8365  141.0177  154.6177 O   0  0  0  0  0  0  0  0  0  0  0  0
  151.9606  145.1983  161.1547 H   0  0  0  0  0  0  0  0  0  0  0  0
  150.5120  144.6079  160.3498 H   0  0  0  0  0  0  0  0  0  0  0  0
  151.8499  145.2747  159.3978 H   0  0  0  0  0  0  0  0  0  0  0  0
  153.5575  143.6243  161.8226 H   0  0  0  0  0  0  0  0  0  0  0  0
  154.5876  141.3769  161.7187 H   0  0  0  0  0  0  0  0  0  0  0  0
  153.8315  139.7374  160.0076 H   0  0  0  0  0  0  0  0  0  0  0  0
  152.0571  140.3488  158.4020 H   0  0  0  0  0  0  0  0  0  0  0  0
  149.8168  143.0907  158.6921 H   0  0  0  0  0  0  0  0  0  0  0  0
  150.3291  144.2033  156.9958 H   0  0  0  0  0  0  0  0  0  0  0  0
  151.0996  141.1865  156.6510 H   0  0  0  0  0  0  0  0  0  0  0  0
  150.2135  140.5996  158.0052 H   0  0  0  0  0  0  0  0  0  0  0  0
  148.1451  142.2100  158.4847 H   0  0  0  0  0  0  0  0  0  0  0  0
  145.1088  143.0531  154.3091 H   0  0  0  0  0  0  0  0  0  0  0  0
  144.4666  142.5972  155.8857 H   0  0  0  0  0  0  0  0  0  0  0  0
  144.6916  141.3643  154.6464 H   0  0  0  0  0  0  0  0  0  0  0  0
  147.6087  140.3231  153.0112 H   0  0  0  0  0  0  0  0  0  0  0  0
  148.0305  142.0049  152.6787 H   0  0  0  0  0  0  0  0  0  0  0  0
  146.3494  141.5440  152.8987 H   0  0  0  0  0  0  0  0  0  0  0  0
  1  2  1  0  0  0  0
  1 20  1  0  0  0  0
  1 21  1  0  0  0  0
  1 22  1  0  0  0  0
  2  7  1  0  0  0  0
  2  3  2  0  0  0  0
  3  4  1  0  0  0  0
  3 23  1  0  0  0  0
  4  5  2  0  0  0  0
  4 24  1  0  0  0  0
  5  6  1  0  0  0  0
  5 25  1  0  0  0  0
  6  7  2  0  0  0  0
  6 26  1  0  0  0  0
  7  8  1  0  0  0  0
  8  9  1  0  0  0  0
  8 10  1  0  0  0  0
  8 27  1  0  0  0  0
  9 28  1  0  0  0  0
 10 11  1  0  0  0  0
 10 29  1  0  0  0  0
 10 30  1  0  0  0  0
 11 18  1  0  0  0  0
 11 12  1  0  0  0  0
 12 13  2  0  0  0  0
 12 31  1  0  0  0  0
 13 14  1  0  0  0  0
 14 15  1  0  0  0  0
 14 16  2  0  0  0  0
 15 32  1  0  0  0  0
 15 33  1  0  0  0  0
 15 34  1  0  0  0  0
 16 17  1  0  0  0  0
 16 18  1  0  0  0  0
 17 35  1  0  0  0  0
 17 36  1  0  0  0  0
 17 37  1  0  0  0  0
 18 19  2  0  0  0  0
M  END
> <s_m_source_file>
AV-unprocessed.smi

> <i_m_source_file_index>
2283

> <i_lp_mmshare_version>
43012

> <i_f3d_flags>
0

> <s_epik_input>
W0NIM11jMVtjSF1bY0hdW2NIXVtjSF1jMVtDQEhdKFtPSF0pW0NIMl1uMltjSF1uYyhbQ0gzXSljKFtDSDNdKWMyPU8=

> <s_epik_cmdline>
J2VwaWtfcHl0aG9uJywgJy1waCcsICc3LjAnLCAnLXRuJywgJzgnLCAnLW1hJywgJzIwMCcsICctbWV0YWxfYmluZGluZycsICctaW1hZScsICc8aW5maWxlLm1hZT4nLCAnLW9tYWUnLCAnPG91dGZpbGUubWFlPic=

> <r_lp_tautomer_probability>
1

> <r_epik_Ionization_Penalty>
5.07259e-05

> <r_epik_Ionization_Penalty_Charging>
7.56727e-08

> <r_epik_Ionization_Penalty_Neutral>
5.06502e-05

> <r_epik_State_Penalty>
-0

> <r_epik_Charging_Adjusted_Penalty>
7.56727e-08

> <i_epik_Tot_Q>
0

> <i_epik_Tot_abs_Q>
0

> <r_epik_Metal_State_Penalty>
-0

> <b_epik_Metal_Only>
0

> <s_lp_Force_Field>
OPLS_2005

> <r_lp_Energy>
21.1785

> <b_lp_Chiralities_Consistent>
1

> <s_lp_Variant>
AV-unprocessed.smi:2283-2

> <Gold.Version>
5.8.1

> <Gold.Id.Protein>
6NUR|6NUR_protein|mol2

> <Gold.PLP.Fitness>
43.9572

> <Gold.PLP.PLP>
-39.7915

> <Gold.PLP.part.hbond>
-2.0000

> <Gold.PLP.part.metal>
0.0000

> <Gold.PLP.part.buried>
-6.2054

> <Gold.PLP.part.nonpolar>
-31.5126

> <Gold.PLP.part.repulsive>
0.2730

> <Gold.PLP.ligand.clash>
0.0000

> <Gold.PLP.ligand.torsion>
0.2574

> <Gold.PLP.Chemscore.Hbond>
1.5577

> <Gold.PLP.Chemscore.CHOScore>
0.0000

> <Gold.PLP.Chemscore.Metal>
0.0000

> <Gold.Chemscore.Hbonds>
donor molecule, donor type, donor heavy atom, donor atom, acceptor molecule, acceptor atom, score
      L1  H     9    28       P1  8028  1.00
      P1  H  7989  7998       L1    19  0.49

> <Gold.PLP.Chemscore.Internal.Correction>
0.0073

> <Gold.Rescore>
     Score         DG    S(hbond)    S(metal)    S(lipo)     H(rot)  DE(clash)    DE(int)     intcor
     18.28     -18.74       1.71        0.00     106.26       1.91       0.22       0.24       ----

> <Gold.Chemscore.Fitness>
18.2800

> <Gold.Chemscore.DG>
-18.7413

> <Gold.Chemscore.ZeroCoef>
-5.4800

> <Gold.Chemscore.Hbond>
1.7093

> <Gold.Chemscore.Metal>
0.0000

> <Gold.Chemscore.Lipo>
106.2559

> <Gold.Chemscore.Internal_Hbond>
0.0000

> <Gold.Chemscore.DEClash>
0.2240

> <Gold.Chemscore.DEInternal>
0.2373

> <Gold.Chemscore.Rot>
1.9061

> <Gold.Chemscore.Internal.Correction>
   9.000000E+99

> <Gold.Chemscore.Hbonds>
donor molecule, donor type, donor heavy atom, donor atom, acceptor molecule, acceptor atom, score
      L1  H     9    28       P1  8028  0.88
      P1  H  7989  7998       L1    19  0.48

> <Gold.Chemscore.Hbond.Weighted>
-5.7091

> <Gold.Chemscore.Metal.Weighted>
-0.0000

> <Gold.Chemscore.Lipo.Weighted>
-12.4319

> <Gold.Chemscore.Internal_Hbond.Weighted>
0.0000

> <Gold.Chemscore.DEClash.Weighted>
0.2240

> <Gold.Chemscore.DEInternal.Weighted>
0.2373

> <Gold.Chemscore.Rot.Weighted>
4.8797

> <Gold.Chemscore.Internal.Correction.Weighted>
   9.000000E+99

> <Gold.Protein.RotatedTorsions>
[ 6907 6896 6895 6894 ] final   61.76 input  -60.11 | X-H torsion
[ 7974 7965 7964 7962 ] final   90.37 input  175.53 | X-H torsion
[ 8008 7997 7996 7995 ] final  -40.90 input   59.86 | X-H torsion
[ 10167 10162 10161 10158 ] final  179.61 input  -65.29 | X-H torsion
[ 10718 10713 10712 10709 ] final   84.66 input   66.30 | X-H torsion
[ 10763 10752 10751 10750 ] final    6.66 input  -60.55 | X-H torsion
[ 11005 11000 10999 10996 ] final  -45.46 input  -57.11 | X-H torsion

> <Gold.Protein.ActiveResidues>
 VAL166  LYS551  ARG553  GLY616  TRP617  ASP618  TYR619  PRO620  LYS621  CYS622 
 ASP623  PHE694  ASN695  SER759  ASP760  ASP761  ALA762  ILE779  LEU786  VAL792 
 PHE793  MET794  SER795  GLU796  ALA797  LYS798  CYS799  TRP800  GLU811  SER814 

> <Gold.Protein.RotatedAtoms>
  152.4115  134.6115  160.0026 H   0  0  0  0  0  0  0  0  0  0  0  0  # atno 6907 bound_to 6896
  151.6291  133.3328  159.3113 H   0  0  0  0  0  0  0  0  0  0  0  0  # atno 6908 bound_to 6896
  150.8006  134.7137  159.6663 H   0  0  0  0  0  0  0  0  0  0  0  0  # atno 6909 bound_to 6896
  145.5200  139.2279  143.2677 H   0  0  0  0  0  0  0  0  0  0  0  0  # atno 7974 bound_to 7965
  154.4008  140.1513  156.3103 H   0  0  0  0  0  0  0  0  0  0  0  0  # atno 8008 bound_to 7997
  155.8621  140.3453  155.5742 H   0  0  0  0  0  0  0  0  0  0  0  0  # atno 8009 bound_to 7997
  155.7868  140.0851  157.2020 H   0  0  0  0  0  0  0  0  0  0  0  0  # atno 8010 bound_to 7997
  139.5344  144.2540  152.0761 H   0  0  0  0  0  0  0  0  0  0  0  0  # atno 10167 bound_to 10162
  157.6902  131.0142  150.2707 H   0  0  0  0  0  0  0  0  0  0  0  0  # atno 10718 bound_to 10713
  153.2452  135.6908  153.7739 H   0  0  0  0  0  0  0  0  0  0  0  0  # atno 10763 bound_to 10752
  153.6854  135.3321  155.3189 H   0  0  0  0  0  0  0  0  0  0  0  0  # atno 10764 bound_to 10752
  154.8372  135.4532  154.1389 H   0  0  0  0  0  0  0  0  0  0  0  0  # atno 10765 bound_to 10752
  141.0516  133.6740  156.3016 H   0  0  0  0  0  0  0  0  0  0  0  0  # atno 11005 bound_to 11000
  146.2112  140.6011  142.9058 LP  0  0  0  0  0  0  0  0  0  0  0  0  # atno 17320 bound_to 7965
  144.7681  140.5577  143.6689 LP  0  0  0  0  0  0  0  0  0  0  0  0  # atno 17321 bound_to 7965
  140.2009  144.4659  150.6432 LP  0  0  0  0  0  0  0  0  0  0  0  0  # atno 17342 bound_to 10162
  140.6542  143.2233  151.6008 LP  0  0  0  0  0  0  0  0  0  0  0  0  # atno 17343 bound_to 10162
  156.3270  130.3794  149.7524 LP  0  0  0  0  0  0  0  0  0  0  0  0  # atno 17370 bound_to 10713
  156.5076  130.8157  151.3156 LP  0  0  0  0  0  0  0  0  0  0  0  0  # atno 17371 bound_to 10713
  140.6043  134.5523  157.5523 LP  0  0  0  0  0  0  0  0  0  0  0  0  # atno 17394 bound_to 11000
  139.9355  134.7882  156.0813 LP  0  0  0  0  0  0  0  0  0  0  0  0  # atno 17395 bound_to 11000

$$$$
