AV-unprocessed.smi:3291|AV-procd|sdf|12619|dock1
  -GOLD-   2272018553D 1   1.00000     0.00000
 Structure written by MMmdl.
 43 45  0  0  0  0  0  0  0  0  2 V2000
  149.8774  135.2384  157.0360 C   0  0  0  0  0  0  0  0  0  0  0  0
  149.9886  133.8087  156.5885 C   0  0  0  0  0  0  0  0  0  0  0  0
  150.6124  132.9342  157.3581 N   0  0  0  0  0  0  0  0  0  0  0  0
  150.5458  131.7146  156.6806 O   0  0  0  0  0  0  0  0  0  0  0  0
  149.8760  131.9024  155.5156 C   0  0  0  0  0  0  0  0  0  0  0  0
  149.7100  130.6930  154.6563 C   0  0  0  0  0  0  0  0  0  0  0  0
  149.4954  133.2142  155.3900 C   0  0  0  0  0  0  0  0  0  0  0  0
  148.7367  133.9067  154.2798 C   0  0  2  0  0  0  0  0  0  0  0  0
  147.5722  134.7250  154.8646 C   0  0  0  0  0  0  0  0  0  0  0  0
  148.2638  132.8972  153.2163 C   0  0  0  0  0  0  0  0  0  0  0  0
  147.6442  133.5720  152.0563 N   0  3  0  0  0  0  0  0  0  0  0  0
  146.1691  133.4874  151.9946 C   0  0  0  0  0  0  0  0  0  0  0  0
  145.7719  132.0646  151.6451 C   0  0  0  0  0  0  0  0  0  0  0  0
  145.7566  131.5869  150.2110 C   0  0  0  0  0  0  0  0  0  0  0  0
  144.4581  131.7661  150.9606 C   0  0  0  0  0  0  0  0  0  0  0  0
  145.6159  134.4712  150.9741 C   0  0  0  0  0  0  0  0  0  0  0  0
  145.6348  135.9630  151.2236 C   0  0  0  0  0  0  0  0  0  0  0  0
  144.3244  135.2158  151.2291 C   0  0  0  0  0  0  0  0  0  0  0  0
  148.8331  135.5321  157.1421 H   0  0  0  0  0  0  0  0  0  0  0  0
  150.3399  135.9100  156.3126 H   0  0  0  0  0  0  0  0  0  0  0  0
  150.3662  135.4021  157.9973 H   0  0  0  0  0  0  0  0  0  0  0  0
  148.7112  130.6515  154.2232 H   0  0  0  0  0  0  0  0  0  0  0  0
  149.8601  129.7800  155.2332 H   0  0  0  0  0  0  0  0  0  0  0  0
  150.4342  130.6967  153.8416 H   0  0  0  0  0  0  0  0  0  0  0  0
  149.4018  134.6113  153.7787 H   0  0  0  0  0  0  0  0  0  0  0  0
  147.9340  135.4474  155.5973 H   0  0  0  0  0  0  0  0  0  0  0  0
  146.8415  134.0879  155.3624 H   0  0  0  0  0  0  0  0  0  0  0  0
  147.0473  135.2859  154.0912 H   0  0  0  0  0  0  0  0  0  0  0  0
  149.1128  132.3112  152.8612 H   0  0  0  0  0  0  0  0  0  0  0  0
  147.5515  132.1994  153.6537 H   0  0  0  0  0  0  0  0  0  0  0  0
  147.9138  134.5453  152.0574 H   0  0  0  0  0  0  0  0  0  0  0  0
  145.7583  133.7238  152.9777 H   0  0  0  0  0  0  0  0  0  0  0  0
  146.1025  131.3283  152.3759 H   0  0  0  0  0  0  0  0  0  0  0  0
  145.9784  132.3068  149.4259 H   0  0  0  0  0  0  0  0  0  0  0  0
  146.0911  130.5697  150.0181 H   0  0  0  0  0  0  0  0  0  0  0  0
  143.9258  130.8670  151.2643 H   0  0  0  0  0  0  0  0  0  0  0  0
  143.8285  132.6072  150.6768 H   0  0  0  0  0  0  0  0  0  0  0  0
  145.7691  134.1582  149.9425 H   0  0  0  0  0  0  0  0  0  0  0  0
  146.0148  136.3143  152.1811 H   0  0  0  0  0  0  0  0  0  0  0  0
  145.8439  136.6101  150.3742 H   0  0  0  0  0  0  0  0  0  0  0  0
  143.6562  135.3653  150.3835 H   0  0  0  0  0  0  0  0  0  0  0  0
  143.8345  135.0833  152.1914 H   0  0  0  0  0  0  0  0  0  0  0  0
  148.0133  133.1389  151.2219 H   0  0  0  0  0  0  0  0  0  0  0  0
  1  2  1  0  0  0  0
  1 19  1  0  0  0  0
  1 20  1  0  0  0  0
  1 21  1  0  0  0  0
  2  7  1  0  0  0  0
  2  3  2  0  0  0  0
  3  4  1  0  0  0  0
  4  5  1  0  0  0  0
  5  6  1  0  0  0  0
  5  7  2  0  0  0  0
  6 22  1  0  0  0  0
  6 23  1  0  0  0  0
  6 24  1  0  0  0  0
  7  8  1  0  0  0  0
  8  9  1  0  0  0  0
  8 10  1  0  0  0  0
  8 25  1  0  0  0  0
  9 26  1  0  0  0  0
  9 27  1  0  0  0  0
  9 28  1  0  0  0  0
 10 11  1  0  0  0  0
 10 29  1  0  0  0  0
 10 30  1  0  0  0  0
 11 12  1  0  0  0  0
 11 31  1  0  0  0  0
 11 43  1  0  0  0  0
 12 13  1  0  0  0  0
 12 16  1  0  0  0  0
 12 32  1  0  0  0  0
 13 15  1  0  0  0  0
 13 14  1  0  0  0  0
 13 33  1  0  0  0  0
 14 15  1  0  0  0  0
 14 34  1  0  0  0  0
 14 35  1  0  0  0  0
 15 36  1  0  0  0  0
 15 37  1  0  0  0  0
 16 18  1  0  0  0  0
 16 17  1  0  0  0  0
 16 38  1  0  0  0  0
 17 18  1  0  0  0  0
 17 39  1  0  0  0  0
 17 40  1  0  0  0  0
 18 41  1  0  0  0  0
 18 42  1  0  0  0  0
M  CHG  1  11   1
M  END
> <s_m_source_file>
AV-unprocessed.smi

> <i_m_source_file_index>
3291

> <i_lp_mmshare_version>
43012

> <i_f3d_flags>
0

> <s_epik_input>
W0NIM11jMW5vYyhbQ0gzXSljMVtDQEhdKFtDSDNdKVtDSDJdW05IXVtDSF0oW0NIXTJbQ0gyXVtDSDJdMilbQ0hdM1tDSDJdW0NIMl0z

> <s_epik_cmdline>
J2VwaWtfcHl0aG9uJywgJy1waCcsICc3LjAnLCAnLXRuJywgJzgnLCAnLW1hJywgJzIwMCcsICctbWV0YWxfYmluZGluZycsICctaW1hZScsICc8aW5maWxlLm1hZT4nLCAnLW9tYWUnLCAnPG91dGZpbGUubWFlPic=

> <r_lp_tautomer_probability>
1

> <r_epik_Ionization_Penalty>
0.000158108

> <r_epik_Ionization_Penalty_Charging>
0.000158108

> <r_epik_Ionization_Penalty_Neutral>
1.14678e-10

> <r_epik_State_Penalty>
-0

> <r_epik_Charging_Adjusted_Penalty>
0.000158108

> <i_epik_Tot_Q>
1

> <i_epik_Tot_abs_Q>
1

> <r_epik_Metal_State_Penalty>
-0

> <b_epik_Metal_Only>
0

> <s_lp_Force_Field>
OPLS_2005

> <r_lp_Energy>
25.2548

> <b_lp_Chiralities_Consistent>
1

> <s_lp_Variant>
AV-unprocessed.smi:3291-1

> <Gold.Version>
5.8.1

> <Gold.Id.Protein>
6NUR|6NUR_protein|mol2

> <Gold.PLP.Fitness>
41.9089

> <Gold.PLP.PLP>
-34.0065

> <Gold.PLP.part.hbond>
-2.0000

> <Gold.PLP.part.metal>
0.0000

> <Gold.PLP.part.buried>
-3.3491

> <Gold.PLP.part.nonpolar>
-28.8563

> <Gold.PLP.part.repulsive>
0.0382

> <Gold.PLP.ligand.clash>
0.0000

> <Gold.PLP.ligand.torsion>
1.6402

> <Gold.PLP.Chemscore.Hbond>
2.9833

> <Gold.PLP.Chemscore.CHOScore>
0.0000

> <Gold.PLP.Chemscore.Metal>
0.0000

> <Gold.Chemscore.Hbonds>
donor molecule, donor type, donor heavy atom, donor atom, acceptor molecule, acceptor atom, score
      L1  H    11    31       P1  7948  2.00
      P1  H  6896  6907       L1     3  1.00

> <Gold.PLP.Chemscore.Internal.Correction>
2.2329

> <Gold.Rescore>
     Score         DG    S(hbond)    S(metal)    S(lipo)     H(rot)  DE(clash)    DE(int)     intcor
     14.22     -16.79       1.62        0.00      83.36       1.50       0.00       2.57       ----

> <Gold.Chemscore.Fitness>
14.2179

> <Gold.Chemscore.DG>
-16.7949

> <Gold.Chemscore.ZeroCoef>
-5.4800

> <Gold.Chemscore.Hbond>
1.6183

> <Gold.Chemscore.Metal>
0.0000

> <Gold.Chemscore.Lipo>
83.3646

> <Gold.Chemscore.Internal_Hbond>
0.0000

> <Gold.Chemscore.DEClash>
0.0021

> <Gold.Chemscore.DEInternal>
2.5749

> <Gold.Chemscore.Rot>
1.5015

> <Gold.Chemscore.Internal.Correction>
   9.000000E+99

> <Gold.Chemscore.Hbonds>
donor molecule, donor type, donor heavy atom, donor atom, acceptor molecule, acceptor atom, score
      L1  H    11    31       P1  7948  0.25
      P1  H  6896  6907       L1     3  0.93

> <Gold.Chemscore.Hbond.Weighted>
-5.4051

> <Gold.Chemscore.Metal.Weighted>
-0.0000

> <Gold.Chemscore.Lipo.Weighted>
-9.7537

> <Gold.Chemscore.Internal_Hbond.Weighted>
0.0000

> <Gold.Chemscore.DEClash.Weighted>
0.0021

> <Gold.Chemscore.DEInternal.Weighted>
2.5749

> <Gold.Chemscore.Rot.Weighted>
3.8438

> <Gold.Chemscore.Internal.Correction.Weighted>
   9.000000E+99

> <Gold.Protein.RotatedTorsions>
[ 6907 6896 6895 6894 ] final -147.52 input  -60.11 | X-H torsion
[ 7974 7965 7964 7962 ] final -110.84 input  175.53 | X-H torsion
[ 8008 7997 7996 7995 ] final -139.15 input   59.86 | X-H torsion
[ 10167 10162 10161 10158 ] final   49.12 input  -65.29 | X-H torsion
[ 10718 10713 10712 10709 ] final  125.59 input   66.30 | X-H torsion
[ 10763 10752 10751 10750 ] final -150.29 input  -60.55 | X-H torsion
[ 11005 11000 10999 10996 ] final   38.11 input  -57.11 | X-H torsion

> <Gold.Protein.ActiveResidues>
 VAL166  LYS551  ARG553  GLY616  TRP617  ASP618  TYR619  PRO620  LYS621  CYS622 
 ASP623  PHE694  ASN695  SER759  ASP760  ASP761  ALA762  ILE779  LEU786  VAL792 
 PHE793  MET794  SER795  GLU796  ALA797  LYS798  CYS799  TRP800  GLU811  SER814 

> <Gold.Protein.RotatedAtoms>
  151.1568  133.4871  159.2594 H   0  0  0  0  0  0  0  0  0  0  0  0  # atno 6907 bound_to 6896
  151.1496  135.0220  159.8672 H   0  0  0  0  0  0  0  0  0  0  0  0  # atno 6908 bound_to 6896
  152.5463  134.1454  159.8549 H   0  0  0  0  0  0  0  0  0  0  0  0  # atno 6909 bound_to 6896
  145.1634  140.8889  143.3577 H   0  0  0  0  0  0  0  0  0  0  0  0  # atno 7974 bound_to 7965
  155.4401  140.0531  157.3011 H   0  0  0  0  0  0  0  0  0  0  0  0  # atno 8008 bound_to 7997
  154.4822  140.2086  155.9695 H   0  0  0  0  0  0  0  0  0  0  0  0  # atno 8009 bound_to 7997
  156.1222  140.3186  155.8230 H   0  0  0  0  0  0  0  0  0  0  0  0  # atno 8010 bound_to 7997
  140.2862  144.3099  150.6252 H   0  0  0  0  0  0  0  0  0  0  0  0  # atno 10167 bound_to 10162
  157.5490  131.1094  150.8734 H   0  0  0  0  0  0  0  0  0  0  0  0  # atno 10718 bound_to 10713
  154.8127  135.3288  154.7261 H   0  0  0  0  0  0  0  0  0  0  0  0  # atno 10763 bound_to 10752
  153.7907  135.6911  153.4876 H   0  0  0  0  0  0  0  0  0  0  0  0  # atno 10764 bound_to 10752
  153.1919  135.4548  155.0106 H   0  0  0  0  0  0  0  0  0  0  0  0  # atno 10765 bound_to 10752
  140.2159  134.3699  155.8027 H   0  0  0  0  0  0  0  0  0  0  0  0  # atno 11005 bound_to 11000
  145.0308  139.3343  143.6026 LP  0  0  0  0  0  0  0  0  0  0  0  0  # atno 17320 bound_to 7965
  146.3479  139.9644  142.8713 LP  0  0  0  0  0  0  0  0  0  0  0  0  # atno 17321 bound_to 7965
  140.5771  143.2175  151.7496 LP  0  0  0  0  0  0  0  0  0  0  0  0  # atno 17342 bound_to 10162
  139.4950  144.4134  152.0056 LP  0  0  0  0  0  0  0  0  0  0  0  0  # atno 17343 bound_to 10162
  156.9264  130.5334  149.5279 LP  0  0  0  0  0  0  0  0  0  0  0  0  # atno 17370 bound_to 10713
  156.0560  130.5621  150.9092 LP  0  0  0  0  0  0  0  0  0  0  0  0  # atno 17371 bound_to 10713
  141.2225  133.7167  156.8495 LP  0  0  0  0  0  0  0  0  0  0  0  0  # atno 17394 bound_to 11000
  140.1901  134.8971  157.3051 LP  0  0  0  0  0  0  0  0  0  0  0  0  # atno 17395 bound_to 11000

$$$$
