AV-unprocessed.smi:1998|AV-procd|sdf|8090|dock5
  -GOLD-   2272010303D 1   1.00000     0.00000
 Structure written by MMmdl.
 47 48  0  0  0  0  0  0  0  0  1 V2000
  154.2341  141.2023  161.2782 C   0  0  0  0  0  0  0  0  0  0  0  0
  153.3595  142.1746  160.5431 C   0  0  0  0  0  0  0  0  0  0  0  0
  152.8103  143.3973  161.0204 C   0  0  0  0  0  0  0  0  0  0  0  0
  152.0869  143.8775  159.9656 C   0  0  0  0  0  0  0  0  0  0  0  0
  151.2748  145.1253  159.8448 C   0  0  0  0  0  0  0  0  0  0  0  0
  152.2267  142.9654  158.9339 N   0  0  0  0  0  0  0  0  0  0  0  0
  151.6755  143.0120  157.5859 C   0  0  0  0  0  0  0  0  0  0  0  0
  150.8523  141.7578  157.2882 C   0  0  0  0  0  0  0  0  0  0  0  0
  151.2904  140.6461  157.5823 O   0  0  0  0  0  0  0  0  0  0  0  0
  149.6457  141.9618  156.7399 N   0  0  0  0  0  0  0  0  0  0  0  0
  148.5950  140.9613  156.5681 C   0  0  0  0  0  0  0  0  0  0  0  0
  148.7790  140.1403  155.2560 C   0  0  0  0  0  0  0  0  0  0  0  0
  147.5364  139.2317  155.1001 C   0  0  0  0  0  0  0  0  0  0  0  0
  148.7472  141.1577  154.0867 C   0  0  0  0  0  0  0  0  0  0  0  0
  150.0606  139.3803  155.2663 N   0  0  0  0  0  0  0  0  0  0  0  0
  150.1397  138.3185  156.2758 C   0  0  0  0  0  0  0  0  0  0  0  0
  151.5364  137.6791  156.3297 C   0  0  0  0  0  0  0  0  0  0  0  0
  151.8845  137.1764  155.0450 O   0  0  0  0  0  0  0  0  0  0  0  0
  151.8675  138.1844  154.0413 C   0  0  0  0  0  0  0  0  0  0  0  0
  150.4719  138.8279  153.9719 C   0  0  0  0  0  0  0  0  0  0  0  0
  153.0093  141.9228  159.2924 N   0  0  0  0  0  0  0  0  0  0  0  0
  154.5235  141.5934  162.2537 H   0  0  0  0  0  0  0  0  0  0  0  0
  155.1480  140.9924  160.7236 H   0  0  0  0  0  0  0  0  0  0  0  0
  153.7176  140.2558  161.4400 H   0  0  0  0  0  0  0  0  0  0  0  0
  152.9267  143.8513  161.9933 H   0  0  0  0  0  0  0  0  0  0  0  0
  151.2988  145.6964  160.7731 H   0  0  0  0  0  0  0  0  0  0  0  0
  150.2337  144.8917  159.6220 H   0  0  0  0  0  0  0  0  0  0  0  0
  151.6569  145.7656  159.0497 H   0  0  0  0  0  0  0  0  0  0  0  0
  151.0495  143.8987  157.4745 H   0  0  0  0  0  0  0  0  0  0  0  0
  152.4943  143.1053  156.8717 H   0  0  0  0  0  0  0  0  0  0  0  0
  149.3874  142.9166  156.5361 H   0  0  0  0  0  0  0  0  0  0  0  0
  148.6138  140.3094  157.4413 H   0  0  0  0  0  0  0  0  0  0  0  0
  147.6088  141.4284  156.5957 H   0  0  0  0  0  0  0  0  0  0  0  0
  146.6210  139.8239  155.0770 H   0  0  0  0  0  0  0  0  0  0  0  0
  147.4344  138.5289  155.9267 H   0  0  0  0  0  0  0  0  0  0  0  0
  147.5619  138.6547  154.1760 H   0  0  0  0  0  0  0  0  0  0  0  0
  147.9120  141.8526  154.1813 H   0  0  0  0  0  0  0  0  0  0  0  0
  148.6282  140.6699  153.1193 H   0  0  0  0  0  0  0  0  0  0  0  0
  149.6611  141.7505  154.0433 H   0  0  0  0  0  0  0  0  0  0  0  0
  149.9125  138.7039  157.2680 H   0  0  0  0  0  0  0  0  0  0  0  0
  149.4059  137.5412  156.0626 H   0  0  0  0  0  0  0  0  0  0  0  0
  152.2774  138.4073  156.6603 H   0  0  0  0  0  0  0  0  0  0  0  0
  151.5504  136.8598  157.0485 H   0  0  0  0  0  0  0  0  0  0  0  0
  152.6273  138.9370  154.2570 H   0  0  0  0  0  0  0  0  0  0  0  0
  152.1256  137.7355  153.0821 H   0  0  0  0  0  0  0  0  0  0  0  0
  149.7525  138.0818  153.6341 H   0  0  0  0  0  0  0  0  0  0  0  0
  150.5058  139.6044  153.2100 H   0  0  0  0  0  0  0  0  0  0  0  0
  1  2  1  0  0  0  0
  1 22  1  0  0  0  0
  1 23  1  0  0  0  0
  1 24  1  0  0  0  0
  2 21  2  0  0  0  0
  2  3  1  0  0  0  0
  3  4  2  0  0  0  0
  3 25  1  0  0  0  0
  4  5  1  0  0  0  0
  4  6  1  0  0  0  0
  5 26  1  0  0  0  0
  5 27  1  0  0  0  0
  5 28  1  0  0  0  0
  6  7  1  0  0  0  0
  6 21  1  0  0  0  0
  7  8  1  0  0  0  0
  7 29  1  0  0  0  0
  7 30  1  0  0  0  0
  8  9  2  0  0  0  0
  8 10  1  0  0  0  0
 10 11  1  0  0  0  0
 10 31  1  0  0  0  0
 11 12  1  0  0  0  0
 11 32  1  0  0  0  0
 11 33  1  0  0  0  0
 12 13  1  0  0  0  0
 12 14  1  0  0  0  0
 12 15  1  0  0  0  0
 13 34  1  0  0  0  0
 13 35  1  0  0  0  0
 13 36  1  0  0  0  0
 14 37  1  0  0  0  0
 14 38  1  0  0  0  0
 14 39  1  0  0  0  0
 15 20  1  0  0  0  0
 15 16  1  0  0  0  0
 16 17  1  0  0  0  0
 16 40  1  0  0  0  0
 16 41  1  0  0  0  0
 17 18  1  0  0  0  0
 17 42  1  0  0  0  0
 17 43  1  0  0  0  0
 18 19  1  0  0  0  0
 19 20  1  0  0  0  0
 19 44  1  0  0  0  0
 19 45  1  0  0  0  0
 20 46  1  0  0  0  0
 20 47  1  0  0  0  0
M  END
> <s_m_source_file>
AV-unprocessed.smi

> <i_m_source_file_index>
1998

> <i_lp_mmshare_version>
43012

> <i_f3d_flags>
0

> <s_epik_input>
W0NIM11jMVtjSF1jKFtDSDNdKW4objEpW0NIMl1DKD1PKVtOSF1bQ0gyXUMoW0NIM10pKFtDSDNdKU4yW0NIMl1bQ0gyXU9bQ0gyXVtDSDJdMg==

> <s_epik_cmdline>
J2VwaWtfcHl0aG9uJywgJy1waCcsICc3LjAnLCAnLXRuJywgJzgnLCAnLW1hJywgJzIwMCcsICctbWV0YWxfYmluZGluZycsICctaW1hZScsICc8aW5maWxlLm1hZT4nLCAnLW9tYWUnLCAnPG91dGZpbGUubWFlPic=

> <r_lp_tautomer_probability>
1

> <r_epik_Ionization_Penalty>
0.197271

> <r_epik_Ionization_Penalty_Charging>
0

> <r_epik_Ionization_Penalty_Neutral>
0.197271

> <r_epik_State_Penalty>
0.186684

> <r_epik_Charging_Adjusted_Penalty>
0.186684

> <i_epik_Tot_Q>
0

> <i_epik_Tot_abs_Q>
0

> <r_epik_Metal_State_Penalty>
0.186642

> <b_epik_Metal_Only>
0

> <s_lp_Force_Field>
OPLS_2005

> <r_lp_Energy>
37.8286

> <b_lp_Chiralities_Consistent>
1

> <s_lp_Variant>
AV-unprocessed.smi:1998-1

> <Gold.Version>
5.8.1

> <Gold.Id.Protein>
6NUR|6NUR_protein|mol2

> <Gold.PLP.Fitness>
46.7449

> <Gold.PLP.PLP>
-41.6708

> <Gold.PLP.part.hbond>
-2.0000

> <Gold.PLP.part.metal>
0.0000

> <Gold.PLP.part.buried>
-6.6003

> <Gold.PLP.part.nonpolar>
-33.4928

> <Gold.PLP.part.repulsive>
0.1121

> <Gold.PLP.ligand.clash>
0.0000

> <Gold.PLP.ligand.torsion>
0.4922

> <Gold.PLP.Chemscore.Hbond>
1.9913

> <Gold.PLP.Chemscore.CHOScore>
0.0000

> <Gold.PLP.Chemscore.Metal>
0.0000

> <Gold.Chemscore.Hbonds>
donor molecule, donor type, donor heavy atom, donor atom, acceptor molecule, acceptor atom, score
      L1  H    10    31       P1  8028  0.91
      P1  H 10752 10765       L1    18  0.98

> <Gold.PLP.Chemscore.Internal.Correction>
0.0848

> <Gold.Rescore>
     Score         DG    S(hbond)    S(metal)    S(lipo)     H(rot)  DE(clash)    DE(int)     intcor
     17.61     -20.14       1.78        0.00     110.81       1.67       0.40       2.13       ----

> <Gold.Chemscore.Fitness>
17.6103

> <Gold.Chemscore.DG>
-20.1372

> <Gold.Chemscore.ZeroCoef>
-5.4800

> <Gold.Chemscore.Hbond>
1.7841

> <Gold.Chemscore.Metal>
0.0000

> <Gold.Chemscore.Lipo>
110.8127

> <Gold.Chemscore.Internal_Hbond>
0.0000

> <Gold.Chemscore.DEClash>
0.4013

> <Gold.Chemscore.DEInternal>
2.1256

> <Gold.Chemscore.Rot>
1.6666

> <Gold.Chemscore.Internal.Correction>
   9.000000E+99

> <Gold.Chemscore.Hbonds>
donor molecule, donor type, donor heavy atom, donor atom, acceptor molecule, acceptor atom, score
      L1  H    10    31       P1  8028  0.87
      P1  H 10752 10765       L1    18  0.86

> <Gold.Chemscore.Hbond.Weighted>
-5.9587

> <Gold.Chemscore.Metal.Weighted>
-0.0000

> <Gold.Chemscore.Lipo.Weighted>
-12.9651

> <Gold.Chemscore.Internal_Hbond.Weighted>
0.0000

> <Gold.Chemscore.DEClash.Weighted>
0.4013

> <Gold.Chemscore.DEInternal.Weighted>
2.1256

> <Gold.Chemscore.Rot.Weighted>
4.2666

> <Gold.Chemscore.Internal.Correction.Weighted>
   9.000000E+99

> <Gold.Protein.RotatedTorsions>
[ 6907 6896 6895 6894 ] final  -56.12 input  -60.11 | X-H torsion
[ 7974 7965 7964 7962 ] final  -56.85 input  175.53 | X-H torsion
[ 8008 7997 7996 7995 ] final  -67.63 input   59.86 | X-H torsion
[ 10167 10162 10161 10158 ] final  129.19 input  -65.29 | X-H torsion
[ 10718 10713 10712 10709 ] final  -19.18 input   66.30 | X-H torsion
[ 10763 10752 10751 10750 ] final -176.21 input  -60.55 | X-H torsion
[ 11005 11000 10999 10996 ] final  -79.09 input  -57.11 | X-H torsion

> <Gold.Protein.ActiveResidues>
 VAL166  LYS551  ARG553  GLY616  TRP617  ASP618  TYR619  PRO620  LYS621  CYS622 
 ASP623  PHE694  ASN695  SER759  ASP760  ASP761  ALA762  ILE779  LEU786  VAL792 
 PHE793  MET794  SER795  GLU796  ALA797  LYS798  CYS799  TRP800  GLU811  SER814 

> <Gold.Protein.RotatedAtoms>
  150.8194  134.7393  159.6758 H   0  0  0  0  0  0  0  0  0  0  0  0  # atno 6907 bound_to 6896
  152.4310  134.5773  159.9948 H   0  0  0  0  0  0  0  0  0  0  0  0  # atno 6908 bound_to 6896
  151.5961  133.3324  159.3074 H   0  0  0  0  0  0  0  0  0  0  0  0  # atno 6909 bound_to 6896
  145.8579  140.8306  142.9952 H   0  0  0  0  0  0  0  0  0  0  0  0  # atno 7974 bound_to 7965
  154.4813  140.0889  156.7383 H   0  0  0  0  0  0  0  0  0  0  0  0  # atno 8008 bound_to 7997
  155.4464  140.3455  155.4277 H   0  0  0  0  0  0  0  0  0  0  0  0  # atno 8009 bound_to 7997
  156.1195  140.1470  156.9213 H   0  0  0  0  0  0  0  0  0  0  0  0  # atno 8010 bound_to 7997
  139.5490  144.6797  151.4383 H   0  0  0  0  0  0  0  0  0  0  0  0  # atno 10167 bound_to 10162
  156.5493  130.4697  149.6460 H   0  0  0  0  0  0  0  0  0  0  0  0  # atno 10718 bound_to 10713
  154.5751  135.2831  155.0788 H   0  0  0  0  0  0  0  0  0  0  0  0  # atno 10763 bound_to 10752
  154.2146  135.6402  153.5129 H   0  0  0  0  0  0  0  0  0  0  0  0  # atno 10764 bound_to 10752
  153.0070  135.5500  154.6387 H   0  0  0  0  0  0  0  0  0  0  0  0  # atno 10765 bound_to 10752
  141.1666  133.7091  156.8069 H   0  0  0  0  0  0  0  0  0  0  0  0  # atno 11005 bound_to 11000
  144.6727  140.1051  143.7458 LP  0  0  0  0  0  0  0  0  0  0  0  0  # atno 17320 bound_to 7965
  145.9282  139.2589  143.1341 LP  0  0  0  0  0  0  0  0  0  0  0  0  # atno 17321 bound_to 7965
  140.6747  143.8216  150.7043 LP  0  0  0  0  0  0  0  0  0  0  0  0  # atno 17342 bound_to 10162
  140.1651  143.4242  152.2040 LP  0  0  0  0  0  0  0  0  0  0  0  0  # atno 17343 bound_to 10162
  156.2899  130.7118  151.1964 LP  0  0  0  0  0  0  0  0  0  0  0  0  # atno 17370 bound_to 10713
  157.7390  131.0534  150.5256 LP  0  0  0  0  0  0  0  0  0  0  0  0  # atno 17371 bound_to 10713
  140.2215  134.8753  157.3382 LP  0  0  0  0  0  0  0  0  0  0  0  0  # atno 17394 bound_to 11000
  140.1983  134.4287  155.7677 LP  0  0  0  0  0  0  0  0  0  0  0  0  # atno 17395 bound_to 11000

$$$$
