AV-unprocessed.smi:221|AV-procd|sdf|1688|dock4
  -GOLD-   2262020133D 1   1.00000     0.00000
 Structure written by MMmdl.
 50 53  0  0  0  0  0  0  0  0  1 V2000
  146.2681  136.9945  152.6263 N   0  0  0  0  0  0  0  0  0  0  0  0
  145.5460  135.8726  152.6721 C   0  0  0  0  0  0  0  0  0  0  0  0
  144.4335  135.8315  153.1948 O   0  0  0  0  0  0  0  0  0  0  0  0
  146.1600  134.6252  152.0210 C   0  0  2  0  0  0  0  0  0  0  0  0
  145.2764  134.0789  150.8829 C   0  0  0  0  0  0  0  0  0  0  0  0
  145.5142  132.5762  150.9370 C   0  0  2  0  0  0  0  0  0  0  0  0
  144.5285  131.8800  150.3713 F   0  0  0  0  0  0  0  0  0  0  0  0
  145.6277  132.3267  152.4353 C   0  0  0  0  0  0  0  0  0  0  0  0
  146.2851  133.5152  152.9756 N   0  0  0  0  0  0  0  0  0  0  0  0
  147.5297  133.3740  153.4947 C   0  0  0  0  0  0  0  0  0  0  0  0
  148.1412  134.4273  154.0991 N   0  0  0  0  0  0  0  0  0  0  0  0
  149.3536  134.2785  154.6407 C   0  0  0  0  0  0  0  0  0  0  0  0
  150.1162  133.1844  154.6921 N   0  0  0  0  0  0  0  0  0  0  0  0
  149.5041  132.1241  154.0905 C   0  0  0  0  0  0  0  0  0  0  0  0
  148.2194  132.1316  153.4785 C   0  0  0  0  0  0  0  0  0  0  0  0
  147.9216  130.8685  152.9852 N   0  0  0  0  0  0  0  0  0  0  0  0
  148.9695  130.1533  153.2902 C   0  0  0  0  0  0  0  0  0  0  0  0
  149.9826  130.8344  153.9292 N   0  0  0  0  0  0  0  0  0  0  0  0
  151.2492  130.2864  154.3936 C   0  0  0  0  0  0  0  0  0  0  0  0
  151.4101  130.2762  155.9405 C   0  0  2  0  0  0  0  0  0  0  0  0
  151.6671  131.7199  156.4334 C   0  0  0  0  0  0  0  0  0  0  0  0
  151.7195  131.7704  157.8446 O   0  0  0  0  0  0  0  0  0  0  0  0
  152.5361  129.3262  156.4548 C   0  0  2  0  0  0  0  0  0  0  0  0
  153.9537  129.6284  155.9880 C   0  0  0  0  0  0  0  0  0  0  0  0
  153.9996  129.0187  154.5911 C   0  0  0  0  0  0  0  0  0  0  0  0
  153.0843  127.9294  154.6277 O   0  0  0  0  0  0  0  0  0  0  0  0
  152.4147  127.9046  155.8846 C   0  0  0  0  0  0  0  0  0  0  0  0
  147.1425  134.8739  151.6119 H   0  0  0  0  0  0  0  0  0  0  0  0
  146.4449  132.3155  150.4313 H   0  0  0  0  0  0  0  0  0  0  0  0
  145.9084  137.8378  153.0494 H   0  0  0  0  0  0  0  0  0  0  0  0
  147.1729  136.9954  152.1783 H   0  0  0  0  0  0  0  0  0  0  0  0
  144.2207  134.2861  151.0694 H   0  0  0  0  0  0  0  0  0  0  0  0
  145.5315  134.5051  149.9124 H   0  0  0  0  0  0  0  0  0  0  0  0
  144.6357  132.2679  152.8849 H   0  0  0  0  0  0  0  0  0  0  0  0
  146.1312  131.3850  152.6582 H   0  0  0  0  0  0  0  0  0  0  0  0
  149.7723  135.1620  155.0995 H   0  0  0  0  0  0  0  0  0  0  0  0
  149.0316  129.1023  153.0484 H   0  0  0  0  0  0  0  0  0  0  0  0
  151.3809  129.2801  153.9945 H   0  0  0  0  0  0  0  0  0  0  0  0
  152.0266  130.8919  153.9274 H   0  0  0  0  0  0  0  0  0  0  0  0
  150.4727  129.9515  156.3931 H   0  0  0  0  0  0  0  0  0  0  0  0
  152.6127  132.1135  156.0652 H   0  0  0  0  0  0  0  0  0  0  0  0
  150.8885  132.3943  156.0754 H   0  0  0  0  0  0  0  0  0  0  0  0
  151.2972  130.9980  158.1887 H   0  0  0  0  0  0  0  0  0  0  0  0
  152.5057  129.3090  157.5450 H   0  0  0  0  0  0  0  0  0  0  0  0
  154.2449  130.6735  156.0205 H   0  0  0  0  0  0  0  0  0  0  0  0
  154.6589  129.0966  156.6288 H   0  0  0  0  0  0  0  0  0  0  0  0
  153.6618  129.7371  153.8436 H   0  0  0  0  0  0  0  0  0  0  0  0
  155.0018  128.6887  154.3167 H   0  0  0  0  0  0  0  0  0  0  0  0
  152.9343  127.1976  156.5332 H   0  0  0  0  0  0  0  0  0  0  0  0
  151.3931  127.5461  155.7696 H   0  0  0  0  0  0  0  0  0  0  0  0
  1  2  1  0  0  0  0
  1 30  1  0  0  0  0
  1 31  1  0  0  0  0
  2  3  2  0  0  0  0
  2  4  1  0  0  0  0
  4 28  1  0  0  0  0
  4  9  1  0  0  0  0
  4  5  1  0  0  0  0
  5  6  1  0  0  0  0
  5 32  1  0  0  0  0
  5 33  1  0  0  0  0
  6 29  1  0  0  0  0
  6  7  1  0  0  0  0
  6  8  1  0  0  0  0
  8  9  1  0  0  0  0
  8 34  1  0  0  0  0
  8 35  1  0  0  0  0
  9 10  1  0  0  0  0
 10 15  1  0  0  0  0
 10 11  2  0  0  0  0
 11 12  1  0  0  0  0
 12 13  2  0  0  0  0
 12 36  1  0  0  0  0
 13 14  1  0  0  0  0
 14 18  1  0  0  0  0
 14 15  2  0  0  0  0
 15 16  1  0  0  0  0
 16 17  2  0  0  0  0
 17 18  1  0  0  0  0
 17 37  1  0  0  0  0
 18 19  1  0  0  0  0
 19 20  1  0  0  0  0
 19 38  1  0  0  0  0
 19 39  1  0  0  0  0
 20 21  1  0  0  0  0
 20 23  1  0  0  0  0
 20 40  1  0  0  0  0
 21 22  1  0  0  0  0
 21 41  1  0  0  0  0
 21 42  1  0  0  0  0
 22 43  1  0  0  0  0
 23 27  1  0  0  0  0
 23 24  1  0  0  0  0
 23 44  1  0  0  0  0
 24 25  1  0  0  0  0
 24 45  1  0  0  0  0
 24 46  1  0  0  0  0
 25 26  1  0  0  0  0
 25 47  1  0  0  0  0
 25 48  1  0  0  0  0
 26 27  1  0  0  0  0
 27 49  1  0  0  0  0
 27 50  1  0  0  0  0
M  END
> <s_m_source_file>
AV-unprocessed.smi

> <i_m_source_file_index>
221

> <i_lp_mmshare_version>
43012

> <i_f3d_flags>
0

> <s_epik_input>
W05IMl1DKD1PKVtDQEBIXTFbQ0gyXVtDQEBIXShGKVtDSDJdTjFjKG5bY0hdbjIpYyhjMjMpbltjSF1uM1tDSDJdW0NASF0oW0NIMl1bT0hdKVtDQEBIXTRbQ0gyXVtDSDJdT1tDSDJdNA==

> <s_epik_cmdline>
J2VwaWtfcHl0aG9uJywgJy1waCcsICc3LjAnLCAnLXRuJywgJzgnLCAnLW1hJywgJzIwMCcsICctbWV0YWxfYmluZGluZycsICctaW1hZScsICc8aW5maWxlLm1hZT4nLCAnLW9tYWUnLCAnPG91dGZpbGUubWFlPic=

> <r_lp_tautomer_probability>
1

> <r_epik_Ionization_Penalty>
0.000818822

> <r_epik_Ionization_Penalty_Charging>
0

> <r_epik_Ionization_Penalty_Neutral>
0.000818822

> <r_epik_State_Penalty>
0.000440551

> <r_epik_Charging_Adjusted_Penalty>
0.000440551

> <i_epik_Tot_Q>
0

> <i_epik_Tot_abs_Q>
0

> <r_epik_Metal_State_Penalty>
-0

> <b_epik_Metal_Only>
0

> <s_lp_Force_Field>
OPLS_2005

> <r_lp_Energy>
54.2939

> <b_lp_Chiralities_Consistent>
1

> <s_lp_Variant>
AV-unprocessed.smi:221-3

> <Gold.Version>
5.8.1

> <Gold.Id.Protein>
6NUR|6NUR_protein|mol2

> <Gold.PLP.Fitness>
41.9408

> <Gold.PLP.PLP>
-36.2205

> <Gold.PLP.part.hbond>
-2.0000

> <Gold.PLP.part.metal>
0.0000

> <Gold.PLP.part.buried>
-6.0275

> <Gold.PLP.part.nonpolar>
-29.2817

> <Gold.PLP.part.repulsive>
2.0145

> <Gold.PLP.ligand.clash>
0.0000

> <Gold.PLP.ligand.torsion>
0.2484

> <Gold.PLP.Chemscore.Hbond>
2.0000

> <Gold.PLP.Chemscore.CHOScore>
0.0000

> <Gold.PLP.Chemscore.Metal>
0.0000

> <Gold.Chemscore.Hbonds>
donor molecule, donor type, donor heavy atom, donor atom, acceptor molecule, acceptor atom, score
      L1  H     1    31       P1  7948  1.00
      P1  H  6896  6907       L1    22  0.71

> <Gold.PLP.Chemscore.Internal.Correction>
0.2171

> <Gold.Rescore>
     Score         DG    S(hbond)    S(metal)    S(lipo)     H(rot)  DE(clash)    DE(int)     intcor
      5.01      -9.47       1.99        0.00      58.79       3.72       0.05       4.41       ----

> <Gold.Chemscore.Fitness>
5.0143

> <Gold.Chemscore.DG>
-9.4674

> <Gold.Chemscore.ZeroCoef>
-5.4800

> <Gold.Chemscore.Hbond>
1.9860

> <Gold.Chemscore.Metal>
0.0000

> <Gold.Chemscore.Lipo>
58.7863

> <Gold.Chemscore.Internal_Hbond>
0.0000

> <Gold.Chemscore.DEClash>
0.0460

> <Gold.Chemscore.DEInternal>
4.4072

> <Gold.Chemscore.Rot>
3.7202

> <Gold.Chemscore.Internal.Correction>
   9.000000E+99

> <Gold.Chemscore.Hbonds>
donor molecule, donor type, donor heavy atom, donor atom, acceptor molecule, acceptor atom, score
      L1  H     1    31       P1  7948  0.96
      P1  H  6896  6907       L1    22  0.57

> <Gold.Chemscore.Hbond.Weighted>
-6.6332

> <Gold.Chemscore.Metal.Weighted>
-0.0000

> <Gold.Chemscore.Lipo.Weighted>
-6.8780

> <Gold.Chemscore.Internal_Hbond.Weighted>
0.0000

> <Gold.Chemscore.DEClash.Weighted>
0.0460

> <Gold.Chemscore.DEInternal.Weighted>
4.4072

> <Gold.Chemscore.Rot.Weighted>
9.5237

> <Gold.Chemscore.Internal.Correction.Weighted>
   9.000000E+99

> <Gold.Protein.RotatedTorsions>
[ 6907 6896 6895 6894 ] final  165.46 input  -60.11 | X-H torsion
[ 7974 7965 7964 7962 ] final   42.56 input  175.53 | X-H torsion
[ 8008 7997 7996 7995 ] final   43.90 input   59.86 | X-H torsion
[ 10167 10162 10161 10158 ] final  -72.60 input  -65.29 | X-H torsion
[ 10718 10713 10712 10709 ] final   11.92 input   66.30 | X-H torsion
[ 10763 10752 10751 10750 ] final  136.76 input  -60.55 | X-H torsion
[ 11005 11000 10999 10996 ] final  152.10 input  -57.11 | X-H torsion

> <Gold.Protein.ActiveResidues>
 VAL166  LYS551  ARG553  GLY616  TRP617  ASP618  TYR619  PRO620  LYS621  CYS622 
 ASP623  PHE694  ASN695  SER759  ASP760  ASP761  ALA762  ILE779  LEU786  VAL792 
 PHE793  MET794  SER795  GLU796  ALA797  LYS798  CYS799  TRP800  GLU811  SER814 

> <Gold.Protein.RotatedAtoms>
  151.8941  133.3523  159.3807 H   0  0  0  0  0  0  0  0  0  0  0  0  # atno 6907 bound_to 6896
  150.7096  134.4894  159.5518 H   0  0  0  0  0  0  0  0  0  0  0  0  # atno 6908 bound_to 6896
  152.2470  134.8171  160.0502 H   0  0  0  0  0  0  0  0  0  0  0  0  # atno 6909 bound_to 6896
  146.0730  139.5286  142.9586 H   0  0  0  0  0  0  0  0  0  0  0  0  # atno 7974 bound_to 7965
  155.3104  140.3390  155.4244 H   0  0  0  0  0  0  0  0  0  0  0  0  # atno 8008 bound_to 7997
  156.1958  140.1714  156.8039 H   0  0  0  0  0  0  0  0  0  0  0  0  # atno 8009 bound_to 7997
  154.5497  140.0708  156.8631 H   0  0  0  0  0  0  0  0  0  0  0  0  # atno 8010 bound_to 7997
  140.5179  143.2335  151.7481 H   0  0  0  0  0  0  0  0  0  0  0  0  # atno 10167 bound_to 10162
  157.0027  130.6086  149.5698 H   0  0  0  0  0  0  0  0  0  0  0  0  # atno 10718 bound_to 10713
  153.8618  135.3066  155.3438 H   0  0  0  0  0  0  0  0  0  0  0  0  # atno 10763 bound_to 10752
  154.7845  135.4817  153.9919 H   0  0  0  0  0  0  0  0  0  0  0  0  # atno 10764 bound_to 10752
  153.1457  135.6833  153.9053 H   0  0  0  0  0  0  0  0  0  0  0  0  # atno 10765 bound_to 10752
  140.1277  134.8822  157.2161 H   0  0  0  0  0  0  0  0  0  0  0  0  # atno 11005 bound_to 11000
  145.6357  141.0295  143.1839 LP  0  0  0  0  0  0  0  0  0  0  0  0  # atno 17320 bound_to 7965
  144.7243  139.7925  143.7370 LP  0  0  0  0  0  0  0  0  0  0  0  0  # atno 17321 bound_to 7965
  139.4914  144.4297  151.9886 LP  0  0  0  0  0  0  0  0  0  0  0  0  # atno 17342 bound_to 10162
  140.3393  144.3223  150.5970 LP  0  0  0  0  0  0  0  0  0  0  0  0  # atno 17343 bound_to 10162
  156.0165  130.5259  150.8150 LP  0  0  0  0  0  0  0  0  0  0  0  0  # atno 17370 bound_to 10713
  157.5378  131.0939  150.9868 LP  0  0  0  0  0  0  0  0  0  0  0  0  # atno 17371 bound_to 10713
  140.2882  134.3271  155.7323 LP  0  0  0  0  0  0  0  0  0  0  0  0  # atno 17394 bound_to 11000
  141.2164  133.7519  156.9464 LP  0  0  0  0  0  0  0  0  0  0  0  0  # atno 17395 bound_to 11000

$$$$
