AV-unprocessed.smi:1741|AV-procd|sdf|7019|dock2
  -GOLD-   22720 8233D 1   1.00000     0.00000
 Structure written by MMmdl.
 38 39  0  0  0  0  0  0  0  0  1 V2000
  145.8245  130.9406  150.8644 C   0  0  0  0  0  0  0  0  0  0  0  0
  144.7392  131.7937  150.1973 C   0  0  0  0  0  0  0  0  0  0  0  0
  144.9206  133.2044  150.4780 N   0  0  0  0  0  0  0  0  0  0  0  0
  145.8588  133.7979  151.2990 C   0  0  0  0  0  0  0  0  0  0  0  0
  145.6245  135.1378  151.2226 C   0  0  0  0  0  0  0  0  0  0  0  0
  146.3676  136.1296  151.9100 N   0  0  0  0  0  0  0  0  0  0  0  0
  145.8840  137.1411  152.6487 C   0  0  0  0  0  0  0  0  0  0  0  0
  144.6913  137.3438  152.8750 O   0  0  0  0  0  0  0  0  0  0  0  0
  146.8738  137.9146  153.1168 N   0  0  0  0  0  0  0  0  0  0  0  0
  146.7064  139.1110  153.9397 C   0  0  1  0  0  0  0  0  0  0  0  0
  146.3482  138.6965  155.3750 C   0  0  0  0  0  0  0  0  0  0  0  0
  147.9869  139.9667  153.8844 C   0  0  1  0  0  0  0  0  0  0  0  0
  147.9762  141.1858  154.8108 C   0  0  0  0  0  0  0  0  0  0  0  0
  149.4524  141.4170  155.0342 C   0  0  0  0  0  0  0  0  0  0  0  0
  149.9756  139.9877  155.1262 C   0  0  0  0  0  0  0  0  0  0  0  0
  149.1190  139.2040  154.2995 O   0  0  0  0  0  0  0  0  0  0  0  0
  144.5248  135.2902  150.3314 C   0  0  0  0  0  0  0  0  0  0  0  0
  144.1079  134.1142  149.8866 N   0  0  0  0  0  0  0  0  0  0  0  0
  145.6721  129.8827  150.6505 H   0  0  0  0  0  0  0  0  0  0  0  0
  145.8140  131.0668  151.9475 H   0  0  0  0  0  0  0  0  0  0  0  0
  146.8172  131.2130  150.5045 H   0  0  0  0  0  0  0  0  0  0  0  0
  144.7493  131.6445  149.1166 H   0  0  0  0  0  0  0  0  0  0  0  0
  143.7522  131.4922  150.5495 H   0  0  0  0  0  0  0  0  0  0  0  0
  146.5933  133.2279  151.8488 H   0  0  0  0  0  0  0  0  0  0  0  0
  147.3711  136.0721  151.8173 H   0  0  0  0  0  0  0  0  0  0  0  0
  147.8218  137.6629  152.8787 H   0  0  0  0  0  0  0  0  0  0  0  0
  145.8873  139.7169  153.5476 H   0  0  0  0  0  0  0  0  0  0  0  0
  146.1937  139.5695  156.0097 H   0  0  0  0  0  0  0  0  0  0  0  0
  147.1388  138.0947  155.8241 H   0  0  0  0  0  0  0  0  0  0  0  0
  145.4290  138.1102  155.3966 H   0  0  0  0  0  0  0  0  0  0  0  0
  148.1730  140.3025  152.8626 H   0  0  0  0  0  0  0  0  0  0  0  0
  147.4702  142.0480  154.3759 H   0  0  0  0  0  0  0  0  0  0  0  0
  147.4899  140.9460  155.7578 H   0  0  0  0  0  0  0  0  0  0  0  0
  149.8872  141.9235  154.1716 H   0  0  0  0  0  0  0  0  0  0  0  0
  149.6666  142.0086  155.9245 H   0  0  0  0  0  0  0  0  0  0  0  0
  151.0171  139.9051  154.8144 H   0  0  0  0  0  0  0  0  0  0  0  0
  149.8986  139.6197  156.1500 H   0  0  0  0  0  0  0  0  0  0  0  0
  144.0229  136.1843  149.9928 H   0  0  0  0  0  0  0  0  0  0  0  0
  1  2  1  0  0  0  0
  1 19  1  0  0  0  0
  1 20  1  0  0  0  0
  1 21  1  0  0  0  0
  2  3  1  0  0  0  0
  2 22  1  0  0  0  0
  2 23  1  0  0  0  0
  3 18  1  0  0  0  0
  3  4  1  0  0  0  0
  4  5  2  0  0  0  0
  4 24  1  0  0  0  0
  5  6  1  0  0  0  0
  5 17  1  0  0  0  0
  6  7  1  0  0  0  0
  6 25  1  0  0  0  0
  7  8  2  0  0  0  0
  7  9  1  0  0  0  0
  9 10  1  0  0  0  0
  9 26  1  0  0  0  0
 10 11  1  0  0  0  0
 10 12  1  0  0  0  0
 10 27  1  0  0  0  0
 11 28  1  0  0  0  0
 11 29  1  0  0  0  0
 11 30  1  0  0  0  0
 12 16  1  0  0  0  0
 12 13  1  0  0  0  0
 12 31  1  0  0  0  0
 13 14  1  0  0  0  0
 13 32  1  0  0  0  0
 13 33  1  0  0  0  0
 14 15  1  0  0  0  0
 14 34  1  0  0  0  0
 14 35  1  0  0  0  0
 15 16  1  0  0  0  0
 15 36  1  0  0  0  0
 15 37  1  0  0  0  0
 17 18  2  0  0  0  0
 17 38  1  0  0  0  0
M  END
> <s_m_source_file>
AV-unprocessed.smi

> <i_m_source_file_index>
1741

> <i_lp_mmshare_version>
43012

> <i_f3d_flags>
0

> <s_epik_input>
W0NIM11bQ0gyXW4xW2NIXWMoW2NIXW4xKVtOSF1DKD1PKVtOSF1bQ0BIXShbQ0gzXSlbQ0BASF0yW0NIMl1bQ0gyXVtDSDJdTzI=

> <s_epik_cmdline>
J2VwaWtfcHl0aG9uJywgJy1waCcsICc3LjAnLCAnLXRuJywgJzgnLCAnLW1hJywgJzIwMCcsICctbWV0YWxfYmluZGluZycsICctaW1hZScsICc8aW5maWxlLm1hZT4nLCAnLW9tYWUnLCAnPG91dGZpbGUubWFlPic=

> <r_lp_tautomer_probability>
1

> <r_epik_Ionization_Penalty>
0.000179292

> <r_epik_Ionization_Penalty_Charging>
0

> <r_epik_Ionization_Penalty_Neutral>
0.000179292

> <r_epik_State_Penalty>
-0

> <r_epik_Charging_Adjusted_Penalty>
0

> <i_epik_Tot_Q>
0

> <i_epik_Tot_abs_Q>
0

> <r_epik_Metal_State_Penalty>
-0

> <b_epik_Metal_Only>
0

> <s_lp_Force_Field>
OPLS_2005

> <r_lp_Energy>
21.0752

> <b_lp_Chiralities_Consistent>
1

> <s_lp_Variant>
AV-unprocessed.smi:1741-4

> <Gold.Version>
5.8.1

> <Gold.Id.Protein>
6NUR|6NUR_protein|mol2

> <Gold.PLP.Fitness>
37.2892

> <Gold.PLP.PLP>
-30.2489

> <Gold.PLP.part.hbond>
-2.0000

> <Gold.PLP.part.metal>
0.0000

> <Gold.PLP.part.buried>
-1.5034

> <Gold.PLP.part.nonpolar>
-27.0741

> <Gold.PLP.part.repulsive>
1.4134

> <Gold.PLP.ligand.clash>
0.0000

> <Gold.PLP.ligand.torsion>
0.7088

> <Gold.PLP.Chemscore.Hbond>
1.8143

> <Gold.PLP.Chemscore.CHOScore>
1.0000

> <Gold.PLP.Chemscore.Metal>
0.0000

> <Gold.Chemscore.Hbonds>
donor molecule, donor type, donor heavy atom, donor atom, acceptor molecule, acceptor atom, score
      L1  H     6    25       P1  7948  1.00
      L1  H     9    26       P1  7948  0.76
      L1  C    17    38       P1 10171  1.00

> <Gold.PLP.Chemscore.Internal.Correction>
0.0149

> <Gold.Rescore>
     Score         DG    S(hbond)    S(metal)    S(lipo)     H(rot)  DE(clash)    DE(int)     intcor
     15.55     -16.74       1.89        0.00      72.33       1.38       0.57       0.61       ----

> <Gold.Chemscore.Fitness>
15.5540

> <Gold.Chemscore.DG>
-16.7364

> <Gold.Chemscore.ZeroCoef>
-5.4800

> <Gold.Chemscore.Hbond>
1.8935

> <Gold.Chemscore.Metal>
0.0000

> <Gold.Chemscore.Lipo>
72.3287

> <Gold.Chemscore.Internal_Hbond>
0.0000

> <Gold.Chemscore.DEClash>
0.5703

> <Gold.Chemscore.DEInternal>
0.6121

> <Gold.Chemscore.Rot>
1.3790

> <Gold.Chemscore.Internal.Correction>
   9.000000E+99

> <Gold.Chemscore.Hbonds>
donor molecule, donor type, donor heavy atom, donor atom, acceptor molecule, acceptor atom, score
      L1  H     6    25       P1  7948  0.96
      L1  H     9    26       P1  7948  0.73

> <Gold.Chemscore.Hbond.Weighted>
-6.3241

> <Gold.Chemscore.Metal.Weighted>
-0.0000

> <Gold.Chemscore.Lipo.Weighted>
-8.4625

> <Gold.Chemscore.Internal_Hbond.Weighted>
0.0000

> <Gold.Chemscore.DEClash.Weighted>
0.5703

> <Gold.Chemscore.DEInternal.Weighted>
0.6121

> <Gold.Chemscore.Rot.Weighted>
3.5302

> <Gold.Chemscore.Internal.Correction.Weighted>
   9.000000E+99

> <Gold.Protein.RotatedTorsions>
[ 6907 6896 6895 6894 ] final   18.32 input  -60.11 | X-H torsion
[ 7974 7965 7964 7962 ] final   47.01 input  175.53 | X-H torsion
[ 8008 7997 7996 7995 ] final  -58.16 input   59.86 | X-H torsion
[ 10167 10162 10161 10158 ] final  -98.38 input  -65.29 | X-H torsion
[ 10718 10713 10712 10709 ] final  170.11 input   66.30 | X-H torsion
[ 10763 10752 10751 10750 ] final   41.34 input  -60.55 | X-H torsion
[ 11005 11000 10999 10996 ] final   81.71 input  -57.11 | X-H torsion

> <Gold.Protein.ActiveResidues>
 VAL166  LYS551  ARG553  GLY616  TRP617  ASP618  TYR619  PRO620  LYS621  CYS622 
 ASP623  PHE694  ASN695  SER759  ASP760  ASP761  ALA762  ILE779  LEU786  VAL792 
 PHE793  MET794  SER795  GLU796  ALA797  LYS798  CYS799  TRP800  GLU811  SER814 

> <Gold.Protein.RotatedAtoms>
  151.8634  135.0516  160.0471 H   0  0  0  0  0  0  0  0  0  0  0  0  # atno 6907 bound_to 6896
  152.2645  133.5322  159.5410 H   0  0  0  0  0  0  0  0  0  0  0  0  # atno 6908 bound_to 6896
  150.7128  134.0700  159.3903 H   0  0  0  0  0  0  0  0  0  0  0  0  # atno 6909 bound_to 6896
  146.0337  139.4794  142.9822 H   0  0  0  0  0  0  0  0  0  0  0  0  # atno 7974 bound_to 7965
  154.4297  140.1090  156.5913 H   0  0  0  0  0  0  0  0  0  0  0  0  # atno 8008 bound_to 7997
  155.6009  140.3493  155.4575 H   0  0  0  0  0  0  0  0  0  0  0  0  # atno 8009 bound_to 7997
  156.0174  140.1232  157.0382 H   0  0  0  0  0  0  0  0  0  0  0  0  # atno 8010 bound_to 7997
  140.2736  143.3328  152.0510 H   0  0  0  0  0  0  0  0  0  0  0  0  # atno 10167 bound_to 10162
  157.0128  131.0209  151.2798 H   0  0  0  0  0  0  0  0  0  0  0  0  # atno 10718 bound_to 10713
  152.9911  135.6165  154.2771 H   0  0  0  0  0  0  0  0  0  0  0  0  # atno 10763 bound_to 10752
  154.2502  135.2785  155.2821 H   0  0  0  0  0  0  0  0  0  0  0  0  # atno 10764 bound_to 10752
  154.5295  135.5792  153.6804 H   0  0  0  0  0  0  0  0  0  0  0  0  # atno 10765 bound_to 10752
  139.9088  134.8017  156.2078 H   0  0  0  0  0  0  0  0  0  0  0  0  # atno 11005 bound_to 11000
  145.6999  141.0139  143.1510 LP  0  0  0  0  0  0  0  0  0  0  0  0  # atno 17320 bound_to 7965
  144.7042  139.8632  143.7435 LP  0  0  0  0  0  0  0  0  0  0  0  0  # atno 17321 bound_to 7965
  139.4982  144.6640  151.6400 LP  0  0  0  0  0  0  0  0  0  0  0  0  # atno 17342 bound_to 10162
  140.5869  143.9847  150.6301 LP  0  0  0  0  0  0  0  0  0  0  0  0  # atno 17343 bound_to 10162
  157.5308  130.8057  149.7914 LP  0  0  0  0  0  0  0  0  0  0  0  0  # atno 17370 bound_to 10713
  156.0130  130.3825  150.2202 LP  0  0  0  0  0  0  0  0  0  0  0  0  # atno 17371 bound_to 10713
  141.0484  133.6901  156.1726 LP  0  0  0  0  0  0  0  0  0  0  0  0  # atno 17394 bound_to 11000
  140.6848  134.4729  157.5589 LP  0  0  0  0  0  0  0  0  0  0  0  0  # atno 17395 bound_to 11000

$$$$
