AV-unprocessed.smi:2406|AV-procd|sdf|9516|dock4
  -GOLD-   2272013143D 1   1.00000     0.00000
 Structure written by MMmdl.
 36 37  0  0  0  0  0  0  0  0  1 V2000
  150.9972  141.3693  156.0876 C   0  0  0  0  0  0  0  0  0  0  0  0
  150.7063  140.4046  155.0825 O   0  0  0  0  0  0  0  0  0  0  0  0
  149.4087  140.3139  154.6233 C   0  0  0  0  0  0  0  0  0  0  0  0
  148.9894  139.1400  153.9644 C   0  0  0  0  0  0  0  0  0  0  0  0
  147.6510  139.0858  153.5147 C   0  0  0  0  0  0  0  0  0  0  0  0
  147.2675  137.8829  152.8648 N   0  0  0  0  0  0  0  0  0  0  0  0
  146.0405  137.3393  152.7821 C   0  0  0  0  0  0  0  0  0  0  0  0
  145.0131  137.8291  153.2522 O   0  0  0  0  0  0  0  0  0  0  0  0
  146.0703  136.1795  152.1075 N   0  0  0  0  0  0  0  0  0  0  0  0
  144.9228  135.3129  151.8410 C   0  0  2  0  0  0  0  0  0  0  0  0
  144.3850  134.7704  153.1722 C   0  0  0  0  0  0  0  0  0  0  0  0
  145.3045  134.1700  150.8790 C   0  0  0  0  0  0  0  0  0  0  0  0
  144.1494  133.2421  150.5456 C   0  0  0  0  0  0  0  0  0  0  0  0
  144.3777  131.7654  150.3303 C   0  0  0  0  0  0  0  0  0  0  0  0
  144.0044  132.6510  149.1637 C   0  0  0  0  0  0  0  0  0  0  0  0
  146.8250  140.1415  153.7201 N   0  0  0  0  0  0  0  0  0  0  0  0
  147.3187  141.2077  154.3526 C   0  0  0  0  0  0  0  0  0  0  0  0
  148.5607  141.3531  154.8157 N   0  0  0  0  0  0  0  0  0  0  0  0
  152.0550  141.3150  156.3445 H   0  0  0  0  0  0  0  0  0  0  0  0
  150.4256  141.1808  156.9974 H   0  0  0  0  0  0  0  0  0  0  0  0
  150.7930  142.3831  155.7401 H   0  0  0  0  0  0  0  0  0  0  0  0
  149.6712  138.3152  153.8159 H   0  0  0  0  0  0  0  0  0  0  0  0
  148.0162  137.3705  152.4230 H   0  0  0  0  0  0  0  0  0  0  0  0
  146.9618  135.8626  151.7558 H   0  0  0  0  0  0  0  0  0  0  0  0
  144.1187  135.8899  151.3807 H   0  0  0  0  0  0  0  0  0  0  0  0
  143.5117  134.1374  153.0131 H   0  0  0  0  0  0  0  0  0  0  0  0
  144.0844  135.5829  153.8345 H   0  0  0  0  0  0  0  0  0  0  0  0
  145.1365  134.1757  153.6926 H   0  0  0  0  0  0  0  0  0  0  0  0
  145.7000  134.5770  149.9477 H   0  0  0  0  0  0  0  0  0  0  0  0
  146.1080  133.5797  151.3216 H   0  0  0  0  0  0  0  0  0  0  0  0
  143.2164  133.5080  151.0388 H   0  0  0  0  0  0  0  0  0  0  0  0
  145.4017  131.3992  150.3765 H   0  0  0  0  0  0  0  0  0  0  0  0
  143.6206  131.0824  150.7099 H   0  0  0  0  0  0  0  0  0  0  0  0
  142.9980  132.5550  148.7615 H   0  0  0  0  0  0  0  0  0  0  0  0
  144.7800  132.8691  148.4323 H   0  0  0  0  0  0  0  0  0  0  0  0
  146.6435  142.0363  154.5066 H   0  0  0  0  0  0  0  0  0  0  0  0
  1  2  1  0  0  0  0
  1 19  1  0  0  0  0
  1 20  1  0  0  0  0
  1 21  1  0  0  0  0
  2  3  1  0  0  0  0
  3 18  1  0  0  0  0
  3  4  2  0  0  0  0
  4  5  1  0  0  0  0
  4 22  1  0  0  0  0
  5  6  1  0  0  0  0
  5 16  2  0  0  0  0
  6  7  1  0  0  0  0
  6 23  1  0  0  0  0
  7  8  2  0  0  0  0
  7  9  1  0  0  0  0
  9 10  1  0  0  0  0
  9 24  1  0  0  0  0
 10 11  1  0  0  0  0
 10 12  1  0  0  0  0
 10 25  1  0  0  0  0
 11 26  1  0  0  0  0
 11 27  1  0  0  0  0
 11 28  1  0  0  0  0
 12 13  1  0  0  0  0
 12 29  1  0  0  0  0
 12 30  1  0  0  0  0
 13 15  1  0  0  0  0
 13 14  1  0  0  0  0
 13 31  1  0  0  0  0
 14 15  1  0  0  0  0
 14 32  1  0  0  0  0
 14 33  1  0  0  0  0
 15 34  1  0  0  0  0
 15 35  1  0  0  0  0
 16 17  1  0  0  0  0
 17 18  2  0  0  0  0
 17 36  1  0  0  0  0
M  END
> <s_m_source_file>
AV-unprocessed.smi

> <i_m_source_file_index>
2406

> <i_lp_mmshare_version>
43012

> <i_f3d_flags>
0

> <s_epik_input>
W0NIM11PYzFbY0hdYyhuW2NIXW4xKVtOSF1DKD1PKVtOSF1bQ0BIXShbQ0gzXSlbQ0gyXVtDSF0yW0NIMl1bQ0gyXTI=

> <s_epik_cmdline>
J2VwaWtfcHl0aG9uJywgJy1waCcsICc3LjAnLCAnLXRuJywgJzgnLCAnLW1hJywgJzIwMCcsICctbWV0YWxfYmluZGluZycsICctaW1hZScsICc8aW5maWxlLm1hZT4nLCAnLW9tYWUnLCAnPG91dGZpbGUubWFlPic=

> <r_lp_tautomer_probability>
1

> <r_epik_Ionization_Penalty>
2.82876e-05

> <r_epik_Ionization_Penalty_Charging>
0

> <r_epik_Ionization_Penalty_Neutral>
2.82876e-05

> <r_epik_State_Penalty>
-0

> <r_epik_Charging_Adjusted_Penalty>
0

> <i_epik_Tot_Q>
0

> <i_epik_Tot_abs_Q>
0

> <r_epik_Metal_State_Penalty>
-0

> <b_epik_Metal_Only>
0

> <s_lp_Force_Field>
OPLS_2005

> <r_lp_Energy>
11.282

> <b_lp_Chiralities_Consistent>
1

> <s_lp_Variant>
AV-unprocessed.smi:2406-1

> <Gold.Version>
5.8.1

> <Gold.Id.Protein>
6NUR|6NUR_protein|mol2

> <Gold.PLP.Fitness>
38.8284

> <Gold.PLP.PLP>
-31.5188

> <Gold.PLP.part.hbond>
-3.0000

> <Gold.PLP.part.metal>
0.0000

> <Gold.PLP.part.buried>
-4.5889

> <Gold.PLP.part.nonpolar>
-25.8400

> <Gold.PLP.part.repulsive>
1.4560

> <Gold.PLP.ligand.clash>
0.0000

> <Gold.PLP.ligand.torsion>
0.9526

> <Gold.PLP.Chemscore.Hbond>
2.8800

> <Gold.PLP.Chemscore.CHOScore>
0.0000

> <Gold.PLP.Chemscore.Metal>
0.0000

> <Gold.Chemscore.Hbonds>
donor molecule, donor type, donor heavy atom, donor atom, acceptor molecule, acceptor atom, score
      L1  H     6    23       P1  7948  1.00
      L1  H     9    24       P1  7948  0.88
      P1  H  7989  7998       L1     2  1.00

> <Gold.PLP.Chemscore.Internal.Correction>
0.5749

> <Gold.Rescore>
     Score         DG    S(hbond)    S(metal)    S(lipo)     H(rot)  DE(clash)    DE(int)     intcor
     13.91     -16.03       2.61        0.00      56.12       1.85       0.00       2.12       ----

> <Gold.Chemscore.Fitness>
13.9068

> <Gold.Chemscore.DG>
-16.0335

> <Gold.Chemscore.ZeroCoef>
-5.4800

> <Gold.Chemscore.Hbond>
2.6085

> <Gold.Chemscore.Metal>
0.0000

> <Gold.Chemscore.Lipo>
56.1226

> <Gold.Chemscore.Internal_Hbond>
0.0000

> <Gold.Chemscore.DEClash>
0.0029

> <Gold.Chemscore.DEInternal>
2.1238

> <Gold.Chemscore.Rot>
1.8458

> <Gold.Chemscore.Internal.Correction>
   9.000000E+99

> <Gold.Chemscore.Hbonds>
donor molecule, donor type, donor heavy atom, donor atom, acceptor molecule, acceptor atom, score
      L1  H     6    23       P1  7948  0.97
      L1  H     9    24       P1  7948  0.84
      P1  H  7989  7998       L1     2  0.19

> <Gold.Chemscore.Hbond.Weighted>
-8.7125

> <Gold.Chemscore.Metal.Weighted>
-0.0000

> <Gold.Chemscore.Lipo.Weighted>
-6.5663

> <Gold.Chemscore.Internal_Hbond.Weighted>
0.0000

> <Gold.Chemscore.DEClash.Weighted>
0.0029

> <Gold.Chemscore.DEInternal.Weighted>
2.1238

> <Gold.Chemscore.Rot.Weighted>
4.7254

> <Gold.Chemscore.Internal.Correction.Weighted>
   9.000000E+99

> <Gold.Protein.RotatedTorsions>
[ 6907 6896 6895 6894 ] final  125.87 input  -60.11 | X-H torsion
[ 7974 7965 7964 7962 ] final  171.54 input  175.53 | X-H torsion
[ 8008 7997 7996 7995 ] final  166.90 input   59.86 | X-H torsion
[ 10167 10162 10161 10158 ] final  -89.22 input  -65.29 | X-H torsion
[ 10718 10713 10712 10709 ] final   34.01 input   66.30 | X-H torsion
[ 10763 10752 10751 10750 ] final   82.64 input  -60.55 | X-H torsion
[ 11005 11000 10999 10996 ] final  146.67 input  -57.11 | X-H torsion

> <Gold.Protein.ActiveResidues>
 VAL166  LYS551  ARG553  GLY616  TRP617  ASP618  TYR619  PRO620  LYS621  CYS622 
 ASP623  PHE694  ASN695  SER759  ASP760  ASP761  ALA762  ILE779  LEU786  VAL792 
 PHE793  MET794  SER795  GLU796  ALA797  LYS798  CYS799  TRP800  GLU811  SER814 

> <Gold.Protein.RotatedAtoms>
  152.3954  133.6739  159.6271 H   0  0  0  0  0  0  0  0  0  0  0  0  # atno 6907 bound_to 6896
  150.7854  133.8883  159.3315 H   0  0  0  0  0  0  0  0  0  0  0  0  # atno 6908 bound_to 6896
  151.6661  135.0984  160.0240 H   0  0  0  0  0  0  0  0  0  0  0  0  # atno 6909 bound_to 6896
  144.7292  139.9365  143.6427 H   0  0  0  0  0  0  0  0  0  0  0  0  # atno 7974 bound_to 7965
  156.1679  140.1631  156.8499 H   0  0  0  0  0  0  0  0  0  0  0  0  # atno 8008 bound_to 7997
  154.5226  140.0774  156.8235 H   0  0  0  0  0  0  0  0  0  0  0  0  # atno 8009 bound_to 7997
  155.3573  140.3393  155.4242 H   0  0  0  0  0  0  0  0  0  0  0  0  # atno 8010 bound_to 7997
  140.3669  143.2813  151.9547 H   0  0  0  0  0  0  0  0  0  0  0  0  # atno 10167 bound_to 10162
  157.3051  130.7370  149.6690 H   0  0  0  0  0  0  0  0  0  0  0  0  # atno 10718 bound_to 10713
  153.1220  135.4721  154.9211 H   0  0  0  0  0  0  0  0  0  0  0  0  # atno 10763 bound_to 10752
  154.7585  135.3125  154.8427 H   0  0  0  0  0  0  0  0  0  0  0  0  # atno 10764 bound_to 10752
  153.8989  135.6877  153.4810 H   0  0  0  0  0  0  0  0  0  0  0  0  # atno 10765 bound_to 10752
  140.0812  134.9096  157.1503 H   0  0  0  0  0  0  0  0  0  0  0  0  # atno 11005 bound_to 11000
  146.0817  139.3805  143.0460 LP  0  0  0  0  0  0  0  0  0  0  0  0  # atno 17320 bound_to 7965
  145.7832  140.9847  143.1088 LP  0  0  0  0  0  0  0  0  0  0  0  0  # atno 17321 bound_to 7965
  139.4808  144.5942  151.7719 LP  0  0  0  0  0  0  0  0  0  0  0  0  # atno 17342 bound_to 10162
  140.5071  144.1081  150.5985 LP  0  0  0  0  0  0  0  0  0  0  0  0  # atno 17343 bound_to 10162
  155.9674  130.4268  150.4716 LP  0  0  0  0  0  0  0  0  0  0  0  0  # atno 17370 bound_to 10713
  157.2704  131.0586  151.2263 LP  0  0  0  0  0  0  0  0  0  0  0  0  # atno 17371 bound_to 10713
  140.3485  134.2625  155.7202 LP  0  0  0  0  0  0  0  0  0  0  0  0  # atno 17394 bound_to 11000
  141.2047  133.7879  157.0272 LP  0  0  0  0  0  0  0  0  0  0  0  0  # atno 17395 bound_to 11000

$$$$
