AV-unprocessed.smi:2421|AV-procd|sdf|9555|dock7
  -GOLD-   2272013183D 1   1.00000     0.00000
 Structure written by MMmdl.
 44 46  0  0  0  0  0  0  0  0  1 V2000
  146.0393  142.5192  153.9153 C   0  0  0  0  0  0  0  0  0  0  0  0
  147.0189  141.3819  153.9472 C   0  0  0  0  0  0  0  0  0  0  0  0
  146.7590  140.2587  153.2949 N   0  0  0  0  0  0  0  0  0  0  0  0
  147.8582  139.4093  153.5099 O   0  0  0  0  0  0  0  0  0  0  0  0
  148.7659  140.0493  154.2955 C   0  0  0  0  0  0  0  0  0  0  0  0
  150.0173  139.3139  154.6360 C   0  0  0  0  0  0  0  0  0  0  0  0
  148.2743  141.2830  154.6000 C   0  0  0  0  0  0  0  0  0  0  0  0
  148.9087  142.2794  155.3700 N   0  0  0  0  0  0  0  0  0  0  0  0
  149.6272  142.0284  156.4767 C   0  0  0  0  0  0  0  0  0  0  0  0
  149.8718  140.8940  156.8840 O   0  0  0  0  0  0  0  0  0  0  0  0
  150.0790  143.1238  157.1138 N   0  0  0  0  0  0  0  0  0  0  0  0
  150.8831  143.1925  158.3359 C   0  0  2  0  0  0  0  0  0  0  0  0
  151.5819  144.5549  158.4212 C   0  0  0  0  0  0  0  0  0  0  0  0
  152.4988  144.6127  159.6512 C   0  0  0  0  0  0  0  0  0  0  0  0
  153.4392  143.5402  159.6293 O   0  0  0  0  0  0  0  0  0  0  0  0
  152.8874  142.2191  159.5784 C   0  0  0  0  0  0  0  0  0  0  0  0
  152.2447  141.8168  160.9181 C   0  0  0  0  0  0  0  0  0  0  0  0
  153.4204  141.5150  161.8518 C   0  0  0  0  0  0  0  0  0  0  0  0
  154.5923  141.1211  160.9417 C   0  0  0  0  0  0  0  0  0  0  0  0
  154.0804  141.2587  159.5025 C   0  0  0  0  0  0  0  0  0  0  0  0
  151.9519  142.0857  158.3573 C   0  0  0  0  0  0  0  0  0  0  0  0
  146.3806  143.3550  154.5262 H   0  0  0  0  0  0  0  0  0  0  0  0
  145.0661  142.2083  154.2955 H   0  0  0  0  0  0  0  0  0  0  0  0
  145.8996  142.8877  152.8988 H   0  0  0  0  0  0  0  0  0  0  0  0
  150.6413  139.8967  155.3139 H   0  0  0  0  0  0  0  0  0  0  0  0
  150.5977  139.1037  153.7378 H   0  0  0  0  0  0  0  0  0  0  0  0
  149.7872  138.3655  155.1213 H   0  0  0  0  0  0  0  0  0  0  0  0
  148.7680  143.2399  155.0925 H   0  0  0  0  0  0  0  0  0  0  0  0
  149.8608  144.0116  156.6847 H   0  0  0  0  0  0  0  0  0  0  0  0
  150.2326  143.0922  159.2065 H   0  0  0  0  0  0  0  0  0  0  0  0
  152.1755  144.7274  157.5221 H   0  0  0  0  0  0  0  0  0  0  0  0
  150.8455  145.3580  158.4689 H   0  0  0  0  0  0  0  0  0  0  0  0
  153.0513  145.5524  159.6560 H   0  0  0  0  0  0  0  0  0  0  0  0
  151.9146  144.5987  160.5706 H   0  0  0  0  0  0  0  0  0  0  0  0
  151.5628  142.5577  161.3328 H   0  0  0  0  0  0  0  0  0  0  0  0
  151.6649  140.9031  160.7795 H   0  0  0  0  0  0  0  0  0  0  0  0
  153.6819  142.4078  162.4212 H   0  0  0  0  0  0  0  0  0  0  0  0
  153.1734  140.7308  162.5681 H   0  0  0  0  0  0  0  0  0  0  0  0
  155.4332  141.7953  161.1093 H   0  0  0  0  0  0  0  0  0  0  0  0
  154.9414  140.1076  161.1421 H   0  0  0  0  0  0  0  0  0  0  0  0
  153.7441  140.2817  159.1517 H   0  0  0  0  0  0  0  0  0  0  0  0
  154.8547  141.6002  158.8144 H   0  0  0  0  0  0  0  0  0  0  0  0
  151.4859  141.0996  158.3469 H   0  0  0  0  0  0  0  0  0  0  0  0
  152.5480  142.1485  157.4454 H   0  0  0  0  0  0  0  0  0  0  0  0
  1  2  1  0  0  0  0
  1 22  1  0  0  0  0
  1 23  1  0  0  0  0
  1 24  1  0  0  0  0
  2  7  1  0  0  0  0
  2  3  2  0  0  0  0
  3  4  1  0  0  0  0
  4  5  1  0  0  0  0
  5  6  1  0  0  0  0
  5  7  2  0  0  0  0
  6 25  1  0  0  0  0
  6 26  1  0  0  0  0
  6 27  1  0  0  0  0
  7  8  1  0  0  0  0
  8  9  1  0  0  0  0
  8 28  1  0  0  0  0
  9 10  2  0  0  0  0
  9 11  1  0  0  0  0
 11 12  1  0  0  0  0
 11 29  1  0  0  0  0
 12 21  1  0  0  0  0
 12 13  1  0  0  0  0
 12 30  1  0  0  0  0
 13 14  1  0  0  0  0
 13 31  1  0  0  0  0
 13 32  1  0  0  0  0
 14 15  1  0  0  0  0
 14 33  1  0  0  0  0
 14 34  1  0  0  0  0
 15 16  1  0  0  0  0
 16 20  1  0  0  0  0
 16 17  1  0  0  0  0
 16 21  1  0  0  0  0
 17 18  1  0  0  0  0
 17 35  1  0  0  0  0
 17 36  1  0  0  0  0
 18 19  1  0  0  0  0
 18 37  1  0  0  0  0
 18 38  1  0  0  0  0
 19 20  1  0  0  0  0
 19 39  1  0  0  0  0
 19 40  1  0  0  0  0
 20 41  1  0  0  0  0
 20 42  1  0  0  0  0
 21 43  1  0  0  0  0
 21 44  1  0  0  0  0
M  END
> <s_m_source_file>
AV-unprocessed.smi

> <i_m_source_file_index>
2421

> <i_lp_mmshare_version>
43012

> <i_f3d_flags>
0

> <s_epik_input>
W0NIM11jMW5vYyhbQ0gzXSljMVtOSF1DKD1PKVtOSF1bQ0BASF0oW0NIMl0yKVtDSDJdW0NIMl1PQzIzW0NIMl1bQ0gyXVtDSDJdW0NIMl0z

> <s_epik_cmdline>
J2VwaWtfcHl0aG9uJywgJy1waCcsICc3LjAnLCAnLXRuJywgJzgnLCAnLW1hJywgJzIwMCcsICctbWV0YWxfYmluZGluZycsICctaW1hZScsICc8aW5maWxlLm1hZT4nLCAnLW9tYWUnLCAnPG91dGZpbGUubWFlPic=

> <r_lp_tautomer_probability>
1

> <r_epik_Ionization_Penalty>
3.59808e-05

> <r_epik_Ionization_Penalty_Charging>
0

> <r_epik_Ionization_Penalty_Neutral>
3.59808e-05

> <r_epik_State_Penalty>
-0

> <r_epik_Charging_Adjusted_Penalty>
0

> <i_epik_Tot_Q>
0

> <i_epik_Tot_abs_Q>
0

> <r_epik_Metal_State_Penalty>
-0

> <b_epik_Metal_Only>
0

> <s_lp_Force_Field>
OPLS_2005

> <r_lp_Energy>
43.4187

> <b_lp_Chiralities_Consistent>
1

> <s_lp_Variant>
AV-unprocessed.smi:2421-1

> <Gold.Version>
5.8.1

> <Gold.Id.Protein>
6NUR|6NUR_protein|mol2

> <Gold.PLP.Fitness>
42.4601

> <Gold.PLP.PLP>
-37.8753

> <Gold.PLP.part.hbond>
-1.4915

> <Gold.PLP.part.metal>
0.0000

> <Gold.PLP.part.buried>
-1.7993

> <Gold.PLP.part.nonpolar>
-36.9148

> <Gold.PLP.part.repulsive>
1.7878

> <Gold.PLP.ligand.clash>
0.0000

> <Gold.PLP.ligand.torsion>
0.5749

> <Gold.PLP.Chemscore.Hbond>
1.7440

> <Gold.PLP.Chemscore.CHOScore>
0.0000

> <Gold.PLP.Chemscore.Metal>
0.0000

> <Gold.Chemscore.Hbonds>
donor molecule, donor type, donor heavy atom, donor atom, acceptor molecule, acceptor atom, score
      L1  H     8    28       P1  8028  0.85
      L1  H    11    29       P1  8028  0.90

> <Gold.PLP.Chemscore.Internal.Correction>
0.5025

> <Gold.Rescore>
     Score         DG    S(hbond)    S(metal)    S(lipo)     H(rot)  DE(clash)    DE(int)     intcor
     19.30     -23.45       1.73        0.00     126.19       1.00       1.54       2.61       ----

> <Gold.Chemscore.Fitness>
19.2988

> <Gold.Chemscore.DG>
-23.4478

> <Gold.Chemscore.ZeroCoef>
-5.4800

> <Gold.Chemscore.Hbond>
1.7257

> <Gold.Chemscore.Metal>
0.0000

> <Gold.Chemscore.Lipo>
126.1887

> <Gold.Chemscore.Internal_Hbond>
0.0000

> <Gold.Chemscore.DEClash>
1.5417

> <Gold.Chemscore.DEInternal>
2.6073

> <Gold.Chemscore.Rot>
1.0000

> <Gold.Chemscore.Internal.Correction>
   9.000000E+99

> <Gold.Chemscore.Hbonds>
donor molecule, donor type, donor heavy atom, donor atom, acceptor molecule, acceptor atom, score
      L1  H     8    28       P1  8028  0.83
      L1  H    11    29       P1  8028  0.84

> <Gold.Chemscore.Hbond.Weighted>
-5.7638

> <Gold.Chemscore.Metal.Weighted>
-0.0000

> <Gold.Chemscore.Lipo.Weighted>
-14.7641

> <Gold.Chemscore.Internal_Hbond.Weighted>
0.0000

> <Gold.Chemscore.DEClash.Weighted>
1.5417

> <Gold.Chemscore.DEInternal.Weighted>
2.6073

> <Gold.Chemscore.Rot.Weighted>
2.5600

> <Gold.Chemscore.Internal.Correction.Weighted>
   9.000000E+99

> <Gold.Protein.RotatedTorsions>
[ 6907 6896 6895 6894 ] final  -59.64 input  -60.11 | X-H torsion
[ 7974 7965 7964 7962 ] final  -37.43 input  175.53 | X-H torsion
[ 8008 7997 7996 7995 ] final   -3.29 input   59.86 | X-H torsion
[ 10167 10162 10161 10158 ] final  162.58 input  -65.29 | X-H torsion
[ 10718 10713 10712 10709 ] final  163.02 input   66.30 | X-H torsion
[ 10763 10752 10751 10750 ] final  -36.35 input  -60.55 | X-H torsion
[ 11005 11000 10999 10996 ] final  159.88 input  -57.11 | X-H torsion

> <Gold.Protein.ActiveResidues>
 VAL166  LYS551  ARG553  GLY616  TRP617  ASP618  TYR619  PRO620  LYS621  CYS622 
 ASP623  PHE694  ASN695  SER759  ASP760  ASP761  ALA762  ILE779  LEU786  VAL792 
 PHE793  MET794  SER795  GLU796  ALA797  LYS798  CYS799  TRP800  GLU811  SER814 

> <Gold.Protein.RotatedAtoms>
  150.7915  134.6942  159.6513 H   0  0  0  0  0  0  0  0  0  0  0  0  # atno 6907 bound_to 6896
  152.4021  134.6265  160.0074 H   0  0  0  0  0  0  0  0  0  0  0  0  # atno 6908 bound_to 6896
  151.6533  133.3283  159.3193 H   0  0  0  0  0  0  0  0  0  0  0  0  # atno 6909 bound_to 6896
  146.0576  140.6394  142.9012 H   0  0  0  0  0  0  0  0  0  0  0  0  # atno 7974 bound_to 7965
  154.6265  140.2513  155.7485 H   0  0  0  0  0  0  0  0  0  0  0  0  # atno 8008 bound_to 7997
  156.2456  140.2916  156.0517 H   0  0  0  0  0  0  0  0  0  0  0  0  # atno 8009 bound_to 7997
  155.1812  140.0389  157.2873 H   0  0  0  0  0  0  0  0  0  0  0  0  # atno 8010 bound_to 7997
  139.4862  144.4423  151.8936 H   0  0  0  0  0  0  0  0  0  0  0  0  # atno 10167 bound_to 10162
  157.1143  131.0476  151.2443 H   0  0  0  0  0  0  0  0  0  0  0  0  # atno 10718 bound_to 10713
  153.8782  135.6824  153.4769 H   0  0  0  0  0  0  0  0  0  0  0  0  # atno 10763 bound_to 10752
  153.1248  135.4723  154.9253 H   0  0  0  0  0  0  0  0  0  0  0  0  # atno 10764 bound_to 10752
  154.7681  135.3230  154.8196 H   0  0  0  0  0  0  0  0  0  0  0  0  # atno 10765 bound_to 10752
  140.2005  134.8341  157.3013 H   0  0  0  0  0  0  0  0  0  0  0  0  # atno 11005 bound_to 11000
  144.7156  140.4199  143.7047 LP  0  0  0  0  0  0  0  0  0  0  0  0  # atno 17320 bound_to 7965
  145.6617  139.1582  143.2804 LP  0  0  0  0  0  0  0  0  0  0  0  0  # atno 17321 bound_to 7965
  140.3875  144.2658  150.5902 LP  0  0  0  0  0  0  0  0  0  0  0  0  # atno 17342 bound_to 10162
  140.5177  143.2274  151.8438 LP  0  0  0  0  0  0  0  0  0  0  0  0  # atno 17343 bound_to 10162
  157.4532  130.7610  149.7169 LP  0  0  0  0  0  0  0  0  0  0  0  0  # atno 17370 bound_to 10713
  155.9843  130.3993  150.3319 LP  0  0  0  0  0  0  0  0  0  0  0  0  # atno 17371 bound_to 10713
  140.2059  134.4197  155.7638 LP  0  0  0  0  0  0  0  0  0  0  0  0  # atno 17394 bound_to 11000
  141.2227  133.7095  156.8260 LP  0  0  0  0  0  0  0  0  0  0  0  0  # atno 17395 bound_to 11000

$$$$
