AV-unprocessed.smi:1475|AV-procd|sdf|5976|dock1
  -GOLD-   22720 6 63D 1   1.00000     0.00000
 Structure written by MMmdl.
 50 51  0  0  0  0  0  0  0  0  2 V2000
  154.2982  140.6217  160.1716 C   0  0  0  0  0  0  0  0  0  0  0  0
  153.4343  141.8018  159.8386 C   0  0  0  0  0  0  0  0  0  0  0  0
  153.2245  142.9829  160.6037 C   0  0  0  0  0  0  0  0  0  0  0  0
  152.3577  143.7236  159.8510 C   0  0  0  0  0  0  0  0  0  0  0  0
  151.7594  145.0658  160.1162 C   0  0  0  0  0  0  0  0  0  0  0  0
  152.0904  142.9901  158.7085 N   0  0  0  0  0  0  0  0  0  0  0  0
  151.2406  143.3286  157.5780 C   0  0  0  0  0  0  0  0  0  0  0  0
  150.5838  142.0779  156.9925 C   0  0  0  0  0  0  0  0  0  0  0  0
  150.6704  141.0015  157.5831 O   0  0  0  0  0  0  0  0  0  0  0  0
  149.9253  142.2330  155.8331 N   0  0  0  0  0  0  0  0  0  0  0  0
  149.1951  141.1806  155.1367 C   0  0  0  0  0  0  0  0  0  0  0  0
  148.0753  141.7535  154.2448 C   0  0  0  0  0  0  0  0  0  0  0  0
  146.9901  142.3975  155.0280 N   0  3  1  0  0  0  0  0  0  0  0  0
  146.0450  143.1440  154.1573 C   0  0  0  0  0  0  0  0  0  0  0  0
  145.0082  143.9259  154.9871 C   0  0  1  0  0  0  0  0  0  0  0  0
  144.0376  144.7026  154.0860 C   0  0  0  0  0  0  0  0  0  0  0  0
  144.2561  142.9740  155.9319 C   0  0  0  0  0  0  0  0  0  0  0  0
  145.2443  142.1871  156.8082 C   0  0  1  0  0  0  0  0  0  0  0  0
  144.5125  141.2157  157.7451 C   0  0  0  0  0  0  0  0  0  0  0  0
  146.2716  141.4528  155.9252 C   0  0  0  0  0  0  0  0  0  0  0  0
  152.7531  141.8123  158.7044 N   0  0  0  0  0  0  0  0  0  0  0  0
  154.7636  140.7391  161.1504 H   0  0  0  0  0  0  0  0  0  0  0  0
  155.0955  140.4993  159.4382 H   0  0  0  0  0  0  0  0  0  0  0  0
  153.7154  139.7004  160.1904 H   0  0  0  0  0  0  0  0  0  0  0  0
  153.6472  143.2469  161.5619 H   0  0  0  0  0  0  0  0  0  0  0  0
  152.1280  145.4765  161.0563 H   0  0  0  0  0  0  0  0  0  0  0  0
  150.6734  145.0010  160.1822 H   0  0  0  0  0  0  0  0  0  0  0  0
  152.0115  145.7693  159.3228 H   0  0  0  0  0  0  0  0  0  0  0  0
  150.4797  144.0427  157.8976 H   0  0  0  0  0  0  0  0  0  0  0  0
  151.8389  143.8270  156.8146 H   0  0  0  0  0  0  0  0  0  0  0  0
  149.9006  143.1570  155.4248 H   0  0  0  0  0  0  0  0  0  0  0  0
  149.9063  140.5883  154.5606 H   0  0  0  0  0  0  0  0  0  0  0  0
  148.7686  140.5130  155.8858 H   0  0  0  0  0  0  0  0  0  0  0  0
  148.5235  142.4916  153.5780 H   0  0  0  0  0  0  0  0  0  0  0  0
  147.6466  140.9818  153.6039 H   0  0  0  0  0  0  0  0  0  0  0  0
  146.6025  143.8436  153.5328 H   0  0  0  0  0  0  0  0  0  0  0  0
  145.5452  142.4469  153.4824 H   0  0  0  0  0  0  0  0  0  0  0  0
  145.5442  144.6550  155.5969 H   0  0  0  0  0  0  0  0  0  0  0  0
  143.4604  144.0301  153.4507 H   0  0  0  0  0  0  0  0  0  0  0  0
  144.5729  145.3960  153.4367 H   0  0  0  0  0  0  0  0  0  0  0  0
  143.3327  145.2860  154.6791 H   0  0  0  0  0  0  0  0  0  0  0  0
  143.5698  143.5410  156.5622 H   0  0  0  0  0  0  0  0  0  0  0  0
  143.6446  142.2820  155.3508 H   0  0  0  0  0  0  0  0  0  0  0  0
  145.7851  142.8997  157.4331 H   0  0  0  0  0  0  0  0  0  0  0  0
  143.9462  140.4721  157.1835 H   0  0  0  0  0  0  0  0  0  0  0  0
  143.8138  141.7463  158.3924 H   0  0  0  0  0  0  0  0  0  0  0  0
  145.2154  140.6836  158.3869 H   0  0  0  0  0  0  0  0  0  0  0  0
  145.7772  140.6869  155.3251 H   0  0  0  0  0  0  0  0  0  0  0  0
  146.9791  140.9356  156.5717 H   0  0  0  0  0  0  0  0  0  0  0  0
  147.4332  143.0867  155.6185 H   0  0  0  0  0  0  0  0  0  0  0  0
  1  2  1  0  0  0  0
  1 22  1  0  0  0  0
  1 23  1  0  0  0  0
  1 24  1  0  0  0  0
  2 21  2  0  0  0  0
  2  3  1  0  0  0  0
  3  4  2  0  0  0  0
  3 25  1  0  0  0  0
  4  5  1  0  0  0  0
  4  6  1  0  0  0  0
  5 26  1  0  0  0  0
  5 27  1  0  0  0  0
  5 28  1  0  0  0  0
  6  7  1  0  0  0  0
  6 21  1  0  0  0  0
  7  8  1  0  0  0  0
  7 29  1  0  0  0  0
  7 30  1  0  0  0  0
  8  9  2  0  0  0  0
  8 10  1  0  0  0  0
 10 11  1  0  0  0  0
 10 31  1  0  0  0  0
 11 12  1  0  0  0  0
 11 32  1  0  0  0  0
 11 33  1  0  0  0  0
 12 13  1  0  0  0  0
 12 34  1  0  0  0  0
 12 35  1  0  0  0  0
 13 20  1  0  0  0  0
 13 14  1  0  0  0  0
 13 50  1  0  0  0  0
 14 15  1  0  0  0  0
 14 36  1  0  0  0  0
 14 37  1  0  0  0  0
 15 16  1  0  0  0  0
 15 17  1  0  0  0  0
 15 38  1  0  0  0  0
 16 39  1  0  0  0  0
 16 40  1  0  0  0  0
 16 41  1  0  0  0  0
 17 18  1  0  0  0  0
 17 42  1  0  0  0  0
 17 43  1  0  0  0  0
 18 19  1  0  0  0  0
 18 20  1  0  0  0  0
 18 44  1  0  0  0  0
 19 45  1  0  0  0  0
 19 46  1  0  0  0  0
 19 47  1  0  0  0  0
 20 48  1  0  0  0  0
 20 49  1  0  0  0  0
M  CHG  1  13   1
M  END
> <s_m_source_file>
AV-unprocessed.smi

> <i_m_source_file_index>
1475

> <i_lp_mmshare_version>
43012

> <i_f3d_flags>
0

> <s_epik_input>
W0NIM11jMVtjSF1jKFtDSDNdKW4objEpW0NIMl1DKD1PKVtOSF1bQ0gyXVtDSDJdTjJbQ0gyXVtDQEBIXShbQ0gzXSlbQ0gyXVtDQEBIXShbQ0gzXSlbQ0gyXTI=

> <s_epik_cmdline>
J2VwaWtfcHl0aG9uJywgJy1waCcsICc3LjAnLCAnLXRuJywgJzgnLCAnLW1hJywgJzIwMCcsICctbWV0YWxfYmluZGluZycsICctaW1hZScsICc8aW5maWxlLm1hZT4nLCAnLW9tYWUnLCAnPG91dGZpbGUubWFlPic=

> <r_lp_tautomer_probability>
1

> <r_epik_Ionization_Penalty>
0.00206431

> <r_epik_Ionization_Penalty_Charging>
0.00187095

> <r_epik_Ionization_Penalty_Neutral>
0.000193364

> <r_epik_State_Penalty>
-0

> <r_epik_Charging_Adjusted_Penalty>
0.00187095

> <i_epik_Tot_Q>
1

> <i_epik_Tot_abs_Q>
1

> <r_epik_Metal_State_Penalty>
-0

> <b_epik_Metal_Only>
0

> <s_lp_Force_Field>
OPLS_2005

> <r_lp_Energy>
13.7816

> <b_lp_Chiralities_Consistent>
1

> <s_lp_Variant>
AV-unprocessed.smi:1475-1

> <Gold.Version>
5.8.1

> <Gold.Id.Protein>
6NUR|6NUR_protein|mol2

> <Gold.PLP.Fitness>
53.7314

> <Gold.PLP.PLP>
-47.3375

> <Gold.PLP.part.hbond>
-2.0000

> <Gold.PLP.part.metal>
0.0000

> <Gold.PLP.part.buried>
-6.2312

> <Gold.PLP.part.nonpolar>
-39.4091

> <Gold.PLP.part.repulsive>
0.2867

> <Gold.PLP.ligand.clash>
0.0000

> <Gold.PLP.ligand.torsion>
0.6576

> <Gold.PLP.Chemscore.Hbond>
2.5369

> <Gold.PLP.Chemscore.CHOScore>
0.0000

> <Gold.PLP.Chemscore.Metal>
0.0000

> <Gold.Chemscore.Hbonds>
donor molecule, donor type, donor heavy atom, donor atom, acceptor molecule, acceptor atom, score
      L1  H    10    31       P1  8028  0.74
      L1  H    13    50       P1  8028  1.05

> <Gold.PLP.Chemscore.Internal.Correction>
0.0984

> <Gold.Rescore>
     Score         DG    S(hbond)    S(metal)    S(lipo)     H(rot)  DE(clash)    DE(int)     intcor
     14.52     -17.34       1.01        0.00     108.46       1.64       0.47       2.35       ----

> <Gold.Chemscore.Fitness>
14.5163

> <Gold.Chemscore.DG>
-17.3367

> <Gold.Chemscore.ZeroCoef>
-5.4800

> <Gold.Chemscore.Hbond>
1.0074

> <Gold.Chemscore.Metal>
0.0000

> <Gold.Chemscore.Lipo>
108.4617

> <Gold.Chemscore.Internal_Hbond>
0.0000

> <Gold.Chemscore.DEClash>
0.4662

> <Gold.Chemscore.DEInternal>
2.3542

> <Gold.Chemscore.Rot>
1.6399

> <Gold.Chemscore.Internal.Correction>
   9.000000E+99

> <Gold.Chemscore.Hbonds>
donor molecule, donor type, donor heavy atom, donor atom, acceptor molecule, acceptor atom, score
      L1  H    10    31       P1  8028  0.74
      L1  H    13    50       P1  8028  0.09

> <Gold.Chemscore.Hbond.Weighted>
-3.3648

> <Gold.Chemscore.Metal.Weighted>
-0.0000

> <Gold.Chemscore.Lipo.Weighted>
-12.6900

> <Gold.Chemscore.Internal_Hbond.Weighted>
0.0000

> <Gold.Chemscore.DEClash.Weighted>
0.4662

> <Gold.Chemscore.DEInternal.Weighted>
2.3542

> <Gold.Chemscore.Rot.Weighted>
4.1982

> <Gold.Chemscore.Internal.Correction.Weighted>
   9.000000E+99

> <Gold.Protein.RotatedTorsions>
[ 6907 6896 6895 6894 ] final   65.70 input  -60.11 | X-H torsion
[ 7974 7965 7964 7962 ] final  147.87 input  175.53 | X-H torsion
[ 8008 7997 7996 7995 ] final  -33.58 input   59.86 | X-H torsion
[ 10167 10162 10161 10158 ] final   44.04 input  -65.29 | X-H torsion
[ 10718 10713 10712 10709 ] final  -81.91 input   66.30 | X-H torsion
[ 10763 10752 10751 10750 ] final -135.05 input  -60.55 | X-H torsion
[ 11005 11000 10999 10996 ] final  115.99 input  -57.11 | X-H torsion

> <Gold.Protein.ActiveResidues>
 VAL166  LYS551  ARG553  GLY616  TRP617  ASP618  TYR619  PRO620  LYS621  CYS622 
 ASP623  PHE694  ASN695  SER759  ASP760  ASP761  ALA762  ILE779  LEU786  VAL792 
 PHE793  MET794  SER795  GLU796  ALA797  LYS798  CYS799  TRP800  GLU811  SER814 

> <Gold.Protein.RotatedAtoms>
  152.4427  134.5558  159.9879 H   0  0  0  0  0  0  0  0  0  0  0  0  # atno 6907 bound_to 6896
  151.5651  133.3392  159.2986 H   0  0  0  0  0  0  0  0  0  0  0  0  # atno 6908 bound_to 6896
  150.8337  134.7634  159.6938 H   0  0  0  0  0  0  0  0  0  0  0  0  # atno 6909 bound_to 6896
  144.8558  139.6083  143.5953 H   0  0  0  0  0  0  0  0  0  0  0  0  # atno 7974 bound_to 7965
  154.4145  140.1707  156.1911 H   0  0  0  0  0  0  0  0  0  0  0  0  # atno 8008 bound_to 7997
  155.9603  140.3394  155.6461 H   0  0  0  0  0  0  0  0  0  0  0  0  # atno 8009 bound_to 7997
  155.6757  140.0717  157.2494 H   0  0  0  0  0  0  0  0  0  0  0  0  # atno 8010 bound_to 7997
  140.3383  144.2503  150.6159 H   0  0  0  0  0  0  0  0  0  0  0  0  # atno 10167 bound_to 10162
  156.0042  130.4618  150.4024 H   0  0  0  0  0  0  0  0  0  0  0  0  # atno 10718 bound_to 10713
  154.8709  135.3715  154.4836 H   0  0  0  0  0  0  0  0  0  0  0  0  # atno 10763 bound_to 10752
  153.5487  135.7025  153.5606 H   0  0  0  0  0  0  0  0  0  0  0  0  # atno 10764 bound_to 10752
  153.3735  135.4015  155.1770 H   0  0  0  0  0  0  0  0  0  0  0  0  # atno 10765 bound_to 10752
  139.9027  134.9592  156.7129 H   0  0  0  0  0  0  0  0  0  0  0  0  # atno 11005 bound_to 11000
  146.2821  139.6906  142.9221 LP  0  0  0  0  0  0  0  0  0  0  0  0  # atno 17320 bound_to 7965
  145.4410  141.0422  143.2857 LP  0  0  0  0  0  0  0  0  0  0  0  0  # atno 17321 bound_to 7965
  140.5333  143.2238  151.8203 LP  0  0  0  0  0  0  0  0  0  0  0  0  # atno 17342 bound_to 10162
  139.4845  144.4693  151.9445 LP  0  0  0  0  0  0  0  0  0  0  0  0  # atno 17343 bound_to 10162
  157.2092  131.0456  151.2608 LP  0  0  0  0  0  0  0  0  0  0  0  0  # atno 17370 bound_to 10713
  157.3904  130.7279  149.6694 LP  0  0  0  0  0  0  0  0  0  0  0  0  # atno 17371 bound_to 10713
  140.7061  133.9264  155.8055 LP  0  0  0  0  0  0  0  0  0  0  0  0  # atno 17394 bound_to 11000
  141.0335  134.0722  157.3986 LP  0  0  0  0  0  0  0  0  0  0  0  0  # atno 17395 bound_to 11000

$$$$
