AV-unprocessed.smi:745|AV-procd|sdf|3572|dock1
  -GOLD-   22720 0563D 1   1.00000     0.00000
 Structure written by MMmdl.
 42 43  0  0  0  0  0  0  0  0  2 V2000
  152.8756  138.6191  154.5745 C   0  0  0  0  0  0  0  0  0  0  0  0
  151.3867  139.0049  154.5343 C   0  0  2  0  0  0  0  0  0  0  0  0
  151.2345  140.2658  155.2621 N   0  0  0  0  0  0  0  0  0  0  0  0
  151.8093  140.5727  156.4354 C   0  0  0  0  0  0  0  0  0  0  0  0
  152.5846  139.8230  157.0297 O   0  0  0  0  0  0  0  0  0  0  0  0
  151.4316  141.7927  156.8560 N   0  0  0  0  0  0  0  0  0  0  0  0
  151.8248  142.4742  158.0386 C   0  0  0  0  0  0  0  0  0  0  0  0
  151.7417  143.8834  157.9728 C   0  0  0  0  0  0  0  0  0  0  0  0
  152.1096  144.6524  159.0939 C   0  0  0  0  0  0  0  0  0  0  0  0
  152.5522  143.9915  160.2535 C   0  0  0  0  0  0  0  0  0  0  0  0
  152.6061  142.5856  160.2354 C   0  0  0  0  0  0  0  0  0  0  0  0
  152.2546  141.8467  159.1619 N   0  0  0  0  0  0  0  0  0  0  0  0
  150.4483  137.9091  155.1127 C   0  0  2  0  0  0  0  0  0  0  0  0
  150.8851  136.4865  154.6967 C   0  0  0  0  0  0  0  0  0  0  0  0
  149.9295  135.4075  155.2321 C   0  0  0  0  0  0  0  0  0  0  0  0
  148.5396  135.6602  154.7854 N   0  3  1  0  0  0  0  0  0  0  0  0
  147.6157  134.5718  155.1700 C   0  0  0  0  0  0  0  0  0  0  0  0
  148.0602  136.9917  155.2241 C   0  0  0  0  0  0  0  0  0  0  0  0
  148.9728  138.1082  154.6917 C   0  0  0  0  0  0  0  0  0  0  0  0
  153.0941  137.7725  153.9247 H   0  0  0  0  0  0  0  0  0  0  0  0
  153.1937  138.3599  155.5848 H   0  0  0  0  0  0  0  0  0  0  0  0
  153.5013  139.4444  154.2322 H   0  0  0  0  0  0  0  0  0  0  0  0
  151.1251  139.1578  153.4856 H   0  0  0  0  0  0  0  0  0  0  0  0
  150.6179  140.9503  154.8491 H   0  0  0  0  0  0  0  0  0  0  0  0
  150.7849  142.2917  156.2634 H   0  0  0  0  0  0  0  0  0  0  0  0
  151.3994  144.3752  157.0737 H   0  0  0  0  0  0  0  0  0  0  0  0
  152.0527  145.7305  159.0634 H   0  0  0  0  0  0  0  0  0  0  0  0
  152.8429  144.5468  161.1331 H   0  0  0  0  0  0  0  0  0  0  0  0
  152.9408  142.0393  161.1049 H   0  0  0  0  0  0  0  0  0  0  0  0
  150.4934  137.9679  156.2016 H   0  0  0  0  0  0  0  0  0  0  0  0
  150.9360  136.4199  153.6089 H   0  0  0  0  0  0  0  0  0  0  0  0
  151.8865  136.2685  155.0667 H   0  0  0  0  0  0  0  0  0  0  0  0
  150.2543  134.4280  154.8789 H   0  0  0  0  0  0  0  0  0  0  0  0
  149.9657  135.3795  156.3225 H   0  0  0  0  0  0  0  0  0  0  0  0
  147.5392  134.4884  156.2549 H   0  0  0  0  0  0  0  0  0  0  0  0
  147.9626  133.6158  154.7764 H   0  0  0  0  0  0  0  0  0  0  0  0
  146.6184  134.7542  154.7687 H   0  0  0  0  0  0  0  0  0  0  0  0
  147.0436  137.1513  154.8619 H   0  0  0  0  0  0  0  0  0  0  0  0
  148.0186  137.0266  156.3140 H   0  0  0  0  0  0  0  0  0  0  0  0
  148.5935  139.0621  155.0576 H   0  0  0  0  0  0  0  0  0  0  0  0
  148.9030  138.1469  153.6036 H   0  0  0  0  0  0  0  0  0  0  0  0
  148.5583  135.6779  153.7756 H   0  0  0  0  0  0  0  0  0  0  0  0
  1  2  1  0  0  0  0
  1 20  1  0  0  0  0
  1 21  1  0  0  0  0
  1 22  1  0  0  0  0
  2  3  1  0  0  0  0
  2 13  1  0  0  0  0
  2 23  1  0  0  0  0
  3  4  1  0  0  0  0
  3 24  1  0  0  0  0
  4  5  2  0  0  0  0
  4  6  1  0  0  0  0
  6  7  1  0  0  0  0
  6 25  1  0  0  0  0
  7 12  1  0  0  0  0
  7  8  2  0  0  0  0
  8  9  1  0  0  0  0
  8 26  1  0  0  0  0
  9 10  2  0  0  0  0
  9 27  1  0  0  0  0
 10 11  1  0  0  0  0
 10 28  1  0  0  0  0
 11 12  2  0  0  0  0
 11 29  1  0  0  0  0
 13 19  1  0  0  0  0
 13 14  1  0  0  0  0
 13 30  1  0  0  0  0
 14 15  1  0  0  0  0
 14 31  1  0  0  0  0
 14 32  1  0  0  0  0
 15 16  1  0  0  0  0
 15 33  1  0  0  0  0
 15 34  1  0  0  0  0
 16 17  1  0  0  0  0
 16 18  1  0  0  0  0
 16 42  1  0  0  0  0
 17 35  1  0  0  0  0
 17 36  1  0  0  0  0
 17 37  1  0  0  0  0
 18 19  1  0  0  0  0
 18 38  1  0  0  0  0
 18 39  1  0  0  0  0
 19 40  1  0  0  0  0
 19 41  1  0  0  0  0
M  CHG  1  16   1
M  END
> <s_m_source_file>
AV-unprocessed.smi

> <i_m_source_file_index>
745

> <i_lp_mmshare_version>
43012

> <i_f3d_flags>
0

> <s_epik_input>
W0NIMl0xW0NIMl1OKFtDSDNdKVtDSDJdW0NIMl1bQ0hdMVtDQEhdKFtDSDNdKVtOSF1DKD1PKVtOSF1jMltjSF1bY0hdW2NIXVtjSF1uMg==

> <s_epik_cmdline>
J2VwaWtfcHl0aG9uJywgJy1waCcsICc3LjAnLCAnLXRuJywgJzgnLCAnLW1hJywgJzIwMCcsICctbWV0YWxfYmluZGluZycsICctaW1hZScsICc8aW5maWxlLm1hZT4nLCAnLW9tYWUnLCAnPG91dGZpbGUubWFlPic=

> <r_epik_Ionization_Penalty>
0.0011087

> <r_epik_Ionization_Penalty_Charging>
0.00106265

> <r_epik_Ionization_Penalty_Neutral>
4.60506e-05

> <r_epik_State_Penalty>
0.000695551

> <r_epik_Charging_Adjusted_Penalty>
0.0017582

> <i_epik_Tot_Q>
1

> <i_epik_Tot_abs_Q>
1

> <r_epik_Metal_State_Penalty>
-0

> <b_epik_Metal_Only>
0

> <s_lp_Force_Field>
OPLS_2005

> <r_lp_Energy>
20.1287

> <b_lp_Chiralities_Consistent>
1

> <s_lp_Variant>
AV-unprocessed.smi:745-1

> <Gold.Version>
5.8.1

> <Gold.Id.Protein>
6NUR|6NUR_protein|mol2

> <Gold.PLP.Fitness>
43.0079

> <Gold.PLP.PLP>
-35.3610

> <Gold.PLP.part.hbond>
-2.0000

> <Gold.PLP.part.metal>
0.0000

> <Gold.PLP.part.buried>
-4.4547

> <Gold.PLP.part.nonpolar>
-30.2193

> <Gold.PLP.part.repulsive>
1.5737

> <Gold.PLP.ligand.clash>
0.0027

> <Gold.PLP.ligand.torsion>
0.6891

> <Gold.PLP.Chemscore.Hbond>
3.0000

> <Gold.PLP.Chemscore.CHOScore>
0.0000

> <Gold.PLP.Chemscore.Metal>
0.0000

> <Gold.Chemscore.Hbonds>
donor molecule, donor type, donor heavy atom, donor atom, acceptor molecule, acceptor atom, score
      L1  H    16    42       P1  7948  2.00
      P1  H  7997  8010       L1     5  1.00

> <Gold.PLP.Chemscore.Internal.Correction>
0.0278

> <Gold.Rescore>
     Score         DG    S(hbond)    S(metal)    S(lipo)     H(rot)  DE(clash)    DE(int)     intcor
     15.82     -19.39       1.97        0.00      90.18       1.26       0.03       3.54       ----

> <Gold.Chemscore.Fitness>
15.8188

> <Gold.Chemscore.DG>
-19.3931

> <Gold.Chemscore.ZeroCoef>
-5.4800

> <Gold.Chemscore.Hbond>
1.9724

> <Gold.Chemscore.Metal>
0.0000

> <Gold.Chemscore.Lipo>
90.1825

> <Gold.Chemscore.Internal_Hbond>
0.0000

> <Gold.Chemscore.DEClash>
0.0330

> <Gold.Chemscore.DEInternal>
3.5413

> <Gold.Chemscore.Rot>
1.2601

> <Gold.Chemscore.Internal.Correction>
   9.000000E+99

> <Gold.Chemscore.Hbonds>
donor molecule, donor type, donor heavy atom, donor atom, acceptor molecule, acceptor atom, score
      L1  H    16    42       P1  7948  0.94
      P1  H  7997  8010       L1     5  0.88

> <Gold.Chemscore.Hbond.Weighted>
-6.5878

> <Gold.Chemscore.Metal.Weighted>
-0.0000

> <Gold.Chemscore.Lipo.Weighted>
-10.5513

> <Gold.Chemscore.Internal_Hbond.Weighted>
0.0000

> <Gold.Chemscore.DEClash.Weighted>
0.0330

> <Gold.Chemscore.DEInternal.Weighted>
3.5413

> <Gold.Chemscore.Rot.Weighted>
3.2260

> <Gold.Chemscore.Internal.Correction.Weighted>
   9.000000E+99

> <Gold.Protein.RotatedTorsions>
[ 6907 6896 6895 6894 ] final  -49.96 input  -60.11 | X-H torsion
[ 7974 7965 7964 7962 ] final   50.99 input  175.53 | X-H torsion
[ 8008 7997 7996 7995 ] final   62.02 input   59.86 | X-H torsion
[ 10167 10162 10161 10158 ] final  -82.13 input  -65.29 | X-H torsion
[ 10718 10713 10712 10709 ] final   -9.34 input   66.30 | X-H torsion
[ 10763 10752 10751 10750 ] final  -88.42 input  -60.55 | X-H torsion
[ 11005 11000 10999 10996 ] final   36.96 input  -57.11 | X-H torsion

> <Gold.Protein.ActiveResidues>
 VAL166  LYS551  ARG553  GLY616  TRP617  ASP618  TYR619  PRO620  LYS621  CYS622 
 ASP623  PHE694  ASN695  SER759  ASP760  ASP761  ALA762  ILE779  LEU786  VAL792 
 PHE793  MET794  SER795  GLU796  ALA797  LYS798  CYS799  TRP800  GLU811  SER814 

> <Gold.Protein.RotatedAtoms>
  150.8754  134.8136  159.7185 H   0  0  0  0  0  0  0  0  0  0  0  0  # atno 6907 bound_to 6896
  152.4743  134.4880  159.9696 H   0  0  0  0  0  0  0  0  0  0  0  0  # atno 6908 bound_to 6896
  151.4963  133.3475  159.2897 H   0  0  0  0  0  0  0  0  0  0  0  0  # atno 6909 bound_to 6896
  145.9957  139.4386  143.0046 H   0  0  0  0  0  0  0  0  0  0  0  0  # atno 7974 bound_to 7965
  155.6076  140.3494  155.4612 H   0  0  0  0  0  0  0  0  0  0  0  0  # atno 8008 bound_to 7997
  156.0179  140.1247  157.0411 H   0  0  0  0  0  0  0  0  0  0  0  0  # atno 8009 bound_to 7997
  154.4304  140.1068  156.5908 H   0  0  0  0  0  0  0  0  0  0  0  0  # atno 8010 bound_to 7997
  140.4348  143.2535  151.8709 H   0  0  0  0  0  0  0  0  0  0  0  0  # atno 10167 bound_to 10162
  156.6894  130.5060  149.5948 H   0  0  0  0  0  0  0  0  0  0  0  0  # atno 10718 bound_to 10713
  154.6444  135.5377  153.7827 H   0  0  0  0  0  0  0  0  0  0  0  0  # atno 10763 bound_to 10752
  153.0351  135.6467  154.1111 H   0  0  0  0  0  0  0  0  0  0  0  0  # atno 10764 bound_to 10752
  154.1033  135.2931  155.3226 H   0  0  0  0  0  0  0  0  0  0  0  0  # atno 10765 bound_to 10752
  140.2273  134.3570  155.7979 H   0  0  0  0  0  0  0  0  0  0  0  0  # atno 11005 bound_to 11000
  145.7563  140.9953  143.1224 LP  0  0  0  0  0  0  0  0  0  0  0  0  # atno 17320 bound_to 7965
  144.6903  139.9275  143.7470 LP  0  0  0  0  0  0  0  0  0  0  0  0  # atno 17321 bound_to 7965
  139.4786  144.5295  151.8687 LP  0  0  0  0  0  0  0  0  0  0  0  0  # atno 17342 bound_to 10162
  140.4386  144.2017  150.5890 LP  0  0  0  0  0  0  0  0  0  0  0  0  # atno 17343 bound_to 10162
  156.1809  130.6498  151.0950 LP  0  0  0  0  0  0  0  0  0  0  0  0  # atno 17370 bound_to 10713
  157.7014  131.0774  150.6807 LP  0  0  0  0  0  0  0  0  0  0  0  0  # atno 17371 bound_to 10713
  141.2220  133.7226  156.8674 LP  0  0  0  0  0  0  0  0  0  0  0  0  # atno 17394 bound_to 11000
  140.1787  134.9048  157.2922 LP  0  0  0  0  0  0  0  0  0  0  0  0  # atno 17395 bound_to 11000

$$$$
