AV-unprocessed.smi:1329|AV-procd|sdf|5483|dock7
  -GOLD-   22720 5 53D 1   1.00000     0.00000
 Structure written by MMmdl.
 42 43  0  0  0  0  0  0  0  0  1 V2000
  146.8104  137.6636  153.9116 C   0  0  0  0  0  0  0  0  0  0  0  0
  148.2590  137.8238  154.2873 C   0  0  0  0  0  0  0  0  0  0  0  0
  148.7107  139.0329  154.3554 N   0  0  0  0  0  0  0  0  0  0  0  0
  150.0243  139.2911  154.6919 N   0  0  0  0  0  0  0  0  0  0  0  0
  150.3623  140.7187  154.7202 C   0  0  0  0  0  0  0  0  0  0  0  0
  150.0211  141.3661  156.0809 C   0  0  2  0  0  0  0  0  0  0  0  0
  148.9000  142.2105  155.9131 O   0  0  0  0  0  0  0  0  0  0  0  0
  151.1712  142.2324  156.6149 C   0  0  0  0  0  0  0  0  0  0  0  0
  150.6593  143.0986  157.6140 O   0  0  0  0  0  0  0  0  0  0  0  0
  151.6390  143.9725  158.1501 C   0  0  0  0  0  0  0  0  0  0  0  0
  152.2117  143.4566  159.4576 C   0  0  0  0  0  0  0  0  0  0  0  0
  153.0083  142.2911  159.4830 C   0  0  0  0  0  0  0  0  0  0  0  0
  153.5218  141.8102  160.7032 C   0  0  0  0  0  0  0  0  0  0  0  0
  153.2361  142.4871  161.9045 C   0  0  0  0  0  0  0  0  0  0  0  0
  152.4341  143.6445  161.8853 C   0  0  0  0  0  0  0  0  0  0  0  0
  151.9210  144.1263  160.6649 C   0  0  0  0  0  0  0  0  0  0  0  0
  150.9536  138.3376  154.9885 C   0  0  0  0  0  0  0  0  0  0  0  0
  152.1129  138.6153  155.2993 O   0  0  0  0  0  0  0  0  0  0  0  0
  150.4362  136.9698  154.9061 C   0  0  0  0  0  0  0  0  0  0  0  0
  151.3770  135.9389  155.2056 C   0  0  0  0  0  0  0  0  0  0  0  0
  152.1285  135.0894  155.4370 N   0  0  0  0  0  0  0  0  0  0  0  0
  149.1494  136.7023  154.5695 C   0  0  0  0  0  0  0  0  0  0  0  0
  148.5631  135.3004  154.4715 C   0  0  0  0  0  0  0  0  0  0  0  0
  146.2740  137.0887  154.6669 H   0  0  0  0  0  0  0  0  0  0  0  0
  146.7145  137.1432  152.9585 H   0  0  0  0  0  0  0  0  0  0  0  0
  146.3064  138.6263  153.8134 H   0  0  0  0  0  0  0  0  0  0  0  0
  151.4292  140.8228  154.5140 H   0  0  0  0  0  0  0  0  0  0  0  0
  149.8732  141.2562  153.9050 H   0  0  0  0  0  0  0  0  0  0  0  0
  149.7763  140.6106  156.8284 H   0  0  0  0  0  0  0  0  0  0  0  0
  149.2092  143.0891  155.7534 H   0  0  0  0  0  0  0  0  0  0  0  0
  151.9691  141.6067  157.0191 H   0  0  0  0  0  0  0  0  0  0  0  0
  151.5977  142.8299  155.8071 H   0  0  0  0  0  0  0  0  0  0  0  0
  152.4481  144.0992  157.4289 H   0  0  0  0  0  0  0  0  0  0  0  0
  151.2033  144.9564  158.3295 H   0  0  0  0  0  0  0  0  0  0  0  0
  153.2297  141.7603  158.5684 H   0  0  0  0  0  0  0  0  0  0  0  0
  154.1335  140.9202  160.7175 H   0  0  0  0  0  0  0  0  0  0  0  0
  153.6294  142.1173  162.8401 H   0  0  0  0  0  0  0  0  0  0  0  0
  152.2111  144.1620  162.8066 H   0  0  0  0  0  0  0  0  0  0  0  0
  151.3037  145.0129  160.6590 H   0  0  0  0  0  0  0  0  0  0  0  0
  149.3191  134.5273  154.6054 H   0  0  0  0  0  0  0  0  0  0  0  0
  148.1062  135.1404  153.4944 H   0  0  0  0  0  0  0  0  0  0  0  0
  147.8002  135.1533  155.2367 H   0  0  0  0  0  0  0  0  0  0  0  0
  1  2  1  0  0  0  0
  1 24  1  0  0  0  0
  1 25  1  0  0  0  0
  1 26  1  0  0  0  0
  2 22  1  0  0  0  0
  2  3  2  0  0  0  0
  3  4  1  0  0  0  0
  4  5  1  0  0  0  0
  4 17  1  0  0  0  0
  5  6  1  0  0  0  0
  5 27  1  0  0  0  0
  5 28  1  0  0  0  0
  6  7  1  0  0  0  0
  6  8  1  0  0  0  0
  6 29  1  0  0  0  0
  7 30  1  0  0  0  0
  8  9  1  0  0  0  0
  8 31  1  0  0  0  0
  8 32  1  0  0  0  0
  9 10  1  0  0  0  0
 10 11  1  0  0  0  0
 10 33  1  0  0  0  0
 10 34  1  0  0  0  0
 11 16  1  0  0  0  0
 11 12  2  0  0  0  0
 12 13  1  0  0  0  0
 12 35  1  0  0  0  0
 13 14  2  0  0  0  0
 13 36  1  0  0  0  0
 14 15  1  0  0  0  0
 14 37  1  0  0  0  0
 15 16  2  0  0  0  0
 15 38  1  0  0  0  0
 16 39  1  0  0  0  0
 17 18  2  0  0  0  0
 17 19  1  0  0  0  0
 19 20  1  0  0  0  0
 19 22  2  0  0  0  0
 20 21  3  0  0  0  0
 22 23  1  0  0  0  0
 23 40  1  0  0  0  0
 23 41  1  0  0  0  0
 23 42  1  0  0  0  0
M  END
> <s_m_source_file>
AV-unprocessed.smi

> <i_m_source_file_index>
1329

> <i_lp_mmshare_version>
43012

> <i_f3d_flags>
0

> <s_epik_input>
TiNDYyhjMVtDSDNdKWMoPU8pbihuYzFbQ0gzXSlbQ0gyXVtDQEhdKFtPSF0pW0NIMl1PW0NIMl1jMltjSF1bY0hdW2NIXVtjSF1bY0hdMg==

> <s_epik_cmdline>
J2VwaWtfcHl0aG9uJywgJy1waCcsICc3LjAnLCAnLXRuJywgJzgnLCAnLW1hJywgJzIwMCcsICctbWV0YWxfYmluZGluZycsICctaW1hZScsICc8aW5maWxlLm1hZT4nLCAnLW9tYWUnLCAnPG91dGZpbGUubWFlPic=

> <r_lp_tautomer_probability>
1

> <r_epik_Ionization_Penalty>
6.13319e-08

> <r_epik_Ionization_Penalty_Charging>
2.19172e-10

> <r_epik_Ionization_Penalty_Neutral>
6.11128e-08

> <r_epik_State_Penalty>
-0

> <r_epik_Charging_Adjusted_Penalty>
2.19172e-10

> <i_epik_Tot_Q>
0

> <i_epik_Tot_abs_Q>
0

> <r_epik_Metal_State_Penalty>
-0

> <b_epik_Metal_Only>
0

> <s_lp_Force_Field>
OPLS_2005

> <r_lp_Energy>
29.8656

> <b_lp_Chiralities_Consistent>
1

> <s_lp_Variant>
AV-unprocessed.smi:1329-1

> <Gold.Version>
5.8.1

> <Gold.Id.Protein>
6NUR|6NUR_protein|mol2

> <Gold.PLP.Fitness>
46.0255

> <Gold.PLP.PLP>
-43.2913

> <Gold.PLP.part.hbond>
-1.6454

> <Gold.PLP.part.metal>
0.0000

> <Gold.PLP.part.buried>
-4.1942

> <Gold.PLP.part.nonpolar>
-37.4935

> <Gold.PLP.part.repulsive>
0.6996

> <Gold.PLP.ligand.clash>
0.0000

> <Gold.PLP.ligand.torsion>
1.5056

> <Gold.PLP.Chemscore.Hbond>
1.9040

> <Gold.PLP.Chemscore.CHOScore>
0.0000

> <Gold.PLP.Chemscore.Metal>
0.0000

> <Gold.Chemscore.Hbonds>
donor molecule, donor type, donor heavy atom, donor atom, acceptor molecule, acceptor atom, score
      L1  H     7    30       P1  8028  0.98

> <Gold.PLP.Chemscore.Internal.Correction>
0.0333

> <Gold.Rescore>
     Score         DG    S(hbond)    S(metal)    S(lipo)     H(rot)  DE(clash)    DE(int)     intcor
     16.50     -18.04       1.73        0.00     112.03       2.48       0.08       1.46       ----

> <Gold.Chemscore.Fitness>
16.5027

> <Gold.Chemscore.DG>
-18.0383

> <Gold.Chemscore.ZeroCoef>
-5.4800

> <Gold.Chemscore.Hbond>
1.7347

> <Gold.Chemscore.Metal>
0.0000

> <Gold.Chemscore.Lipo>
112.0274

> <Gold.Chemscore.Internal_Hbond>
0.0000

> <Gold.Chemscore.DEClash>
0.0767

> <Gold.Chemscore.DEInternal>
1.4590

> <Gold.Chemscore.Rot>
2.4777

> <Gold.Chemscore.Internal.Correction>
   9.000000E+99

> <Gold.Chemscore.Hbonds>
donor molecule, donor type, donor heavy atom, donor atom, acceptor molecule, acceptor atom, score
      L1  H     7    30       P1  8028  0.93
      P1  H 10752 10763       L1    21  0.02

> <Gold.Chemscore.Hbond.Weighted>
-5.7940

> <Gold.Chemscore.Metal.Weighted>
-0.0000

> <Gold.Chemscore.Lipo.Weighted>
-13.1072

> <Gold.Chemscore.Internal_Hbond.Weighted>
0.0000

> <Gold.Chemscore.DEClash.Weighted>
0.0767

> <Gold.Chemscore.DEInternal.Weighted>
1.4590

> <Gold.Chemscore.Rot.Weighted>
6.3428

> <Gold.Chemscore.Internal.Correction.Weighted>
   9.000000E+99

> <Gold.Protein.RotatedTorsions>
[ 6907 6896 6895 6894 ] final -146.29 input  -60.11 | X-H torsion
[ 7974 7965 7964 7962 ] final   96.48 input  175.53 | X-H torsion
[ 8008 7997 7996 7995 ] final   99.04 input   59.86 | X-H torsion
[ 10167 10162 10161 10158 ] final   -6.13 input  -65.29 | X-H torsion
[ 10718 10713 10712 10709 ] final  -93.97 input   66.30 | X-H torsion
[ 10763 10752 10751 10750 ] final   81.69 input  -60.55 | X-H torsion
[ 11005 11000 10999 10996 ] final   68.53 input  -57.11 | X-H torsion

> <Gold.Protein.ActiveResidues>
 VAL166  LYS551  ARG553  GLY616  TRP617  ASP618  TYR619  PRO620  LYS621  CYS622 
 ASP623  PHE694  ASN695  SER759  ASP760  ASP761  ALA762  ILE779  LEU786  VAL792 
 PHE793  MET794  SER795  GLU796  ALA797  LYS798  CYS799  TRP800  GLU811  SER814 

> <Gold.Protein.RotatedAtoms>
  151.1396  133.4981  159.2596 H   0  0  0  0  0  0  0  0  0  0  0  0  # atno 6907 bound_to 6896
  151.1670  135.0299  159.8745 H   0  0  0  0  0  0  0  0  0  0  0  0  # atno 6908 bound_to 6896
  152.5462  134.1263  159.8473 H   0  0  0  0  0  0  0  0  0  0  0  0  # atno 6909 bound_to 6896
  145.4382  139.2303  143.3106 H   0  0  0  0  0  0  0  0  0  0  0  0  # atno 7974 bound_to 7965
  156.1065  140.3235  155.8013 H   0  0  0  0  0  0  0  0  0  0  0  0  # atno 8008 bound_to 7997
  155.4748  140.0549  157.2992 H   0  0  0  0  0  0  0  0  0  0  0  0  # atno 8009 bound_to 7997
  154.4731  140.2020  155.9960 H   0  0  0  0  0  0  0  0  0  0  0  0  # atno 8010 bound_to 7997
  140.6987  143.6229  150.8596 H   0  0  0  0  0  0  0  0  0  0  0  0  # atno 10167 bound_to 10162
  156.0020  130.5048  150.5856 H   0  0  0  0  0  0  0  0  0  0  0  0  # atno 10718 bound_to 10713
  153.1138  135.4756  154.9081 H   0  0  0  0  0  0  0  0  0  0  0  0  # atno 10763 bound_to 10752
  154.7508  135.3105  154.8564 H   0  0  0  0  0  0  0  0  0  0  0  0  # atno 10764 bound_to 10752
  153.9145  135.6861  153.4803 H   0  0  0  0  0  0  0  0  0  0  0  0  # atno 10765 bound_to 10752
  139.9706  134.6907  156.0455 H   0  0  0  0  0  0  0  0  0  0  0  0  # atno 11005 bound_to 11000
  146.2570  140.5128  142.8869 LP  0  0  0  0  0  0  0  0  0  0  0  0  # atno 17320 bound_to 7965
  144.8138  140.6432  143.6397 LP  0  0  0  0  0  0  0  0  0  0  0  0  # atno 17321 bound_to 7965
  139.9949  143.5807  152.2897 LP  0  0  0  0  0  0  0  0  0  0  0  0  # atno 17342 bound_to 10162
  139.6475  144.7659  151.2214 LP  0  0  0  0  0  0  0  0  0  0  0  0  # atno 17343 bound_to 10162
  157.3729  131.0768  151.1542 LP  0  0  0  0  0  0  0  0  0  0  0  0  # atno 17370 bound_to 10713
  157.2289  130.6516  149.5841 LP  0  0  0  0  0  0  0  0  0  0  0  0  # atno 17371 bound_to 10713
  141.1386  133.6569  156.3663 LP  0  0  0  0  0  0  0  0  0  0  0  0  # atno 17394 bound_to 11000
  140.5301  134.6220  157.5347 LP  0  0  0  0  0  0  0  0  0  0  0  0  # atno 17395 bound_to 11000

$$$$
