AV-unprocessed.smi:2531|AV-procd|sdf|9966|dock3
  -GOLD-   2272014 03D 1   1.00000     0.00000
 Structure written by MMmdl.
 45 47  0  0  0  0  0  0  0  0  2 V2000
  153.3413  139.9407  158.3338 O   0  0  0  0  0  0  0  0  0  0  0  0
  152.3467  140.3657  157.7441 C   0  0  0  0  0  0  0  0  0  0  0  0
  151.4221  141.4053  158.4110 C   0  0  0  0  0  0  0  0  0  0  0  0
  151.1566  142.6305  157.5067 C   0  0  0  0  0  0  0  0  0  0  0  0
  151.9003  143.8240  158.1268 C   0  0  0  0  0  0  0  0  0  0  0  0
  152.7915  143.2453  159.2256 C   0  0  0  0  0  0  0  0  0  0  0  0
  152.0563  141.9876  159.6852 C   0  0  0  0  0  0  0  0  0  0  0  0
  151.9693  139.8608  156.4964 N   0  0  0  0  0  0  0  0  0  0  0  0
  152.3866  138.5321  156.0734 C   0  0  0  0  0  0  0  0  0  0  0  0
  151.0918  138.5036  155.2546 C   0  0  0  0  0  0  0  0  0  0  0  0
  150.1797  136.9025  155.4150 S   0  0  0  0  0  0  0  0  0  0  0  0
  148.8296  137.1671  154.8918 O   0  0  0  0  0  0  0  0  0  0  0  0
  150.9717  135.8798  154.7123 O   0  0  0  0  0  0  0  0  0  0  0  0
  150.2106  136.7080  157.0257 N   0  5  0  0  0  0  0  0  0  0  0  0
  148.9606  136.6063  157.7642 C   0  0  0  0  0  0  0  0  0  0  0  0
  149.1882  136.8461  159.2768 C   0  0  0  0  0  0  0  0  0  0  0  0
  148.1623  136.2086  160.2102 C   0  0  0  0  0  0  0  0  0  0  0  0
  147.8760  134.8270  160.1240 C   0  0  0  0  0  0  0  0  0  0  0  0
  146.9294  134.2774  161.0090 C   0  0  0  0  0  0  0  0  0  0  0  0
  146.2945  135.1260  161.9356 C   0  0  0  0  0  0  0  0  0  0  0  0
  146.6360  136.4928  161.9351 C   0  0  0  0  0  0  0  0  0  0  0  0
  147.5418  137.0311  161.0909 N   0  0  0  0  0  0  0  0  0  0  0  0
  150.5730  139.6413  156.1449 C   0  0  0  0  0  0  0  0  0  0  0  0
  150.4713  140.9290  158.6528 H   0  0  0  0  0  0  0  0  0  0  0  0
  151.4843  142.4673  156.4788 H   0  0  0  0  0  0  0  0  0  0  0  0
  150.0881  142.8426  157.4565 H   0  0  0  0  0  0  0  0  0  0  0  0
  152.4749  144.3840  157.3884 H   0  0  0  0  0  0  0  0  0  0  0  0
  151.1779  144.5119  158.5680 H   0  0  0  0  0  0  0  0  0  0  0  0
  153.7623  142.9742  158.8090 H   0  0  0  0  0  0  0  0  0  0  0  0
  152.9654  143.9499  160.0393 H   0  0  0  0  0  0  0  0  0  0  0  0
  151.2705  142.2565  160.3923 H   0  0  0  0  0  0  0  0  0  0  0  0
  152.7245  141.2925  160.1959 H   0  0  0  0  0  0  0  0  0  0  0  0
  153.2995  138.5212  155.4779 H   0  0  0  0  0  0  0  0  0  0  0  0
  152.4050  137.8018  156.8853 H   0  0  0  0  0  0  0  0  0  0  0  0
  151.2442  138.7794  154.2101 H   0  0  0  0  0  0  0  0  0  0  0  0
  148.1990  137.2951  157.3971 H   0  0  0  0  0  0  0  0  0  0  0  0
  148.5297  135.6124  157.6418 H   0  0  0  0  0  0  0  0  0  0  0  0
  150.1723  136.4624  159.5481 H   0  0  0  0  0  0  0  0  0  0  0  0
  149.2291  137.9178  159.4760 H   0  0  0  0  0  0  0  0  0  0  0  0
  148.3861  134.1996  159.4079 H   0  0  0  0  0  0  0  0  0  0  0  0
  146.6964  133.2236  160.9785 H   0  0  0  0  0  0  0  0  0  0  0  0
  145.5646  134.7390  162.6308 H   0  0  0  0  0  0  0  0  0  0  0  0
  146.1666  137.1730  162.6302 H   0  0  0  0  0  0  0  0  0  0  0  0
  149.9586  139.3178  156.9854 H   0  0  0  0  0  0  0  0  0  0  0  0
  150.1218  140.4677  155.5955 H   0  0  0  0  0  0  0  0  0  0  0  0
  1  2  2  0  0  0  0
  2  3  1  0  0  0  0
  2  8  1  0  0  0  0
  3  7  1  0  0  0  0
  3  4  1  0  0  0  0
  3 24  1  0  0  0  0
  4  5  1  0  0  0  0
  4 25  1  0  0  0  0
  4 26  1  0  0  0  0
  5  6  1  0  0  0  0
  5 27  1  0  0  0  0
  5 28  1  0  0  0  0
  6  7  1  0  0  0  0
  6 29  1  0  0  0  0
  6 30  1  0  0  0  0
  7 31  1  0  0  0  0
  7 32  1  0  0  0  0
  8 23  1  0  0  0  0
  8  9  1  0  0  0  0
  9 10  1  0  0  0  0
  9 33  1  0  0  0  0
  9 34  1  0  0  0  0
 10 11  1  0  0  0  0
 10 23  1  0  0  0  0
 10 35  1  0  0  0  0
 11 12  2  0  0  0  0
 11 13  2  0  0  0  0
 11 14  1  0  0  0  0
 14 15  1  0  0  0  0
 15 16  1  0  0  0  0
 15 36  1  0  0  0  0
 15 37  1  0  0  0  0
 16 17  1  0  0  0  0
 16 38  1  0  0  0  0
 16 39  1  0  0  0  0
 17 22  1  0  0  0  0
 17 18  2  0  0  0  0
 18 19  1  0  0  0  0
 18 40  1  0  0  0  0
 19 20  2  0  0  0  0
 19 41  1  0  0  0  0
 20 21  1  0  0  0  0
 20 42  1  0  0  0  0
 21 22  2  0  0  0  0
 21 43  1  0  0  0  0
 23 44  1  0  0  0  0
 23 45  1  0  0  0  0
M  CHG  1  14  -1
M  END
> <s_m_source_file>
AV-unprocessed.smi

> <i_m_source_file_index>
2531

> <i_lp_mmshare_version>
43012

> <i_f3d_flags>
0

> <s_epik_input>
W0NIMl0xW0NIMl1bQ0gyXVtDSDJdW0NIXTFDKD1PKU4yW0NIMl1bQ0hdKFtDSDJdMilTKD1PKSg9TylbTkhdW0NIMl1bQ0gyXWMzW2NIXVtjSF1bY0hdW2NIXW4z

> <s_epik_cmdline>
J2VwaWtfcHl0aG9uJywgJy1waCcsICc3LjAnLCAnLXRuJywgJzgnLCAnLW1hJywgJzIwMCcsICctbWV0YWxfYmluZGluZycsICctaW1hZScsICc8aW5maWxlLm1hZT4nLCAnLW9tYWUnLCAnPG91dGZpbGUubWFlPic=

> <r_epik_Ionization_Penalty>
5.87379

> <r_epik_Ionization_Penalty_Charging>
5.8024

> <r_epik_Ionization_Penalty_Neutral>
0.0713848

> <r_epik_State_Penalty>
5.81862

> <r_epik_Charging_Adjusted_Penalty>
11.621

> <i_epik_Tot_Q>
-1

> <i_epik_Tot_abs_Q>
1

> <r_epik_Metal_State_Penalty>
1.80653

> <b_epik_Metal_Only>
1

> <s_lp_Force_Field>
OPLS_2005

> <r_lp_Energy>
33.3625

> <b_lp_Chiralities_Consistent>
1

> <s_lp_Variant>
AV-unprocessed.smi:2531-3

> <Gold.Version>
5.8.1

> <Gold.Id.Protein>
6NUR|6NUR_protein|mol2

> <Gold.PLP.Fitness>
53.3542

> <Gold.PLP.PLP>
-42.7172

> <Gold.PLP.part.hbond>
-4.0000

> <Gold.PLP.part.metal>
0.0000

> <Gold.PLP.part.buried>
-3.6023

> <Gold.PLP.part.nonpolar>
-35.6014

> <Gold.PLP.part.repulsive>
0.2636

> <Gold.PLP.ligand.clash>
0.0000

> <Gold.PLP.ligand.torsion>
1.6817

> <Gold.PLP.Chemscore.Hbond>
3.8160

> <Gold.PLP.Chemscore.CHOScore>
0.0000

> <Gold.PLP.Chemscore.Metal>
0.0000

> <Gold.Chemscore.Hbonds>
donor molecule, donor type, donor heavy atom, donor atom, acceptor molecule, acceptor atom, score
      P1  H  6931  6943       L1    22  0.81
      P1  H  6934  6947       L1    22  0.98
      P1  H  7997  8010       L1     1  1.00
      P1  H 10752 10765       L1    13  1.00

> <Gold.PLP.Chemscore.Internal.Correction>
2.5525

> <Gold.Rescore>
     Score         DG    S(hbond)    S(metal)    S(lipo)     H(rot)  DE(clash)    DE(int)     intcor
     21.53     -23.85       2.85        0.00     110.93       1.61       0.51       1.81       ----

> <Gold.Chemscore.Fitness>
21.5283

> <Gold.Chemscore.DG>
-23.8545

> <Gold.Chemscore.ZeroCoef>
-5.4800

> <Gold.Chemscore.Hbond>
2.8503

> <Gold.Chemscore.Metal>
0.0000

> <Gold.Chemscore.Lipo>
110.9283

> <Gold.Chemscore.Internal_Hbond>
0.0000

> <Gold.Chemscore.DEClash>
0.5146

> <Gold.Chemscore.DEInternal>
1.8116

> <Gold.Chemscore.Rot>
1.6110

> <Gold.Chemscore.Internal.Correction>
   9.000000E+99

> <Gold.Chemscore.Hbonds>
donor molecule, donor type, donor heavy atom, donor atom, acceptor molecule, acceptor atom, score
      P1  H  6931  6943       L1    22  0.41
      P1  H  6934  6947       L1    22  0.61
      P1  H  7997  8010       L1     1  0.34
      P1  H 10752 10765       L1    13  0.95

> <Gold.Chemscore.Hbond.Weighted>
-9.5202

> <Gold.Chemscore.Metal.Weighted>
-0.0000

> <Gold.Chemscore.Lipo.Weighted>
-12.9786

> <Gold.Chemscore.Internal_Hbond.Weighted>
0.0000

> <Gold.Chemscore.DEClash.Weighted>
0.5146

> <Gold.Chemscore.DEInternal.Weighted>
1.8116

> <Gold.Chemscore.Rot.Weighted>
4.1243

> <Gold.Chemscore.Internal.Correction.Weighted>
   9.000000E+99

> <Gold.Protein.RotatedTorsions>
[ 6907 6896 6895 6894 ] final   -6.86 input  -60.11 | X-H torsion
[ 7974 7965 7964 7962 ] final  -37.39 input  175.53 | X-H torsion
[ 8008 7997 7996 7995 ] final   32.33 input   59.86 | X-H torsion
[ 10167 10162 10161 10158 ] final  -28.57 input  -65.29 | X-H torsion
[ 10718 10713 10712 10709 ] final  166.84 input   66.30 | X-H torsion
[ 10763 10752 10751 10750 ] final -174.19 input  -60.55 | X-H torsion
[ 11005 11000 10999 10996 ] final    2.69 input  -57.11 | X-H torsion

> <Gold.Protein.ActiveResidues>
 VAL166  LYS551  ARG553  GLY616  TRP617  ASP618  TYR619  PRO620  LYS621  CYS622 
 ASP623  PHE694  ASN695  SER759  ASP760  ASP761  ALA762  ILE779  LEU786  VAL792 
 PHE793  MET794  SER795  GLU796  ALA797  LYS798  CYS799  TRP800  GLU811  SER814 

> <Gold.Protein.RotatedAtoms>
  151.4589  135.1036  159.9718 H   0  0  0  0  0  0  0  0  0  0  0  0  # atno 6907 bound_to 6896
  152.4860  133.8371  159.7144 H   0  0  0  0  0  0  0  0  0  0  0  0  # atno 6908 bound_to 6896
  150.8971  133.7107  159.2916 H   0  0  0  0  0  0  0  0  0  0  0  0  # atno 6909 bound_to 6896
  146.0579  140.6390  142.9011 H   0  0  0  0  0  0  0  0  0  0  0  0  # atno 7974 bound_to 7965
  155.1208  140.3248  155.4498 H   0  0  0  0  0  0  0  0  0  0  0  0  # atno 8008 bound_to 7997
  156.2663  140.2027  156.6278 H   0  0  0  0  0  0  0  0  0  0  0  0  # atno 8009 bound_to 7997
  154.6685  140.0539  157.0127 H   0  0  0  0  0  0  0  0  0  0  0  0  # atno 8010 bound_to 7997
  140.7268  143.3999  151.1283 H   0  0  0  0  0  0  0  0  0  0  0  0  # atno 10167 bound_to 10162
  157.0601  131.0337  151.2650 H   0  0  0  0  0  0  0  0  0  0  0  0  # atno 10718 bound_to 10713
  154.5992  135.2853  155.0554 H   0  0  0  0  0  0  0  0  0  0  0  0  # atno 10763 bound_to 10752
  154.1825  135.6454  153.5042 H   0  0  0  0  0  0  0  0  0  0  0  0  # atno 10764 bound_to 10752
  153.0150  135.5427  154.6704 H   0  0  0  0  0  0  0  0  0  0  0  0  # atno 10765 bound_to 10752
  140.6015  133.9832  155.8134 H   0  0  0  0  0  0  0  0  0  0  0  0  # atno 11005 bound_to 11000
  144.7158  140.4204  143.7045 LP  0  0  0  0  0  0  0  0  0  0  0  0  # atno 17320 bound_to 7965
  145.6611  139.1581  143.2807 LP  0  0  0  0  0  0  0  0  0  0  0  0  # atno 17321 bound_to 7965
  139.7617  143.8625  152.3101 LP  0  0  0  0  0  0  0  0  0  0  0  0  # atno 17342 bound_to 10162
  139.8513  144.7163  150.9210 LP  0  0  0  0  0  0  0  0  0  0  0  0  # atno 17343 bound_to 10162
  157.4962  130.7852  149.7557 LP  0  0  0  0  0  0  0  0  0  0  0  0  # atno 17370 bound_to 10713
  155.9981  130.3896  150.2714 LP  0  0  0  0  0  0  0  0  0  0  0  0  # atno 17371 bound_to 10713
  141.0869  133.9977  157.3299 LP  0  0  0  0  0  0  0  0  0  0  0  0  # atno 17394 bound_to 11000
  139.9230  135.0201  156.8135 LP  0  0  0  0  0  0  0  0  0  0  0  0  # atno 17395 bound_to 11000

$$$$
