#       Name:                AV-unprocessed.smi:2000
#       Creating user name   scv26
#       Creation time:       Fri Mar 27 10:32:24 2020


#       File generated by GOLD software.
#

@<TRIPOS>MOLECULE
AV-unprocessed.smi:2000
    49    50     1
SMALL
NO_CHARGES


@<TRIPOS>ATOM
      1 ****        -4.3861  -1.4450   0.7466 C.3            1 S1                 0.0000
      2 ****        -3.6919  -0.7281  -0.4228 C.3            1 S1                 0.0000
      3 ****        -2.1665  -0.7130  -0.2530 C.2            1 S1                 0.0000
      4 ****        -1.5688  -1.7236   0.1182 O.2            1 S1                 0.0000
      5 ****        -1.5463   0.4484  -0.5166 N.am           1 S1                 0.0000
      6 ****        -0.1084   0.6729  -0.3970 C.3            1 S1                 0.0000
      7 ****         0.3870   0.9898   1.0170 C.ar           1 S1                 0.0000
      8 ****        -0.5086   1.4031   2.0319 C.ar           1 S1                 0.0000
      9 ****        -0.0121   1.7083   3.3117 C.ar           1 S1                 0.0000
     10 ****         1.3712   1.5962   3.5340 C.ar           1 S1                 0.0000
     11 ****         2.2416   1.2130   2.5786 N.ar           1 S1                 0.0000
     12 ****         1.7680   0.9172   1.3432 C.ar           1 S1                 0.0000
     13 ****         2.7041   0.5050   0.3787 N.3            1 S1                 0.0000
     14 ****         2.9483  -0.9315   0.4097 C.3            1 S1                 0.0000
     15 ****         3.8261  -1.3422  -0.7855 C.3            1 S1                 0.0000
     16 ****         5.0309  -0.5804  -0.7835 O.3            1 S1                 0.0000
     17 ****         4.7806   0.8185  -0.8885 C.3            1 S1                 0.0000
     18 ****         3.9387   1.2798   0.3132 C.3            1 S1                 0.0000
     19 ****        -4.1492  -1.5434  -2.0244 S.o2           1 S1                 0.0000
     20 ****        -3.3739  -0.4477  -3.2860 C.3            1 S1                 0.0000
     21 ****        -3.4925  -2.8577  -2.0975 O.2            1 S1                 0.0000
     22 ****        -5.6095  -1.4585  -2.1780 O.2            1 S1                 0.0000
     23 ****        -4.0994  -1.0110   1.7052 H              1 S1                 0.0000
     24 ****        -4.1360  -2.5065   0.7706 H              1 S1                 0.0000
     25 ****        -5.4700  -1.3658   0.6619 H              1 S1                 0.0000
     26 ****        -4.0597   0.2977  -0.4682 H              1 S1                 0.0000
     27 ****        -2.1071   1.2341  -0.8126 H              1 S1                 0.0000
     28 ****         0.4166  -0.1941  -0.7998 H              1 S1                 0.0000
     29 ****         0.1538   1.5120  -1.0415 H              1 S1                 0.0000
     30 ****        -1.5681   1.4944   1.8454 H              1 S1                 0.0000
     31 ****        -0.6760   2.0230   4.1031 H              1 S1                 0.0000
     32 ****         1.7906   1.8225   4.5031 H              1 S1                 0.0000
     33 ****         3.4456  -1.1925   1.3451 H              1 S1                 0.0000
     34 ****         2.0047  -1.4780   0.3860 H              1 S1                 0.0000
     35 ****         4.0759  -2.4014  -0.7224 H              1 S1                 0.0000
     36 ****         3.2928  -1.1958  -1.7261 H              1 S1                 0.0000
     37 ****         5.7321   1.3499  -0.9074 H              1 S1                 0.0000
     38 ****         4.2724   1.0393  -1.8287 H              1 S1                 0.0000
     39 ****         3.7047   2.3413   0.2255 H              1 S1                 0.0000
     40 ****         4.5123   1.1472   1.2318 H              1 S1                 0.0000
     41 ****        -3.6546  -0.7926  -4.2810 H              1 S1                 0.0000
     42 ****        -2.2888  -0.4817  -3.1921 H              1 S1                 0.0000
     43 ****        -3.7228   0.5753  -3.1477 H              1 S1                 0.0000
     44 ****        -2.0774  -2.5626   0.3115 LP             1 S1                 0.0000
     45 ****        -0.5749  -1.7052   0.2263 LP             1 S1                 0.0000
     46 ****         3.2194   1.1481   2.7776 LP             1 S1                 0.0000
     47 ****         2.2496   0.7159  -0.4867 LP             1 S1                 0.0000
     48 ****         5.5944  -0.8662  -1.5586 LP             1 S1                 0.0000
     49 ****         5.5226  -0.7569   0.0692 LP             1 S1                 0.0000
@<TRIPOS>BOND
    1    1    2 1     
    2    1   23 1     
    3    1   24 1     
    4    1   25 1     
    5    2    3 1     
    6    2   19 1     
    7    2   26 1     
    8    3    4 2     
    9    3    5 am    
   10    5    6 1     
   11    5   27 1     
   12    6    7 1     
   13    6   28 1     
   14    6   29 1     
   15    7   12 ar    
   16    7    8 ar    
   17    8    9 ar    
   18    8   30 1     
   19    9   10 ar    
   20    9   31 1     
   21   10   11 ar    
   22   10   32 1     
   23   11   12 ar    
   24   12   13 1     
   25   13   18 1     
   26   13   14 1     
   27   14   15 1     
   28   14   33 1     
   29   14   34 1     
   30   15   16 1     
   31   15   35 1     
   32   15   36 1     
   33   16   17 1     
   34   17   18 1     
   35   17   37 1     
   36   17   38 1     
   37   18   39 1     
   38   18   40 1     
   39   19   20 1     
   40   19   21 2     
   41   19   22 2     
   42   20   41 1     
   43   20   42 1     
   44   20   43 1     
   45    4   44 1     
   46    4   45 1     
   47   11   46 1     
   48   13   47 1     
   49   16   48 1     
   50   16   49 1     
@<TRIPOS>SUBSTRUCTURE
      1 S1             1
@<TRIPOS>SET
LONE_PAIRS      STATIC     ATOMS    <user>   **** ""
8 44 45 46 47 48 49 21 22
DONOR_HYDROGENS      STATIC     ATOMS    <user>   **** ""
1 27
ATOM$BLUE        STATIC     ATOMS    COLORGROUP SYSTEM
8 44 45 46 47 48 49 21 22
ATOM$RED        STATIC     ATOMS    COLORGROUP SYSTEM
1 27
