AV-unprocessed.smi:3317|AV-procd|sdf|12761|dock8
  -GOLD-   2272019103D 1   1.00000     0.00000
 Structure written by MMmdl.
 36 37  0  0  0  0  0  0  0  0  1 V2000
  148.0165  137.3408  163.7813 C   0  0  0  0  0  0  0  0  0  0  0  0
  148.2931  137.1800  162.3978 O   0  0  0  0  0  0  0  0  0  0  0  0
  148.0496  135.9487  161.8208 C   0  0  0  0  0  0  0  0  0  0  0  0
  147.5137  134.8428  162.5289 C   0  0  0  0  0  0  0  0  0  0  0  0
  147.3002  133.6291  161.8533 C   0  0  0  0  0  0  0  0  0  0  0  0
  147.6306  133.5611  160.4899 C   0  0  0  0  0  0  0  0  0  0  0  0
  148.1416  134.6029  159.8053 N   0  0  0  0  0  0  0  0  0  0  0  0
  148.3524  135.7807  160.4443 C   0  0  0  0  0  0  0  0  0  0  0  0
  148.8902  136.9254  159.7950 N   0  0  0  0  0  0  0  0  0  0  0  0
  149.7518  136.9822  158.7619 C   0  0  0  0  0  0  0  0  0  0  0  0
  150.2384  136.0023  158.1982 O   0  0  0  0  0  0  0  0  0  0  0  0
  150.1464  138.3844  158.2994 C   0  0  0  0  0  0  0  0  0  0  0  0
  149.8327  138.5262  156.9203 O   0  0  0  0  0  0  0  0  0  0  0  0
  150.4082  139.6735  156.3098 C   0  0  0  0  0  0  0  0  0  0  0  0
  150.2593  139.5209  154.7960 C   0  0  0  0  0  0  0  0  0  0  0  0
  151.4092  138.6020  154.3687 C   0  0  0  0  0  0  0  0  0  0  0  0
  152.4885  138.7321  155.4543 C   0  0  0  0  0  0  0  0  0  0  0  0
  151.9286  139.6972  156.5060 C   0  0  0  0  0  0  0  0  0  0  0  0
  148.2569  138.3613  164.0792 H   0  0  0  0  0  0  0  0  0  0  0  0
  148.6237  136.6686  164.3891 H   0  0  0  0  0  0  0  0  0  0  0  0
  146.9611  137.1743  164.0008 H   0  0  0  0  0  0  0  0  0  0  0  0
  147.2612  134.9003  163.5768 H   0  0  0  0  0  0  0  0  0  0  0  0
  146.8933  132.7714  162.3681 H   0  0  0  0  0  0  0  0  0  0  0  0
  147.4817  132.6470  159.9344 H   0  0  0  0  0  0  0  0  0  0  0  0
  148.5726  137.8135  160.1557 H   0  0  0  0  0  0  0  0  0  0  0  0
  149.5975  139.1174  158.8920 H   0  0  0  0  0  0  0  0  0  0  0  0
  151.2107  138.5412  158.4776 H   0  0  0  0  0  0  0  0  0  0  0  0
  149.9238  140.5863  156.6611 H   0  0  0  0  0  0  0  0  0  0  0  0
  149.2814  139.1371  154.5032 H   0  0  0  0  0  0  0  0  0  0  0  0
  150.3832  140.4957  154.3226 H   0  0  0  0  0  0  0  0  0  0  0  0
  151.0625  137.5690  154.3191 H   0  0  0  0  0  0  0  0  0  0  0  0
  151.7865  138.8673  153.3808 H   0  0  0  0  0  0  0  0  0  0  0  0
  152.6783  137.7564  155.9034 H   0  0  0  0  0  0  0  0  0  0  0  0
  153.4335  139.0935  155.0480 H   0  0  0  0  0  0  0  0  0  0  0  0
  152.2971  140.7028  156.2991 H   0  0  0  0  0  0  0  0  0  0  0  0
  152.2456  139.4415  157.5166 H   0  0  0  0  0  0  0  0  0  0  0  0
  1  2  1  0  0  0  0
  1 19  1  0  0  0  0
  1 20  1  0  0  0  0
  1 21  1  0  0  0  0
  2  3  1  0  0  0  0
  3  8  1  0  0  0  0
  3  4  2  0  0  0  0
  4  5  1  0  0  0  0
  4 22  1  0  0  0  0
  5  6  2  0  0  0  0
  5 23  1  0  0  0  0
  6  7  1  0  0  0  0
  6 24  1  0  0  0  0
  7  8  2  0  0  0  0
  8  9  1  0  0  0  0
  9 10  1  0  0  0  0
  9 25  1  0  0  0  0
 10 11  2  0  0  0  0
 10 12  1  0  0  0  0
 12 13  1  0  0  0  0
 12 26  1  0  0  0  0
 12 27  1  0  0  0  0
 13 14  1  0  0  0  0
 14 18  1  0  0  0  0
 14 15  1  0  0  0  0
 14 28  1  0  0  0  0
 15 16  1  0  0  0  0
 15 29  1  0  0  0  0
 15 30  1  0  0  0  0
 16 17  1  0  0  0  0
 16 31  1  0  0  0  0
 16 32  1  0  0  0  0
 17 18  1  0  0  0  0
 17 33  1  0  0  0  0
 17 34  1  0  0  0  0
 18 35  1  0  0  0  0
 18 36  1  0  0  0  0
M  END
> <s_m_source_file>
AV-unprocessed.smi

> <i_m_source_file_index>
3317

> <i_lp_mmshare_version>
43012

> <i_f3d_flags>
0

> <s_epik_input>
W0NIM11PYzFbY0hdW2NIXVtjSF1uYzFbTkhdQyg9TylbQ0gyXU9bQ0hdMltDSDJdW0NIMl1bQ0gyXVtDSDJdMg==

> <s_epik_cmdline>
J2VwaWtfcHl0aG9uJywgJy1waCcsICc3LjAnLCAnLXRuJywgJzgnLCAnLW1hJywgJzIwMCcsICctbWV0YWxfYmluZGluZycsICctaW1hZScsICc8aW5maWxlLm1hZT4nLCAnLW9tYWUnLCAnPG91dGZpbGUubWFlPic=

> <r_lp_tautomer_probability>
1

> <r_epik_Ionization_Penalty>
0.000545986

> <r_epik_Ionization_Penalty_Charging>
0

> <r_epik_Ionization_Penalty_Neutral>
0.000545986

> <r_epik_State_Penalty>
-0

> <r_epik_Charging_Adjusted_Penalty>
0

> <i_epik_Tot_Q>
0

> <i_epik_Tot_abs_Q>
0

> <r_epik_Metal_State_Penalty>
-0

> <b_epik_Metal_Only>
0

> <s_lp_Force_Field>
OPLS_2005

> <r_lp_Energy>
28.4297

> <b_lp_Chiralities_Consistent>
1

> <s_lp_Variant>
AV-unprocessed.smi:3317-1

> <Gold.Version>
5.8.1

> <Gold.Id.Protein>
6NUR|6NUR_protein|mol2

> <Gold.PLP.Fitness>
40.8413

> <Gold.PLP.PLP>
-34.3394

> <Gold.PLP.part.hbond>
-3.1026

> <Gold.PLP.part.metal>
0.0000

> <Gold.PLP.part.buried>
-3.0230

> <Gold.PLP.part.nonpolar>
-27.9010

> <Gold.PLP.part.repulsive>
0.2153

> <Gold.PLP.ligand.clash>
0.0000

> <Gold.PLP.ligand.torsion>
0.2879

> <Gold.PLP.Chemscore.Hbond>
2.3467

> <Gold.PLP.Chemscore.CHOScore>
0.0000

> <Gold.PLP.Chemscore.Metal>
0.0000

> <Gold.Chemscore.Hbonds>
donor molecule, donor type, donor heavy atom, donor atom, acceptor molecule, acceptor atom, score
      P1  H  6896  6908       L1    11  0.88
      P1  H  6931  6943       L1     2  0.62

> <Gold.PLP.Chemscore.Internal.Correction>
0.0375

> <Gold.Rescore>
     Score         DG    S(hbond)    S(metal)    S(lipo)     H(rot)  DE(clash)    DE(int)     intcor
     15.41     -16.18       1.78        0.00      76.07       1.61       0.36       0.42       ----

> <Gold.Chemscore.Fitness>
15.4074

> <Gold.Chemscore.DG>
-16.1811

> <Gold.Chemscore.ZeroCoef>
-5.4800

> <Gold.Chemscore.Hbond>
1.7752

> <Gold.Chemscore.Metal>
0.0000

> <Gold.Chemscore.Lipo>
76.0727

> <Gold.Chemscore.Internal_Hbond>
0.0000

> <Gold.Chemscore.DEClash>
0.3582

> <Gold.Chemscore.DEInternal>
0.4156

> <Gold.Chemscore.Rot>
1.6127

> <Gold.Chemscore.Internal.Correction>
   9.000000E+99

> <Gold.Chemscore.Hbonds>
donor molecule, donor type, donor heavy atom, donor atom, acceptor molecule, acceptor atom, score
      P1  H  6896  6908       L1    11  0.43
      P1  H  6931  6943       L1     2  0.44

> <Gold.Chemscore.Hbond.Weighted>
-5.9291

> <Gold.Chemscore.Metal.Weighted>
-0.0000

> <Gold.Chemscore.Lipo.Weighted>
-8.9005

> <Gold.Chemscore.Internal_Hbond.Weighted>
0.0000

> <Gold.Chemscore.DEClash.Weighted>
0.3582

> <Gold.Chemscore.DEInternal.Weighted>
0.4156

> <Gold.Chemscore.Rot.Weighted>
4.1285

> <Gold.Chemscore.Internal.Correction.Weighted>
   9.000000E+99

> <Gold.Protein.RotatedTorsions>
[ 6907 6896 6895 6894 ] final -171.69 input  -60.11 | X-H torsion
[ 7974 7965 7964 7962 ] final -138.91 input  175.53 | X-H torsion
[ 8008 7997 7996 7995 ] final -119.92 input   59.86 | X-H torsion
[ 10167 10162 10161 10158 ] final -130.72 input  -65.29 | X-H torsion
[ 10718 10713 10712 10709 ] final  145.98 input   66.30 | X-H torsion
[ 10763 10752 10751 10750 ] final  -26.10 input  -60.55 | X-H torsion
[ 11005 11000 10999 10996 ] final   78.80 input  -57.11 | X-H torsion

> <Gold.Protein.ActiveResidues>
 VAL166  LYS551  ARG553  GLY616  TRP617  ASP618  TYR619  PRO620  LYS621  CYS622 
 ASP623  PHE694  ASN695  SER759  ASP760  ASP761  ALA762  ILE779  LEU786  VAL792 
 PHE793  MET794  SER795  GLU796  ALA797  LYS798  CYS799  TRP800  GLU811  SER814 

> <Gold.Protein.RotatedAtoms>
  151.5278  133.3454  159.2912 H   0  0  0  0  0  0  0  0  0  0  0  0  # atno 6907 bound_to 6896
  150.8612  134.7967  159.7095 H   0  0  0  0  0  0  0  0  0  0  0  0  # atno 6908 bound_to 6896
  152.4631  134.5148  159.9816 H   0  0  0  0  0  0  0  0  0  0  0  0  # atno 6909 bound_to 6896
  144.8720  140.6381  143.5261 H   0  0  0  0  0  0  0  0  0  0  0  0  # atno 7974 bound_to 7965
  155.1234  140.0399  157.2756 H   0  0  0  0  0  0  0  0  0  0  0  0  # atno 8008 bound_to 7997
  154.6596  140.2588  155.7097 H   0  0  0  0  0  0  0  0  0  0  0  0  # atno 8009 bound_to 7997
  156.2613  140.2819  156.1063 H   0  0  0  0  0  0  0  0  0  0  0  0  # atno 8010 bound_to 7997
  139.9264  143.6323  152.2541 H   0  0  0  0  0  0  0  0  0  0  0  0  # atno 10167 bound_to 10162
  157.3387  131.0932  151.1101 H   0  0  0  0  0  0  0  0  0  0  0  0  # atno 10718 bound_to 10713
  153.7106  135.6951  153.5038 H   0  0  0  0  0  0  0  0  0  0  0  0  # atno 10763 bound_to 10752
  153.2276  135.4348  155.0558 H   0  0  0  0  0  0  0  0  0  0  0  0  # atno 10764 bound_to 10752
  154.8316  135.3476  154.6642 H   0  0  0  0  0  0  0  0  0  0  0  0  # atno 10765 bound_to 10752
  139.9198  134.7792  156.1697 H   0  0  0  0  0  0  0  0  0  0  0  0  # atno 11005 bound_to 11000
  145.4113  139.1580  143.4124 LP  0  0  0  0  0  0  0  0  0  0  0  0  # atno 17320 bound_to 7965
  146.2937  140.4217  142.8730 LP  0  0  0  0  0  0  0  0  0  0  0  0  # atno 17321 bound_to 7965
  139.6819  144.7655  151.1593 LP  0  0  0  0  0  0  0  0  0  0  0  0  # atno 17342 bound_to 10162
  140.7649  143.5713  150.8993 LP  0  0  0  0  0  0  0  0  0  0  0  0  # atno 17343 bound_to 10162
  157.2321  130.6530  149.5854 LP  0  0  0  0  0  0  0  0  0  0  0  0  # atno 17370 bound_to 10713
  155.9705  130.4595  150.6039 LP  0  0  0  0  0  0  0  0  0  0  0  0  # atno 17371 bound_to 10713
  141.0708  133.6798  156.2136 LP  0  0  0  0  0  0  0  0  0  0  0  0  # atno 17394 bound_to 11000
  140.6510  134.5067  157.5577 LP  0  0  0  0  0  0  0  0  0  0  0  0  # atno 17395 bound_to 11000

$$$$
