AV-unprocessed.smi:3103|AV-procd|sdf|11814|dock2
  -GOLD-   2272017183D 1   1.00000     0.00000
 Structure written by MMmdl.
 32 32  0  0  0  0  0  0  0  0  1 V2000
  153.2532  142.4645  160.6246 C   0  0  0  0  0  0  0  0  0  0  0  0
  152.3740  142.4666  159.3891 C   0  0  0  0  0  0  0  0  0  0  0  0
  151.9945  141.2637  158.7564 C   0  0  0  0  0  0  0  0  0  0  0  0
  151.2150  141.2533  157.6536 N   0  0  0  0  0  0  0  0  0  0  0  0
  150.8149  142.4362  157.1821 C   0  0  0  0  0  0  0  0  0  0  0  0
  150.0277  142.3888  156.0477 N   0  0  0  0  0  0  0  0  0  0  0  0
  149.7359  141.1689  155.3105 C   0  0  0  0  0  0  0  0  0  0  0  0
  148.7052  141.4131  154.2041 C   0  0  0  0  0  0  0  0  0  0  0  0
  147.4985  141.8658  154.7951 O   0  0  0  0  0  0  0  0  0  0  0  0
  146.5678  142.3565  153.8451 C   0  0  0  0  0  0  0  0  0  0  0  0
  145.5263  143.2182  154.5692 C   0  0  0  0  0  0  0  0  0  0  0  0
  144.7407  143.9213  153.6306 O   0  0  0  0  0  0  0  0  0  0  0  0
  151.1081  143.6352  157.6993 N   0  0  0  0  0  0  0  0  0  0  0  0
  151.8876  143.6584  158.8032 C   0  0  0  0  0  0  0  0  0  0  0  0
  152.2107  145.0265  159.3729 C   0  0  0  0  0  0  0  0  0  0  0  0
  153.5590  141.4513  160.8879 H   0  0  0  0  0  0  0  0  0  0  0  0
  152.7166  142.8882  161.4738 H   0  0  0  0  0  0  0  0  0  0  0  0
  154.1532  143.0557  160.4535 H   0  0  0  0  0  0  0  0  0  0  0  0
  152.3166  140.3042  159.1336 H   0  0  0  0  0  0  0  0  0  0  0  0
  149.5339  143.2314  155.7922 H   0  0  0  0  0  0  0  0  0  0  0  0
  150.6640  140.8023  154.8707 H   0  0  0  0  0  0  0  0  0  0  0  0
  149.3773  140.3983  155.9942 H   0  0  0  0  0  0  0  0  0  0  0  0
  149.0799  142.1368  153.4784 H   0  0  0  0  0  0  0  0  0  0  0  0
  148.5194  140.4798  153.6706 H   0  0  0  0  0  0  0  0  0  0  0  0
  147.1014  142.9732  153.1201 H   0  0  0  0  0  0  0  0  0  0  0  0
  146.0926  141.5439  153.2925 H   0  0  0  0  0  0  0  0  0  0  0  0
  144.8943  142.6135  155.2205 H   0  0  0  0  0  0  0  0  0  0  0  0
  146.0279  143.9544  155.1977 H   0  0  0  0  0  0  0  0  0  0  0  0
  143.9882  143.3928  153.4129 H   0  0  0  0  0  0  0  0  0  0  0  0
  151.9023  145.0866  160.4168 H   0  0  0  0  0  0  0  0  0  0  0  0
  151.6982  145.8181  158.8245 H   0  0  0  0  0  0  0  0  0  0  0  0
  153.2828  145.2158  159.3172 H   0  0  0  0  0  0  0  0  0  0  0  0
  1  2  1  0  0  0  0
  1 16  1  0  0  0  0
  1 17  1  0  0  0  0
  1 18  1  0  0  0  0
  2 14  1  0  0  0  0
  2  3  2  0  0  0  0
  3  4  1  0  0  0  0
  3 19  1  0  0  0  0
  4  5  2  0  0  0  0
  5  6  1  0  0  0  0
  5 13  1  0  0  0  0
  6  7  1  0  0  0  0
  6 20  1  0  0  0  0
  7  8  1  0  0  0  0
  7 21  1  0  0  0  0
  7 22  1  0  0  0  0
  8  9  1  0  0  0  0
  8 23  1  0  0  0  0
  8 24  1  0  0  0  0
  9 10  1  0  0  0  0
 10 11  1  0  0  0  0
 10 25  1  0  0  0  0
 10 26  1  0  0  0  0
 11 12  1  0  0  0  0
 11 27  1  0  0  0  0
 11 28  1  0  0  0  0
 12 29  1  0  0  0  0
 13 14  2  0  0  0  0
 14 15  1  0  0  0  0
 15 30  1  0  0  0  0
 15 31  1  0  0  0  0
 15 32  1  0  0  0  0
M  END
> <s_m_source_file>
AV-unprocessed.smi

> <i_m_source_file_index>
3103

> <i_lp_mmshare_version>
43012

> <i_f3d_flags>
0

> <s_epik_input>
W0NIM11jMVtjSF1uYyhuYzFbQ0gzXSlbTkhdW0NIMl1bQ0gyXU9bQ0gyXVtDSDJdW09IXQ==

> <s_epik_cmdline>
J2VwaWtfcHl0aG9uJywgJy1waCcsICc3LjAnLCAnLXRuJywgJzgnLCAnLW1hJywgJzIwMCcsICctbWV0YWxfYmluZGluZycsICctaW1hZScsICc8aW5maWxlLm1hZT4nLCAnLW9tYWUnLCAnPG91dGZpbGUubWFlPic=

> <r_lp_tautomer_probability>
1

> <r_epik_Ionization_Penalty>
0.00815169

> <r_epik_Ionization_Penalty_Charging>
0

> <r_epik_Ionization_Penalty_Neutral>
0.00815169

> <r_epik_State_Penalty>
0.00530275

> <r_epik_Charging_Adjusted_Penalty>
0.00530275

> <i_epik_Tot_Q>
0

> <i_epik_Tot_abs_Q>
0

> <r_epik_Metal_State_Penalty>
-0

> <b_epik_Metal_Only>
0

> <s_lp_Force_Field>
OPLS_2005

> <r_lp_Energy>
-2.90403

> <b_lp_Chiralities_Consistent>
1

> <s_lp_Variant>
AV-unprocessed.smi:3103-1

> <Gold.Version>
5.8.1

> <Gold.Id.Protein>
6NUR|6NUR_protein|mol2

> <Gold.PLP.Fitness>
42.2742

> <Gold.PLP.PLP>
-36.5318

> <Gold.PLP.part.hbond>
-2.0000

> <Gold.PLP.part.metal>
0.0000

> <Gold.PLP.part.buried>
-6.0519

> <Gold.PLP.part.nonpolar>
-30.1602

> <Gold.PLP.part.repulsive>
0.4315

> <Gold.PLP.ligand.clash>
0.0000

> <Gold.PLP.ligand.torsion>
0.1708

> <Gold.PLP.Chemscore.Hbond>
2.0000

> <Gold.PLP.Chemscore.CHOScore>
0.0000

> <Gold.PLP.Chemscore.Metal>
0.0000

> <Gold.Chemscore.Hbonds>
donor molecule, donor type, donor heavy atom, donor atom, acceptor molecule, acceptor atom, score
      L1  H     6    20       P1  8028  1.00
      L1  H    12    29       P1 10174  0.98

> <Gold.PLP.Chemscore.Internal.Correction>
0.0841

> <Gold.Rescore>
     Score         DG    S(hbond)    S(metal)    S(lipo)     H(rot)  DE(clash)    DE(int)     intcor
     13.20     -13.39       1.48        0.00      82.47       2.61       0.02       0.17       ----

> <Gold.Chemscore.Fitness>
13.2040

> <Gold.Chemscore.DG>
-13.3934

> <Gold.Chemscore.ZeroCoef>
-5.4800

> <Gold.Chemscore.Hbond>
1.4817

> <Gold.Chemscore.Metal>
0.0000

> <Gold.Chemscore.Lipo>
82.4725

> <Gold.Chemscore.Internal_Hbond>
0.0000

> <Gold.Chemscore.DEClash>
0.0183

> <Gold.Chemscore.DEInternal>
0.1711

> <Gold.Chemscore.Rot>
2.6113

> <Gold.Chemscore.Internal.Correction>
   9.000000E+99

> <Gold.Chemscore.Hbonds>
donor molecule, donor type, donor heavy atom, donor atom, acceptor molecule, acceptor atom, score
      L1  H     6    20       P1  8028  0.99
      L1  H    12    29       P1 10174  0.27

> <Gold.Chemscore.Hbond.Weighted>
-4.9490

> <Gold.Chemscore.Metal.Weighted>
-0.0000

> <Gold.Chemscore.Lipo.Weighted>
-9.6493

> <Gold.Chemscore.Internal_Hbond.Weighted>
0.0000

> <Gold.Chemscore.DEClash.Weighted>
0.0183

> <Gold.Chemscore.DEInternal.Weighted>
0.1711

> <Gold.Chemscore.Rot.Weighted>
6.6849

> <Gold.Chemscore.Internal.Correction.Weighted>
   9.000000E+99

> <Gold.Protein.RotatedTorsions>
[ 6907 6896 6895 6894 ] final   80.70 input  -60.11 | X-H torsion
[ 7974 7965 7964 7962 ] final   51.29 input  175.53 | X-H torsion
[ 8008 7997 7996 7995 ] final -164.25 input   59.86 | X-H torsion
[ 10167 10162 10161 10158 ] final  -47.63 input  -65.29 | X-H torsion
[ 10718 10713 10712 10709 ] final   53.40 input   66.30 | X-H torsion
[ 10763 10752 10751 10750 ] final -109.76 input  -60.55 | X-H torsion
[ 11005 11000 10999 10996 ] final -138.27 input  -57.11 | X-H torsion

> <Gold.Protein.ActiveResidues>
 VAL166  LYS551  ARG553  GLY616  TRP617  ASP618  TYR619  PRO620  LYS621  CYS622 
 ASP623  PHE694  ASN695  SER759  ASP760  ASP761  ALA762  ILE779  LEU786  VAL792 
 PHE793  MET794  SER795  GLU796  ALA797  LYS798  CYS799  TRP800  GLU811  SER814 

> <Gold.Protein.RotatedAtoms>
  152.5244  134.3317  159.9185 H   0  0  0  0  0  0  0  0  0  0  0  0  # atno 6907 bound_to 6896
  151.3266  133.4011  159.2666 H   0  0  0  0  0  0  0  0  0  0  0  0  # atno 6908 bound_to 6896
  150.9914  134.9266  159.7959 H   0  0  0  0  0  0  0  0  0  0  0  0  # atno 6909 bound_to 6896
  145.9928  139.4357  143.0063 H   0  0  0  0  0  0  0  0  0  0  0  0  # atno 7974 bound_to 7965
  155.8330  140.0936  157.1781 H   0  0  0  0  0  0  0  0  0  0  0  0  # atno 8008 bound_to 7997
  154.3980  140.1415  156.3697 H   0  0  0  0  0  0  0  0  0  0  0  0  # atno 8009 bound_to 7997
  155.8146  140.3448  155.5480 H   0  0  0  0  0  0  0  0  0  0  0  0  # atno 8010 bound_to 7997
  140.6766  143.2775  151.3955 H   0  0  0  0  0  0  0  0  0  0  0  0  # atno 10167 bound_to 10162
  157.5164  130.8535  149.8501 H   0  0  0  0  0  0  0  0  0  0  0  0  # atno 10718 bound_to 10713
  154.8211  135.4589  154.0782 H   0  0  0  0  0  0  0  0  0  0  0  0  # atno 10763 bound_to 10752
  153.2134  135.6885  153.8092 H   0  0  0  0  0  0  0  0  0  0  0  0  # atno 10764 bound_to 10752
  153.7535  135.3294  155.3302 H   0  0  0  0  0  0  0  0  0  0  0  0  # atno 10765 bound_to 10752
  140.8632  134.2143  157.4695 H   0  0  0  0  0  0  0  0  0  0  0  0  # atno 11005 bound_to 11000
  145.7604  140.9937  143.1203 LP  0  0  0  0  0  0  0  0  0  0  0  0  # atno 17320 bound_to 7965
  144.6894  139.9323  143.7472 LP  0  0  0  0  0  0  0  0  0  0  0  0  # atno 17321 bound_to 7965
  139.6063  144.1191  152.2252 LP  0  0  0  0  0  0  0  0  0  0  0  0  # atno 17342 bound_to 10162
  140.0591  144.5871  150.7277 LP  0  0  0  0  0  0  0  0  0  0  0  0  # atno 17343 bound_to 10162
  156.0323  130.3761  150.1654 LP  0  0  0  0  0  0  0  0  0  0  0  0  # atno 17370 bound_to 10713
  156.9843  130.9874  151.3430 LP  0  0  0  0  0  0  0  0  0  0  0  0  # atno 17371 bound_to 10713
  139.8708  134.9739  156.4828 LP  0  0  0  0  0  0  0  0  0  0  0  0  # atno 17394 bound_to 11000
  140.8659  133.8025  155.9313 LP  0  0  0  0  0  0  0  0  0  0  0  0  # atno 17395 bound_to 11000

$$$$
