#       Name:                AV-unprocessed.smi:1143
#       Creating user name   scv26
#       Creation time:       Fri Mar 27 03:44:51 2020


#       File generated by GOLD software.
#

@<TRIPOS>MOLECULE
AV-unprocessed.smi:1143
    41    42     1
SMALL
NO_CHARGES


@<TRIPOS>ATOM
      1 ****        -4.7102  -2.7499   0.0316 C.3            1 S1                 0.0000
      2 ****        -3.9805  -1.4793   0.0130 N.am           1 S1                 0.0000
      3 ****        -2.5740  -1.5284   0.0710 C.2            1 S1                 0.0000
      4 ****        -1.8126  -0.4123   0.0589 C.2            1 S1                 0.0000
      5 ****        -0.4114  -0.3833   0.0954 N.am           1 S1                 0.0000
      6 ****         0.4618  -1.3797   0.3530 C.2            1 S1                 0.0000
      7 ****         0.1556  -2.5257   0.6751 O.2            1 S1                 0.0000
      8 ****         1.7528  -1.0107   0.2603 N.am           1 S1                 0.0000
      9 ****         2.9491  -1.8291   0.4727 C.3            1 S1                 0.0000
     10 ****         4.1363  -0.9259   0.8375 C.3            1 S1                 0.0000
     11 ****         5.4343  -1.7448   0.9307 C.3            1 S1                 0.0000
     12 ****         5.6666  -2.4317  -0.2945 O.3            1 S1                 0.0000
     13 ****         4.6415  -3.3679  -0.6092 C.3            1 S1                 0.0000
     14 ****         3.2999  -2.6392  -0.7886 C.3            1 S1                 0.0000
     15 ****        -2.5079   0.8541  -0.0285 C.2            1 S1                 0.0000
     16 ****        -3.8526   0.9098  -0.0848 C.2            1 S1                 0.0000
     17 ****        -4.6710  -0.3048  -0.0629 C.2            1 S1                 0.0000
     18 ****        -5.9008  -0.2692  -0.1112 O.2            1 S1                 0.0000
     19 ****        -4.0509  -3.6176   0.0688 H              1 S1                 0.0000
     20 ****        -5.3264  -2.8508  -0.8631 H              1 S1                 0.0000
     21 ****        -5.3651  -2.8013   0.9026 H              1 S1                 0.0000
     22 ****        -2.1786  -2.5307   0.1112 H              1 S1                 0.0000
     23 ****        -0.0040   0.5201  -0.0964 H              1 S1                 0.0000
     24 ****         1.9235  -0.0347   0.0645 H              1 S1                 0.0000
     25 ****         2.7841  -2.5140   1.3067 H              1 S1                 0.0000
     26 ****         4.2583  -0.1483   0.0821 H              1 S1                 0.0000
     27 ****         3.9481  -0.4166   1.7834 H              1 S1                 0.0000
     28 ****         6.2789  -1.0850   1.1295 H              1 S1                 0.0000
     29 ****         5.3869  -2.4572   1.7559 H              1 S1                 0.0000
     30 ****         4.9099  -3.8884  -1.5286 H              1 S1                 0.0000
     31 ****         4.5711  -4.1240   0.1742 H              1 S1                 0.0000
     32 ****         2.5152  -3.3618  -1.0142 H              1 S1                 0.0000
     33 ****         3.3665  -1.9731  -1.6501 H              1 S1                 0.0000
     34 ****        -1.9424   1.7745  -0.0467 H              1 S1                 0.0000
     35 ****        -4.3399   1.8715  -0.1479 H              1 S1                 0.0000
     36 ****        -0.8075  -2.7797   0.7641 LP             1 S1                 0.0000
     37 ****         0.8696  -3.2041   0.8481 LP             1 S1                 0.0000
     38 ****         6.5356  -2.9217  -0.2255 LP             1 S1                 0.0000
     39 ****         5.7211  -1.7586  -1.0321 LP             1 S1                 0.0000
     40 ****        -6.4266  -1.1197  -0.0953 LP             1 S1                 0.0000
     41 ****        -6.3738   0.6101  -0.1664 LP             1 S1                 0.0000
@<TRIPOS>BOND
    1    1    2 1     
    2    1   19 1     
    3    1   20 1     
    4    1   21 1     
    5    2   17 am    
    6    2    3 1     
    7    3    4 2     
    8    3   22 1     
    9    4    5 1     
   10    4   15 1     
   11    5    6 am    
   12    5   23 1     
   13    6    7 2     
   14    6    8 am    
   15    8    9 1     
   16    8   24 1     
   17    9   14 1     
   18    9   10 1     
   19    9   25 1     
   20   10   11 1     
   21   10   26 1     
   22   10   27 1     
   23   11   12 1     
   24   11   28 1     
   25   11   29 1     
   26   12   13 1     
   27   13   14 1     
   28   13   30 1     
   29   13   31 1     
   30   14   32 1     
   31   14   33 1     
   32   15   16 2     
   33   15   34 1     
   34   16   17 1     
   35   16   35 1     
   36   17   18 2     
   37    7   36 1     
   38    7   37 1     
   39   12   38 1     
   40   12   39 1     
   41   18   40 1     
   42   18   41 1     
@<TRIPOS>SUBSTRUCTURE
      1 S1             1
@<TRIPOS>SET
LONE_PAIRS      STATIC     ATOMS    <user>   **** ""
6 36 37 38 39 40 41
DONOR_HYDROGENS      STATIC     ATOMS    <user>   **** ""
2 23 24
ATOM$BLUE        STATIC     ATOMS    COLORGROUP SYSTEM
6 36 37 38 39 40 41
ATOM$RED        STATIC     ATOMS    COLORGROUP SYSTEM
2 23 24
