AV-unprocessed.smi:3102|AV-procd|sdf|11812|dock1
  -GOLD-   2272017183D 1   1.00000     0.00000
 Structure written by MMmdl.
 31 32  0  0  0  0  0  0  0  0  1 V2000
  153.3899  143.8397  163.7508 C   0  0  0  0  0  0  0  0  0  0  0  0
  153.4476  142.5919  163.0684 O   0  0  0  0  0  0  0  0  0  0  0  0
  153.0379  142.5462  161.7516 C   0  0  0  0  0  0  0  0  0  0  0  0
  153.1204  141.3223  161.0613 C   0  0  0  0  0  0  0  0  0  0  0  0
  152.7063  141.2719  159.7174 C   0  0  0  0  0  0  0  0  0  0  0  0
  152.2214  142.4474  159.0966 C   0  0  0  0  0  0  0  0  0  0  0  0
  151.7911  142.4782  157.7593 N   0  0  0  0  0  0  0  0  0  0  0  0
  151.1938  141.3113  157.1223 C   0  0  2  0  0  0  0  0  0  0  0  0
  152.2016  140.2469  156.7333 C   0  0  0  0  0  0  0  0  0  0  0  0
  151.4257  139.4592  155.6823 C   0  0  0  0  0  0  0  0  0  0  0  0
  150.5615  140.4002  155.0500 O   0  0  0  0  0  0  0  0  0  0  0  0
  150.5775  141.6339  155.7626 C   0  0  0  0  0  0  0  0  0  0  0  0
  152.1737  143.6273  159.8796 C   0  0  0  0  0  0  0  0  0  0  0  0
  151.6663  144.9392  159.3062 C   0  0  0  0  0  0  0  0  0  0  0  0
  152.5715  143.6778  161.1701 N   0  0  0  0  0  0  0  0  0  0  0  0
  153.7468  143.7090  164.7723 H   0  0  0  0  0  0  0  0  0  0  0  0
  152.3685  144.2192  163.8035 H   0  0  0  0  0  0  0  0  0  0  0  0
  154.0251  144.5860  163.2716 H   0  0  0  0  0  0  0  0  0  0  0  0
  153.4950  140.4372  161.5535 H   0  0  0  0  0  0  0  0  0  0  0  0
  152.7667  140.3330  159.1886 H   0  0  0  0  0  0  0  0  0  0  0  0
  152.1424  143.2100  157.1583 H   0  0  0  0  0  0  0  0  0  0  0  0
  150.4201  140.8821  157.7599 H   0  0  0  0  0  0  0  0  0  0  0  0
  153.0838  140.7016  156.2795 H   0  0  0  0  0  0  0  0  0  0  0  0
  152.5286  139.6286  157.5694 H   0  0  0  0  0  0  0  0  0  0  0  0
  152.0814  138.9717  154.9606 H   0  0  0  0  0  0  0  0  0  0  0  0
  150.8138  138.6914  156.1571 H   0  0  0  0  0  0  0  0  0  0  0  0
  149.5783  142.0623  155.8458 H   0  0  0  0  0  0  0  0  0  0  0  0
  151.2020  142.3366  155.2084 H   0  0  0  0  0  0  0  0  0  0  0  0
  152.2767  145.2428  158.4552 H   0  0  0  0  0  0  0  0  0  0  0  0
  151.6989  145.7401  160.0462 H   0  0  0  0  0  0  0  0  0  0  0  0
  150.6341  144.8333  158.9712 H   0  0  0  0  0  0  0  0  0  0  0  0
  1  2  1  0  0  0  0
  1 16  1  0  0  0  0
  1 17  1  0  0  0  0
  1 18  1  0  0  0  0
  2  3  1  0  0  0  0
  3 15  1  0  0  0  0
  3  4  2  0  0  0  0
  4  5  1  0  0  0  0
  4 19  1  0  0  0  0
  5  6  2  0  0  0  0
  5 20  1  0  0  0  0
  6  7  1  0  0  0  0
  6 13  1  0  0  0  0
  7  8  1  0  0  0  0
  7 21  1  0  0  0  0
  8 12  1  0  0  0  0
  8  9  1  0  0  0  0
  8 22  1  0  0  0  0
  9 10  1  0  0  0  0
  9 23  1  0  0  0  0
  9 24  1  0  0  0  0
 10 11  1  0  0  0  0
 10 25  1  0  0  0  0
 10 26  1  0  0  0  0
 11 12  1  0  0  0  0
 12 27  1  0  0  0  0
 12 28  1  0  0  0  0
 13 14  1  0  0  0  0
 13 15  2  0  0  0  0
 14 29  1  0  0  0  0
 14 30  1  0  0  0  0
 14 31  1  0  0  0  0
M  END
> <s_m_source_file>
AV-unprocessed.smi

> <i_m_source_file_index>
3102

> <i_lp_mmshare_version>
43012

> <i_f3d_flags>
0

> <s_epik_input>
W0NIM11PYzFbY0hdW2NIXWMoYyhuMSlbQ0gzXSlbTkhdW0NAQEhdMltDSDJdW0NIMl1PW0NIMl0y

> <s_epik_cmdline>
J2VwaWtfcHl0aG9uJywgJy1waCcsICc3LjAnLCAnLXRuJywgJzgnLCAnLW1hJywgJzIwMCcsICctbWV0YWxfYmluZGluZycsICctaW1hZScsICc8aW5maWxlLm1hZT4nLCAnLW9tYWUnLCAnPG91dGZpbGUubWFlPic=

> <r_lp_tautomer_probability>
1

> <r_epik_Ionization_Penalty>
0.00117248

> <r_epik_Ionization_Penalty_Charging>
0

> <r_epik_Ionization_Penalty_Neutral>
0.00117248

> <r_epik_State_Penalty>
0.000742146

> <r_epik_Charging_Adjusted_Penalty>
0.000742146

> <i_epik_Tot_Q>
0

> <i_epik_Tot_abs_Q>
0

> <r_epik_Metal_State_Penalty>
-0

> <b_epik_Metal_Only>
0

> <s_lp_Force_Field>
OPLS_2005

> <r_lp_Energy>
20.6196

> <b_lp_Chiralities_Consistent>
1

> <s_lp_Variant>
AV-unprocessed.smi:3102-1

> <Gold.Version>
5.8.1

> <Gold.Id.Protein>
6NUR|6NUR_protein|mol2

> <Gold.PLP.Fitness>
35.8051

> <Gold.PLP.PLP>
-33.4918

> <Gold.PLP.part.hbond>
-1.0000

> <Gold.PLP.part.metal>
0.0000

> <Gold.PLP.part.buried>
-2.7770

> <Gold.PLP.part.nonpolar>
-28.6235

> <Gold.PLP.part.repulsive>
0.2728

> <Gold.PLP.ligand.clash>
0.0000

> <Gold.PLP.ligand.torsion>
0.3537

> <Gold.PLP.Chemscore.Hbond>
1.0000

> <Gold.PLP.Chemscore.CHOScore>
0.0000

> <Gold.PLP.Chemscore.Metal>
0.0000

> <Gold.Chemscore.Hbonds>
donor molecule, donor type, donor heavy atom, donor atom, acceptor molecule, acceptor atom, score
      P1  H  7989  7998       L1    11  1.00

> <Gold.PLP.Chemscore.Internal.Correction>
0.0206

> <Gold.Rescore>
     Score         DG    S(hbond)    S(metal)    S(lipo)     H(rot)  DE(clash)    DE(int)     intcor
     13.11     -13.88       0.16        0.00      93.10       1.18       0.40       0.37       ----

> <Gold.Chemscore.Fitness>
13.1105

> <Gold.Chemscore.DG>
-13.8780

> <Gold.Chemscore.ZeroCoef>
-5.4800

> <Gold.Chemscore.Hbond>
0.1612

> <Gold.Chemscore.Metal>
0.0000

> <Gold.Chemscore.Lipo>
93.0989

> <Gold.Chemscore.Internal_Hbond>
0.0000

> <Gold.Chemscore.DEClash>
0.4014

> <Gold.Chemscore.DEInternal>
0.3661

> <Gold.Chemscore.Rot>
1.1847

> <Gold.Chemscore.Internal.Correction>
   9.000000E+99

> <Gold.Chemscore.Hbonds>
donor molecule, donor type, donor heavy atom, donor atom, acceptor molecule, acceptor atom, score
      P1  H  7989  7998       L1    11  0.07

> <Gold.Chemscore.Hbond.Weighted>
-0.5383

> <Gold.Chemscore.Metal.Weighted>
-0.0000

> <Gold.Chemscore.Lipo.Weighted>
-10.8926

> <Gold.Chemscore.Internal_Hbond.Weighted>
0.0000

> <Gold.Chemscore.DEClash.Weighted>
0.4014

> <Gold.Chemscore.DEInternal.Weighted>
0.3661

> <Gold.Chemscore.Rot.Weighted>
3.0328

> <Gold.Chemscore.Internal.Correction.Weighted>
   9.000000E+99

> <Gold.Protein.RotatedTorsions>
[ 6907 6896 6895 6894 ] final   48.61 input  -60.11 | X-H torsion
[ 7974 7965 7964 7962 ] final -153.66 input  175.53 | X-H torsion
[ 8008 7997 7996 7995 ] final  110.25 input   59.86 | X-H torsion
[ 10167 10162 10161 10158 ] final   64.09 input  -65.29 | X-H torsion
[ 10718 10713 10712 10709 ] final    8.06 input   66.30 | X-H torsion
[ 10763 10752 10751 10750 ] final  -56.02 input  -60.55 | X-H torsion
[ 11005 11000 10999 10996 ] final  -75.06 input  -57.11 | X-H torsion

> <Gold.Protein.ActiveResidues>
 VAL166  LYS551  ARG553  GLY616  TRP617  ASP618  TYR619  PRO620  LYS621  CYS622 
 ASP623  PHE694  ASN695  SER759  ASP760  ASP761  ALA762  ILE779  LEU786  VAL792 
 PHE793  MET794  SER795  GLU796  ALA797  LYS798  CYS799  TRP800  GLU811  SER814 

> <Gold.Protein.RotatedAtoms>
  152.2814  134.7824  160.0395 H   0  0  0  0  0  0  0  0  0  0  0  0  # atno 6907 bound_to 6896
  151.8402  133.3417  159.3649 H   0  0  0  0  0  0  0  0  0  0  0  0  # atno 6908 bound_to 6896
  150.7191  134.5327  159.5752 H   0  0  0  0  0  0  0  0  0  0  0  0  # atno 6909 bound_to 6896
  144.7729  140.4495  143.5894 H   0  0  0  0  0  0  0  0  0  0  0  0  # atno 7974 bound_to 7965
  156.2039  140.3042  155.9586 H   0  0  0  0  0  0  0  0  0  0  0  0  # atno 8008 bound_to 7997
  155.2887  140.0441  157.3038 H   0  0  0  0  0  0  0  0  0  0  0  0  # atno 8009 bound_to 7997
  154.5607  140.2319  155.8348 H   0  0  0  0  0  0  0  0  0  0  0  0  # atno 8010 bound_to 7997
  140.1260  144.4687  150.6892 H   0  0  0  0  0  0  0  0  0  0  0  0  # atno 10167 bound_to 10162
  156.9461  130.5879  149.5654 H   0  0  0  0  0  0  0  0  0  0  0  0  # atno 10718 bound_to 10713
  154.2000  135.6412  153.5084 H   0  0  0  0  0  0  0  0  0  0  0  0  # atno 10763 bound_to 10752
  153.0014  135.5449  154.6325 H   0  0  0  0  0  0  0  0  0  0  0  0  # atno 10764 bound_to 10752
  154.5736  135.2919  155.0776 H   0  0  0  0  0  0  0  0  0  0  0  0  # atno 10765 bound_to 10752
  141.1641  133.6933  156.7459 H   0  0  0  0  0  0  0  0  0  0  0  0  # atno 11005 bound_to 11000
  145.6271  139.1531  143.2990 LP  0  0  0  0  0  0  0  0  0  0  0  0  # atno 17320 bound_to 7965
  146.1888  140.6377  142.9155 LP  0  0  0  0  0  0  0  0  0  0  0  0  # atno 17321 bound_to 7965
  140.6845  143.2343  151.5298 LP  0  0  0  0  0  0  0  0  0  0  0  0  # atno 17342 bound_to 10162
  139.5544  144.2313  152.1586 LP  0  0  0  0  0  0  0  0  0  0  0  0  # atno 17343 bound_to 10162
  156.0383  130.5468  150.8708 LP  0  0  0  0  0  0  0  0  0  0  0  0  # atno 17370 bound_to 10713
  157.5753  131.0946  150.9355 LP  0  0  0  0  0  0  0  0  0  0  0  0  # atno 17371 bound_to 10713
  140.2640  134.8444  157.3785 LP  0  0  0  0  0  0  0  0  0  0  0  0  # atno 17394 bound_to 11000
  140.1584  134.4760  155.7912 LP  0  0  0  0  0  0  0  0  0  0  0  0  # atno 17395 bound_to 11000

$$$$
