AV-unprocessed.smi:1239|AV-procd|sdf|5194|dock4
  -GOLD-   22720 4283D 1   1.00000     0.00000
 Structure written by MMmdl.
 48 49  0  0  0  0  0  0  0  0  4 V2000
  147.9640  140.4950  154.5210 C   0  0  0  0  0  0  0  0  0  0  0  0
  148.5549  139.3530  153.6567 C   0  0  1  0  0  0  0  0  0  0  0  0
  149.8618  138.7311  154.2213 C   0  0  0  0  0  0  0  0  0  0  0  0
  150.8012  139.7555  154.6908 N   0  5  0  0  0  0  0  0  0  0  0  0
  151.3426  139.8093  155.9377 C   0  0  0  0  0  0  0  0  0  0  0  0
  151.9530  138.9114  156.5291 O   0  0  0  0  0  0  0  0  0  0  0  0
  151.1045  140.9861  156.5431 N   0  0  0  0  0  0  0  0  0  0  0  0
  151.5286  141.4465  157.8190 C   0  0  0  0  0  0  0  0  0  0  0  0
  151.2952  142.7994  158.1392 C   0  0  0  0  0  0  0  0  0  0  0  0
  151.7160  143.3090  159.3846 C   0  0  0  0  0  0  0  0  0  0  0  0
  152.3822  142.4618  160.3039 C   0  0  0  0  0  0  0  0  0  0  0  0
  152.8351  142.8968  161.5684 N   0  0  0  0  0  0  0  0  0  0  0  0
  153.7346  142.0508  162.3450 C   0  0  0  0  0  0  0  0  0  0  0  0
  152.5142  144.2419  162.0274 C   0  0  0  0  0  0  0  0  0  0  0  0
  152.5963  141.1723  159.9451 N   0  3  0  0  0  0  0  0  0  0  0  0
  152.2101  140.6437  158.7639 C   0  0  0  0  0  0  0  0  0  0  0  0
  147.5712  138.2904  153.2736 N   0  3  0  0  0  0  0  0  0  0  0  0
  146.8271  137.6321  154.3809 C   0  0  0  0  0  0  0  0  0  0  0  0
  146.0280  136.4394  153.8347 C   0  0  0  0  0  0  0  0  0  0  0  0
  145.1336  136.8941  152.8262 O   0  0  0  0  0  0  0  0  0  0  0  0
  145.8218  137.4728  151.7235 C   0  0  0  0  0  0  0  0  0  0  0  0
  146.6369  138.6899  152.1935 C   0  0  0  0  0  0  0  0  0  0  0  0
  148.6832  141.3031  154.6667 H   0  0  0  0  0  0  0  0  0  0  0  0
  147.6504  140.1600  155.5110 H   0  0  0  0  0  0  0  0  0  0  0  0
  147.0958  140.9391  154.0331 H   0  0  0  0  0  0  0  0  0  0  0  0
  148.8694  139.8402  152.7327 H   0  0  0  0  0  0  0  0  0  0  0  0
  149.5980  138.0273  155.0125 H   0  0  0  0  0  0  0  0  0  0  0  0
  150.3175  138.1183  153.4435 H   0  0  0  0  0  0  0  0  0  0  0  0
  150.5127  141.6215  156.0274 H   0  0  0  0  0  0  0  0  0  0  0  0
  150.7910  143.4468  157.4365 H   0  0  0  0  0  0  0  0  0  0  0  0
  151.5204  144.3459  159.6124 H   0  0  0  0  0  0  0  0  0  0  0  0
  154.6635  141.8794  161.8000 H   0  0  0  0  0  0  0  0  0  0  0  0
  153.2707  141.0859  162.5528 H   0  0  0  0  0  0  0  0  0  0  0  0
  153.9868  142.5107  163.3007 H   0  0  0  0  0  0  0  0  0  0  0  0
  151.4350  144.3706  162.1150 H   0  0  0  0  0  0  0  0  0  0  0  0
  152.8998  144.9864  161.3300 H   0  0  0  0  0  0  0  0  0  0  0  0
  152.9529  144.4420  163.0049 H   0  0  0  0  0  0  0  0  0  0  0  0
  152.4769  139.6073  158.6224 H   0  0  0  0  0  0  0  0  0  0  0  0
  147.5158  137.2825  155.1499 H   0  0  0  0  0  0  0  0  0  0  0  0
  146.1452  138.3402  154.8532 H   0  0  0  0  0  0  0  0  0  0  0  0
  146.6948  135.6740  153.4339 H   0  0  0  0  0  0  0  0  0  0  0  0
  145.4520  135.9744  154.6348 H   0  0  0  0  0  0  0  0  0  0  0  0
  146.4702  136.7297  151.2566 H   0  0  0  0  0  0  0  0  0  0  0  0
  145.0930  137.7765  150.9721 H   0  0  0  0  0  0  0  0  0  0  0  0
  145.9741  139.4777  152.5547 H   0  0  0  0  0  0  0  0  0  0  0  0
  147.1939  139.0960  151.3481 H   0  0  0  0  0  0  0  0  0  0  0  0
  153.0839  140.5645  160.6032 H   0  0  0  0  0  0  0  0  0  0  0  0
  148.1469  137.5639  152.8701 H   0  0  0  0  0  0  0  0  0  0  0  0
  1  2  1  0  0  0  0
  1 23  1  0  0  0  0
  1 24  1  0  0  0  0
  1 25  1  0  0  0  0
  2  3  1  0  0  0  0
  2 17  1  0  0  0  0
  2 26  1  0  0  0  0
  3  4  1  0  0  0  0
  3 27  1  0  0  0  0
  3 28  1  0  0  0  0
  4  5  1  0  0  0  0
  5  6  2  0  0  0  0
  5  7  1  0  0  0  0
  7  8  1  0  0  0  0
  7 29  1  0  0  0  0
  8 16  1  0  0  0  0
  8  9  2  0  0  0  0
  9 10  1  0  0  0  0
  9 30  1  0  0  0  0
 10 11  2  0  0  0  0
 10 31  1  0  0  0  0
 11 12  1  0  0  0  0
 11 15  1  0  0  0  0
 12 13  1  0  0  0  0
 12 14  1  0  0  0  0
 13 32  1  0  0  0  0
 13 33  1  0  0  0  0
 13 34  1  0  0  0  0
 14 35  1  0  0  0  0
 14 36  1  0  0  0  0
 14 37  1  0  0  0  0
 15 16  2  0  0  0  0
 15 47  1  0  0  0  0
 16 38  1  0  0  0  0
 17 22  1  0  0  0  0
 17 18  1  0  0  0  0
 17 48  1  0  0  0  0
 18 19  1  0  0  0  0
 18 39  1  0  0  0  0
 18 40  1  0  0  0  0
 19 20  1  0  0  0  0
 19 41  1  0  0  0  0
 19 42  1  0  0  0  0
 20 21  1  0  0  0  0
 21 22  1  0  0  0  0
 21 43  1  0  0  0  0
 21 44  1  0  0  0  0
 22 45  1  0  0  0  0
 22 46  1  0  0  0  0
M  CHG  1   4  -1
M  CHG  1  15   1
M  CHG  1  17   1
M  END
> <s_m_source_file>
AV-unprocessed.smi

> <i_m_source_file_index>
1239

> <i_lp_mmshare_version>
43012

> <i_f3d_flags>
0

> <s_epik_input>
W0NIMl0xW0NIMl1PW0NIMl1bQ0gyXU4xW0NASF0oW0NIM10pW0NIMl1bTkhdQyg9TylbTkhdYzJbY0hdW2NIXWMoTihbQ0gzXSlbQ0gzXSluW2NIXTI=

> <s_epik_cmdline>
J2VwaWtfcHl0aG9uJywgJy1waCcsICc3LjAnLCAnLXRuJywgJzgnLCAnLW1hJywgJzIwMCcsICctbWV0YWxfYmluZGluZycsICctaW1hZScsICc8aW5maWxlLm1hZT4nLCAnLW9tYWUnLCAnPG91dGZpbGUubWFlPic=

> <r_lp_tautomer_probability>
0.999994

> <r_epik_Ionization_Penalty>
7.43905

> <r_epik_Ionization_Penalty_Charging>
7.43905

> <r_epik_Ionization_Penalty_Neutral>
3.43851e-06

> <r_epik_State_Penalty>
7.63789

> <r_epik_Charging_Adjusted_Penalty>
15.0769

> <i_epik_Tot_Q>
1

> <i_epik_Tot_abs_Q>
3

> <r_epik_Metal_State_Penalty>
3.83826

> <b_epik_Metal_Only>
1

> <s_lp_Force_Field>
OPLS_2005

> <r_lp_Energy>
25.3923

> <b_lp_Chiralities_Consistent>
1

> <s_lp_Variant>
AV-unprocessed.smi:1239-10

> <Gold.Version>
5.8.1

> <Gold.Id.Protein>
6NUR|6NUR_protein|mol2

> <Gold.PLP.Fitness>
48.0154

> <Gold.PLP.PLP>
-40.5986

> <Gold.PLP.part.hbond>
-2.7983

> <Gold.PLP.part.metal>
0.0000

> <Gold.PLP.part.buried>
2.9704

> <Gold.PLP.part.nonpolar>
-40.8849

> <Gold.PLP.part.repulsive>
0.5917

> <Gold.PLP.ligand.clash>
0.0000

> <Gold.PLP.ligand.torsion>
0.9267

> <Gold.PLP.Chemscore.Hbond>
3.0000

> <Gold.PLP.Chemscore.CHOScore>
0.0000

> <Gold.PLP.Chemscore.Metal>
0.0000

> <Gold.Chemscore.Hbonds>
donor molecule, donor type, donor heavy atom, donor atom, acceptor molecule, acceptor atom, score
      L1  H    17    48       P1  7948  2.00
      P1  H  7989  7998       L1     4  1.00

> <Gold.PLP.Chemscore.Internal.Correction>
0.2702

> <Gold.Rescore>
     Score         DG    S(hbond)    S(metal)    S(lipo)     H(rot)  DE(clash)    DE(int)     intcor
     16.14     -18.77       1.87        0.00      92.52       1.48       0.45       2.17       ----

> <Gold.Chemscore.Fitness>
16.1415

> <Gold.Chemscore.DG>
-18.7657

> <Gold.Chemscore.ZeroCoef>
-5.4800

> <Gold.Chemscore.Hbond>
1.8736

> <Gold.Chemscore.Metal>
0.0000

> <Gold.Chemscore.Lipo>
92.5167

> <Gold.Chemscore.Internal_Hbond>
0.0000

> <Gold.Chemscore.DEClash>
0.4534

> <Gold.Chemscore.DEInternal>
2.1708

> <Gold.Chemscore.Rot>
1.4830

> <Gold.Chemscore.Internal.Correction>
   9.000000E+99

> <Gold.Chemscore.Hbonds>
donor molecule, donor type, donor heavy atom, donor atom, acceptor molecule, acceptor atom, score
      L1  H    17    48       P1  7948  1.00
      P1  H  7989  7998       L1     4  0.83

> <Gold.Chemscore.Hbond.Weighted>
-6.2577

> <Gold.Chemscore.Metal.Weighted>
-0.0000

> <Gold.Chemscore.Lipo.Weighted>
-10.8245

> <Gold.Chemscore.Internal_Hbond.Weighted>
0.0000

> <Gold.Chemscore.DEClash.Weighted>
0.4534

> <Gold.Chemscore.DEInternal.Weighted>
2.1708

> <Gold.Chemscore.Rot.Weighted>
3.7964

> <Gold.Chemscore.Internal.Correction.Weighted>
   9.000000E+99

> <Gold.Protein.RotatedTorsions>
[ 6907 6896 6895 6894 ] final -112.48 input  -60.11 | X-H torsion
[ 7974 7965 7964 7962 ] final  171.29 input  175.53 | X-H torsion
[ 8008 7997 7996 7995 ] final  125.43 input   59.86 | X-H torsion
[ 10167 10162 10161 10158 ] final -165.87 input  -65.29 | X-H torsion
[ 10718 10713 10712 10709 ] final -106.86 input   66.30 | X-H torsion
[ 10763 10752 10751 10750 ] final   95.10 input  -60.55 | X-H torsion
[ 11005 11000 10999 10996 ] final  -33.18 input  -57.11 | X-H torsion

> <Gold.Protein.ActiveResidues>
 VAL166  LYS551  ARG553  GLY616  TRP617  ASP618  TYR619  PRO620  LYS621  CYS622 
 ASP623  PHE694  ASN695  SER759  ASP760  ASP761  ALA762  ILE779  LEU786  VAL792 
 PHE793  MET794  SER795  GLU796  ALA797  LYS798  CYS799  TRP800  GLU811  SER814 

> <Gold.Protein.RotatedAtoms>
  150.7761  133.9084  159.3361 H   0  0  0  0  0  0  0  0  0  0  0  0  # atno 6907 bound_to 6896
  151.6958  135.0937  160.0251 H   0  0  0  0  0  0  0  0  0  0  0  0  # atno 6908 bound_to 6896
  152.3797  133.6491  159.6187 H   0  0  0  0  0  0  0  0  0  0  0  0  # atno 6909 bound_to 6896
  144.7299  139.9327  143.6425 H   0  0  0  0  0  0  0  0  0  0  0  0  # atno 7974 bound_to 7965
  156.2833  140.2716  156.1947 H   0  0  0  0  0  0  0  0  0  0  0  0  # atno 8008 bound_to 7997
  155.0422  140.0386  157.2531 H   0  0  0  0  0  0  0  0  0  0  0  0  # atno 8009 bound_to 7997
  154.7265  140.2698  155.6500 H   0  0  0  0  0  0  0  0  0  0  0  0  # atno 8010 bound_to 7997
  139.6153  144.0733  152.1881 H   0  0  0  0  0  0  0  0  0  0  0  0  # atno 10167 bound_to 10162
  156.0409  130.5634  150.7740 H   0  0  0  0  0  0  0  0  0  0  0  0  # atno 10718 bound_to 10713
  153.2493  135.4266  155.0781 H   0  0  0  0  0  0  0  0  0  0  0  0  # atno 10763 bound_to 10752
  154.8375  135.3422  154.6536 H   0  0  0  0  0  0  0  0  0  0  0  0  # atno 10764 bound_to 10752
  153.6957  135.7031  153.5134 H   0  0  0  0  0  0  0  0  0  0  0  0  # atno 10765 bound_to 10752
  140.9614  133.7162  156.1375 H   0  0  0  0  0  0  0  0  0  0  0  0  # atno 11005 bound_to 11000
  146.0845  139.3833  143.0444 LP  0  0  0  0  0  0  0  0  0  0  0  0  # atno 17320 bound_to 7965
  145.7796  140.9862  143.1106 LP  0  0  0  0  0  0  0  0  0  0  0  0  # atno 17321 bound_to 7965
  140.0362  144.6043  150.7448 LP  0  0  0  0  0  0  0  0  0  0  0  0  # atno 17342 bound_to 10162
  140.7346  143.2731  151.3825 LP  0  0  0  0  0  0  0  0  0  0  0  0  # atno 17343 bound_to 10162
  157.5226  131.0932  151.0059 LP  0  0  0  0  0  0  0  0  0  0  0  0  # atno 17370 bound_to 10713
  157.0386  130.5740  149.5353 LP  0  0  0  0  0  0  0  0  0  0  0  0  # atno 17371 bound_to 10713
  140.7462  134.4095  157.5548 LP  0  0  0  0  0  0  0  0  0  0  0  0  # atno 17394 bound_to 11000
  139.8879  134.8869  156.2501 LP  0  0  0  0  0  0  0  0  0  0  0  0  # atno 17395 bound_to 11000

$$$$
