AV-unprocessed.smi:915|AV-procd|sdf|4154|dock10
  -GOLD-   22720 2 63D 1   1.00000     0.00000
 Structure written by MMmdl.
 34 35  0  0  0  0  0  0  0  0  1 V2000
  153.9285  141.4655  161.3305 C   0  0  0  0  0  0  0  0  0  0  0  0
  152.8934  141.2666  160.2179 C   0  0  0  0  0  0  0  0  0  0  0  0
  152.3801  142.5673  159.6790 C   0  0  0  0  0  0  0  0  0  0  0  0
  153.1243  143.5842  159.1326 C   0  0  0  0  0  0  0  0  0  0  0  0
  152.1310  144.9286  158.6370 S   0  0  0  0  0  0  0  0  0  0  0  0
  150.7213  144.0431  159.1975 C   0  0  0  0  0  0  0  0  0  0  0  0
  149.4108  144.5805  159.1041 N   0  0  0  0  0  0  0  0  0  0  0  0
  148.4820  144.6769  160.0714 C   0  0  0  0  0  0  0  0  0  0  0  0
  148.6242  144.2979  161.2344 O   0  0  0  0  0  0  0  0  0  0  0  0
  147.3596  145.2480  159.6103 N   0  0  0  0  0  0  0  0  0  0  0  0
  146.1535  145.4986  160.3942 C   0  0  0  0  0  0  0  0  0  0  0  0
  145.0876  146.2626  159.5877 C   0  0  2  0  0  0  0  0  0  0  0  0
  144.7066  145.6030  158.2535 C   0  0  0  0  0  0  0  0  0  0  0  0
  144.1060  146.6972  157.3713 C   0  0  0  0  0  0  0  0  0  0  0  0
  145.0352  147.9046  157.4949 C   0  0  0  0  0  0  0  0  0  0  0  0
  145.6275  147.9530  159.2056 S   0  0  0  0  0  0  0  0  0  0  0  0
  151.0093  142.8416  159.7104 N   0  0  0  0  0  0  0  0  0  0  0  0
  154.2889  140.5062  161.7019 H   0  0  0  0  0  0  0  0  0  0  0  0
  153.5014  142.0093  162.1736 H   0  0  0  0  0  0  0  0  0  0  0  0
  154.7899  142.0282  160.9697 H   0  0  0  0  0  0  0  0  0  0  0  0
  153.3397  140.6792  159.4147 H   0  0  0  0  0  0  0  0  0  0  0  0
  152.0652  140.6686  160.5998 H   0  0  0  0  0  0  0  0  0  0  0  0
  154.1945  143.6241  158.9941 H   0  0  0  0  0  0  0  0  0  0  0  0
  149.1496  144.9299  158.1941 H   0  0  0  0  0  0  0  0  0  0  0  0
  147.3344  145.5287  158.6410 H   0  0  0  0  0  0  0  0  0  0  0  0
  145.7543  144.5304  160.6976 H   0  0  0  0  0  0  0  0  0  0  0  0
  146.3888  146.0310  161.3174 H   0  0  0  0  0  0  0  0  0  0  0  0
  144.1843  146.3615  160.1911 H   0  0  0  0  0  0  0  0  0  0  0  0
  145.5975  145.2025  157.7675 H   0  0  0  0  0  0  0  0  0  0  0  0
  144.0142  144.7726  158.3948 H   0  0  0  0  0  0  0  0  0  0  0  0
  143.9971  146.3736  156.3358 H   0  0  0  0  0  0  0  0  0  0  0  0
  143.1124  146.9579  157.7384 H   0  0  0  0  0  0  0  0  0  0  0  0
  145.8979  147.7799  156.8399 H   0  0  0  0  0  0  0  0  0  0  0  0
  144.5404  148.8369  157.2220 H   0  0  0  0  0  0  0  0  0  0  0  0
  1  2  1  0  0  0  0
  1 18  1  0  0  0  0
  1 19  1  0  0  0  0
  1 20  1  0  0  0  0
  2  3  1  0  0  0  0
  2 21  1  0  0  0  0
  2 22  1  0  0  0  0
  3 17  1  0  0  0  0
  3  4  2  0  0  0  0
  4  5  1  0  0  0  0
  4 23  1  0  0  0  0
  5  6  1  0  0  0  0
  6  7  1  0  0  0  0
  6 17  2  0  0  0  0
  7  8  1  0  0  0  0
  7 24  1  0  0  0  0
  8  9  2  0  0  0  0
  8 10  1  0  0  0  0
 10 11  1  0  0  0  0
 10 25  1  0  0  0  0
 11 12  1  0  0  0  0
 11 26  1  0  0  0  0
 11 27  1  0  0  0  0
 12 16  1  0  0  0  0
 12 13  1  0  0  0  0
 12 28  1  0  0  0  0
 13 14  1  0  0  0  0
 13 29  1  0  0  0  0
 13 30  1  0  0  0  0
 14 15  1  0  0  0  0
 14 31  1  0  0  0  0
 14 32  1  0  0  0  0
 15 16  1  0  0  0  0
 15 33  1  0  0  0  0
 15 34  1  0  0  0  0
M  END
> <s_m_source_file>
AV-unprocessed.smi

> <i_m_source_file_index>
915

> <i_lp_mmshare_version>
43012

> <i_f3d_flags>
0

> <s_epik_input>
W0NIM11bQ0gyXWMxW2NIXXNjKG4xKVtOSF1DKD1PKVtOSF1bQ0gyXVtDQEBIXTJbQ0gyXVtDSDJdW0NIMl1TMg==

> <s_epik_cmdline>
J2VwaWtfcHl0aG9uJywgJy1waCcsICc3LjAnLCAnLXRuJywgJzgnLCAnLW1hJywgJzIwMCcsICctbWV0YWxfYmluZGluZycsICctaW1hZScsICc8aW5maWxlLm1hZT4nLCAnLW9tYWUnLCAnPG91dGZpbGUubWFlPic=

> <r_lp_tautomer_probability>
0.999

> <r_epik_Ionization_Penalty>
0.000460048

> <r_epik_Ionization_Penalty_Charging>
0

> <r_epik_Ionization_Penalty_Neutral>
0.000460048

> <r_epik_State_Penalty>
0.000177984

> <r_epik_Charging_Adjusted_Penalty>
0.000177984

> <i_epik_Tot_Q>
0

> <i_epik_Tot_abs_Q>
0

> <r_epik_Metal_State_Penalty>
0.00612978

> <b_epik_Metal_Only>
0

> <s_lp_Force_Field>
OPLS_2005

> <r_lp_Energy>
7.49707

> <b_lp_Chiralities_Consistent>
1

> <s_lp_Variant>
AV-unprocessed.smi:915-1

> <Gold.Version>
5.8.1

> <Gold.Id.Protein>
6NUR|6NUR_protein|mol2

> <Gold.PLP.Fitness>
47.4578

> <Gold.PLP.PLP>
-40.3646

> <Gold.PLP.part.hbond>
-3.8793

> <Gold.PLP.part.metal>
0.0000

> <Gold.PLP.part.buried>
-5.4433

> <Gold.PLP.part.nonpolar>
-31.7166

> <Gold.PLP.part.repulsive>
0.5186

> <Gold.PLP.ligand.clash>
0.0000

> <Gold.PLP.ligand.torsion>
0.4877

> <Gold.PLP.Chemscore.Hbond>
2.6873

> <Gold.PLP.Chemscore.CHOScore>
0.0000

> <Gold.PLP.Chemscore.Metal>
0.0000

> <Gold.Chemscore.Hbonds>
donor molecule, donor type, donor heavy atom, donor atom, acceptor molecule, acceptor atom, score
      L1  H     7    24       P1  8029  0.90
      L1  H    10    25       P1  8029  0.96
      P1  H  6933  6944       L1     9  0.82

> <Gold.PLP.Chemscore.Internal.Correction>
0.0068

> <Gold.Rescore>
     Score         DG    S(hbond)    S(metal)    S(lipo)     H(rot)  DE(clash)    DE(int)     intcor
     21.00     -21.55       2.67        0.00      90.85       1.36       0.01       0.54       ----

> <Gold.Chemscore.Fitness>
21.0036

> <Gold.Chemscore.DG>
-21.5535

> <Gold.Chemscore.ZeroCoef>
-5.4800

> <Gold.Chemscore.Hbond>
2.6725

> <Gold.Chemscore.Metal>
0.0000

> <Gold.Chemscore.Lipo>
90.8519

> <Gold.Chemscore.Internal_Hbond>
0.0000

> <Gold.Chemscore.DEClash>
0.0067

> <Gold.Chemscore.DEInternal>
0.5432

> <Gold.Chemscore.Rot>
1.3603

> <Gold.Chemscore.Internal.Correction>
   9.000000E+99

> <Gold.Chemscore.Hbonds>
donor molecule, donor type, donor heavy atom, donor atom, acceptor molecule, acceptor atom, score
      L1  H     7    24       P1  8029  0.39
      L1  H    10    25       P1  8029  0.91
      P1  H  6933  6944       L1     9  0.71

> <Gold.Chemscore.Hbond.Weighted>
-8.9263

> <Gold.Chemscore.Metal.Weighted>
-0.0000

> <Gold.Chemscore.Lipo.Weighted>
-10.6297

> <Gold.Chemscore.Internal_Hbond.Weighted>
0.0000

> <Gold.Chemscore.DEClash.Weighted>
0.0067

> <Gold.Chemscore.DEInternal.Weighted>
0.5432

> <Gold.Chemscore.Rot.Weighted>
3.4824

> <Gold.Chemscore.Internal.Correction.Weighted>
   9.000000E+99

> <Gold.Protein.RotatedTorsions>
[ 6907 6896 6895 6894 ] final  129.22 input  -60.11 | X-H torsion
[ 7974 7965 7964 7962 ] final -173.67 input  175.53 | X-H torsion
[ 8008 7997 7996 7995 ] final  -30.90 input   59.86 | X-H torsion
[ 10167 10162 10161 10158 ] final   46.82 input  -65.29 | X-H torsion
[ 10718 10713 10712 10709 ] final  -94.61 input   66.30 | X-H torsion
[ 10763 10752 10751 10750 ] final -108.82 input  -60.55 | X-H torsion
[ 11005 11000 10999 10996 ] final  156.31 input  -57.11 | X-H torsion

> <Gold.Protein.ActiveResidues>
 VAL166  LYS551  ARG553  GLY616  TRP617  ASP618  TYR619  PRO620  LYS621  CYS622 
 ASP623  PHE694  ASN695  SER759  ASP760  ASP761  ALA762  ILE779  LEU786  VAL792 
 PHE793  MET794  SER795  GLU796  ALA797  LYS798  CYS799  TRP800  GLU811  SER814 

> <Gold.Protein.RotatedAtoms>
  152.3645  133.6339  159.6039 H   0  0  0  0  0  0  0  0  0  0  0  0  # atno 6907 bound_to 6896
  150.7624  133.9370  159.3453 H   0  0  0  0  0  0  0  0  0  0  0  0  # atno 6908 bound_to 6896
  151.7203  135.0896  160.0334 H   0  0  0  0  0  0  0  0  0  0  0  0  # atno 6909 bound_to 6896
  144.7136  140.1586  143.6378 H   0  0  0  0  0  0  0  0  0  0  0  0  # atno 7974 bound_to 7965
  154.4233  140.1779  156.1481 H   0  0  0  0  0  0  0  0  0  0  0  0  # atno 8008 bound_to 7997
  155.9937  140.3366  155.6753 H   0  0  0  0  0  0  0  0  0  0  0  0  # atno 8009 bound_to 7997
  155.6338  140.0672  157.2631 H   0  0  0  0  0  0  0  0  0  0  0  0  # atno 8010 bound_to 7997
  140.3100  144.2832  150.6202 H   0  0  0  0  0  0  0  0  0  0  0  0  # atno 10167 bound_to 10162
  156.0030  130.5075  150.5953 H   0  0  0  0  0  0  0  0  0  0  0  0  # atno 10718 bound_to 10713
  154.8158  135.4624  154.0638 H   0  0  0  0  0  0  0  0  0  0  0  0  # atno 10763 bound_to 10752
  153.2033  135.6872  153.8211 H   0  0  0  0  0  0  0  0  0  0  0  0  # atno 10764 bound_to 10752
  153.7688  135.3273  155.3326 H   0  0  0  0  0  0  0  0  0  0  0  0  # atno 10765 bound_to 10752
  140.1663  134.8574  157.2636 H   0  0  0  0  0  0  0  0  0  0  0  0  # atno 11005 bound_to 11000
  145.9051  139.2453  143.1471 LP  0  0  0  0  0  0  0  0  0  0  0  0  # atno 17320 bound_to 7965
  145.9772  140.8712  143.0132 LP  0  0  0  0  0  0  0  0  0  0  0  0  # atno 17321 bound_to 7965
  140.5577  143.2196  151.7820 LP  0  0  0  0  0  0  0  0  0  0  0  0  # atno 17342 bound_to 10162
  139.4896  144.4392  151.9784 LP  0  0  0  0  0  0  0  0  0  0  0  0  # atno 17343 bound_to 10162
  157.3811  131.0781  151.1476 LP  0  0  0  0  0  0  0  0  0  0  0  0  # atno 17370 bound_to 10713
  157.2198  130.6476  149.5807 LP  0  0  0  0  0  0  0  0  0  0  0  0  # atno 17371 bound_to 10713
  140.2430  134.3773  155.7473 LP  0  0  0  0  0  0  0  0  0  0  0  0  # atno 17394 bound_to 11000
  141.2214  133.7275  156.8818 LP  0  0  0  0  0  0  0  0  0  0  0  0  # atno 17395 bound_to 11000

$$$$
