AV-unprocessed.smi:33|AV-procd|sdf|202|dock4
  -GOLD-   2262015483D 1   1.00000     0.00000
 Structure written by MMmdl.
 67 72  0  0  0  0  0  0  0  0  1 V2000
  151.6370  143.8974  157.7535 O   0  0  0  0  0  0  0  0  0  0  0  0
  151.2421  143.3630  158.7920 C   0  0  0  0  0  0  0  0  0  0  0  0
  149.9571  143.0228  159.0131 O   0  0  0  0  0  0  0  0  0  0  0  0
  149.0617  142.8938  157.9203 C   0  0  0  0  0  0  0  0  0  0  0  0
  149.2764  141.5408  157.2327 C   0  0  1  0  0  0  0  0  0  0  0  0
  148.0571  141.0837  156.6673 O   0  0  0  0  0  0  0  0  0  0  0  0
  148.3371  140.1118  155.7081 C   0  0  2  0  0  0  0  0  0  0  0  0
  148.2843  138.7750  156.3913 N   0  0  0  0  0  0  0  0  0  0  0  0
  147.3681  138.2749  157.2969 C   0  0  0  0  0  0  0  0  0  0  0  0
  147.5787  137.0476  157.6897 N   0  0  0  0  0  0  0  0  0  0  0  0
  148.7091  136.6599  156.9839 C   0  0  0  0  0  0  0  0  0  0  0  0
  149.4713  135.4627  156.9167 C   0  0  0  0  0  0  0  0  0  0  0  0
  149.1761  134.3632  157.6486 N   0  0  0  0  0  0  0  0  0  0  0  0
  148.9481  134.5513  159.0897 C   0  0  0  0  0  0  0  0  0  0  0  0
  149.4346  135.5314  159.6572 O   0  0  0  0  0  0  0  0  0  0  0  0
  148.1805  133.5318  159.8837 C   0  0  0  0  0  0  0  0  0  0  0  0
  148.3402  133.4638  161.2853 C   0  0  0  0  0  0  0  0  0  0  0  0
  147.6185  132.5170  162.0379 C   0  0  0  0  0  0  0  0  0  0  0  0
  146.7189  131.6445  161.3964 C   0  0  0  0  0  0  0  0  0  0  0  0
  146.5319  131.7272  160.0035 C   0  0  0  0  0  0  0  0  0  0  0  0
  147.2525  132.6742  159.2503 C   0  0  0  0  0  0  0  0  0  0  0  0
  149.1153  133.0831  156.9287 C   0  0  0  0  0  0  0  0  0  0  0  0
  149.3250  132.0321  157.5374 O   0  0  0  0  0  0  0  0  0  0  0  0
  148.8437  133.0519  155.4517 C   0  0  0  0  0  0  0  0  0  0  0  0
  147.8677  133.9064  154.8937 C   0  0  0  0  0  0  0  0  0  0  0  0
  147.6195  133.8904  153.5075 C   0  0  0  0  0  0  0  0  0  0  0  0
  148.3593  133.0353  152.6686 C   0  0  0  0  0  0  0  0  0  0  0  0
  149.3544  132.2024  153.2147 C   0  0  0  0  0  0  0  0  0  0  0  0
  149.6015  132.2156  154.6010 C   0  0  0  0  0  0  0  0  0  0  0  0
  150.5392  135.4323  156.0780 N   0  0  0  0  0  0  0  0  0  0  0  0
  150.8427  136.5123  155.3517 C   0  0  0  0  0  0  0  0  0  0  0  0
  150.2266  137.6967  155.3176 N   0  0  0  0  0  0  0  0  0  0  0  0
  149.1527  137.7293  156.1595 C   0  0  0  0  0  0  0  0  0  0  0  0
  149.7433  140.4173  155.1538 C   0  0  1  0  0  0  0  0  0  0  0  0
  149.7115  140.7907  153.7915 O   0  0  0  0  0  0  0  0  0  0  0  0
  150.2062  141.5864  156.0193 C   0  0  2  0  0  0  0  0  0  0  0  0
  151.4848  141.4535  156.3737 F   0  0  0  0  0  0  0  0  0  0  0  0
  152.1383  143.0296  159.9366 C   0  0  0  0  0  0  0  0  0  0  0  0
  151.9451  143.6786  161.1785 C   0  0  0  0  0  0  0  0  0  0  0  0
  152.7727  143.3832  162.2792 C   0  0  0  0  0  0  0  0  0  0  0  0
  153.8044  142.4354  162.1512 C   0  0  0  0  0  0  0  0  0  0  0  0
  154.0081  141.7836  160.9207 C   0  0  0  0  0  0  0  0  0  0  0  0
  153.1809  142.0774  159.8187 C   0  0  0  0  0  0  0  0  0  0  0  0
  148.0370  142.9578  158.2891 H   0  0  0  0  0  0  0  0  0  0  0  0
  149.2059  143.7107  157.2118 H   0  0  0  0  0  0  0  0  0  0  0  0
  149.6230  140.8049  157.9591 H   0  0  0  0  0  0  0  0  0  0  0  0
  147.5597  140.0713  154.9441 H   0  0  0  0  0  0  0  0  0  0  0  0
  146.5289  138.8456  157.6665 H   0  0  0  0  0  0  0  0  0  0  0  0
  149.0290  134.1273  161.7882 H   0  0  0  0  0  0  0  0  0  0  0  0
  147.7553  132.4607  163.1078 H   0  0  0  0  0  0  0  0  0  0  0  0
  146.1674  130.9173  161.9739 H   0  0  0  0  0  0  0  0  0  0  0  0
  145.8352  131.0643  159.5120 H   0  0  0  0  0  0  0  0  0  0  0  0
  147.0979  132.7304  158.1825 H   0  0  0  0  0  0  0  0  0  0  0  0
  147.2942  134.5663  155.5286 H   0  0  0  0  0  0  0  0  0  0  0  0
  146.8616  134.5353  153.0878 H   0  0  0  0  0  0  0  0  0  0  0  0
  148.1686  133.0242  151.6056 H   0  0  0  0  0  0  0  0  0  0  0  0
  149.9296  131.5540  152.5704 H   0  0  0  0  0  0  0  0  0  0  0  0
  150.3709  131.5758  155.0091 H   0  0  0  0  0  0  0  0  0  0  0  0
  151.7020  136.4136  154.7049 H   0  0  0  0  0  0  0  0  0  0  0  0
  150.3981  139.5520  155.2550 H   0  0  0  0  0  0  0  0  0  0  0  0
  149.1843  140.1634  153.3203 H   0  0  0  0  0  0  0  0  0  0  0  0
  150.0994  142.5362  155.4922 H   0  0  0  0  0  0  0  0  0  0  0  0
  151.1590  144.4096  161.3017 H   0  0  0  0  0  0  0  0  0  0  0  0
  152.6146  143.8851  163.2226 H   0  0  0  0  0  0  0  0  0  0  0  0
  154.4387  142.2090  162.9956 H   0  0  0  0  0  0  0  0  0  0  0  0
  154.8006  141.0566  160.8214 H   0  0  0  0  0  0  0  0  0  0  0  0
  153.3646  141.5594  158.8886 H   0  0  0  0  0  0  0  0  0  0  0  0
  1  2  2  0  0  0  0
  2  3  1  0  0  0  0
  2 38  1  0  0  0  0
  3  4  1  0  0  0  0
  4  5  1  0  0  0  0
  4 44  1  0  0  0  0
  4 45  1  0  0  0  0
  5 36  1  0  0  0  0
  5  6  1  0  0  0  0
  5 46  1  0  0  0  0
  6  7  1  0  0  0  0
  7  8  1  0  0  0  0
  7 34  1  0  0  0  0
  7 47  1  0  0  0  0
  8 33  1  0  0  0  0
  8  9  1  0  0  0  0
  9 10  2  0  0  0  0
  9 48  1  0  0  0  0
 10 11  1  0  0  0  0
 11 33  2  0  0  0  0
 11 12  1  0  0  0  0
 12 13  1  0  0  0  0
 12 30  2  0  0  0  0
 13 14  1  0  0  0  0
 13 22  1  0  0  0  0
 14 15  2  0  0  0  0
 14 16  1  0  0  0  0
 16 21  1  0  0  0  0
 16 17  2  0  0  0  0
 17 18  1  0  0  0  0
 17 49  1  0  0  0  0
 18 19  2  0  0  0  0
 18 50  1  0  0  0  0
 19 20  1  0  0  0  0
 19 51  1  0  0  0  0
 20 21  2  0  0  0  0
 20 52  1  0  0  0  0
 21 53  1  0  0  0  0
 22 23  2  0  0  0  0
 22 24  1  0  0  0  0
 24 29  1  0  0  0  0
 24 25  2  0  0  0  0
 25 26  1  0  0  0  0
 25 54  1  0  0  0  0
 26 27  2  0  0  0  0
 26 55  1  0  0  0  0
 27 28  1  0  0  0  0
 27 56  1  0  0  0  0
 28 29  2  0  0  0  0
 28 57  1  0  0  0  0
 29 58  1  0  0  0  0
 30 31  1  0  0  0  0
 31 32  2  0  0  0  0
 31 59  1  0  0  0  0
 32 33  1  0  0  0  0
 34 35  1  0  0  0  0
 34 36  1  0  0  0  0
 34 60  1  0  0  0  0
 35 61  1  0  0  0  0
 36 37  1  0  0  0  0
 36 62  1  0  0  0  0
 38 43  1  0  0  0  0
 38 39  2  0  0  0  0
 39 40  1  0  0  0  0
 39 63  1  0  0  0  0
 40 41  2  0  0  0  0
 40 64  1  0  0  0  0
 41 42  1  0  0  0  0
 41 65  1  0  0  0  0
 42 43  2  0  0  0  0
 42 66  1  0  0  0  0
 43 67  1  0  0  0  0
M  END
> <s_m_source_file>
AV-unprocessed.smi

> <i_m_source_file_index>
33

> <i_lp_mmshare_version>
43012

> <i_f3d_flags>
0

> <s_epik_input>
W2NIXTFbY0hdW2NIXVtjSF1bY0hdYzFDKD1PKU9bQ0gyXVtDQEBIXTJPW0NASF0oW0NAQEhdKFtPSF0pW0NAQEhdMkYpbihbY0hdbjMpYyhjMzQpbltjSF1uYzROKEMoPU8pYzVbY0hdW2NIXVtjSF1bY0hdW2NIXTUpQyg9TyljNltjSF1bY0hdW2NIXVtjSF1bY0hdNg==

> <s_epik_cmdline>
J2VwaWtfcHl0aG9uJywgJy1waCcsICc3LjAnLCAnLXRuJywgJzgnLCAnLW1hJywgJzIwMCcsICctbWV0YWxfYmluZGluZycsICctaW1hZScsICc8aW5maWxlLm1hZT4nLCAnLW9tYWUnLCAnPG91dGZpbGUubWFlPic=

> <r_lp_tautomer_probability>
1

> <r_epik_Ionization_Penalty>
0.00067664

> <r_epik_Ionization_Penalty_Charging>
0

> <r_epik_Ionization_Penalty_Neutral>
0.00067664

> <r_epik_State_Penalty>
0.000428095

> <r_epik_Charging_Adjusted_Penalty>
0.000428095

> <i_epik_Tot_Q>
0

> <i_epik_Tot_abs_Q>
0

> <r_epik_Metal_State_Penalty>
-0

> <b_epik_Metal_Only>
0

> <s_epik_Chemistry_Notes>
This compound has an ester and may undergo hydrolysis at high or low pH. This compound contains an acetal/aminal-like group ( X-CH(R)-Y where X, Y are N, S, or O) that may be acid/base labile, releasing an aldehyde.

> <s_lp_Force_Field>
OPLS_2005

> <r_lp_Energy>
69.1038

> <b_lp_Chiralities_Consistent>
1

> <s_lp_Variant>
AV-unprocessed.smi:33-4

> <Gold.Version>
5.8.1

> <Gold.Id.Protein>
6NUR|6NUR_protein|mol2

> <Gold.PLP.Fitness>
56.8915

> <Gold.PLP.PLP>
-55.9467

> <Gold.PLP.part.hbond>
-4.1286

> <Gold.PLP.part.metal>
0.0000

> <Gold.PLP.part.buried>
-3.6143

> <Gold.PLP.part.nonpolar>
-47.9260

> <Gold.PLP.part.repulsive>
0.4114

> <Gold.PLP.ligand.clash>
0.0000

> <Gold.PLP.ligand.torsion>
4.7534

> <Gold.PLP.Chemscore.Hbond>
2.2400

> <Gold.PLP.Chemscore.CHOScore>
0.0000

> <Gold.PLP.Chemscore.Metal>
0.0000

> <Gold.Chemscore.Hbonds>
donor molecule, donor type, donor heavy atom, donor atom, acceptor molecule, acceptor atom, score
      L1  H    35    61       P1  7957  0.16
      P1  H  6896  6907       L1    15  0.55
      P1  H  7989  7998       L1    35  0.44
      P1  H  8011  8017       L1    35  0.62

> <Gold.PLP.Chemscore.Internal.Correction>
3.7316

> <Gold.Rescore>
     Score         DG    S(hbond)    S(metal)    S(lipo)     H(rot)  DE(clash)    DE(int)     intcor
      7.17     -20.11       1.48        0.00     138.04       2.52       0.37      12.56       ----

> <Gold.Chemscore.Fitness>
7.1745

> <Gold.Chemscore.DG>
-20.1079

> <Gold.Chemscore.ZeroCoef>
-5.4800

> <Gold.Chemscore.Hbond>
1.4791

> <Gold.Chemscore.Metal>
0.0000

> <Gold.Chemscore.Lipo>
138.0412

> <Gold.Chemscore.Internal_Hbond>
0.0000

> <Gold.Chemscore.DEClash>
0.3694

> <Gold.Chemscore.DEInternal>
12.5640

> <Gold.Chemscore.Rot>
2.5247

> <Gold.Chemscore.Internal.Correction>
   9.000000E+99

> <Gold.Chemscore.Hbonds>
donor molecule, donor type, donor heavy atom, donor atom, acceptor molecule, acceptor atom, score
      L1  H    35    61       P1  7957  0.17
      P1  H  6896  6907       L1    15  0.03
      P1  H  7989  7998       L1    35  0.10
      P1  H  8011  8017       L1    35  0.18

> <Gold.Chemscore.Hbond.Weighted>
-4.9403

> <Gold.Chemscore.Metal.Weighted>
-0.0000

> <Gold.Chemscore.Lipo.Weighted>
-16.1508

> <Gold.Chemscore.Internal_Hbond.Weighted>
0.0000

> <Gold.Chemscore.DEClash.Weighted>
0.3694

> <Gold.Chemscore.DEInternal.Weighted>
12.5640

> <Gold.Chemscore.Rot.Weighted>
6.4633

> <Gold.Chemscore.Internal.Correction.Weighted>
   9.000000E+99

> <Gold.Protein.RotatedTorsions>
[ 6907 6896 6895 6894 ] final  -49.62 input  -60.11 | X-H torsion
[ 7974 7965 7964 7962 ] final   97.01 input  175.53 | X-H torsion
[ 8008 7997 7996 7995 ] final  124.43 input   59.86 | X-H torsion
[ 10167 10162 10161 10158 ] final -157.02 input  -65.29 | X-H torsion
[ 10718 10713 10712 10709 ] final  160.35 input   66.30 | X-H torsion
[ 10763 10752 10751 10750 ] final  -13.61 input  -60.55 | X-H torsion
[ 11005 11000 10999 10996 ] final  -73.84 input  -57.11 | X-H torsion

> <Gold.Protein.ActiveResidues>
 VAL166  LYS551  ARG553  GLY616  TRP617  ASP618  TYR619  PRO620  LYS621  CYS622 
 ASP623  PHE694  ASN695  SER759  ASP760  ASP761  ALA762  ILE779  LEU786  VAL792 
 PHE793  MET794  SER795  GLU796  ALA797  LYS798  CYS799  TRP800  GLU811  SER814 

> <Gold.Protein.RotatedAtoms>
  150.8787  134.8174  159.7208 H   0  0  0  0  0  0  0  0  0  0  0  0  # atno 6907 bound_to 6896
  152.4764  134.4830  159.9681 H   0  0  0  0  0  0  0  0  0  0  0  0  # atno 6908 bound_to 6896
  151.4908  133.3486  159.2888 H   0  0  0  0  0  0  0  0  0  0  0  0  # atno 6909 bound_to 6896
  145.4313  139.2310  143.3143 H   0  0  0  0  0  0  0  0  0  0  0  0  # atno 7974 bound_to 7965
  156.2801  140.2740  156.1787 H   0  0  0  0  0  0  0  0  0  0  0  0  # atno 8008 bound_to 7997
  155.0579  140.0386  157.2584 H   0  0  0  0  0  0  0  0  0  0  0  0  # atno 8009 bound_to 7997
  154.7141  140.2674  155.6607 H   0  0  0  0  0  0  0  0  0  0  0  0  # atno 8010 bound_to 7997
  139.6804  143.9592  152.2333 H   0  0  0  0  0  0  0  0  0  0  0  0  # atno 10167 bound_to 10162
  157.1517  131.0565  151.2277 H   0  0  0  0  0  0  0  0  0  0  0  0  # atno 10718 bound_to 10713
  153.5158  135.7016  153.5757 H   0  0  0  0  0  0  0  0  0  0  0  0  # atno 10763 bound_to 10752
  153.3827  135.3916  155.1868 H   0  0  0  0  0  0  0  0  0  0  0  0  # atno 10764 bound_to 10752
  154.8699  135.3839  154.4643 H   0  0  0  0  0  0  0  0  0  0  0  0  # atno 10765 bound_to 10752
  141.1628  133.6891  156.7273 H   0  0  0  0  0  0  0  0  0  0  0  0  # atno 11005 bound_to 11000
  146.2606  140.5050  142.8855 LP  0  0  0  0  0  0  0  0  0  0  0  0  # atno 17320 bound_to 7965
  144.8181  140.6503  143.6371 LP  0  0  0  0  0  0  0  0  0  0  0  0  # atno 17321 bound_to 7965
  139.9380  144.6699  150.8295 LP  0  0  0  0  0  0  0  0  0  0  0  0  # atno 17342 bound_to 10162
  140.7650  143.3263  151.2508 LP  0  0  0  0  0  0  0  0  0  0  0  0  # atno 17343 bound_to 10162
  157.4215  130.7440  149.6917 LP  0  0  0  0  0  0  0  0  0  0  0  0  # atno 17370 bound_to 10713
  155.9769  130.4069  150.3745 LP  0  0  0  0  0  0  0  0  0  0  0  0  # atno 17371 bound_to 10713
  140.2771  134.8346  157.3900 LP  0  0  0  0  0  0  0  0  0  0  0  0  # atno 17394 bound_to 11000
  140.1467  134.4902  155.7991 LP  0  0  0  0  0  0  0  0  0  0  0  0  # atno 17395 bound_to 11000

$$$$
