AV-unprocessed.smi:1782|AV-procd|sdf|7189|dock6
  -GOLD-   22720 8433D 1   1.00000     0.00000
 Structure written by MMmdl.
 42 44  0  0  0  0  0  0  0  0  2 V2000
  149.6986  140.4859  157.2216 O   0  0  0  0  0  0  0  0  0  0  0  0
  149.9573  141.1156  156.1952 C   0  0  0  0  0  0  0  0  0  0  0  0
  151.0266  142.2173  156.1980 C   0  0  0  0  0  0  0  0  0  0  0  0
  151.5776  142.4843  157.5379 N   0  0  0  0  0  0  0  0  0  0  0  0
  151.2336  143.7094  158.1368 C   0  0  0  0  0  0  0  0  0  0  0  0
  151.6832  144.0511  159.3516 C   0  0  0  0  0  0  0  0  0  0  0  0
  152.5414  143.1237  160.0476 C   0  0  0  0  0  0  0  0  0  0  0  0
  152.8928  141.9392  159.4958 C   0  0  0  0  0  0  0  0  0  0  0  0
  153.8016  140.9469  160.2177 C   0  0  0  0  0  0  0  0  0  0  0  0
  155.0439  141.0145  159.7375 F   0  0  0  0  0  0  0  0  0  0  0  0
  153.8445  141.2151  161.5233 F   0  0  0  0  0  0  0  0  0  0  0  0
  153.3766  139.6907  160.0734 F   0  0  0  0  0  0  0  0  0  0  0  0
  152.3933  141.5733  158.1544 C   0  0  0  0  0  0  0  0  0  0  0  0
  152.6880  140.5087  157.6078 O   0  0  0  0  0  0  0  0  0  0  0  0
  149.3524  140.8822  155.0214 N   0  0  0  0  0  0  0  0  0  0  0  0
  148.3045  139.8898  154.8113 C   0  0  1  0  0  0  0  0  0  0  0  0
  147.4793  140.0955  153.5442 C   0  0  0  0  0  0  0  0  0  0  0  0
  146.8747  138.7065  153.3113 C   0  0  0  0  0  0  0  0  0  0  0  0
  147.8166  137.7250  153.9055 N   0  3  2  0  0  0  0  0  0  0  0  0
  147.1570  136.7189  154.7662 C   0  0  0  0  0  0  0  0  0  0  0  0
  147.9756  135.4659  154.9664 C   0  0  0  0  0  0  0  0  0  0  0  0
  146.7823  135.4516  154.0357 C   0  0  0  0  0  0  0  0  0  0  0  0
  148.8783  138.4898  154.5965 C   0  0  0  0  0  0  0  0  0  0  0  0
  151.8177  141.9214  155.5074 H   0  0  0  0  0  0  0  0  0  0  0  0
  150.6106  143.1350  155.7776 H   0  0  0  0  0  0  0  0  0  0  0  0
  150.5932  144.3495  157.5475 H   0  0  0  0  0  0  0  0  0  0  0  0
  151.4137  144.9977  159.7967 H   0  0  0  0  0  0  0  0  0  0  0  0
  152.9028  143.3970  161.0277 H   0  0  0  0  0  0  0  0  0  0  0  0
  149.6282  141.4396  154.2254 H   0  0  0  0  0  0  0  0  0  0  0  0
  147.6403  139.8696  155.6779 H   0  0  0  0  0  0  0  0  0  0  0  0
  146.7219  140.8731  153.6488 H   0  0  0  0  0  0  0  0  0  0  0  0
  148.1274  140.3651  152.7087 H   0  0  0  0  0  0  0  0  0  0  0  0
  145.9045  138.6459  153.8076 H   0  0  0  0  0  0  0  0  0  0  0  0
  146.7141  138.5025  152.2524 H   0  0  0  0  0  0  0  0  0  0  0  0
  146.5280  137.1023  155.5681 H   0  0  0  0  0  0  0  0  0  0  0  0
  148.9654  135.4196  154.5157 H   0  0  0  0  0  0  0  0  0  0  0  0
  147.8728  134.9448  155.9163 H   0  0  0  0  0  0  0  0  0  0  0  0
  145.8940  134.9212  154.3729 H   0  0  0  0  0  0  0  0  0  0  0  0
  146.9800  135.3943  152.9667 H   0  0  0  0  0  0  0  0  0  0  0  0
  149.7444  138.5305  153.9341 H   0  0  0  0  0  0  0  0  0  0  0  0
  149.2000  138.0230  155.5288 H   0  0  0  0  0  0  0  0  0  0  0  0
  148.2592  137.2236  153.1485 H   0  0  0  0  0  0  0  0  0  0  0  0
  1  2  2  0  0  0  0
  2  3  1  0  0  0  0
  2 15  1  0  0  0  0
  3  4  1  0  0  0  0
  3 24  1  0  0  0  0
  3 25  1  0  0  0  0
  4 13  1  0  0  0  0
  4  5  1  0  0  0  0
  5  6  2  0  0  0  0
  5 26  1  0  0  0  0
  6  7  1  0  0  0  0
  6 27  1  0  0  0  0
  7  8  2  0  0  0  0
  7 28  1  0  0  0  0
  8  9  1  0  0  0  0
  8 13  1  0  0  0  0
  9 10  1  0  0  0  0
  9 11  1  0  0  0  0
  9 12  1  0  0  0  0
 13 14  2  0  0  0  0
 15 16  1  0  0  0  0
 15 29  1  0  0  0  0
 16 23  1  0  0  0  0
 16 17  1  0  0  0  0
 16 30  1  0  0  0  0
 17 18  1  0  0  0  0
 17 31  1  0  0  0  0
 17 32  1  0  0  0  0
 18 19  1  0  0  0  0
 18 33  1  0  0  0  0
 18 34  1  0  0  0  0
 19 20  1  0  0  0  0
 19 23  1  0  0  0  0
 19 42  1  0  0  0  0
 20 22  1  0  0  0  0
 20 21  1  0  0  0  0
 20 35  1  0  0  0  0
 21 22  1  0  0  0  0
 21 36  1  0  0  0  0
 21 37  1  0  0  0  0
 22 38  1  0  0  0  0
 22 39  1  0  0  0  0
 23 40  1  0  0  0  0
 23 41  1  0  0  0  0
M  CHG  1  19   1
M  END
> <s_m_source_file>
AV-unprocessed.smi

> <i_m_source_file_index>
1782

> <i_lp_mmshare_version>
43012

> <i_f3d_flags>
0

> <s_epik_input>
W0NIMl0xW0NIMl1bQ0hdMU4oW0NIMl0yKVtDSDJdW0NIMl1bQ0BIXTJbTkhdQyg9TylbQ0gyXW4zW2NIXVtjSF1bY0hdYyhDKEYpKEYpRiljMz1P

> <s_epik_cmdline>
J2VwaWtfcHl0aG9uJywgJy1waCcsICc3LjAnLCAnLXRuJywgJzgnLCAnLW1hJywgJzIwMCcsICctbWV0YWxfYmluZGluZycsICctaW1hZScsICc8aW5maWxlLm1hZT4nLCAnLW9tYWUnLCAnPG91dGZpbGUubWFlPic=

> <r_lp_tautomer_probability>
1

> <r_epik_Ionization_Penalty>
0.00106789

> <r_epik_Ionization_Penalty_Charging>
0.00106781

> <r_epik_Ionization_Penalty_Neutral>
8.2288e-08

> <r_epik_State_Penalty>
0.000699156

> <r_epik_Charging_Adjusted_Penalty>
0.00176697

> <i_epik_Tot_Q>
1

> <i_epik_Tot_abs_Q>
1

> <r_epik_Metal_State_Penalty>
-0

> <b_epik_Metal_Only>
0

> <s_lp_Force_Field>
OPLS_2005

> <r_lp_Energy>
46.9995

> <b_lp_Chiralities_Consistent>
1

> <s_lp_Variant>
AV-unprocessed.smi:1782-2

> <Gold.Version>
5.8.1

> <Gold.Id.Protein>
6NUR|6NUR_protein|mol2

> <Gold.PLP.Fitness>
47.6539

> <Gold.PLP.PLP>
-38.5922

> <Gold.PLP.part.hbond>
-2.0000

> <Gold.PLP.part.metal>
0.0000

> <Gold.PLP.part.buried>
-2.4491

> <Gold.PLP.part.nonpolar>
-31.7183

> <Gold.PLP.part.repulsive>
0.1566

> <Gold.PLP.ligand.clash>
0.2934

> <Gold.PLP.ligand.torsion>
1.7984

> <Gold.PLP.Chemscore.Hbond>
2.7823

> <Gold.PLP.Chemscore.CHOScore>
1.0000

> <Gold.PLP.Chemscore.Metal>
0.0000

> <Gold.Chemscore.Hbonds>
donor molecule, donor type, donor heavy atom, donor atom, acceptor molecule, acceptor atom, score
      L1  H    19    42       P1  7948  2.00
      P1  H  7997  8009       L1    14  0.83
      L1  C     5    26       P1  8028  0.98

> <Gold.PLP.Chemscore.Internal.Correction>
1.6049

> <Gold.Rescore>
     Score         DG    S(hbond)    S(metal)    S(lipo)     H(rot)  DE(clash)    DE(int)     intcor
     14.08     -16.96       1.90        0.00      83.57       1.81       0.14       2.75       ----

> <Gold.Chemscore.Fitness>
14.0760

> <Gold.Chemscore.DG>
-16.9623

> <Gold.Chemscore.ZeroCoef>
-5.4800

> <Gold.Chemscore.Hbond>
1.8979

> <Gold.Chemscore.Metal>
0.0000

> <Gold.Chemscore.Lipo>
83.5656

> <Gold.Chemscore.Internal_Hbond>
0.0000

> <Gold.Chemscore.DEClash>
0.1405

> <Gold.Chemscore.DEInternal>
2.7458

> <Gold.Chemscore.Rot>
1.8101

> <Gold.Chemscore.Internal.Correction>
   9.000000E+99

> <Gold.Chemscore.Hbonds>
donor molecule, donor type, donor heavy atom, donor atom, acceptor molecule, acceptor atom, score
      L1  H    19    42       P1  7948  1.00
      P1  H  7997  8009       L1    14  0.82

> <Gold.Chemscore.Hbond.Weighted>
-6.3389

> <Gold.Chemscore.Metal.Weighted>
-0.0000

> <Gold.Chemscore.Lipo.Weighted>
-9.7772

> <Gold.Chemscore.Internal_Hbond.Weighted>
0.0000

> <Gold.Chemscore.DEClash.Weighted>
0.1405

> <Gold.Chemscore.DEInternal.Weighted>
2.7458

> <Gold.Chemscore.Rot.Weighted>
4.6338

> <Gold.Chemscore.Internal.Correction.Weighted>
   9.000000E+99

> <Gold.Protein.RotatedTorsions>
[ 6907 6896 6895 6894 ] final -119.33 input  -60.11 | X-H torsion
[ 7974 7965 7964 7962 ] final -119.56 input  175.53 | X-H torsion
[ 8008 7997 7996 7995 ] final  174.73 input   59.86 | X-H torsion
[ 10167 10162 10161 10158 ] final  -29.82 input  -65.29 | X-H torsion
[ 10718 10713 10712 10709 ] final   44.34 input   66.30 | X-H torsion
[ 10763 10752 10751 10750 ] final   98.86 input  -60.55 | X-H torsion
[ 11005 11000 10999 10996 ] final  107.27 input  -57.11 | X-H torsion

> <Gold.Protein.ActiveResidues>
 VAL166  LYS551  ARG553  GLY616  TRP617  ASP618  TYR619  PRO620  LYS621  CYS622 
 ASP623  PHE694  ASN695  SER759  ASP760  ASP761  ALA762  ILE779  LEU786  VAL792 
 PHE793  MET794  SER795  GLU796  ALA797  LYS798  CYS799  TRP800  GLU811  SER814 

> <Gold.Protein.RotatedAtoms>
  150.8296  133.8113  159.3103 H   0  0  0  0  0  0  0  0  0  0  0  0  # atno 6907 bound_to 6896
  151.5847  135.1055  160.0035 H   0  0  0  0  0  0  0  0  0  0  0  0  # atno 6908 bound_to 6896
  152.4377  133.7349  159.6665 H   0  0  0  0  0  0  0  0  0  0  0  0  # atno 6909 bound_to 6896
  145.0612  140.8291  143.4151 H   0  0  0  0  0  0  0  0  0  0  0  0  # atno 7974 bound_to 7965
  156.0944  140.1427  156.9550 H   0  0  0  0  0  0  0  0  0  0  0  0  # atno 8008 bound_to 7997
  154.4662  140.0925  156.7072 H   0  0  0  0  0  0  0  0  0  0  0  0  # atno 8009 bound_to 7997
  155.4866  140.3446  155.4350 H   0  0  0  0  0  0  0  0  0  0  0  0  # atno 8010 bound_to 7997
  140.7256  143.3898  151.1450 H   0  0  0  0  0  0  0  0  0  0  0  0  # atno 10167 bound_to 10162
  157.4257  130.7995  149.7557 H   0  0  0  0  0  0  0  0  0  0  0  0  # atno 10718 bound_to 10713
  153.2942  135.4133  155.1194 H   0  0  0  0  0  0  0  0  0  0  0  0  # atno 10763 bound_to 10752
  154.8530  135.3526  154.5940 H   0  0  0  0  0  0  0  0  0  0  0  0  # atno 10764 bound_to 10752
  153.6363  135.7058  153.5315 H   0  0  0  0  0  0  0  0  0  0  0  0  # atno 10765 bound_to 10752
  139.8825  134.9395  156.5793 H   0  0  0  0  0  0  0  0  0  0  0  0  # atno 11005 bound_to 11000
  145.1407  139.2574  143.5492 LP  0  0  0  0  0  0  0  0  0  0  0  0  # atno 17320 bound_to 7965
  146.3524  140.1083  142.8605 LP  0  0  0  0  0  0  0  0  0  0  0  0  # atno 17321 bound_to 7965
  139.7501  143.8791  152.3074 LP  0  0  0  0  0  0  0  0  0  0  0  0  # atno 17342 bound_to 10162
  139.8642  144.7101  150.9063 LP  0  0  0  0  0  0  0  0  0  0  0  0  # atno 17343 bound_to 10162
  155.9896  130.3951  150.3067 LP  0  0  0  0  0  0  0  0  0  0  0  0  # atno 17370 bound_to 10713
  157.1219  131.0249  151.3006 LP  0  0  0  0  0  0  0  0  0  0  0  0  # atno 17371 bound_to 10713
  140.8039  133.8483  155.8750 LP  0  0  0  0  0  0  0  0  0  0  0  0  # atno 17394 bound_to 11000
  140.9568  134.1708  157.4685 LP  0  0  0  0  0  0  0  0  0  0  0  0  # atno 17395 bound_to 11000

$$$$
