AV-unprocessed.smi:1513|AV-procd|sdf|6113|dock4
  -GOLD-   22720 6243D 1   1.00000     0.00000
 Structure written by MMmdl.
 33 34  0  0  0  0  0  0  0  0  4 V2000
  154.0633  138.9389  154.6994 N   0  5  0  0  0  0  0  0  0  0  0  0
  152.6417  138.7103  155.4411 S   0  0  0  0  0  0  0  0  0  0  0  0
  151.5815  139.4147  154.7050 O   0  0  0  0  0  0  0  0  0  0  0  0
  152.3905  137.2810  155.6941 O   0  0  0  0  0  0  0  0  0  0  0  0
  153.0109  139.5359  156.7985 N   0  5  0  0  0  0  0  0  0  0  0  0
  152.0247  139.8055  157.8405 C   0  0  0  0  0  0  0  0  0  0  0  0
  151.8082  141.3120  158.0213 C   0  0  0  0  0  0  0  0  0  0  0  0
  152.7457  142.0363  158.7999 C   0  0  0  0  0  0  0  0  0  0  0  0
  152.5877  143.4233  158.9889 C   0  0  0  0  0  0  0  0  0  0  0  0
  151.4895  144.0717  158.3986 C   0  0  0  0  0  0  0  0  0  0  0  0
  150.6091  143.3611  157.6650 N   0  3  0  0  0  0  0  0  0  0  0  0
  150.7078  142.0246  157.4462 C   0  0  0  0  0  0  0  0  0  0  0  0
  149.6903  141.4311  156.6693 N   0  0  0  0  0  0  0  0  0  0  0  0
  148.3569  141.6349  157.2227 C   0  0  0  0  0  0  0  0  0  0  0  0
  147.3132  140.8601  156.3992 C   0  0  0  0  0  0  0  0  0  0  0  0
  147.4122  141.2308  155.0268 O   0  0  0  0  0  0  0  0  0  0  0  0
  148.6937  140.9231  154.4862 C   0  0  0  0  0  0  0  0  0  0  0  0
  149.7680  141.7211  155.2428 C   0  0  0  0  0  0  0  0  0  0  0  0
  154.1254  138.2802  153.9138 H   0  0  0  0  0  0  0  0  0  0  0  0
  151.0664  139.3334  157.6211 H   0  0  0  0  0  0  0  0  0  0  0  0
  152.3292  139.4050  158.8079 H   0  0  0  0  0  0  0  0  0  0  0  0
  153.5927  141.5477  159.2631 H   0  0  0  0  0  0  0  0  0  0  0  0
  153.2993  143.9789  159.5816 H   0  0  0  0  0  0  0  0  0  0  0  0
  151.2870  145.1285  158.4926 H   0  0  0  0  0  0  0  0  0  0  0  0
  148.3329  141.3023  158.2613 H   0  0  0  0  0  0  0  0  0  0  0  0
  148.1171  142.6987  157.2179 H   0  0  0  0  0  0  0  0  0  0  0  0
  147.4521  139.7836  156.5028 H   0  0  0  0  0  0  0  0  0  0  0  0
  146.3091  141.0856  156.7581 H   0  0  0  0  0  0  0  0  0  0  0  0
  148.8837  139.8504  154.5532 H   0  0  0  0  0  0  0  0  0  0  0  0
  148.7055  141.1845  153.4281 H   0  0  0  0  0  0  0  0  0  0  0  0
  149.6220  142.7880  155.0699 H   0  0  0  0  0  0  0  0  0  0  0  0
  150.7597  141.4628  154.8694 H   0  0  0  0  0  0  0  0  0  0  0  0
  149.8169  143.8552  157.2548 H   0  0  0  0  0  0  0  0  0  0  0  0
  1  2  1  0  0  0  0
  1 19  1  0  0  0  0
  2  3  2  0  0  0  0
  2  4  2  0  0  0  0
  2  5  1  0  0  0  0
  5  6  1  0  0  0  0
  6  7  1  0  0  0  0
  6 20  1  0  0  0  0
  6 21  1  0  0  0  0
  7 12  1  0  0  0  0
  7  8  2  0  0  0  0
  8  9  1  0  0  0  0
  8 22  1  0  0  0  0
  9 10  2  0  0  0  0
  9 23  1  0  0  0  0
 10 11  1  0  0  0  0
 10 24  1  0  0  0  0
 11 12  2  0  0  0  0
 11 33  1  0  0  0  0
 12 13  1  0  0  0  0
 13 18  1  0  0  0  0
 13 14  1  0  0  0  0
 14 15  1  0  0  0  0
 14 25  1  0  0  0  0
 14 26  1  0  0  0  0
 15 16  1  0  0  0  0
 15 27  1  0  0  0  0
 15 28  1  0  0  0  0
 16 17  1  0  0  0  0
 17 18  1  0  0  0  0
 17 29  1  0  0  0  0
 17 30  1  0  0  0  0
 18 31  1  0  0  0  0
 18 32  1  0  0  0  0
M  CHG  1   1  -1
M  CHG  1   5  -1
M  CHG  1  11   1
M  END
> <s_m_source_file>
AV-unprocessed.smi

> <i_m_source_file_index>
1513

> <i_lp_mmshare_version>
43012

> <i_f3d_flags>
0

> <s_epik_input>
W05IMl1TKD1PKSg9TylbTkhdW0NIMl1jMVtjSF1bY0hdW2NIXW5jMU4yW0NIMl1bQ0gyXU9bQ0gyXVtDSDJdMg==

> <s_epik_cmdline>
J2VwaWtfcHl0aG9uJywgJy1waCcsICc3LjAnLCAnLXRuJywgJzgnLCAnLW1hJywgJzIwMCcsICctbWV0YWxfYmluZGluZycsICctaW1hZScsICc8aW5maWxlLm1hZT4nLCAnLW9tYWUnLCAnPG91dGZpbGUubWFlPic=

> <r_epik_Ionization_Penalty>
8.77184

> <r_epik_Ionization_Penalty_Charging>
8.77184

> <r_epik_Ionization_Penalty_Neutral>
3.18713e-12

> <r_epik_State_Penalty>
5.60098

> <r_epik_Charging_Adjusted_Penalty>
14.3728

> <i_epik_Tot_Q>
-1

> <i_epik_Tot_abs_Q>
3

> <r_epik_Metal_State_Penalty>
2.46454

> <b_epik_Metal_Only>
1

> <s_lp_Force_Field>
OPLS_2005

> <r_lp_Energy>
20.8309

> <b_lp_Chiralities_Consistent>
1

> <s_lp_Variant>
AV-unprocessed.smi:1513-6

> <Gold.Version>
5.8.1

> <Gold.Id.Protein>
6NUR|6NUR_protein|mol2

> <Gold.PLP.Fitness>
50.9876

> <Gold.PLP.PLP>
-32.3765

> <Gold.PLP.part.hbond>
-4.8782

> <Gold.PLP.part.metal>
0.0000

> <Gold.PLP.part.buried>
-5.2534

> <Gold.PLP.part.nonpolar>
-22.8329

> <Gold.PLP.part.repulsive>
0.2807

> <Gold.PLP.ligand.clash>
0.0000

> <Gold.PLP.ligand.torsion>
1.0764

> <Gold.PLP.Chemscore.Hbond>
6.5360

> <Gold.PLP.Chemscore.CHOScore>
0.0000

> <Gold.PLP.Chemscore.Metal>
0.0000

> <Gold.Chemscore.Hbonds>
donor molecule, donor type, donor heavy atom, donor atom, acceptor molecule, acceptor atom, score
      L1  H    11    33       P1  8028  2.00
      P1  H  7989  7998       L1     3  1.00
      P1  H  7997  8008       L1     1  0.77
      P1  H  7997  8010       L1     5  2.00
      P1  H 10752 10764       L1     4  0.75

> <Gold.PLP.Chemscore.Internal.Correction>
1.1558

> <Gold.Rescore>
     Score         DG    S(hbond)    S(metal)    S(lipo)     H(rot)  DE(clash)    DE(int)     intcor
     17.86     -19.65       3.33        0.00      67.45       1.89       0.50       1.29       ----

> <Gold.Chemscore.Fitness>
17.8606

> <Gold.Chemscore.DG>
-19.6546

> <Gold.Chemscore.ZeroCoef>
-5.4800

> <Gold.Chemscore.Hbond>
3.3316

> <Gold.Chemscore.Metal>
0.0000

> <Gold.Chemscore.Lipo>
67.4466

> <Gold.Chemscore.Internal_Hbond>
0.0000

> <Gold.Chemscore.DEClash>
0.5022

> <Gold.Chemscore.DEInternal>
1.2918

> <Gold.Chemscore.Rot>
1.8922

> <Gold.Chemscore.Internal.Correction>
   9.000000E+99

> <Gold.Chemscore.Hbonds>
donor molecule, donor type, donor heavy atom, donor atom, acceptor molecule, acceptor atom, score
      L1  H    11    33       P1  8028  0.71
      P1  H  7989  7998       L1     3  0.99
      P1  H  7997  8008       L1     1  0.37
      P1  H  7997  8010       L1     5  0.79
      P1  H 10752 10764       L1     4  0.71

> <Gold.Chemscore.Hbond.Weighted>
-11.1275

> <Gold.Chemscore.Metal.Weighted>
-0.0000

> <Gold.Chemscore.Lipo.Weighted>
-7.8912

> <Gold.Chemscore.Internal_Hbond.Weighted>
0.0000

> <Gold.Chemscore.DEClash.Weighted>
0.5022

> <Gold.Chemscore.DEInternal.Weighted>
1.2918

> <Gold.Chemscore.Rot.Weighted>
4.8441

> <Gold.Chemscore.Internal.Correction.Weighted>
   9.000000E+99

> <Gold.Protein.RotatedTorsions>
[ 6907 6896 6895 6894 ] final  -55.43 input  -60.11 | X-H torsion
[ 7974 7965 7964 7962 ] final  -15.07 input  175.53 | X-H torsion
[ 8008 7997 7996 7995 ] final   44.27 input   59.86 | X-H torsion
[ 10167 10162 10161 10158 ] final  -28.30 input  -65.29 | X-H torsion
[ 10718 10713 10712 10709 ] final   64.12 input   66.30 | X-H torsion
[ 10763 10752 10751 10750 ] final  -43.86 input  -60.55 | X-H torsion
[ 11005 11000 10999 10996 ] final -135.07 input  -57.11 | X-H torsion

> <Gold.Protein.ActiveResidues>
 VAL166  LYS551  ARG553  GLY616  TRP617  ASP618  TYR619  PRO620  LYS621  CYS622 
 ASP623  PHE694  ASN695  SER759  ASP760  ASP761  ALA762  ILE779  LEU786  VAL792 
 PHE793  MET794  SER795  GLU796  ALA797  LYS798  CYS799  TRP800  GLU811  SER814 

> <Gold.Protein.RotatedAtoms>
  150.8252  134.7479  159.6806 H   0  0  0  0  0  0  0  0  0  0  0  0  # atno 6907 bound_to 6896
  152.4364  134.5675  159.9921 H   0  0  0  0  0  0  0  0  0  0  0  0  # atno 6908 bound_to 6896
  151.5850  133.3336  159.3052 H   0  0  0  0  0  0  0  0  0  0  0  0  # atno 6909 bound_to 6896
  146.2048  140.3440  142.8411 H   0  0  0  0  0  0  0  0  0  0  0  0  # atno 7974 bound_to 7965
  155.3165  140.3394  155.4242 H   0  0  0  0  0  0  0  0  0  0  0  0  # atno 8008 bound_to 7997
  156.1930  140.1704  156.8092 H   0  0  0  0  0  0  0  0  0  0  0  0  # atno 8009 bound_to 7997
  154.5465  140.0714  156.8581 H   0  0  0  0  0  0  0  0  0  0  0  0  # atno 8010 bound_to 7997
  140.7271  143.4021  151.1246 H   0  0  0  0  0  0  0  0  0  0  0  0  # atno 10167 bound_to 10162
  157.6018  130.9142  149.9804 H   0  0  0  0  0  0  0  0  0  0  0  0  # atno 10718 bound_to 10713
  154.0026  135.6691  153.4760 H   0  0  0  0  0  0  0  0  0  0  0  0  # atno 10763 bound_to 10752
  153.0656  135.5003  154.8188 H   0  0  0  0  0  0  0  0  0  0  0  0  # atno 10764 bound_to 10752
  154.7044  135.3085  154.9256 H   0  0  0  0  0  0  0  0  0  0  0  0  # atno 10765 bound_to 10752
  140.8931  134.1786  157.4513 H   0  0  0  0  0  0  0  0  0  0  0  0  # atno 11005 bound_to 11000
  144.8766  140.7344  143.6013 LP  0  0  0  0  0  0  0  0  0  0  0  0  # atno 17320 bound_to 7965
  145.3359  139.1746  143.4511 LP  0  0  0  0  0  0  0  0  0  0  0  0  # atno 17321 bound_to 7965
  139.7643  143.8589  152.3107 LP  0  0  0  0  0  0  0  0  0  0  0  0  # atno 17342 bound_to 10162
  139.8485  144.7176  150.9243 LP  0  0  0  0  0  0  0  0  0  0  0  0  # atno 17343 bound_to 10162
  156.1093  130.3651  150.0077 LP  0  0  0  0  0  0  0  0  0  0  0  0  # atno 17370 bound_to 10713
  156.8178  130.9348  151.3642 LP  0  0  0  0  0  0  0  0  0  0  0  0  # atno 17371 bound_to 10713
  139.8732  134.9867  156.5336 LP  0  0  0  0  0  0  0  0  0  0  0  0  # atno 17394 bound_to 11000
  140.8322  133.8270  155.8994 LP  0  0  0  0  0  0  0  0  0  0  0  0  # atno 17395 bound_to 11000

$$$$
