AV-unprocessed.smi:1605|AV-procd|sdf|6451|dock10
  -GOLD-   22720 7103D 1   1.00000     0.00000
 Structure written by MMmdl.
 51 53  0  0  0  0  0  0  0  0  2 V2000
  142.2416  144.9709  155.2828 C   0  0  0  0  0  0  0  0  0  0  0  0
  143.3457  144.7472  154.4190 O   0  0  0  0  0  0  0  0  0  0  0  0
  144.1153  143.5958  154.7382 C   0  0  2  0  0  0  0  0  0  0  0  0
  144.7650  143.7239  156.1282 C   0  0  0  0  0  0  0  0  0  0  0  0
  145.7160  142.5474  156.4028 C   0  0  0  0  0  0  0  0  0  0  0  0
  146.7615  142.4409  155.3499 N   0  3  1  0  0  0  0  0  0  0  0  0
  147.7716  141.3911  155.6375 C   0  0  0  0  0  0  0  0  0  0  0  0
  148.7322  141.1570  154.4503 C   0  0  2  0  0  0  0  0  0  0  0  0
  148.7191  139.7835  154.1181 O   0  0  0  0  0  0  0  0  0  0  0  0
  150.1897  141.5578  154.7496 C   0  0  0  0  0  0  0  0  0  0  0  0
  150.5747  141.2605  156.1172 N   0  0  0  0  0  0  0  0  0  0  0  0
  150.5810  140.0508  156.7095 C   0  0  0  0  0  0  0  0  0  0  0  0
  150.9811  139.9955  157.9761 N   0  0  0  0  0  0  0  0  0  0  0  0
  151.2596  141.3256  158.2400 C   0  0  0  0  0  0  0  0  0  0  0  0
  151.7293  141.9480  159.4170 C   0  0  0  0  0  0  0  0  0  0  0  0
  151.9512  143.3429  159.4602 C   0  0  0  0  0  0  0  0  0  0  0  0
  152.4531  143.9707  160.7487 C   0  0  0  0  0  0  0  0  0  0  0  0
  151.7055  144.1375  158.3117 C   0  0  0  0  0  0  0  0  0  0  0  0
  151.9394  145.6376  158.3346 C   0  0  0  0  0  0  0  0  0  0  0  0
  151.2348  143.5320  157.1276 C   0  0  0  0  0  0  0  0  0  0  0  0
  151.0152  142.1433  157.0979 C   0  0  0  0  0  0  0  0  0  0  0  0
  146.1603  142.2900  153.9997 C   0  0  0  0  0  0  0  0  0  0  0  0
  145.2172  143.4609  153.6773 C   0  0  0  0  0  0  0  0  0  0  0  0
  141.6879  145.8459  154.9428 H   0  0  0  0  0  0  0  0  0  0  0  0
  142.5584  145.1602  156.3081 H   0  0  0  0  0  0  0  0  0  0  0  0
  141.5575  144.1216  155.2779 H   0  0  0  0  0  0  0  0  0  0  0  0
  143.4860  142.7044  154.7001 H   0  0  0  0  0  0  0  0  0  0  0  0
  145.3171  144.6626  156.1925 H   0  0  0  0  0  0  0  0  0  0  0  0
  144.0043  143.7577  156.9077 H   0  0  0  0  0  0  0  0  0  0  0  0
  146.1731  142.6851  157.3820 H   0  0  0  0  0  0  0  0  0  0  0  0
  145.1503  141.6155  156.4501 H   0  0  0  0  0  0  0  0  0  0  0  0
  148.3150  141.6764  156.5387 H   0  0  0  0  0  0  0  0  0  0  0  0
  147.2776  140.4469  155.8730 H   0  0  0  0  0  0  0  0  0  0  0  0
  148.3993  141.7129  153.5742 H   0  0  0  0  0  0  0  0  0  0  0  0
  149.2306  139.6550  153.3333 H   0  0  0  0  0  0  0  0  0  0  0  0
  150.8762  141.0471  154.0733 H   0  0  0  0  0  0  0  0  0  0  0  0
  150.3292  142.6274  154.5847 H   0  0  0  0  0  0  0  0  0  0  0  0
  150.2800  139.1593  156.1786 H   0  0  0  0  0  0  0  0  0  0  0  0
  151.9179  141.3423  160.2913 H   0  0  0  0  0  0  0  0  0  0  0  0
  151.7711  144.7515  161.0860 H   0  0  0  0  0  0  0  0  0  0  0  0
  153.4394  144.4111  160.6003 H   0  0  0  0  0  0  0  0  0  0  0  0
  152.5326  143.2317  161.5465 H   0  0  0  0  0  0  0  0  0  0  0  0
  151.7461  146.0857  157.3598 H   0  0  0  0  0  0  0  0  0  0  0  0
  152.9714  145.8611  158.6055 H   0  0  0  0  0  0  0  0  0  0  0  0
  151.2799  146.1151  159.0594 H   0  0  0  0  0  0  0  0  0  0  0  0
  151.0428  144.1269  156.2471 H   0  0  0  0  0  0  0  0  0  0  0  0
  146.9491  142.2517  153.2475 H   0  0  0  0  0  0  0  0  0  0  0  0
  145.6207  141.3431  153.9435 H   0  0  0  0  0  0  0  0  0  0  0  0
  144.7703  143.3160  152.6932 H   0  0  0  0  0  0  0  0  0  0  0  0
  145.7920  144.3867  153.6223 H   0  0  0  0  0  0  0  0  0  0  0  0
  147.2627  143.3183  155.3384 H   0  0  0  0  0  0  0  0  0  0  0  0
  1  2  1  0  0  0  0
  1 24  1  0  0  0  0
  1 25  1  0  0  0  0
  1 26  1  0  0  0  0
  2  3  1  0  0  0  0
  3 23  1  0  0  0  0
  3  4  1  0  0  0  0
  3 27  1  0  0  0  0
  4  5  1  0  0  0  0
  4 28  1  0  0  0  0
  4 29  1  0  0  0  0
  5  6  1  0  0  0  0
  5 30  1  0  0  0  0
  5 31  1  0  0  0  0
  6  7  1  0  0  0  0
  6 22  1  0  0  0  0
  6 51  1  0  0  0  0
  7  8  1  0  0  0  0
  7 32  1  0  0  0  0
  7 33  1  0  0  0  0
  8  9  1  0  0  0  0
  8 10  1  0  0  0  0
  8 34  1  0  0  0  0
  9 35  1  0  0  0  0
 10 11  1  0  0  0  0
 10 36  1  0  0  0  0
 10 37  1  0  0  0  0
 11 21  1  0  0  0  0
 11 12  1  0  0  0  0
 12 13  2  0  0  0  0
 12 38  1  0  0  0  0
 13 14  1  0  0  0  0
 14 21  2  0  0  0  0
 14 15  1  0  0  0  0
 15 16  2  0  0  0  0
 15 39  1  0  0  0  0
 16 17  1  0  0  0  0
 16 18  1  0  0  0  0
 17 40  1  0  0  0  0
 17 41  1  0  0  0  0
 17 42  1  0  0  0  0
 18 19  1  0  0  0  0
 18 20  2  0  0  0  0
 19 43  1  0  0  0  0
 19 44  1  0  0  0  0
 19 45  1  0  0  0  0
 20 21  1  0  0  0  0
 20 46  1  0  0  0  0
 22 23  1  0  0  0  0
 22 47  1  0  0  0  0
 22 48  1  0  0  0  0
 23 49  1  0  0  0  0
 23 50  1  0  0  0  0
M  CHG  1   6   1
M  END
> <s_m_source_file>
AV-unprocessed.smi

> <i_m_source_file_index>
1605

> <i_lp_mmshare_version>
43012

> <i_f3d_flags>
0

> <s_epik_input>
W0NIM11PW0NIXTFbQ0gyXVtDSDJdTihbQ0gyXVtDSDJdMSlbQ0gyXVtDQEhdKFtPSF0pW0NIMl1uKFtjSF1uMiljKGMyMylbY0hdYyhbQ0gzXSljKFtjSF0zKVtDSDNd

> <s_epik_cmdline>
J2VwaWtfcHl0aG9uJywgJy1waCcsICc3LjAnLCAnLXRuJywgJzgnLCAnLW1hJywgJzIwMCcsICctbWV0YWxfYmluZGluZycsICctaW1hZScsICc8aW5maWxlLm1hZT4nLCAnLW9tYWUnLCAnPG91dGZpbGUubWFlPic=

> <r_epik_Ionization_Penalty>
0.110943

> <r_epik_Ionization_Penalty_Charging>
0.0229283

> <r_epik_Ionization_Penalty_Neutral>
0.0880146

> <r_epik_State_Penalty>
0.0947554

> <r_epik_Charging_Adjusted_Penalty>
0.117684

> <i_epik_Tot_Q>
1

> <i_epik_Tot_abs_Q>
1

> <r_epik_Metal_State_Penalty>
0.0192456

> <b_epik_Metal_Only>
0

> <s_lp_Force_Field>
OPLS_2005

> <r_lp_Energy>
22.9289

> <b_lp_Chiralities_Consistent>
1

> <s_lp_Variant>
AV-unprocessed.smi:1605-1

> <Gold.Version>
5.8.1

> <Gold.Id.Protein>
6NUR|6NUR_protein|mol2

> <Gold.PLP.Fitness>
51.6800

> <Gold.PLP.PLP>
-44.7078

> <Gold.PLP.part.hbond>
-2.0000

> <Gold.PLP.part.metal>
0.0000

> <Gold.PLP.part.buried>
-4.1393

> <Gold.PLP.part.nonpolar>
-38.6593

> <Gold.PLP.part.repulsive>
0.1442

> <Gold.PLP.ligand.clash>
0.0000

> <Gold.PLP.ligand.torsion>
1.0620

> <Gold.PLP.Chemscore.Hbond>
2.9920

> <Gold.PLP.Chemscore.CHOScore>
0.0000

> <Gold.PLP.Chemscore.Metal>
0.0000

> <Gold.Chemscore.Hbonds>
donor molecule, donor type, donor heavy atom, donor atom, acceptor molecule, acceptor atom, score
      L1  H     6    51       P1  8028  0.92
      L1  H     9    35       P1  7957  0.49

> <Gold.PLP.Chemscore.Internal.Correction>
0.1202

> <Gold.Rescore>
     Score         DG    S(hbond)    S(metal)    S(lipo)     H(rot)  DE(clash)    DE(int)     intcor
     15.31     -19.43       1.53        0.00     124.19       2.22       2.96       1.16       ----

> <Gold.Chemscore.Fitness>
15.3119

> <Gold.Chemscore.DG>
-19.4306

> <Gold.Chemscore.ZeroCoef>
-5.4800

> <Gold.Chemscore.Hbond>
1.5256

> <Gold.Chemscore.Metal>
0.0000

> <Gold.Chemscore.Lipo>
124.1916

> <Gold.Chemscore.Internal_Hbond>
0.0000

> <Gold.Chemscore.DEClash>
2.9618

> <Gold.Chemscore.DEInternal>
1.1569

> <Gold.Chemscore.Rot>
2.2169

> <Gold.Chemscore.Internal.Correction>
   9.000000E+99

> <Gold.Chemscore.Hbonds>
donor molecule, donor type, donor heavy atom, donor atom, acceptor molecule, acceptor atom, score
      L1  H     6    51       P1  8028  0.03
      L1  H     9    35       P1  7957  0.46

> <Gold.Chemscore.Hbond.Weighted>
-5.0955

> <Gold.Chemscore.Metal.Weighted>
-0.0000

> <Gold.Chemscore.Lipo.Weighted>
-14.5304

> <Gold.Chemscore.Internal_Hbond.Weighted>
0.0000

> <Gold.Chemscore.DEClash.Weighted>
2.9618

> <Gold.Chemscore.DEInternal.Weighted>
1.1569

> <Gold.Chemscore.Rot.Weighted>
5.6753

> <Gold.Chemscore.Internal.Correction.Weighted>
   9.000000E+99

> <Gold.Protein.RotatedTorsions>
[ 6907 6896 6895 6894 ] final   67.88 input  -60.11 | X-H torsion
[ 7974 7965 7964 7962 ] final -148.90 input  175.53 | X-H torsion
[ 8008 7997 7996 7995 ] final   73.21 input   59.86 | X-H torsion
[ 10167 10162 10161 10158 ] final  -10.04 input  -65.29 | X-H torsion
[ 10718 10713 10712 10709 ] final -110.11 input   66.30 | X-H torsion
[ 10763 10752 10751 10750 ] final  -70.84 input  -60.55 | X-H torsion
[ 11005 11000 10999 10996 ] final  172.88 input  -57.11 | X-H torsion

> <Gold.Protein.ActiveResidues>
 VAL166  LYS551  ARG553  GLY616  TRP617  ASP618  TYR619  PRO620  LYS621  CYS622 
 ASP623  PHE694  ASN695  SER759  ASP760  ASP761  ALA762  ILE779  LEU786  VAL792 
 PHE793  MET794  SER795  GLU796  ALA797  LYS798  CYS799  TRP800  GLU811  SER814 

> <Gold.Protein.RotatedAtoms>
  152.4582  134.5243  159.9791 H   0  0  0  0  0  0  0  0  0  0  0  0  # atno 6907 bound_to 6896
  151.5298  133.3445  159.2924 H   0  0  0  0  0  0  0  0  0  0  0  0  # atno 6908 bound_to 6896
  150.8535  134.7897  159.7090 H   0  0  0  0  0  0  0  0  0  0  0  0  # atno 6909 bound_to 6896
  144.8001  140.5136  143.5713 H   0  0  0  0  0  0  0  0  0  0  0  0  # atno 7974 bound_to 7965
  155.7802  140.3482  155.5293 H   0  0  0  0  0  0  0  0  0  0  0  0  # atno 8008 bound_to 7997
  155.8735  140.0990  157.1554 H   0  0  0  0  0  0  0  0  0  0  0  0  # atno 8009 bound_to 7997
  154.4019  140.1336  156.4095 H   0  0  0  0  0  0  0  0  0  0  0  0  # atno 8010 bound_to 7997
  140.7103  143.5792  150.9010 H   0  0  0  0  0  0  0  0  0  0  0  0  # atno 10167 bound_to 10162
  156.0573  130.5798  150.8192 H   0  0  0  0  0  0  0  0  0  0  0  0  # atno 10718 bound_to 10713
  154.4233  135.5981  153.6023 H   0  0  0  0  0  0  0  0  0  0  0  0  # atno 10763 bound_to 10752
  152.9795  135.5957  154.3929 H   0  0  0  0  0  0  0  0  0  0  0  0  # atno 10764 bound_to 10752
  154.3757  135.2841  155.2219 H   0  0  0  0  0  0  0  0  0  0  0  0  # atno 10765 bound_to 10752
  140.3345  134.7329  157.4158 H   0  0  0  0  0  0  0  0  0  0  0  0  # atno 11005 bound_to 11000
  145.5575  139.1478  143.3360 LP  0  0  0  0  0  0  0  0  0  0  0  0  # atno 17320 bound_to 7965
  146.2280  140.5712  142.8988 LP  0  0  0  0  0  0  0  0  0  0  0  0  # atno 17321 bound_to 7965
  139.9518  143.6264  152.3027 LP  0  0  0  0  0  0  0  0  0  0  0  0  # atno 17342 bound_to 10162
  139.6785  144.7657  151.1652 LP  0  0  0  0  0  0  0  0  0  0  0  0  # atno 17343 bound_to 10162
  157.5553  131.0945  150.9637 LP  0  0  0  0  0  0  0  0  0  0  0  0  # atno 17370 bound_to 10713
  156.9887  130.5555  149.5301 LP  0  0  0  0  0  0  0  0  0  0  0  0  # atno 17371 bound_to 10713
  140.0833  134.5701  155.8518 LP  0  0  0  0  0  0  0  0  0  0  0  0  # atno 17394 bound_to 11000
  141.2055  133.6647  156.6183 LP  0  0  0  0  0  0  0  0  0  0  0  0  # atno 17395 bound_to 11000

$$$$
