AV-unprocessed.smi:2887|AV-procd|sdf|11099|dock9
  -GOLD-   2272015563D 1   1.00000     0.00000
 Structure written by MMmdl.
 38 39  0  0  0  0  0  0  0  0  3 V2000
  149.9350  140.1643  154.1784 O   0  0  0  0  0  0  0  0  0  0  0  0
  149.1953  141.1156  154.4263 C   0  0  0  0  0  0  0  0  0  0  0  0
  147.8773  141.2552  153.6476 C   0  0  0  0  0  0  0  0  0  0  0  0
  146.8607  142.0647  154.3177 N   0  0  0  0  0  0  0  0  0  0  0  0
  146.5174  141.8466  155.6479 C   0  0  0  0  0  0  0  0  0  0  0  0
  145.6442  142.6070  156.3343 C   0  0  0  0  0  0  0  0  0  0  0  0
  144.9967  143.7532  155.6646 C   0  0  0  0  0  0  0  0  0  0  0  0
  144.2131  144.4751  156.2792 O   0  0  0  0  0  0  0  0  0  0  0  0
  145.3511  143.9884  154.2337 C   0  0  0  0  0  0  0  0  0  0  0  0
  144.8056  145.0452  153.4054 N   0  3  0  0  0  0  0  0  0  0  0  0
  145.2257  145.1853  152.2604 O   0  0  0  0  0  0  0  0  0  0  0  0
  143.9338  145.7709  153.8722 O   0  5  0  0  0  0  0  0  0  0  0  0
  146.2480  143.1386  153.6721 C   0  0  0  0  0  0  0  0  0  0  0  0
  149.4937  142.0579  155.3377 N   0  0  0  0  0  0  0  0  0  0  0  0
  150.7347  142.1551  156.1005 C   0  0  0  0  0  0  0  0  0  0  0  0
  150.4855  141.9008  157.5977 C   0  0  0  0  0  0  0  0  0  0  0  0
  151.3448  142.7606  158.5074 C   0  0  0  0  0  0  0  0  0  0  0  0
  152.1482  142.3304  159.4790 C   0  0  0  0  0  0  0  0  0  0  0  0
  152.8477  143.4541  160.1927 C   0  0  0  0  0  0  0  0  0  0  0  0
  152.3301  144.7265  159.4853 C   0  0  0  0  0  0  0  0  0  0  0  0
  151.3583  144.2617  158.3773 C   0  0  0  0  0  0  0  0  0  0  0  0
  148.0950  141.6873  152.6696 H   0  0  0  0  0  0  0  0  0  0  0  0
  147.4841  140.2564  153.4530 H   0  0  0  0  0  0  0  0  0  0  0  0
  147.0130  141.0023  156.1047 H   0  0  0  0  0  0  0  0  0  0  0  0
  145.4080  142.3993  157.3677 H   0  0  0  0  0  0  0  0  0  0  0  0
  146.5545  143.2379  152.6403 H   0  0  0  0  0  0  0  0  0  0  0  0
  148.8210  142.7976  155.4787 H   0  0  0  0  0  0  0  0  0  0  0  0
  151.4335  141.4133  155.7135 H   0  0  0  0  0  0  0  0  0  0  0  0
  151.2156  143.1250  155.9644 H   0  0  0  0  0  0  0  0  0  0  0  0
  149.4363  142.0929  157.8270 H   0  0  0  0  0  0  0  0  0  0  0  0
  150.6659  140.8515  157.8329 H   0  0  0  0  0  0  0  0  0  0  0  0
  152.2972  141.2963  159.7531 H   0  0  0  0  0  0  0  0  0  0  0  0
  152.5893  143.4481  161.2518 H   0  0  0  0  0  0  0  0  0  0  0  0
  153.9285  143.3476  160.0959 H   0  0  0  0  0  0  0  0  0  0  0  0
  151.8183  145.3774  160.1952 H   0  0  0  0  0  0  0  0  0  0  0  0
  153.1567  145.2974  159.0610 H   0  0  0  0  0  0  0  0  0  0  0  0
  151.7084  144.5516  157.3862 H   0  0  0  0  0  0  0  0  0  0  0  0
  150.3590  144.6710  158.5262 H   0  0  0  0  0  0  0  0  0  0  0  0
  1  2  2  0  0  0  0
  2  3  1  0  0  0  0
  2 14  1  0  0  0  0
  3  4  1  0  0  0  0
  3 22  1  0  0  0  0
  3 23  1  0  0  0  0
  4 13  1  0  0  0  0
  4  5  1  0  0  0  0
  5  6  2  0  0  0  0
  5 24  1  0  0  0  0
  6  7  1  0  0  0  0
  6 25  1  0  0  0  0
  7  8  2  0  0  0  0
  7  9  1  0  0  0  0
  9 10  1  0  0  0  0
  9 13  2  0  0  0  0
 10 11  2  0  0  0  0
 10 12  1  0  0  0  0
 13 26  1  0  0  0  0
 14 15  1  0  0  0  0
 14 27  1  0  0  0  0
 15 16  1  0  0  0  0
 15 28  1  0  0  0  0
 15 29  1  0  0  0  0
 16 17  1  0  0  0  0
 16 30  1  0  0  0  0
 16 31  1  0  0  0  0
 17 21  1  0  0  0  0
 17 18  2  0  0  0  0
 18 19  1  0  0  0  0
 18 32  1  0  0  0  0
 19 20  1  0  0  0  0
 19 33  1  0  0  0  0
 19 34  1  0  0  0  0
 20 21  1  0  0  0  0
 20 35  1  0  0  0  0
 20 36  1  0  0  0  0
 21 37  1  0  0  0  0
 21 38  1  0  0  0  0
M  CHG  1  10   1
M  CHG  1  12  -1
M  END
> <s_m_source_file>
AV-unprocessed.smi

> <i_m_source_file_index>
2887

> <i_lp_mmshare_version>
43012

> <i_f3d_flags>
0

> <s_epik_input>
W0NIMl0xW0NIMl1bQ0gyXVtDSF09QzFbQ0gyXVtDSDJdW05IXUMoPU8pW0NIMl1uMltjSF1bY0hdYyg9TyljKFtOK10oPU8pW08tXSlbY0hdMg==

> <s_epik_cmdline>
J2VwaWtfcHl0aG9uJywgJy1waCcsICc3LjAnLCAnLXRuJywgJzgnLCAnLW1hJywgJzIwMCcsICctbWV0YWxfYmluZGluZycsICctaW1hZScsICc8aW5maWxlLm1hZT4nLCAnLW9tYWUnLCAnPG91dGZpbGUubWFlPic=

> <r_lp_tautomer_probability>
1

> <r_epik_Ionization_Penalty>
2.85916e-08

> <r_epik_Ionization_Penalty_Charging>
1.01785e-08

> <r_epik_Ionization_Penalty_Neutral>
1.84131e-08

> <r_epik_State_Penalty>
-0

> <r_epik_Charging_Adjusted_Penalty>
1.01785e-08

> <i_epik_Tot_Q>
0

> <i_epik_Tot_abs_Q>
2

> <r_epik_Metal_State_Penalty>
-0

> <b_epik_Metal_Only>
0

> <s_lp_Force_Field>
OPLS_2005

> <r_lp_Energy>
18.7972

> <b_lp_Chiralities_Consistent>
1

> <s_lp_Variant>
AV-unprocessed.smi:2887-1

> <Gold.Version>
5.8.1

> <Gold.Id.Protein>
6NUR|6NUR_protein|mol2

> <Gold.PLP.Fitness>
52.9192

> <Gold.PLP.PLP>
-49.5503

> <Gold.PLP.part.hbond>
-3.5859

> <Gold.PLP.part.metal>
0.0000

> <Gold.PLP.part.buried>
-8.2373

> <Gold.PLP.part.nonpolar>
-38.2722

> <Gold.PLP.part.repulsive>
0.8171

> <Gold.PLP.ligand.clash>
0.0021

> <Gold.PLP.ligand.torsion>
0.7074

> <Gold.PLP.Chemscore.Hbond>
1.5840

> <Gold.PLP.Chemscore.CHOScore>
0.0000

> <Gold.PLP.Chemscore.Metal>
0.0000

> <Gold.Chemscore.Hbonds>
donor molecule, donor type, donor heavy atom, donor atom, acceptor molecule, acceptor atom, score
      L1  H    14    27       P1  8028  0.74
      P1  H  7989  7998       L1     1  0.90

> <Gold.PLP.Chemscore.Internal.Correction>
0.0339

> <Gold.Rescore>
     Score         DG    S(hbond)    S(metal)    S(lipo)     H(rot)  DE(clash)    DE(int)     intcor
     13.88     -16.08       1.27        0.00      98.08       2.00       0.03       2.17       ----

> <Gold.Chemscore.Fitness>
13.8767

> <Gold.Chemscore.DG>
-16.0769

> <Gold.Chemscore.ZeroCoef>
-5.4800

> <Gold.Chemscore.Hbond>
1.2692

> <Gold.Chemscore.Metal>
0.0000

> <Gold.Chemscore.Lipo>
98.0814

> <Gold.Chemscore.Internal_Hbond>
0.0000

> <Gold.Chemscore.DEClash>
0.0281

> <Gold.Chemscore.DEInternal>
2.1721

> <Gold.Chemscore.Rot>
1.9991

> <Gold.Chemscore.Internal.Correction>
   9.000000E+99

> <Gold.Chemscore.Hbonds>
donor molecule, donor type, donor heavy atom, donor atom, acceptor molecule, acceptor atom, score
      L1  H    14    27       P1  8028  0.74
      P1  H  7989  7998       L1     1  0.57

> <Gold.Chemscore.Hbond.Weighted>
-4.2391

> <Gold.Chemscore.Metal.Weighted>
-0.0000

> <Gold.Chemscore.Lipo.Weighted>
-11.4755

> <Gold.Chemscore.Internal_Hbond.Weighted>
0.0000

> <Gold.Chemscore.DEClash.Weighted>
0.0281

> <Gold.Chemscore.DEInternal.Weighted>
2.1721

> <Gold.Chemscore.Rot.Weighted>
5.1177

> <Gold.Chemscore.Internal.Correction.Weighted>
   9.000000E+99

> <Gold.Protein.RotatedTorsions>
[ 6907 6896 6895 6894 ] final   14.77 input  -60.11 | X-H torsion
[ 7974 7965 7964 7962 ] final   17.59 input  175.53 | X-H torsion
[ 8008 7997 7996 7995 ] final -145.32 input   59.86 | X-H torsion
[ 10167 10162 10161 10158 ] final    7.67 input  -65.29 | X-H torsion
[ 10718 10713 10712 10709 ] final -177.28 input   66.30 | X-H torsion
[ 10763 10752 10751 10750 ] final   53.03 input  -60.55 | X-H torsion
[ 11005 11000 10999 10996 ] final  117.81 input  -57.11 | X-H torsion

> <Gold.Protein.ActiveResidues>
 VAL166  LYS551  ARG553  GLY616  TRP617  ASP618  TYR619  PRO620  LYS621  CYS622 
 ASP623  PHE694  ASN695  SER759  ASP760  ASP761  ALA762  ILE779  LEU786  VAL792 
 PHE793  MET794  SER795  GLU796  ALA797  LYS798  CYS799  TRP800  GLU811  SER814 

> <Gold.Protein.RotatedAtoms>
  151.8074  135.0691  160.0408 H   0  0  0  0  0  0  0  0  0  0  0  0  # atno 6907 bound_to 6896
  152.3045  133.5684  159.5648 H   0  0  0  0  0  0  0  0  0  0  0  0  # atno 6908 bound_to 6896
  150.7289  134.0159  159.3727 H   0  0  0  0  0  0  0  0  0  0  0  0  # atno 6909 bound_to 6896
  146.2213  139.8580  142.8610 H   0  0  0  0  0  0  0  0  0  0  0  0  # atno 7974 bound_to 7965
  155.5413  140.0608  157.2869 H   0  0  0  0  0  0  0  0  0  0  0  0  # atno 8008 bound_to 7997
  154.4451  140.1918  156.0637 H   0  0  0  0  0  0  0  0  0  0  0  0  # atno 8009 bound_to 7997
  156.0583  140.3275  155.7435 H   0  0  0  0  0  0  0  0  0  0  0  0  # atno 8010 bound_to 7997
  140.6358  143.7888  150.7358 H   0  0  0  0  0  0  0  0  0  0  0  0  # atno 10167 bound_to 10162
  156.8272  130.9640  151.3108 H   0  0  0  0  0  0  0  0  0  0  0  0  # atno 10718 bound_to 10713
  152.9792  135.5792  154.4675 H   0  0  0  0  0  0  0  0  0  0  0  0  # atno 10763 bound_to 10752
  154.4243  135.2772  155.1957 H   0  0  0  0  0  0  0  0  0  0  0  0  # atno 10764 bound_to 10752
  154.3693  135.6171  153.5785 H   0  0  0  0  0  0  0  0  0  0  0  0  # atno 10765 bound_to 10752
  139.9087  134.9614  156.7408 H   0  0  0  0  0  0  0  0  0  0  0  0  # atno 11005 bound_to 11000
  145.2733  141.0115  143.3759 LP  0  0  0  0  0  0  0  0  0  0  0  0  # atno 17320 bound_to 7965
  144.9206  139.4416  143.6543 LP  0  0  0  0  0  0  0  0  0  0  0  0  # atno 17321 bound_to 7965
  140.1509  143.4358  152.2131 LP  0  0  0  0  0  0  0  0  0  0  0  0  # atno 17342 bound_to 10162
  139.5569  144.7379  151.4268 LP  0  0  0  0  0  0  0  0  0  0  0  0  # atno 17343 bound_to 10162
  157.6426  130.8818  149.9477 LP  0  0  0  0  0  0  0  0  0  0  0  0  # atno 17370 bound_to 10713
  156.0955  130.3660  150.0315 LP  0  0  0  0  0  0  0  0  0  0  0  0  # atno 17371 bound_to 10713
  140.6851  133.9440  155.7933 LP  0  0  0  0  0  0  0  0  0  0  0  0  # atno 17394 bound_to 11000
  141.0482  134.0523  157.3817 LP  0  0  0  0  0  0  0  0  0  0  0  0  # atno 17395 bound_to 11000

$$$$
