#       Name:                AV-unprocessed.smi:3319
#       Creating user name   scv26
#       Creation time:       Fri Mar 27 19:10:46 2020


#       File generated by GOLD software.
#

@<TRIPOS>MOLECULE
AV-unprocessed.smi:3319
    42    43     1
SMALL
NO_CHARGES


@<TRIPOS>ATOM
      1 ****        -5.5339  -3.7535  -0.5634 C.1            1 S1                 0.0000
      2 ****        -5.0895  -2.9354   0.2268 C.1            1 S1                 0.0000
      3 ****        -4.5443  -1.9409   1.1690 C.3            1 S1                 0.0000
      4 ****        -3.0973  -1.7642   1.0455 N.3            1 S1                 0.0000
      5 ****        -2.6077  -1.0416   2.2211 C.3            1 S1                 0.0000
      6 ****        -1.0739  -0.9298   2.1771 C.3            1 S1                 0.0000
      7 ****        -0.6068  -0.1985   0.9096 C.3            1 S1                 0.0000
      8 ****         0.8716  -0.1857   0.8465 N.4            1 S1                 1.0000
      9 ****         1.4555   0.7498  -0.1376 C.3            1 S1                 0.0000
     10 ****         2.9881   0.7383  -0.0621 C.3            1 S1                 0.0000
     11 ****         3.6187   1.6875  -1.0627 C.ar           1 S1                 0.0000
     12 ****         3.9779   1.2417  -2.3515 C.ar           1 S1                 0.0000
     13 ****         4.5614   2.1646  -3.2433 C.ar           1 S1                 0.0000
     14 ****         4.7924   3.4568  -2.9265 N.ar           1 S1                 0.0000
     15 ****         4.4450   3.8767  -1.6910 C.ar           1 S1                 0.0000
     16 ****         3.8560   3.0358  -0.7250 C.ar           1 S1                 0.0000
     17 ****        -1.2306  -0.8915  -0.3150 C.3            1 S1                 0.0000
     18 ****        -2.7578  -1.0086  -0.1664 C.3            1 S1                 0.0000
     19 ****        -5.9184  -4.4697  -1.2544 H              1 S1                 0.0000
     20 ****        -5.0691  -0.9939   1.0355 H              1 S1                 0.0000
     21 ****        -4.7882  -2.3087   2.1665 H              1 S1                 0.0000
     22 ****        -3.0627  -0.0509   2.2733 H              1 S1                 0.0000
     23 ****        -2.8992  -1.5752   3.1267 H              1 S1                 0.0000
     24 ****        -0.7208  -0.4029   3.0642 H              1 S1                 0.0000
     25 ****        -0.6374  -1.9292   2.2168 H              1 S1                 0.0000
     26 ****        -0.9610   0.8325   0.9603 H              1 S1                 0.0000
     27 ****         1.2134   0.0839   1.7579 H              1 S1                 0.0000
     28 ****         1.1379   0.4735  -1.1430 H              1 S1                 0.0000
     29 ****         1.0815   1.7560   0.0559 H              1 S1                 0.0000
     30 ****         3.3169   1.0131   0.9412 H              1 S1                 0.0000
     31 ****         3.3646  -0.2691  -0.2445 H              1 S1                 0.0000
     32 ****         3.8134   0.2178  -2.6542 H              1 S1                 0.0000
     33 ****         4.8496   1.8563  -4.2375 H              1 S1                 0.0000
     34 ****         4.6414   4.9143  -1.4647 H              1 S1                 0.0000
     35 ****         3.5955   3.4208   0.2502 H              1 S1                 0.0000
     36 ****        -1.0063  -0.3364  -1.2257 H              1 S1                 0.0000
     37 ****        -0.8004  -1.8861  -0.4433 H              1 S1                 0.0000
     38 ****        -3.1577  -1.5098  -1.0482 H              1 S1                 0.0000
     39 ****        -3.2131  -0.0175  -0.1313 H              1 S1                 0.0000
     40 ****         1.1960  -1.1215   0.6480 H              1 S1                 0.0000
     41 ****        -2.6675  -2.6649   0.9828 LP             1 S1                 0.0000
     42 ****         5.2077   4.0832  -3.5862 LP             1 S1                 0.0000
@<TRIPOS>BOND
    1    1    2 3     
    2    1   19 1     
    3    2    3 1     
    4    3    4 1     
    5    3   20 1     
    6    3   21 1     
    7    4   18 1     
    8    4    5 1     
    9    5    6 1     
   10    5   22 1     
   11    5   23 1     
   12    6    7 1     
   13    6   24 1     
   14    6   25 1     
   15    7    8 1     
   16    7   17 1     
   17    7   26 1     
   18    8    9 1     
   19    8   27 1     
   20    8   40 1     
   21    9   10 1     
   22    9   28 1     
   23    9   29 1     
   24   10   11 1     
   25   10   30 1     
   26   10   31 1     
   27   11   16 ar    
   28   11   12 ar    
   29   12   13 ar    
   30   12   32 1     
   31   13   14 ar    
   32   13   33 1     
   33   14   15 ar    
   34   15   16 ar    
   35   15   34 1     
   36   16   35 1     
   37   17   18 1     
   38   17   36 1     
   39   17   37 1     
   40   18   38 1     
   41   18   39 1     
   42    4   41 1     
   43   14   42 1     
@<TRIPOS>SUBSTRUCTURE
      1 S1             1
@<TRIPOS>SET
LONE_PAIRS      STATIC     ATOMS    <user>   **** ""
2 41 42
DONOR_HYDROGENS      STATIC     ATOMS    <user>   **** ""
2 27 40
ATOM$BLUE        STATIC     ATOMS    COLORGROUP SYSTEM
2 41 42
ATOM$RED        STATIC     ATOMS    COLORGROUP SYSTEM
2 27 40
