AV-unprocessed.smi:454|AV-procd|sdf|2612|dock4
  -GOLD-   2262023 13D 1   1.00000     0.00000
 Structure written by MMmdl.
 43 44  0  0  0  0  0  0  0  0  1 V2000
  149.4837  131.4890  157.8214 C   0  0  0  0  0  0  0  0  0  0  0  0
  150.5510  132.4198  157.8622 O   0  0  0  0  0  0  0  0  0  0  0  0
  151.3437  132.3891  156.6867 C   0  0  0  0  0  0  0  0  0  0  0  0
  150.4556  132.6850  155.4738 C   0  0  0  0  0  0  0  0  0  0  0  0
  149.5712  133.8147  155.7221 N   0  0  0  0  0  0  0  0  0  0  0  0
  150.0683  135.1247  155.7136 C   0  0  0  0  0  0  0  0  0  0  0  0
  151.2280  135.4108  156.4663 C   0  0  0  0  0  0  0  0  0  0  0  0
  151.7305  136.7266  156.4683 C   0  0  0  0  0  0  0  0  0  0  0  0
  151.0447  137.7043  155.7230 C   0  0  0  0  0  0  0  0  0  0  0  0
  151.6265  139.3940  155.6893 S   0  0  0  0  0  0  0  0  0  0  0  0
  153.0976  139.3766  155.7191 O   0  0  0  0  0  0  0  0  0  0  0  0
  150.9225  140.1034  154.6096 O   0  0  0  0  0  0  0  0  0  0  0  0
  151.0697  140.0424  157.2049 N   0  0  0  0  0  0  0  0  0  0  0  0
  150.2372  141.2589  157.2113 C   0  0  0  0  0  0  0  0  0  0  0  0
  151.0679  142.5099  157.5573 C   0  0  0  0  0  0  0  0  0  0  0  0
  151.7673  142.3262  158.8261 N   0  0  0  0  0  0  0  0  0  0  0  0
  152.5228  143.5306  159.1401 C   0  0  0  0  0  0  0  0  0  0  0  0
  152.6851  141.1956  158.7128 C   0  0  0  0  0  0  0  0  0  0  0  0
  151.9109  139.8986  158.4068 C   0  0  0  0  0  0  0  0  0  0  0  0
  149.9019  137.3278  154.9910 C   0  0  0  0  0  0  0  0  0  0  0  0
  149.4172  136.0675  154.9895 N   0  0  0  0  0  0  0  0  0  0  0  0
  148.9048  131.5551  158.7425 H   0  0  0  0  0  0  0  0  0  0  0  0
  149.8546  130.4672  157.7296 H   0  0  0  0  0  0  0  0  0  0  0  0
  148.8126  131.6946  156.9865 H   0  0  0  0  0  0  0  0  0  0  0  0
  152.1238  133.1486  156.7575 H   0  0  0  0  0  0  0  0  0  0  0  0
  151.8385  131.4226  156.5753 H   0  0  0  0  0  0  0  0  0  0  0  0
  151.0719  132.8792  154.5951 H   0  0  0  0  0  0  0  0  0  0  0  0
  149.8447  131.8091  155.2529 H   0  0  0  0  0  0  0  0  0  0  0  0
  148.6442  133.6336  156.0792 H   0  0  0  0  0  0  0  0  0  0  0  0
  151.7259  134.6384  157.0340 H   0  0  0  0  0  0  0  0  0  0  0  0
  152.6129  136.9765  157.0388 H   0  0  0  0  0  0  0  0  0  0  0  0
  149.7416  141.3865  156.2493 H   0  0  0  0  0  0  0  0  0  0  0  0
  149.4457  141.1306  157.9508 H   0  0  0  0  0  0  0  0  0  0  0  0
  151.7838  142.7265  156.7646 H   0  0  0  0  0  0  0  0  0  0  0  0
  150.4067  143.3743  157.6296 H   0  0  0  0  0  0  0  0  0  0  0  0
  153.0468  143.4164  160.0897 H   0  0  0  0  0  0  0  0  0  0  0  0
  151.8557  144.3884  159.2307 H   0  0  0  0  0  0  0  0  0  0  0  0
  153.2605  143.7518  158.3671 H   0  0  0  0  0  0  0  0  0  0  0  0
  153.4256  141.3934  157.9380 H   0  0  0  0  0  0  0  0  0  0  0  0
  153.2324  141.0772  159.6487 H   0  0  0  0  0  0  0  0  0  0  0  0
  151.2666  139.6504  159.2508 H   0  0  0  0  0  0  0  0  0  0  0  0
  152.6012  139.0637  158.2907 H   0  0  0  0  0  0  0  0  0  0  0  0
  149.3528  138.0512  154.4067 H   0  0  0  0  0  0  0  0  0  0  0  0
  1  2  1  0  0  0  0
  1 22  1  0  0  0  0
  1 23  1  0  0  0  0
  1 24  1  0  0  0  0
  2  3  1  0  0  0  0
  3  4  1  0  0  0  0
  3 25  1  0  0  0  0
  3 26  1  0  0  0  0
  4  5  1  0  0  0  0
  4 27  1  0  0  0  0
  4 28  1  0  0  0  0
  5  6  1  0  0  0  0
  5 29  1  0  0  0  0
  6 21  1  0  0  0  0
  6  7  2  0  0  0  0
  7  8  1  0  0  0  0
  7 30  1  0  0  0  0
  8  9  2  0  0  0  0
  8 31  1  0  0  0  0
  9 10  1  0  0  0  0
  9 20  1  0  0  0  0
 10 11  2  0  0  0  0
 10 12  2  0  0  0  0
 10 13  1  0  0  0  0
 13 19  1  0  0  0  0
 13 14  1  0  0  0  0
 14 15  1  0  0  0  0
 14 32  1  0  0  0  0
 14 33  1  0  0  0  0
 15 16  1  0  0  0  0
 15 34  1  0  0  0  0
 15 35  1  0  0  0  0
 16 17  1  0  0  0  0
 16 18  1  0  0  0  0
 17 36  1  0  0  0  0
 17 37  1  0  0  0  0
 17 38  1  0  0  0  0
 18 19  1  0  0  0  0
 18 39  1  0  0  0  0
 18 40  1  0  0  0  0
 19 41  1  0  0  0  0
 19 42  1  0  0  0  0
 20 21  2  0  0  0  0
 20 43  1  0  0  0  0
M  END
> <s_m_source_file>
AV-unprocessed.smi

> <i_m_source_file_index>
454

> <i_lp_mmshare_version>
43012

> <i_f3d_flags>
0

> <s_epik_input>
W0NIM11PW0NIMl1bQ0gyXVtOSF1jMVtjSF1bY0hdYyhbY0hdbjEpUyg9TykoPU8pTjJbQ0gyXVtDSDJdTihbQ0gzXSlbQ0gyXVtDSDJdMg==

> <s_epik_cmdline>
J2VwaWtfcHl0aG9uJywgJy1waCcsICc3LjAnLCAnLXRuJywgJzgnLCAnLW1hJywgJzIwMCcsICctbWV0YWxfYmluZGluZycsICctaW1hZScsICc8aW5maWxlLm1hZT4nLCAnLW9tYWUnLCAnPG91dGZpbGUubWFlPic=

> <r_lp_tautomer_probability>
1

> <r_epik_Ionization_Penalty>
0.0786276

> <r_epik_Ionization_Penalty_Charging>
0

> <r_epik_Ionization_Penalty_Neutral>
0.0786276

> <r_epik_State_Penalty>
0.0691961

> <r_epik_Charging_Adjusted_Penalty>
0.0691961

> <i_epik_Tot_Q>
0

> <i_epik_Tot_abs_Q>
0

> <r_epik_Metal_State_Penalty>
0.0691754

> <b_epik_Metal_Only>
0

> <s_lp_Force_Field>
OPLS_2005

> <r_lp_Energy>
0.101834

> <b_lp_Chiralities_Consistent>
1

> <s_lp_Variant>
AV-unprocessed.smi:454-1

> <Gold.Version>
5.8.1

> <Gold.Id.Protein>
6NUR|6NUR_protein|mol2

> <Gold.PLP.Fitness>
38.3230

> <Gold.PLP.PLP>
-30.4789

> <Gold.PLP.part.hbond>
-3.0000

> <Gold.PLP.part.metal>
0.0000

> <Gold.PLP.part.buried>
-6.5948

> <Gold.PLP.part.nonpolar>
-22.5982

> <Gold.PLP.part.repulsive>
0.2669

> <Gold.PLP.ligand.clash>
0.0000

> <Gold.PLP.ligand.torsion>
2.6361

> <Gold.PLP.Chemscore.Hbond>
3.0000

> <Gold.PLP.Chemscore.CHOScore>
0.0000

> <Gold.PLP.Chemscore.Metal>
0.0000

> <Gold.Chemscore.Hbonds>
donor molecule, donor type, donor heavy atom, donor atom, acceptor molecule, acceptor atom, score
      P1  H  6896  6908       L1     2  1.00
      P1  H  7989  7998       L1    12  0.99
      P1  H  7997  8010       L1    11  1.00

> <Gold.PLP.Chemscore.Internal.Correction>
4.1163

> <Gold.Rescore>
     Score         DG    S(hbond)    S(metal)    S(lipo)     H(rot)  DE(clash)    DE(int)     intcor
     17.19     -19.96       2.92        0.00      70.86       1.40       0.03       2.75       ----

> <Gold.Chemscore.Fitness>
17.1895

> <Gold.Chemscore.DG>
-19.9621

> <Gold.Chemscore.ZeroCoef>
-5.4800

> <Gold.Chemscore.Hbond>
2.9247

> <Gold.Chemscore.Metal>
0.0000

> <Gold.Chemscore.Lipo>
70.8564

> <Gold.Chemscore.Internal_Hbond>
0.0000

> <Gold.Chemscore.DEClash>
0.0270

> <Gold.Chemscore.DEInternal>
2.7456

> <Gold.Chemscore.Rot>
1.3970

> <Gold.Chemscore.Internal.Correction>
   9.000000E+99

> <Gold.Chemscore.Hbonds>
donor molecule, donor type, donor heavy atom, donor atom, acceptor molecule, acceptor atom, score
      P1  H  6896  6908       L1     2  0.77
      P1  H  7989  7998       L1    12  0.92
      P1  H  7997  8010       L1    11  0.94

> <Gold.Chemscore.Hbond.Weighted>
-9.7683

> <Gold.Chemscore.Metal.Weighted>
-0.0000

> <Gold.Chemscore.Lipo.Weighted>
-8.2902

> <Gold.Chemscore.Internal_Hbond.Weighted>
0.0000

> <Gold.Chemscore.DEClash.Weighted>
0.0270

> <Gold.Chemscore.DEInternal.Weighted>
2.7456

> <Gold.Chemscore.Rot.Weighted>
3.5764

> <Gold.Chemscore.Internal.Correction.Weighted>
   9.000000E+99

> <Gold.Protein.RotatedTorsions>
[ 6907 6896 6895 6894 ] final   72.67 input  -60.11 | X-H torsion
[ 7974 7965 7964 7962 ] final  155.25 input  175.53 | X-H torsion
[ 8008 7997 7996 7995 ] final   92.84 input   59.86 | X-H torsion
[ 10167 10162 10161 10158 ] final    8.89 input  -65.29 | X-H torsion
[ 10718 10713 10712 10709 ] final    1.97 input   66.30 | X-H torsion
[ 10763 10752 10751 10750 ] final  101.34 input  -60.55 | X-H torsion
[ 11005 11000 10999 10996 ] final -142.34 input  -57.11 | X-H torsion

> <Gold.Protein.ActiveResidues>
 VAL166  LYS551  ARG553  GLY616  TRP617  ASP618  TYR619  PRO620  LYS621  CYS622 
 ASP623  PHE694  ASN695  SER759  ASP760  ASP761  ALA762  ILE779  LEU786  VAL792 
 PHE793  MET794  SER795  GLU796  ALA797  LYS798  CYS799  TRP800  GLU811  SER814 

> <Gold.Protein.RotatedAtoms>
  152.4881  134.4537  159.9582 H   0  0  0  0  0  0  0  0  0  0  0  0  # atno 6907 bound_to 6896
  151.4529  133.3607  159.2805 H   0  0  0  0  0  0  0  0  0  0  0  0  # atno 6908 bound_to 6896
  150.9009  134.8445  159.7420 H   0  0  0  0  0  0  0  0  0  0  0  0  # atno 6909 bound_to 6896
  144.8037  139.7042  143.6171 H   0  0  0  0  0  0  0  0  0  0  0  0  # atno 7974 bound_to 7965
  156.0399  140.3320  155.7233 H   0  0  0  0  0  0  0  0  0  0  0  0  # atno 8008 bound_to 7997
  155.5759  140.0632  157.2813 H   0  0  0  0  0  0  0  0  0  0  0  0  # atno 8009 bound_to 7997
  154.4389  140.1852  156.0915 H   0  0  0  0  0  0  0  0  0  0  0  0  # atno 8010 bound_to 7997
  140.6288  143.8041  150.7267 H   0  0  0  0  0  0  0  0  0  0  0  0  # atno 10167 bound_to 10162
  156.8561  130.5570  149.5666 H   0  0  0  0  0  0  0  0  0  0  0  0  # atno 10718 bound_to 10713
  153.3254  135.4048  155.1452 H   0  0  0  0  0  0  0  0  0  0  0  0  # atno 10763 bound_to 10752
  154.8610  135.3597  154.5540 H   0  0  0  0  0  0  0  0  0  0  0  0  # atno 10764 bound_to 10752
  153.5976  135.7072  153.5456 H   0  0  0  0  0  0  0  0  0  0  0  0  # atno 10765 bound_to 10752
  140.8235  134.2602  157.4889 H   0  0  0  0  0  0  0  0  0  0  0  0  # atno 11005 bound_to 11000
  146.2324  139.5839  142.9546 LP  0  0  0  0  0  0  0  0  0  0  0  0  # atno 17320 bound_to 7965
  145.5491  141.0415  143.2288 LP  0  0  0  0  0  0  0  0  0  0  0  0  # atno 17321 bound_to 7965
  140.1648  143.4245  152.2042 LP  0  0  0  0  0  0  0  0  0  0  0  0  # atno 17342 bound_to 10162
  139.5504  144.7333  151.4452 LP  0  0  0  0  0  0  0  0  0  0  0  0  # atno 17343 bound_to 10162
  156.0802  130.5814  150.9548 LP  0  0  0  0  0  0  0  0  0  0  0  0  # atno 17370 bound_to 10713
  157.6276  131.0924  150.8503 LP  0  0  0  0  0  0  0  0  0  0  0  0  # atno 17371 bound_to 10713
  139.8707  134.9548  156.4187 LP  0  0  0  0  0  0  0  0  0  0  0  0  # atno 17394 bound_to 11000
  140.9074  133.7736  155.9751 LP  0  0  0  0  0  0  0  0  0  0  0  0  # atno 17395 bound_to 11000

$$$$
