AV-unprocessed.smi:1055|AV-procd|sdf|4626|dock9
  -GOLD-   22720 3133D 1   1.00000     0.00000
 Structure written by MMmdl.
 51 52  0  0  0  0  0  0  0  0  2 V2000
  146.6308  133.9470  152.0686 C   0  0  0  0  0  0  0  0  0  0  0  0
  145.4652  134.2737  151.4860 C   0  0  0  0  0  0  0  0  0  0  0  0
  144.5259  133.2233  150.9238 C   0  0  0  0  0  0  0  0  0  0  0  0
  145.0101  135.7177  151.3442 C   0  0  0  0  0  0  0  0  0  0  0  0
  146.0298  136.6720  151.8474 N   0  3  2  0  0  0  0  0  0  0  0  0
  146.0672  136.7180  153.3315 C   0  0  0  0  0  0  0  0  0  0  0  0
  147.2173  137.6062  153.8342 C   0  0  0  0  0  0  0  0  0  0  0  0
  147.1147  139.0277  153.2517 C   0  0  1  0  0  0  0  0  0  0  0  0
  148.2527  139.8470  153.6590 N   0  0  0  0  0  0  0  0  0  0  0  0
  148.7180  139.9513  154.9123 C   0  0  0  0  0  0  0  0  0  0  0  0
  148.2342  139.3432  155.8666 O   0  0  0  0  0  0  0  0  0  0  0  0
  149.7500  140.8098  154.9786 N   0  0  0  0  0  0  0  0  0  0  0  0
  150.5112  141.1866  156.1179 C   0  0  0  0  0  0  0  0  0  0  0  0
  150.8086  140.1975  157.0744 C   0  0  0  0  0  0  0  0  0  0  0  0
  151.5461  140.5459  158.2218 C   0  0  0  0  0  0  0  0  0  0  0  0
  151.9651  141.8887  158.3938 C   0  0  0  0  0  0  0  0  0  0  0  0
  152.7101  142.2904  159.5262 N   0  0  0  0  0  0  0  0  0  0  0  0
  152.7993  143.7006  159.8840 C   0  0  0  0  0  0  0  0  0  0  0  0
  153.4156  141.2915  160.3231 C   0  0  0  0  0  0  0  0  0  0  0  0
  151.6629  142.8413  157.4781 N   0  0  0  0  0  0  0  0  0  0  0  0
  150.9575  142.5032  156.3784 C   0  0  0  0  0  0  0  0  0  0  0  0
  147.0494  138.9473  151.7184 C   0  0  0  0  0  0  0  0  0  0  0  0
  145.9023  138.0319  151.2582 C   0  0  0  0  0  0  0  0  0  0  0  0
  146.9428  132.9168  152.1602 H   0  0  0  0  0  0  0  0  0  0  0  0
  147.2924  134.7043  152.4638 H   0  0  0  0  0  0  0  0  0  0  0  0
  144.3590  133.3960  149.8604 H   0  0  0  0  0  0  0  0  0  0  0  0
  143.5626  133.2561  151.4331 H   0  0  0  0  0  0  0  0  0  0  0  0
  144.9357  132.2197  151.0429 H   0  0  0  0  0  0  0  0  0  0  0  0
  144.7727  135.9473  150.3038 H   0  0  0  0  0  0  0  0  0  0  0  0
  144.0833  135.8289  151.9088 H   0  0  0  0  0  0  0  0  0  0  0  0
  145.1132  137.0882  153.7096 H   0  0  0  0  0  0  0  0  0  0  0  0
  146.1950  135.7098  153.7272 H   0  0  0  0  0  0  0  0  0  0  0  0
  147.1999  137.6416  154.9242 H   0  0  0  0  0  0  0  0  0  0  0  0
  148.1717  137.1576  153.5550 H   0  0  0  0  0  0  0  0  0  0  0  0
  146.1950  139.4950  153.6097 H   0  0  0  0  0  0  0  0  0  0  0  0
  148.7093  140.3863  152.9378 H   0  0  0  0  0  0  0  0  0  0  0  0
  149.9798  141.2971  154.1249 H   0  0  0  0  0  0  0  0  0  0  0  0
  150.4810  139.1781  156.9318 H   0  0  0  0  0  0  0  0  0  0  0  0
  151.7743  139.7774  158.9444 H   0  0  0  0  0  0  0  0  0  0  0  0
  153.2519  144.2737  159.0742 H   0  0  0  0  0  0  0  0  0  0  0  0
  153.4097  143.8466  160.7755 H   0  0  0  0  0  0  0  0  0  0  0  0
  151.8086  144.1064  160.0908 H   0  0  0  0  0  0  0  0  0  0  0  0
  154.1543  140.7684  159.7148 H   0  0  0  0  0  0  0  0  0  0  0  0
  152.7157  140.5581  160.7251 H   0  0  0  0  0  0  0  0  0  0  0  0
  153.9383  141.7480  161.1637 H   0  0  0  0  0  0  0  0  0  0  0  0
  150.7371  143.3242  155.7143 H   0  0  0  0  0  0  0  0  0  0  0  0
  146.9151  139.9442  151.2966 H   0  0  0  0  0  0  0  0  0  0  0  0
  147.9940  138.5696  151.3243 H   0  0  0  0  0  0  0  0  0  0  0  0
  145.9130  137.9746  150.1696 H   0  0  0  0  0  0  0  0  0  0  0  0
  144.9412  138.4637  151.5418 H   0  0  0  0  0  0  0  0  0  0  0  0
  146.9252  136.3090  151.5534 H   0  0  0  0  0  0  0  0  0  0  0  0
  1  2  2  0  0  0  0
  1 24  1  0  0  0  0
  1 25  1  0  0  0  0
  2  3  1  0  0  0  0
  2  4  1  0  0  0  0
  3 26  1  0  0  0  0
  3 27  1  0  0  0  0
  3 28  1  0  0  0  0
  4  5  1  0  0  0  0
  4 29  1  0  0  0  0
  4 30  1  0  0  0  0
  5 23  1  0  0  0  0
  5  6  1  0  0  0  0
  5 51  1  0  0  0  0
  6  7  1  0  0  0  0
  6 31  1  0  0  0  0
  6 32  1  0  0  0  0
  7  8  1  0  0  0  0
  7 33  1  0  0  0  0
  7 34  1  0  0  0  0
  8  9  1  0  0  0  0
  8 22  1  0  0  0  0
  8 35  1  0  0  0  0
  9 10  1  0  0  0  0
  9 36  1  0  0  0  0
 10 11  2  0  0  0  0
 10 12  1  0  0  0  0
 12 13  1  0  0  0  0
 12 37  1  0  0  0  0
 13 21  1  0  0  0  0
 13 14  2  0  0  0  0
 14 15  1  0  0  0  0
 14 38  1  0  0  0  0
 15 16  2  0  0  0  0
 15 39  1  0  0  0  0
 16 17  1  0  0  0  0
 16 20  1  0  0  0  0
 17 18  1  0  0  0  0
 17 19  1  0  0  0  0
 18 40  1  0  0  0  0
 18 41  1  0  0  0  0
 18 42  1  0  0  0  0
 19 43  1  0  0  0  0
 19 44  1  0  0  0  0
 19 45  1  0  0  0  0
 20 21  2  0  0  0  0
 21 46  1  0  0  0  0
 22 23  1  0  0  0  0
 22 47  1  0  0  0  0
 22 48  1  0  0  0  0
 23 49  1  0  0  0  0
 23 50  1  0  0  0  0
M  CHG  1   5   1
M  END
> <s_m_source_file>
AV-unprocessed.smi

> <i_m_source_file_index>
1055

> <i_lp_mmshare_version>
43012

> <i_f3d_flags>
0

> <s_epik_input>
W0NIMl09QyhbQ0gzXSlbQ0gyXU4xW0NIMl1bQ0gyXVtDSF0oW0NIMl1bQ0gyXTEpW05IXUMoPU8pW05IXWMyW2NIXVtjSF1jKE4oW0NIM10pW0NIM10pbltjSF0y

> <s_epik_cmdline>
J2VwaWtfcHl0aG9uJywgJy1waCcsICc3LjAnLCAnLXRuJywgJzgnLCAnLW1hJywgJzIwMCcsICctbWV0YWxfYmluZGluZycsICctaW1hZScsICc8aW5maWxlLm1hZT4nLCAnLW9tYWUnLCAnPG91dGZpbGUubWFlPic=

> <r_lp_tautomer_probability>
1

> <r_epik_Ionization_Penalty>
0.534133

> <r_epik_Ionization_Penalty_Charging>
0.0193505

> <r_epik_Ionization_Penalty_Neutral>
0.514782

> <r_epik_State_Penalty>
0.557749

> <r_epik_Charging_Adjusted_Penalty>
0.5771

> <i_epik_Tot_Q>
1

> <i_epik_Tot_abs_Q>
1

> <r_epik_Metal_State_Penalty>
0.306227

> <b_epik_Metal_Only>
0

> <s_lp_Force_Field>
OPLS_2005

> <r_lp_Energy>
20.3338

> <b_lp_Chiralities_Consistent>
1

> <s_lp_Variant>
AV-unprocessed.smi:1055-3

> <Gold.Version>
5.8.1

> <Gold.Id.Protein>
6NUR|6NUR_protein|mol2

> <Gold.PLP.Fitness>
46.8526

> <Gold.PLP.PLP>
-37.1162

> <Gold.PLP.part.hbond>
-2.0000

> <Gold.PLP.part.metal>
0.0000

> <Gold.PLP.part.buried>
5.6755

> <Gold.PLP.part.nonpolar>
-41.2746

> <Gold.PLP.part.repulsive>
0.3701

> <Gold.PLP.ligand.clash>
0.0000

> <Gold.PLP.ligand.torsion>
0.7580

> <Gold.PLP.Chemscore.Hbond>
2.7454

> <Gold.PLP.Chemscore.CHOScore>
0.9966

> <Gold.PLP.Chemscore.Metal>
0.0000

> <Gold.Chemscore.Hbonds>
donor molecule, donor type, donor heavy atom, donor atom, acceptor molecule, acceptor atom, score
      L1  H     5    51       P1  7948  1.98
      L1  H     9    36       P1  7957  0.75
      L1  C    21    46       P1  8028  1.00

> <Gold.PLP.Chemscore.Internal.Correction>
0.0263

> <Gold.Rescore>
     Score         DG    S(hbond)    S(metal)    S(lipo)     H(rot)  DE(clash)    DE(int)     intcor
     12.61     -18.62       1.37        0.00     102.16       1.33       2.51       3.51       ----

> <Gold.Chemscore.Fitness>
12.6107

> <Gold.Chemscore.DG>
-18.6239

> <Gold.Chemscore.ZeroCoef>
-5.4800

> <Gold.Chemscore.Hbond>
1.3736

> <Gold.Chemscore.Metal>
0.0000

> <Gold.Chemscore.Lipo>
102.1554

> <Gold.Chemscore.Internal_Hbond>
0.0000

> <Gold.Chemscore.DEClash>
2.5057

> <Gold.Chemscore.DEInternal>
3.5075

> <Gold.Chemscore.Rot>
1.3266

> <Gold.Chemscore.Internal.Correction>
   9.000000E+99

> <Gold.Chemscore.Hbonds>
donor molecule, donor type, donor heavy atom, donor atom, acceptor molecule, acceptor atom, score
      L1  H     5    51       P1  7948  0.88
      L1  H     9    36       P1  7957  0.72

> <Gold.Chemscore.Hbond.Weighted>
-4.5879

> <Gold.Chemscore.Metal.Weighted>
-0.0000

> <Gold.Chemscore.Lipo.Weighted>
-11.9522

> <Gold.Chemscore.Internal_Hbond.Weighted>
0.0000

> <Gold.Chemscore.DEClash.Weighted>
2.5057

> <Gold.Chemscore.DEInternal.Weighted>
3.5075

> <Gold.Chemscore.Rot.Weighted>
3.3962

> <Gold.Chemscore.Internal.Correction.Weighted>
   9.000000E+99

> <Gold.Protein.RotatedTorsions>
[ 6907 6896 6895 6894 ] final -135.86 input  -60.11 | X-H torsion
[ 7974 7965 7964 7962 ] final   -1.84 input  175.53 | X-H torsion
[ 8008 7997 7996 7995 ] final   13.28 input   59.86 | X-H torsion
[ 10167 10162 10161 10158 ] final -131.68 input  -65.29 | X-H torsion
[ 10718 10713 10712 10709 ] final   43.43 input   66.30 | X-H torsion
[ 10763 10752 10751 10750 ] final   99.18 input  -60.55 | X-H torsion
[ 11005 11000 10999 10996 ] final  144.20 input  -57.11 | X-H torsion

> <Gold.Protein.ActiveResidues>
 VAL166  LYS551  ARG553  GLY616  TRP617  ASP618  TYR619  PRO620  LYS621  CYS622 
 ASP623  PHE694  ASN695  SER759  ASP760  ASP761  ALA762  ILE779  LEU786  VAL792 
 PHE793  MET794  SER795  GLU796  ALA797  LYS798  CYS799  TRP800  GLU811  SER814 

> <Gold.Protein.RotatedAtoms>
  151.0030  133.6038  159.2692 H   0  0  0  0  0  0  0  0  0  0  0  0  # atno 6907 bound_to 6896
  151.3217  135.0819  159.9318 H   0  0  0  0  0  0  0  0  0  0  0  0  # atno 6908 bound_to 6896
  152.5279  133.9676  159.7801 H   0  0  0  0  0  0  0  0  0  0  0  0  # atno 6909 bound_to 6896
  146.2412  140.1481  142.8334 H   0  0  0  0  0  0  0  0  0  0  0  0  # atno 7974 bound_to 7965
  154.8323  140.2901  155.5714 H   0  0  0  0  0  0  0  0  0  0  0  0  # atno 8008 bound_to 7997
  156.3006  140.2529  156.3182 H   0  0  0  0  0  0  0  0  0  0  0  0  # atno 8009 bound_to 7997
  154.9217  140.0386  157.1991 H   0  0  0  0  0  0  0  0  0  0  0  0  # atno 8010 bound_to 7997
  139.9163  143.6434  152.2564 H   0  0  0  0  0  0  0  0  0  0  0  0  # atno 10167 bound_to 10162
  157.4159  130.7941  149.7471 H   0  0  0  0  0  0  0  0  0  0  0  0  # atno 10718 bound_to 10713
  153.2982  135.4122  155.1229 H   0  0  0  0  0  0  0  0  0  0  0  0  # atno 10763 bound_to 10752
  154.8541  135.3535  154.5887 H   0  0  0  0  0  0  0  0  0  0  0  0  # atno 10764 bound_to 10752
  153.6312  135.7060  153.5333 H   0  0  0  0  0  0  0  0  0  0  0  0  # atno 10765 bound_to 10752
  140.0613  134.9203  157.1189 H   0  0  0  0  0  0  0  0  0  0  0  0  # atno 11005 bound_to 11000
  145.0190  140.8778  143.5178 LP  0  0  0  0  0  0  0  0  0  0  0  0  # atno 17320 bound_to 7965
  145.1527  139.2505  143.5433 LP  0  0  0  0  0  0  0  0  0  0  0  0  # atno 17321 bound_to 7965
  139.6899  144.7648  151.1457 LP  0  0  0  0  0  0  0  0  0  0  0  0  # atno 17342 bound_to 10162
  140.7673  143.5604  150.9105 LP  0  0  0  0  0  0  0  0  0  0  0  0  # atno 17343 bound_to 10162
  155.9865  130.3974  150.3210 LP  0  0  0  0  0  0  0  0  0  0  0  0  # atno 17370 bound_to 10713
  157.1353  131.0282  151.2951 LP  0  0  0  0  0  0  0  0  0  0  0  0  # atno 17371 bound_to 10713
  140.3766  134.2333  155.7174 LP  0  0  0  0  0  0  0  0  0  0  0  0  # atno 17394 bound_to 11000
  141.1974  133.8059  157.0628 LP  0  0  0  0  0  0  0  0  0  0  0  0  # atno 17395 bound_to 11000

$$$$
