AV-unprocessed.smi:2913|AV-procd|sdf|11182|dock2
  -GOLD-   2272016 73D 1   1.00000     0.00000
 Structure written by MMmdl.
 41 42  0  0  0  0  0  0  0  0  1 V2000
  150.9038  144.8255  158.3895 C   0  0  0  0  0  0  0  0  0  0  0  0
  151.5082  143.4732  158.7298 C   0  0  0  0  0  0  0  0  0  0  0  0
  152.4659  143.3846  159.6797 C   0  0  0  0  0  0  0  0  0  0  0  0
  153.0920  142.1167  160.0577 C   0  0  0  0  0  0  0  0  0  0  0  0
  153.9609  142.0458  160.9271 O   0  0  0  0  0  0  0  0  0  0  0  0
  152.6509  141.0202  159.3824 N   0  0  0  0  0  0  0  0  0  0  0  0
  153.2212  139.7035  159.6799 C   0  0  0  0  0  0  0  0  0  0  0  0
  151.6572  141.0981  158.3920 C   0  0  0  0  0  0  0  0  0  0  0  0
  151.0675  142.2639  158.0458 C   0  0  0  0  0  0  0  0  0  0  0  0
  150.0793  142.3893  157.0546 N   0  0  0  0  0  0  0  0  0  0  0  0
  149.3304  141.4387  156.4651 C   0  0  0  0  0  0  0  0  0  0  0  0
  149.3502  140.2372  156.7307 O   0  0  0  0  0  0  0  0  0  0  0  0
  148.5203  141.9790  155.5430 N   0  0  0  0  0  0  0  0  0  0  0  0
  147.5385  141.2599  154.7328 C   0  0  2  0  0  0  0  0  0  0  0  0
  148.0200  141.2264  153.2749 C   0  0  0  0  0  0  0  0  0  0  0  0
  146.1542  141.9240  154.8701 C   0  0  2  0  0  0  0  0  0  0  0  0
  145.9896  143.2285  154.0854 C   0  0  0  0  0  0  0  0  0  0  0  0
  144.8971  143.9208  154.8659 C   0  0  0  0  0  0  0  0  0  0  0  0
  145.2716  143.5590  156.2991 C   0  0  0  0  0  0  0  0  0  0  0  0
  145.9006  142.2819  156.2277 O   0  0  0  0  0  0  0  0  0  0  0  0
  151.3275  145.6236  159.0002 H   0  0  0  0  0  0  0  0  0  0  0  0
  149.8263  144.8122  158.5564 H   0  0  0  0  0  0  0  0  0  0  0  0
  151.0876  145.0703  157.3430 H   0  0  0  0  0  0  0  0  0  0  0  0
  152.7917  144.2805  160.1880 H   0  0  0  0  0  0  0  0  0  0  0  0
  152.7824  138.9048  159.0809 H   0  0  0  0  0  0  0  0  0  0  0  0
  153.0631  139.4454  160.7279 H   0  0  0  0  0  0  0  0  0  0  0  0
  154.2950  139.7002  159.4878 H   0  0  0  0  0  0  0  0  0  0  0  0
  151.4309  140.1467  157.9385 H   0  0  0  0  0  0  0  0  0  0  0  0
  149.9021  143.3381  156.7594 H   0  0  0  0  0  0  0  0  0  0  0  0
  148.5737  142.9766  155.3982 H   0  0  0  0  0  0  0  0  0  0  0  0
  147.4509  140.2276  155.0759 H   0  0  0  0  0  0  0  0  0  0  0  0
  147.3280  140.6677  152.6442 H   0  0  0  0  0  0  0  0  0  0  0  0
  148.9955  140.7454  153.1952 H   0  0  0  0  0  0  0  0  0  0  0  0
  148.1087  142.2315  152.8614 H   0  0  0  0  0  0  0  0  0  0  0  0
  145.3720  141.2281  154.5621 H   0  0  0  0  0  0  0  0  0  0  0  0
  146.9059  143.8197  154.1238 H   0  0  0  0  0  0  0  0  0  0  0  0
  145.7305  143.0677  153.0386 H   0  0  0  0  0  0  0  0  0  0  0  0
  144.8583  144.9966  154.6924 H   0  0  0  0  0  0  0  0  0  0  0  0
  143.9256  143.4951  154.6106 H   0  0  0  0  0  0  0  0  0  0  0  0
  145.9912  144.2761  156.6961 H   0  0  0  0  0  0  0  0  0  0  0  0
  144.4082  143.5426  156.9641 H   0  0  0  0  0  0  0  0  0  0  0  0
  1  2  1  0  0  0  0
  1 21  1  0  0  0  0
  1 22  1  0  0  0  0
  1 23  1  0  0  0  0
  2  9  1  0  0  0  0
  2  3  2  0  0  0  0
  3  4  1  0  0  0  0
  3 24  1  0  0  0  0
  4  5  2  0  0  0  0
  4  6  1  0  0  0  0
  6  7  1  0  0  0  0
  6  8  1  0  0  0  0
  7 25  1  0  0  0  0
  7 26  1  0  0  0  0
  7 27  1  0  0  0  0
  8  9  2  0  0  0  0
  8 28  1  0  0  0  0
  9 10  1  0  0  0  0
 10 11  1  0  0  0  0
 10 29  1  0  0  0  0
 11 12  2  0  0  0  0
 11 13  1  0  0  0  0
 13 14  1  0  0  0  0
 13 30  1  0  0  0  0
 14 15  1  0  0  0  0
 14 16  1  0  0  0  0
 14 31  1  0  0  0  0
 15 32  1  0  0  0  0
 15 33  1  0  0  0  0
 15 34  1  0  0  0  0
 16 20  1  0  0  0  0
 16 17  1  0  0  0  0
 16 35  1  0  0  0  0
 17 18  1  0  0  0  0
 17 36  1  0  0  0  0
 17 37  1  0  0  0  0
 18 19  1  0  0  0  0
 18 38  1  0  0  0  0
 18 39  1  0  0  0  0
 19 20  1  0  0  0  0
 19 40  1  0  0  0  0
 19 41  1  0  0  0  0
M  END
> <s_m_source_file>
AV-unprocessed.smi

> <i_m_source_file_index>
2913

> <i_lp_mmshare_version>
43012

> <i_f3d_flags>
0

> <s_epik_input>
W0NIM11jMVtjSF1jKD1PKW4oW0NIM10pW2NIXWMxW05IXUMoPU8pW05IXVtDQEhdKFtDSDNdKVtDQEBIXTJbQ0gyXVtDSDJdW0NIMl1PMg==

> <s_epik_cmdline>
J2VwaWtfcHl0aG9uJywgJy1waCcsICc3LjAnLCAnLXRuJywgJzgnLCAnLW1hJywgJzIwMCcsICctbWV0YWxfYmluZGluZycsICctaW1hZScsICc8aW5maWxlLm1hZT4nLCAnLW9tYWUnLCAnPG91dGZpbGUubWFlPic=

> <r_lp_tautomer_probability>
1

> <r_epik_Ionization_Penalty>
2.72039e-05

> <r_epik_Ionization_Penalty_Charging>
8.03976e-06

> <r_epik_Ionization_Penalty_Neutral>
1.91642e-05

> <r_epik_State_Penalty>
-0

> <r_epik_Charging_Adjusted_Penalty>
8.03976e-06

> <i_epik_Tot_Q>
0

> <i_epik_Tot_abs_Q>
0

> <r_epik_Metal_State_Penalty>
-0

> <b_epik_Metal_Only>
0

> <s_lp_Force_Field>
OPLS_2005

> <r_lp_Energy>
32.2239

> <b_lp_Chiralities_Consistent>
1

> <s_lp_Variant>
AV-unprocessed.smi:2913-1

> <Gold.Version>
5.8.1

> <Gold.Id.Protein>
6NUR|6NUR_protein|mol2

> <Gold.PLP.Fitness>
43.8135

> <Gold.PLP.PLP>
-38.5348

> <Gold.PLP.part.hbond>
-2.3590

> <Gold.PLP.part.metal>
0.0000

> <Gold.PLP.part.buried>
-5.5666

> <Gold.PLP.part.nonpolar>
-30.7084

> <Gold.PLP.part.repulsive>
0.2277

> <Gold.PLP.ligand.clash>
0.0000

> <Gold.PLP.ligand.torsion>
0.3697

> <Gold.PLP.Chemscore.Hbond>
2.0000

> <Gold.PLP.Chemscore.CHOScore>
0.0000

> <Gold.PLP.Chemscore.Metal>
0.0000

> <Gold.Chemscore.Hbonds>
donor molecule, donor type, donor heavy atom, donor atom, acceptor molecule, acceptor atom, score
      L1  H    10    29       P1  8028  0.99
      L1  H    13    30       P1  8028  1.00

> <Gold.PLP.Chemscore.Internal.Correction>
0.0181

> <Gold.Rescore>
     Score         DG    S(hbond)    S(metal)    S(lipo)     H(rot)  DE(clash)    DE(int)     intcor
     16.56     -18.23       1.91        0.00      80.81       1.21       0.13       1.54       ----

> <Gold.Chemscore.Fitness>
16.5581

> <Gold.Chemscore.DG>
-18.2316

> <Gold.Chemscore.ZeroCoef>
-5.4800

> <Gold.Chemscore.Hbond>
1.9146

> <Gold.Chemscore.Metal>
0.0000

> <Gold.Chemscore.Lipo>
80.8106

> <Gold.Chemscore.Internal_Hbond>
0.0000

> <Gold.Chemscore.DEClash>
0.1292

> <Gold.Chemscore.DEInternal>
1.5443

> <Gold.Chemscore.Rot>
1.2101

> <Gold.Chemscore.Internal.Correction>
   9.000000E+99

> <Gold.Chemscore.Hbonds>
donor molecule, donor type, donor heavy atom, donor atom, acceptor molecule, acceptor atom, score
      L1  H    10    29       P1  8028  0.90
      L1  H    13    30       P1  8028  1.00

> <Gold.Chemscore.Hbond.Weighted>
-6.3947

> <Gold.Chemscore.Metal.Weighted>
-0.0000

> <Gold.Chemscore.Lipo.Weighted>
-9.4548

> <Gold.Chemscore.Internal_Hbond.Weighted>
0.0000

> <Gold.Chemscore.DEClash.Weighted>
0.1292

> <Gold.Chemscore.DEInternal.Weighted>
1.5443

> <Gold.Chemscore.Rot.Weighted>
3.0979

> <Gold.Chemscore.Internal.Correction.Weighted>
   9.000000E+99

> <Gold.Protein.RotatedTorsions>
[ 6907 6896 6895 6894 ] final -114.76 input  -60.11 | X-H torsion
[ 7974 7965 7964 7962 ] final -106.53 input  175.53 | X-H torsion
[ 8008 7997 7996 7995 ] final    1.55 input   59.86 | X-H torsion
[ 10167 10162 10161 10158 ] final -107.30 input  -65.29 | X-H torsion
[ 10718 10713 10712 10709 ] final  120.29 input   66.30 | X-H torsion
[ 10763 10752 10751 10750 ] final   82.56 input  -60.55 | X-H torsion
[ 11005 11000 10999 10996 ] final    8.33 input  -57.11 | X-H torsion

> <Gold.Protein.ActiveResidues>
 VAL166  LYS551  ARG553  GLY616  TRP617  ASP618  TYR619  PRO620  LYS621  CYS622 
 ASP623  PHE694  ASN695  SER759  ASP760  ASP761  ALA762  ILE779  LEU786  VAL792 
 PHE793  MET794  SER795  GLU796  ALA797  LYS798  CYS799  TRP800  GLU811  SER814 

> <Gold.Protein.RotatedAtoms>
  150.7926  133.8756  159.3270 H   0  0  0  0  0  0  0  0  0  0  0  0  # atno 6907 bound_to 6896
  151.6589  135.0990  160.0185 H   0  0  0  0  0  0  0  0  0  0  0  0  # atno 6908 bound_to 6896
  152.4003  133.6768  159.6346 H   0  0  0  0  0  0  0  0  0  0  0  0  # atno 6909 bound_to 6896
  145.2167  140.9118  143.3283 H   0  0  0  0  0  0  0  0  0  0  0  0  # atno 7974 bound_to 7965
  154.6811  140.2633  155.6908 H   0  0  0  0  0  0  0  0  0  0  0  0  # atno 8008 bound_to 7997
  156.2697  140.2810  156.1278 H   0  0  0  0  0  0  0  0  0  0  0  0  # atno 8009 bound_to 7997
  155.1030  140.0374  157.2692 H   0  0  0  0  0  0  0  0  0  0  0  0  # atno 8010 bound_to 7997
  140.1784  143.3986  152.1300 H   0  0  0  0  0  0  0  0  0  0  0  0  # atno 10167 bound_to 10162
  157.5901  131.1065  150.8015 H   0  0  0  0  0  0  0  0  0  0  0  0  # atno 10718 bound_to 10713
  153.1213  135.4724  154.9200 H   0  0  0  0  0  0  0  0  0  0  0  0  # atno 10763 bound_to 10752
  154.7578  135.3123  154.8438 H   0  0  0  0  0  0  0  0  0  0  0  0  # atno 10764 bound_to 10752
  153.9002  135.6876  153.4809 H   0  0  0  0  0  0  0  0  0  0  0  0  # atno 10765 bound_to 10752
  140.5382  134.0400  155.7895 H   0  0  0  0  0  0  0  0  0  0  0  0  # atno 11005 bound_to 11000
  144.9804  139.3789  143.6264 LP  0  0  0  0  0  0  0  0  0  0  0  0  # atno 17320 bound_to 7965
  146.3385  139.8943  142.8804 LP  0  0  0  0  0  0  0  0  0  0  0  0  # atno 17321 bound_to 7965
  139.5307  144.7155  151.5067 LP  0  0  0  0  0  0  0  0  0  0  0  0  # atno 17342 bound_to 10162
  140.6536  143.8646  150.6811 LP  0  0  0  0  0  0  0  0  0  0  0  0  # atno 17343 bound_to 10162
  156.8440  130.5057  149.5318 LP  0  0  0  0  0  0  0  0  0  0  0  0  # atno 17370 bound_to 10713
  156.0954  130.5928  150.9805 LP  0  0  0  0  0  0  0  0  0  0  0  0  # atno 17371 bound_to 10713
  141.1242  133.9410  157.2668 LP  0  0  0  0  0  0  0  0  0  0  0  0  # atno 17394 bound_to 11000
  139.9518  135.0174  156.9015 LP  0  0  0  0  0  0  0  0  0  0  0  0  # atno 17395 bound_to 11000

$$$$
