AV-unprocessed.smi:83|AV-procd|sdf|806|dock3
  -GOLD-   2262017193D 1   1.00000     0.00000
 Structure written by MMmdl.
 56 59  0  0  0  0  0  0  0  0  1 V2000
  151.8537  145.1559  160.2099 C   0  0  0  0  0  0  0  0  0  0  0  0
  152.2669  143.8244  160.8400 C   0  0  0  0  0  0  0  0  0  0  0  0
  152.3777  143.7533  162.0636 O   0  0  0  0  0  0  0  0  0  0  0  0
  152.4973  142.7717  160.0297 N   0  0  0  0  0  0  0  0  0  0  0  0
  152.8982  141.4507  160.5062 C   0  0  0  0  0  0  0  0  0  0  0  0
  153.1065  140.6070  159.2447 C   0  0  0  0  0  0  0  0  0  0  0  0
  152.2202  141.2713  158.1914 C   0  0  1  0  0  0  0  0  0  0  0  0
  150.7833  140.6989  158.2668 C   0  0  0  0  0  0  0  0  0  0  0  0
  149.9336  141.0549  157.1289 N   0  0  0  0  0  0  0  0  0  0  0  0
  150.5436  140.9995  155.8017 C   0  0  0  0  0  0  0  0  0  0  0  0
  148.7919  141.7871  157.2979 C   0  0  0  0  0  0  0  0  0  0  0  0
  148.6225  142.4465  158.4771 N   0  0  0  0  0  0  0  0  0  0  0  0
  147.5124  143.1451  158.7249 C   0  0  0  0  0  0  0  0  0  0  0  0
  146.4479  143.3197  157.9436 N   0  0  0  0  0  0  0  0  0  0  0  0
  146.6048  142.6792  156.7516 C   0  0  0  0  0  0  0  0  0  0  0  0
  147.7321  141.9062  156.3427 C   0  0  0  0  0  0  0  0  0  0  0  0
  147.5109  141.4331  155.0521 N   0  0  0  0  0  0  0  0  0  0  0  0
  146.3286  141.8774  154.7299 C   0  0  0  0  0  0  0  0  0  0  0  0
  145.7123  142.6345  155.6962 N   0  0  0  0  0  0  0  0  0  0  0  0
  144.4020  143.2533  155.6126 C   0  0  0  0  0  0  0  0  0  0  0  0
  144.4835  144.7488  155.2514 C   0  0  1  0  0  0  0  0  0  0  0  0
  144.1010  144.9597  153.9043 O   0  0  0  0  0  0  0  0  0  0  0  0
  143.6517  145.6416  156.1946 C   0  0  1  0  0  0  0  0  0  0  0  0
  143.8513  147.1577  156.0252 C   0  0  0  0  0  0  0  0  0  0  0  0
  142.4758  147.6554  155.6222 C   0  0  0  0  0  0  0  0  0  0  0  0
  141.5570  146.6100  156.2401 C   0  0  0  0  0  0  0  0  0  0  0  0
  142.2578  145.3965  156.0216 O   0  0  0  0  0  0  0  0  0  0  0  0
  152.3388  142.7543  158.5776 C   0  0  0  0  0  0  0  0  0  0  0  0
  152.5559  145.4509  159.4297 H   0  0  0  0  0  0  0  0  0  0  0  0
  151.8338  145.9469  160.9602 H   0  0  0  0  0  0  0  0  0  0  0  0
  150.8576  145.0819  159.7742 H   0  0  0  0  0  0  0  0  0  0  0  0
  153.8042  141.4950  161.1124 H   0  0  0  0  0  0  0  0  0  0  0  0
  152.0982  141.0331  161.1197 H   0  0  0  0  0  0  0  0  0  0  0  0
  154.1498  140.6742  158.9337 H   0  0  0  0  0  0  0  0  0  0  0  0
  152.8803  139.5516  159.4004 H   0  0  0  0  0  0  0  0  0  0  0  0
  152.6205  141.1006  157.1913 H   0  0  0  0  0  0  0  0  0  0  0  0
  150.8537  139.6107  158.2772 H   0  0  0  0  0  0  0  0  0  0  0  0
  150.3227  140.9361  159.2196 H   0  0  0  0  0  0  0  0  0  0  0  0
  149.8184  140.6764  155.0539 H   0  0  0  0  0  0  0  0  0  0  0  0
  151.3735  140.2927  155.7817 H   0  0  0  0  0  0  0  0  0  0  0  0
  150.9300  141.9779  155.5138 H   0  0  0  0  0  0  0  0  0  0  0  0
  147.4695  143.6286  159.6897 H   0  0  0  0  0  0  0  0  0  0  0  0
  145.8727  141.6664  153.7735 H   0  0  0  0  0  0  0  0  0  0  0  0
  143.8092  142.7106  154.8751 H   0  0  0  0  0  0  0  0  0  0  0  0
  143.9011  143.1224  156.5724 H   0  0  0  0  0  0  0  0  0  0  0  0
  145.5245  145.0651  155.3291 H   0  0  0  0  0  0  0  0  0  0  0  0
  143.5951  144.2151  153.6167 H   0  0  0  0  0  0  0  0  0  0  0  0
  143.8950  145.3782  157.2254 H   0  0  0  0  0  0  0  0  0  0  0  0
  144.1425  147.5994  156.9791 H   0  0  0  0  0  0  0  0  0  0  0  0
  144.6166  147.4230  155.2954 H   0  0  0  0  0  0  0  0  0  0  0  0
  142.2670  148.6676  155.9690 H   0  0  0  0  0  0  0  0  0  0  0  0
  142.3769  147.6382  154.5360 H   0  0  0  0  0  0  0  0  0  0  0  0
  141.4410  146.7775  157.3122 H   0  0  0  0  0  0  0  0  0  0  0  0
  140.5677  146.5915  155.7828 H   0  0  0  0  0  0  0  0  0  0  0  0
  151.5040  143.3557  158.2266 H   0  0  0  0  0  0  0  0  0  0  0  0
  153.2409  143.1801  158.1363 H   0  0  0  0  0  0  0  0  0  0  0  0
  1  2  1  0  0  0  0
  1 29  1  0  0  0  0
  1 30  1  0  0  0  0
  1 31  1  0  0  0  0
  2  3  2  0  0  0  0
  2  4  1  0  0  0  0
  4 28  1  0  0  0  0
  4  5  1  0  0  0  0
  5  6  1  0  0  0  0
  5 32  1  0  0  0  0
  5 33  1  0  0  0  0
  6  7  1  0  0  0  0
  6 34  1  0  0  0  0
  6 35  1  0  0  0  0
  7  8  1  0  0  0  0
  7 28  1  0  0  0  0
  7 36  1  0  0  0  0
  8  9  1  0  0  0  0
  8 37  1  0  0  0  0
  8 38  1  0  0  0  0
  9 10  1  0  0  0  0
  9 11  1  0  0  0  0
 10 39  1  0  0  0  0
 10 40  1  0  0  0  0
 10 41  1  0  0  0  0
 11 16  1  0  0  0  0
 11 12  2  0  0  0  0
 12 13  1  0  0  0  0
 13 14  2  0  0  0  0
 13 42  1  0  0  0  0
 14 15  1  0  0  0  0
 15 19  1  0  0  0  0
 15 16  2  0  0  0  0
 16 17  1  0  0  0  0
 17 18  2  0  0  0  0
 18 19  1  0  0  0  0
 18 43  1  0  0  0  0
 19 20  1  0  0  0  0
 20 21  1  0  0  0  0
 20 44  1  0  0  0  0
 20 45  1  0  0  0  0
 21 22  1  0  0  0  0
 21 23  1  0  0  0  0
 21 46  1  0  0  0  0
 22 47  1  0  0  0  0
 23 27  1  0  0  0  0
 23 24  1  0  0  0  0
 23 48  1  0  0  0  0
 24 25  1  0  0  0  0
 24 49  1  0  0  0  0
 24 50  1  0  0  0  0
 25 26  1  0  0  0  0
 25 51  1  0  0  0  0
 25 52  1  0  0  0  0
 26 27  1  0  0  0  0
 26 53  1  0  0  0  0
 26 54  1  0  0  0  0
 28 55  1  0  0  0  0
 28 56  1  0  0  0  0
M  END
> <s_m_source_file>
AV-unprocessed.smi

> <i_m_source_file_index>
83

> <i_lp_mmshare_version>
43012

> <i_f3d_flags>
0

> <s_epik_input>
W0NIM11DKD1PKU4xW0NIMl1bQ0gyXVtDQEhdKFtDSDJdMSlbQ0gyXU4oW0NIM10pYyhuW2NIXW4yKWMoYzIzKW5bY0hdbjNbQ0gyXVtDQEhdKFtPSF0pW0NAQEhdNFtDSDJdW0NIMl1bQ0gyXU80

> <s_epik_cmdline>
J2VwaWtfcHl0aG9uJywgJy1waCcsICc3LjAnLCAnLXRuJywgJzgnLCAnLW1hJywgJzIwMCcsICctbWV0YWxfYmluZGluZycsICctaW1hZScsICc8aW5maWxlLm1hZT4nLCAnLW9tYWUnLCAnPG91dGZpbGUubWFlPic=

> <r_lp_tautomer_probability>
1

> <r_epik_Ionization_Penalty>
0.00109752

> <r_epik_Ionization_Penalty_Charging>
0

> <r_epik_Ionization_Penalty_Neutral>
0.00109752

> <r_epik_State_Penalty>
0.000634803

> <r_epik_Charging_Adjusted_Penalty>
0.000634803

> <i_epik_Tot_Q>
0

> <i_epik_Tot_abs_Q>
0

> <r_epik_Metal_State_Penalty>
-0

> <b_epik_Metal_Only>
0

> <s_lp_Force_Field>
OPLS_2005

> <r_lp_Energy>
56.5247

> <b_lp_Chiralities_Consistent>
1

> <s_lp_Variant>
AV-unprocessed.smi:83-7

> <Gold.Version>
5.8.1

> <Gold.Id.Protein>
6NUR|6NUR_protein|mol2

> <Gold.PLP.Fitness>
52.2612

> <Gold.PLP.PLP>
-49.2617

> <Gold.PLP.part.hbond>
-1.0000

> <Gold.PLP.part.metal>
0.0000

> <Gold.PLP.part.buried>
-9.4187

> <Gold.PLP.part.nonpolar>
-40.6503

> <Gold.PLP.part.repulsive>
0.6138

> <Gold.PLP.ligand.clash>
0.0000

> <Gold.PLP.ligand.torsion>
1.5662

> <Gold.PLP.Chemscore.Hbond>
1.0000

> <Gold.PLP.Chemscore.CHOScore>
0.8464

> <Gold.PLP.Chemscore.Metal>
0.0000

> <Gold.Chemscore.Hbonds>
donor molecule, donor type, donor heavy atom, donor atom, acceptor molecule, acceptor atom, score
      L1  C    18    43       P1 10175  0.32

> <Gold.PLP.Chemscore.Internal.Correction>
0.5927

> <Gold.Rescore>
     Score         DG    S(hbond)    S(metal)    S(lipo)     H(rot)  DE(clash)    DE(int)     intcor
     11.67     -13.16       0.94        0.00      95.94       2.62       0.00       1.49       ----

> <Gold.Chemscore.Fitness>
11.6680

> <Gold.Chemscore.DG>
-13.1596

> <Gold.Chemscore.ZeroCoef>
-5.4800

> <Gold.Chemscore.Hbond>
0.9430

> <Gold.Chemscore.Metal>
0.0000

> <Gold.Chemscore.Lipo>
95.9403

> <Gold.Chemscore.Internal_Hbond>
0.0000

> <Gold.Chemscore.DEClash>
0.0015

> <Gold.Chemscore.DEInternal>
1.4902

> <Gold.Chemscore.Rot>
2.6152

> <Gold.Chemscore.Internal.Correction>
   9.000000E+99

> <Gold.Chemscore.Hbonds>
donor molecule, donor type, donor heavy atom, donor atom, acceptor molecule, acceptor atom, score
      L1  H    22    47       P1 10174  0.04

> <Gold.Chemscore.Hbond.Weighted>
-3.1495

> <Gold.Chemscore.Metal.Weighted>
-0.0000

> <Gold.Chemscore.Lipo.Weighted>
-11.2250

> <Gold.Chemscore.Internal_Hbond.Weighted>
0.0000

> <Gold.Chemscore.DEClash.Weighted>
0.0015

> <Gold.Chemscore.DEInternal.Weighted>
1.4902

> <Gold.Chemscore.Rot.Weighted>
6.6949

> <Gold.Chemscore.Internal.Correction.Weighted>
   9.000000E+99

> <Gold.Protein.RotatedTorsions>
[ 6907 6896 6895 6894 ] final  161.39 input  -60.11 | X-H torsion
[ 7974 7965 7964 7962 ] final -123.99 input  175.53 | X-H torsion
[ 8008 7997 7996 7995 ] final    5.20 input   59.86 | X-H torsion
[ 10167 10162 10161 10158 ] final  -80.42 input  -65.29 | X-H torsion
[ 10718 10713 10712 10709 ] final  -89.83 input   66.30 | X-H torsion
[ 10763 10752 10751 10750 ] final  -13.51 input  -60.55 | X-H torsion
[ 11005 11000 10999 10996 ] final  -33.11 input  -57.11 | X-H torsion

> <Gold.Protein.ActiveResidues>
 VAL166  LYS551  ARG553  GLY616  TRP617  ASP618  TYR619  PRO620  LYS621  CYS622 
 ASP623  PHE694  ASN695  SER759  ASP760  ASP761  ALA762  ILE779  LEU786  VAL792 
 PHE793  MET794  SER795  GLU796  ALA797  LYS798  CYS799  TRP800  GLU811  SER814 

> <Gold.Protein.RotatedAtoms>
  151.9563  133.3681  159.4018 H   0  0  0  0  0  0  0  0  0  0  0  0  # atno 6907 bound_to 6896
  150.6972  134.4287  159.5248 H   0  0  0  0  0  0  0  0  0  0  0  0  # atno 6908 bound_to 6896
  152.1969  134.8623  160.0562 H   0  0  0  0  0  0  0  0  0  0  0  0  # atno 6909 bound_to 6896
  145.0128  140.7921  143.4428 H   0  0  0  0  0  0  0  0  0  0  0  0  # atno 7974 bound_to 7965
  154.7254  140.2720  155.6504 H   0  0  0  0  0  0  0  0  0  0  0  0  # atno 8008 bound_to 7997
  156.2835  140.2726  156.1863 H   0  0  0  0  0  0  0  0  0  0  0  0  # atno 8009 bound_to 7997
  155.0452  140.0371  157.2514 H   0  0  0  0  0  0  0  0  0  0  0  0  # atno 8010 bound_to 7997
  140.4505  143.2484  151.8496 H   0  0  0  0  0  0  0  0  0  0  0  0  # atno 10167 bound_to 10162
  155.9985  130.4887  150.5231 H   0  0  0  0  0  0  0  0  0  0  0  0  # atno 10718 bound_to 10713
  153.5143  135.7016  153.5764 H   0  0  0  0  0  0  0  0  0  0  0  0  # atno 10763 bound_to 10752
  153.3841  135.3912  155.1877 H   0  0  0  0  0  0  0  0  0  0  0  0  # atno 10764 bound_to 10752
  154.8700  135.3842  154.4626 H   0  0  0  0  0  0  0  0  0  0  0  0  # atno 10765 bound_to 10752
  140.9608  133.7165  156.1366 H   0  0  0  0  0  0  0  0  0  0  0  0  # atno 11005 bound_to 11000
  145.1999  139.2257  143.5198 LP  0  0  0  0  0  0  0  0  0  0  0  0  # atno 17320 bound_to 7965
  146.3473  140.1814  142.8589 LP  0  0  0  0  0  0  0  0  0  0  0  0  # atno 17321 bound_to 7965
  139.4796  144.5125  151.8912 LP  0  0  0  0  0  0  0  0  0  0  0  0  # atno 17342 bound_to 10162
  140.4213  144.2240  150.5887 LP  0  0  0  0  0  0  0  0  0  0  0  0  # atno 17343 bound_to 10162
  157.3190  131.0678  151.1946 LP  0  0  0  0  0  0  0  0  0  0  0  0  # atno 17370 bound_to 10713
  157.2865  130.6775  149.6092 LP  0  0  0  0  0  0  0  0  0  0  0  0  # atno 17371 bound_to 10713
  140.7470  134.4087  157.5547 LP  0  0  0  0  0  0  0  0  0  0  0  0  # atno 17394 bound_to 11000
  139.8877  134.8875  156.2512 LP  0  0  0  0  0  0  0  0  0  0  0  0  # atno 17395 bound_to 11000

$$$$
