#       Name:                AV-unprocessed.smi:2473
#       Creating user name   scv26
#       Creation time:       Fri Mar 27 13:38:58 2020


#       File generated by GOLD software.
#

@<TRIPOS>MOLECULE
AV-unprocessed.smi:2473
    50    51     1
SMALL
NO_CHARGES


@<TRIPOS>ATOM
      1 ****        -2.0381  -1.7718   2.7860 C.3            1 S1                 0.0000
      2 ****        -1.3362  -1.6478   1.4260 C.3            1 S1                 0.0000
      3 ****        -1.5141  -0.2329   0.8403 C.3            1 S1                 0.0000
      4 ****        -0.8674  -0.0540  -0.5514 C.3            1 S1                 0.0000
      5 ****         0.6499   0.2049  -0.5083 C.2            1 S1                 0.0000
      6 ****         1.3360  -0.1807   0.4381 O.2            1 S1                 0.0000
      7 ****         1.1516   0.9245  -1.5250 N.am           1 S1                 0.0000
      8 ****         2.5375   1.3680  -1.6517 C.3            1 S1                 0.0000
      9 ****         2.7562   2.7907  -1.0997 C.3            1 S1                 0.0000
     10 ****         2.4759   2.9257   0.3683 C.2            1 S1                 0.0000
     11 ****         3.3203   2.5216   1.3125 N.2            1 S1                 0.0000
     12 ****         2.6715   2.7945   2.5114 C.2            1 S1                 0.0000
     13 ****         1.4491   3.3635   2.2485 C.2            1 S1                 0.0000
     14 ****         1.3355   3.4444   0.8670 N.pl3          1 S1                 0.0000
     15 ****         0.2014   3.9833   0.1409 C.3            1 S1                 0.0000
     16 ****        -1.2786  -1.1924  -1.5183 C.3            1 S1                 0.0000
     17 ****        -1.1872  -2.6400  -0.9619 C.3            1 S1                 0.0000
     18 ****        -1.9590  -3.5729  -1.9176 C.3            1 S1                 0.0000
     19 ****         0.2683  -3.1539  -0.9090 C.3            1 S1                 0.0000
     20 ****        -1.8530  -2.7088   0.4343 C.3            1 S1                 0.0000
     21 ****        -3.1131  -1.6134   2.6948 H              1 S1                 0.0000
     22 ****        -1.6524  -1.0378   3.4939 H              1 S1                 0.0000
     23 ****        -1.8828  -2.7599   3.2197 H              1 S1                 0.0000
     24 ****        -0.2771  -1.8271   1.6058 H              1 S1                 0.0000
     25 ****        -2.5797  -0.0148   0.7575 H              1 S1                 0.0000
     26 ****        -1.1169   0.5089   1.5354 H              1 S1                 0.0000
     27 ****        -1.2884   0.8670  -0.9585 H              1 S1                 0.0000
     28 ****         0.5167   1.2097  -2.2564 H              1 S1                 0.0000
     29 ****         3.2141   0.6654  -1.1624 H              1 S1                 0.0000
     30 ****         2.7960   1.3491  -2.7103 H              1 S1                 0.0000
     31 ****         3.7923   3.0840  -1.2719 H              1 S1                 0.0000
     32 ****         2.1512   3.5042  -1.6589 H              1 S1                 0.0000
     33 ****         3.1300   2.5623   3.4611 H              1 S1                 0.0000
     34 ****         0.6708   3.7072   2.9137 H              1 S1                 0.0000
     35 ****        -0.6009   4.2387   0.8336 H              1 S1                 0.0000
     36 ****        -0.1729   3.2471  -0.5695 H              1 S1                 0.0000
     37 ****         0.5026   4.8823  -0.3970 H              1 S1                 0.0000
     38 ****        -2.3140  -1.0009  -1.8041 H              1 S1                 0.0000
     39 ****        -0.7139  -1.1187  -2.4489 H              1 S1                 0.0000
     40 ****        -1.9373  -4.6064  -1.5700 H              1 S1                 0.0000
     41 ****        -1.5316  -3.5554  -2.9207 H              1 S1                 0.0000
     42 ****        -3.0068  -3.2831  -2.0047 H              1 S1                 0.0000
     43 ****         0.3028  -4.2049  -0.6203 H              1 S1                 0.0000
     44 ****         0.8834  -2.6172  -0.1919 H              1 S1                 0.0000
     45 ****         0.7534  -3.0691  -1.8818 H              1 S1                 0.0000
     46 ****        -1.7163  -3.7047   0.8578 H              1 S1                 0.0000
     47 ****        -2.9308  -2.5788   0.3240 H              1 S1                 0.0000
     48 ****         0.9094  -0.6719   1.1975 LP             1 S1                 0.0000
     49 ****         2.3200  -0.0028   0.4475 LP             1 S1                 0.0000
     50 ****         4.2238   2.1114   1.1877 LP             1 S1                 0.0000
@<TRIPOS>BOND
    1    1    2 1     
    2    1   21 1     
    3    1   22 1     
    4    1   23 1     
    5    2   20 1     
    6    2    3 1     
    7    2   24 1     
    8    3    4 1     
    9    3   25 1     
   10    3   26 1     
   11    4    5 1     
   12    4   16 1     
   13    4   27 1     
   14    5    6 2     
   15    5    7 am    
   16    7    8 1     
   17    7   28 1     
   18    8    9 1     
   19    8   29 1     
   20    8   30 1     
   21    9   10 1     
   22    9   31 1     
   23    9   32 1     
   24   10   14 1     
   25   10   11 2     
   26   11   12 1     
   27   12   13 2     
   28   12   33 1     
   29   13   14 1     
   30   13   34 1     
   31   14   15 1     
   32   15   35 1     
   33   15   36 1     
   34   15   37 1     
   35   16   17 1     
   36   16   38 1     
   37   16   39 1     
   38   17   18 1     
   39   17   19 1     
   40   17   20 1     
   41   18   40 1     
   42   18   41 1     
   43   18   42 1     
   44   19   43 1     
   45   19   44 1     
   46   19   45 1     
   47   20   46 1     
   48   20   47 1     
   49    6   48 1     
   50    6   49 1     
   51   11   50 1     
@<TRIPOS>SUBSTRUCTURE
      1 S1             1
@<TRIPOS>SET
LONE_PAIRS      STATIC     ATOMS    <user>   **** ""
3 48 49 50
DONOR_HYDROGENS      STATIC     ATOMS    <user>   **** ""
1 28
ATOM$BLUE        STATIC     ATOMS    COLORGROUP SYSTEM
3 48 49 50
ATOM$RED        STATIC     ATOMS    COLORGROUP SYSTEM
1 28
