AV-unprocessed.smi:109|AV-procd|sdf|1052|dock6
  -GOLD-   2262018103D 1   1.00000     0.00000
 Structure written by MMmdl.
 58 61  0  0  0  0  0  0  0  0  1 V2000
  145.9714  138.4847  159.4643 O   0  0  0  0  0  0  0  0  0  0  0  0
  145.9798  137.7931  158.2342 C   0  0  0  0  0  0  0  0  0  0  0  0
  147.2593  136.9497  158.1167 C   0  0  0  0  0  0  0  0  0  0  0  0
  147.0917  135.5219  158.6821 C   0  0  1  0  0  0  0  0  0  0  0  0
  148.2646  134.7144  158.3464 N   0  0  0  0  0  0  0  0  0  0  0  0
  148.5920  134.4335  157.0654 C   0  0  0  0  0  0  0  0  0  0  0  0
  149.8628  134.5853  156.6097 N   0  0  0  0  0  0  0  0  0  0  0  0
  150.1576  134.2868  155.3414 C   0  0  0  0  0  0  0  0  0  0  0  0
  149.3497  133.8288  154.3831 N   0  0  0  0  0  0  0  0  0  0  0  0
  148.0705  133.6760  154.8326 C   0  0  0  0  0  0  0  0  0  0  0  0
  147.6160  133.9587  156.1513 C   0  0  0  0  0  0  0  0  0  0  0  0
  146.2572  133.6910  156.2490 N   0  0  0  0  0  0  0  0  0  0  0  0
  145.9318  133.2730  155.0554 C   0  0  0  0  0  0  0  0  0  0  0  0
  146.9607  133.2294  154.1407 N   0  0  0  0  0  0  0  0  0  0  0  0
  146.8798  132.7809  152.7118 C   0  0  2  0  0  0  0  0  0  0  0  0
  145.7989  133.4095  152.0887 O   0  0  0  0  0  0  0  0  0  0  0  0
  144.8824  132.4412  151.5850 C   0  0  1  0  0  0  0  0  0  0  0  0
  144.1413  132.9787  150.3483 C   0  0  0  0  0  0  0  0  0  0  0  0
  142.8718  132.3720  150.2324 O   0  0  0  0  0  0  0  0  0  0  0  0
  145.7201  131.1674  151.3996 C   0  0  1  0  0  0  0  0  0  0  0  0
  146.4049  131.1721  150.1604 O   0  0  0  0  0  0  0  0  0  0  0  0
  146.7084  131.2559  152.5517 C   0  0  2  0  0  0  0  0  0  0  0  0
  146.1947  130.6084  153.7022 O   0  0  0  0  0  0  0  0  0  0  0  0
  146.8093  135.4710  160.2086 C   0  0  0  0  0  0  0  0  0  0  0  0
  147.6556  136.4862  161.0069 C   0  0  0  0  0  0  0  0  0  0  0  0
  147.2765  136.4844  162.4970 C   0  0  0  0  0  0  0  0  0  0  0  0
  147.4048  135.0778  163.1024 C   0  0  0  0  0  0  0  0  0  0  0  0
  146.5720  134.0552  162.3134 C   0  0  0  0  0  0  0  0  0  0  0  0
  146.9499  134.0592  160.8229 C   0  0  0  0  0  0  0  0  0  0  0  0
  147.8012  133.1466  152.2568 H   0  0  0  0  0  0  0  0  0  0  0  0
  144.1523  132.2536  152.3731 H   0  0  0  0  0  0  0  0  0  0  0  0
  145.1068  130.2663  151.4420 H   0  0  0  0  0  0  0  0  0  0  0  0
  147.6712  130.8016  152.3138 H   0  0  0  0  0  0  0  0  0  0  0  0
  145.3151  139.1634  159.4221 H   0  0  0  0  0  0  0  0  0  0  0  0
  145.0945  137.1590  158.1784 H   0  0  0  0  0  0  0  0  0  0  0  0
  145.9132  138.5191  157.4234 H   0  0  0  0  0  0  0  0  0  0  0  0
  147.5711  136.9063  157.0722 H   0  0  0  0  0  0  0  0  0  0  0  0
  148.0540  137.4700  158.6501 H   0  0  0  0  0  0  0  0  0  0  0  0
  146.2244  135.0959  158.1768 H   0  0  0  0  0  0  0  0  0  0  0  0
  148.7768  134.3426  159.1335 H   0  0  0  0  0  0  0  0  0  0  0  0
  151.1880  134.4328  155.0530 H   0  0  0  0  0  0  0  0  0  0  0  0
  144.9221  132.9793  154.8077 H   0  0  0  0  0  0  0  0  0  0  0  0
  143.9977  134.0553  150.4436 H   0  0  0  0  0  0  0  0  0  0  0  0
  144.7125  132.8156  149.4343 H   0  0  0  0  0  0  0  0  0  0  0  0
  142.2562  133.0200  149.9252 H   0  0  0  0  0  0  0  0  0  0  0  0
  147.3329  131.1271  150.3341 H   0  0  0  0  0  0  0  0  0  0  0  0
  146.7212  129.8428  153.8743 H   0  0  0  0  0  0  0  0  0  0  0  0
  145.7704  135.7745  160.3475 H   0  0  0  0  0  0  0  0  0  0  0  0
  148.7171  136.2575  160.9147 H   0  0  0  0  0  0  0  0  0  0  0  0
  147.5183  137.4880  160.5985 H   0  0  0  0  0  0  0  0  0  0  0  0
  147.9119  137.1829  163.0425 H   0  0  0  0  0  0  0  0  0  0  0  0
  146.2526  136.8415  162.6145 H   0  0  0  0  0  0  0  0  0  0  0  0
  148.4525  134.7743  163.1010 H   0  0  0  0  0  0  0  0  0  0  0  0
  147.0874  135.0910  164.1454 H   0  0  0  0  0  0  0  0  0  0  0  0
  146.7168  133.0581  162.7304 H   0  0  0  0  0  0  0  0  0  0  0  0
  145.5113  134.2845  162.4226 H   0  0  0  0  0  0  0  0  0  0  0  0
  146.3184  133.3487  160.2890 H   0  0  0  0  0  0  0  0  0  0  0  0
  147.9747  133.7024  160.7176 H   0  0  0  0  0  0  0  0  0  0  0  0
  1  2  1  0  0  0  0
  1 34  1  0  0  0  0
  2  3  1  0  0  0  0
  2 35  1  0  0  0  0
  2 36  1  0  0  0  0
  3  4  1  0  0  0  0
  3 37  1  0  0  0  0
  3 38  1  0  0  0  0
  4  5  1  0  0  0  0
  4 24  1  0  0  0  0
  4 39  1  0  0  0  0
  5  6  1  0  0  0  0
  5 40  1  0  0  0  0
  6 11  1  0  0  0  0
  6  7  2  0  0  0  0
  7  8  1  0  0  0  0
  8  9  2  0  0  0  0
  8 41  1  0  0  0  0
  9 10  1  0  0  0  0
 10 14  1  0  0  0  0
 10 11  2  0  0  0  0
 11 12  1  0  0  0  0
 12 13  2  0  0  0  0
 13 14  1  0  0  0  0
 13 42  1  0  0  0  0
 14 15  1  0  0  0  0
 15 30  1  0  0  0  0
 15 22  1  0  0  0  0
 15 16  1  0  0  0  0
 16 17  1  0  0  0  0
 17 31  1  0  0  0  0
 17 18  1  0  0  0  0
 17 20  1  0  0  0  0
 18 19  1  0  0  0  0
 18 43  1  0  0  0  0
 18 44  1  0  0  0  0
 19 45  1  0  0  0  0
 20 32  1  0  0  0  0
 20 21  1  0  0  0  0
 20 22  1  0  0  0  0
 21 46  1  0  0  0  0
 22 33  1  0  0  0  0
 22 23  1  0  0  0  0
 23 47  1  0  0  0  0
 24 29  1  0  0  0  0
 24 25  1  0  0  0  0
 24 48  1  0  0  0  0
 25 26  1  0  0  0  0
 25 49  1  0  0  0  0
 25 50  1  0  0  0  0
 26 27  1  0  0  0  0
 26 51  1  0  0  0  0
 26 52  1  0  0  0  0
 27 28  1  0  0  0  0
 27 53  1  0  0  0  0
 27 54  1  0  0  0  0
 28 29  1  0  0  0  0
 28 55  1  0  0  0  0
 28 56  1  0  0  0  0
 29 57  1  0  0  0  0
 29 58  1  0  0  0  0
M  END
> <s_m_source_file>
AV-unprocessed.smi

> <i_m_source_file_index>
109

> <i_lp_mmshare_version>
43012

> <i_f3d_flags>
0

> <s_epik_input>
W0NIMl0xW0NIMl1bQ0gyXVtDSDJdW0NIMl1bQ0hdMVtDQEhdKFtDSDJdW0NIMl1bT0hdKVtOSF1jKG5bY0hdbjIpYyhjMjMpbltjSF1uM1tDQEBIXTRPW0NASF0oW0NIMl1bT0hdKVtDQEBIXShbT0hdKVtDQEhdNFtPSF0=

> <s_epik_cmdline>
J2VwaWtfcHl0aG9uJywgJy1waCcsICc3LjAnLCAnLXRuJywgJzgnLCAnLW1hJywgJzIwMCcsICctbWV0YWxfYmluZGluZycsICctaW1hZScsICc8aW5maWxlLm1hZT4nLCAnLW9tYWUnLCAnPG91dGZpbGUubWFlPic=

> <r_lp_tautomer_probability>
1

> <r_epik_Ionization_Penalty>
0.000793976

> <r_epik_Ionization_Penalty_Charging>
0

> <r_epik_Ionization_Penalty_Neutral>
0.000793976

> <r_epik_State_Penalty>
-0

> <r_epik_Charging_Adjusted_Penalty>
0

> <i_epik_Tot_Q>
0

> <i_epik_Tot_abs_Q>
0

> <r_epik_Metal_State_Penalty>
-0

> <b_epik_Metal_Only>
0

> <s_epik_Chemistry_Notes>
This compound contains an acetal/aminal-like group ( X-CH(R)-Y where X, Y are N, S, or O) that may be acid/base labile, releasing an aldehyde.

> <s_lp_Force_Field>
OPLS_2005

> <r_lp_Energy>
55.7279

> <b_lp_Chiralities_Consistent>
1

> <s_lp_Variant>
AV-unprocessed.smi:109-22

> <Gold.Version>
5.8.1

> <Gold.Id.Protein>
6NUR|6NUR_protein|mol2

> <Gold.PLP.Fitness>
47.8747

> <Gold.PLP.PLP>
-40.2814

> <Gold.PLP.part.hbond>
-4.1805

> <Gold.PLP.part.metal>
0.0000

> <Gold.PLP.part.buried>
-8.0052

> <Gold.PLP.part.nonpolar>
-28.8946

> <Gold.PLP.part.repulsive>
0.3489

> <Gold.PLP.ligand.clash>
0.0000

> <Gold.PLP.ligand.torsion>
1.5864

> <Gold.PLP.Chemscore.Hbond>
2.5120

> <Gold.PLP.Chemscore.CHOScore>
0.9543

> <Gold.PLP.Chemscore.Metal>
0.0000

> <Gold.Chemscore.Hbonds>
donor molecule, donor type, donor heavy atom, donor atom, acceptor molecule, acceptor atom, score
      L1  H    19    45       P1 10186  1.00
      L1  H    21    46       P1 10747  1.00
      P1  H  6934  6947       L1     1  0.51
      L1  C    13    42       P1 10957  0.95

> <Gold.PLP.Chemscore.Internal.Correction>
0.3671

> <Gold.Rescore>
     Score         DG    S(hbond)    S(metal)    S(lipo)     H(rot)  DE(clash)    DE(int)     intcor
      6.40      -9.14       2.41        0.00      82.07       5.47       0.02       2.72       ----

> <Gold.Chemscore.Fitness>
6.4033

> <Gold.Chemscore.DG>
-9.1413

> <Gold.Chemscore.ZeroCoef>
-5.4800

> <Gold.Chemscore.Hbond>
2.4109

> <Gold.Chemscore.Metal>
0.0000

> <Gold.Chemscore.Lipo>
82.0720

> <Gold.Chemscore.Internal_Hbond>
0.0000

> <Gold.Chemscore.DEClash>
0.0167

> <Gold.Chemscore.DEInternal>
2.7212

> <Gold.Chemscore.Rot>
5.4662

> <Gold.Chemscore.Internal.Correction>
   9.000000E+99

> <Gold.Chemscore.Hbonds>
donor molecule, donor type, donor heavy atom, donor atom, acceptor molecule, acceptor atom, score
      L1  H    19    45       P1 10186  1.00
      L1  H    21    46       P1 10747  1.00
      P1  H  6934  6947       L1     1  0.22

> <Gold.Chemscore.Hbond.Weighted>
-8.0523

> <Gold.Chemscore.Metal.Weighted>
-0.0000

> <Gold.Chemscore.Lipo.Weighted>
-9.6024

> <Gold.Chemscore.Internal_Hbond.Weighted>
0.0000

> <Gold.Chemscore.DEClash.Weighted>
0.0167

> <Gold.Chemscore.DEInternal.Weighted>
2.7212

> <Gold.Chemscore.Rot.Weighted>
13.9935

> <Gold.Chemscore.Internal.Correction.Weighted>
   9.000000E+99

> <Gold.Protein.RotatedTorsions>
[ 6907 6896 6895 6894 ] final -117.06 input  -60.11 | X-H torsion
[ 7974 7965 7964 7962 ] final    2.72 input  175.53 | X-H torsion
[ 8008 7997 7996 7995 ] final  167.09 input   59.86 | X-H torsion
[ 10167 10162 10161 10158 ] final  121.84 input  -65.29 | X-H torsion
[ 10718 10713 10712 10709 ] final -150.49 input   66.30 | X-H torsion
[ 10763 10752 10751 10750 ] final  166.93 input  -60.55 | X-H torsion
[ 11005 11000 10999 10996 ] final  -16.82 input  -57.11 | X-H torsion

> <Gold.Protein.ActiveResidues>
 VAL166  LYS551  ARG553  GLY616  TRP617  ASP618  TYR619  PRO620  LYS621  CYS622 
 ASP623  PHE694  ASN695  SER759  ASP760  ASP761  ALA762  ILE779  LEU786  VAL792 
 PHE793  MET794  SER795  GLU796  ALA797  LYS798  CYS799  TRP800  GLU811  SER814 

> <Gold.Protein.RotatedAtoms>
  150.8106  133.8428  159.3183 H   0  0  0  0  0  0  0  0  0  0  0  0  # atno 6907 bound_to 6896
  151.6215  135.1030  160.0112 H   0  0  0  0  0  0  0  0  0  0  0  0  # atno 6908 bound_to 6896
  152.4198  133.7057  159.6506 H   0  0  0  0  0  0  0  0  0  0  0  0  # atno 6909 bound_to 6896
  146.2444  140.0793  142.8358 H   0  0  0  0  0  0  0  0  0  0  0  0  # atno 7974 bound_to 7965
  156.1664  140.1626  156.8524 H   0  0  0  0  0  0  0  0  0  0  0  0  # atno 8008 bound_to 7997
  154.5211  140.0778  156.8209 H   0  0  0  0  0  0  0  0  0  0  0  0  # atno 8009 bound_to 7997
  155.3603  140.3395  155.4243 H   0  0  0  0  0  0  0  0  0  0  0  0  # atno 8010 bound_to 7997
  139.5895  144.7019  151.3326 H   0  0  0  0  0  0  0  0  0  0  0  0  # atno 10167 bound_to 10162
  156.4468  130.8148  151.2379 H   0  0  0  0  0  0  0  0  0  0  0  0  # atno 10718 bound_to 10713
  154.3463  135.2753  155.2396 H   0  0  0  0  0  0  0  0  0  0  0  0  # atno 10763 bound_to 10752
  154.4644  135.5899  153.6281 H   0  0  0  0  0  0  0  0  0  0  0  0  # atno 10764 bound_to 10752
  152.9853  135.6073  154.3669 H   0  0  0  0  0  0  0  0  0  0  0  0  # atno 10765 bound_to 10752
  140.8107  133.8143  155.9560 H   0  0  0  0  0  0  0  0  0  0  0  0  # atno 11005 bound_to 11000
  145.0747  140.9180  143.4861 LP  0  0  0  0  0  0  0  0  0  0  0  0  # atno 17320 bound_to 7965
  145.0934  139.2874  143.5723 LP  0  0  0  0  0  0  0  0  0  0  0  0  # atno 17321 bound_to 7965
  140.7160  143.7264  150.7657 LP  0  0  0  0  0  0  0  0  0  0  0  0  # atno 17342 bound_to 10162
  140.0816  143.4963  152.2527 LP  0  0  0  0  0  0  0  0  0  0  0  0  # atno 17343 bound_to 10162
  157.7504  131.0150  150.3489 LP  0  0  0  0  0  0  0  0  0  0  0  0  # atno 17370 bound_to 10713
  156.3859  130.3889  149.7066 LP  0  0  0  0  0  0  0  0  0  0  0  0  # atno 17371 bound_to 10713
  140.9201  134.2152  157.4932 LP  0  0  0  0  0  0  0  0  0  0  0  0  # atno 17394 bound_to 11000
  139.8714  134.9788  156.5013 LP  0  0  0  0  0  0  0  0  0  0  0  0  # atno 17395 bound_to 11000

$$$$
