AV-unprocessed.smi:233|AV-procd|sdf|1783|dock2
  -GOLD-   2262020333D 1   1.00000     0.00000
 Structure written by MMmdl.
 59 62  0  0  0  0  0  0  0  0  1 V2000
  151.3440  145.5908  159.9430 C   0  0  0  0  0  0  0  0  0  0  0  0
  151.9082  144.5204  159.0147 C   0  0  0  0  0  0  0  0  0  0  0  0
  152.8207  144.7964  158.2366 O   0  0  0  0  0  0  0  0  0  0  0  0
  151.3547  143.3021  159.1109 N   0  0  0  0  0  0  0  0  0  0  0  0
  151.7336  142.1352  158.3195 C   0  0  2  0  0  0  0  0  0  0  0  0
  150.7284  141.9486  157.1676 C   0  0  0  0  0  0  0  0  0  0  0  0
  151.0397  140.6899  156.3425 C   0  0  0  0  0  0  0  0  0  0  0  0
  151.0828  139.4352  157.2387 C   0  0  1  0  0  0  0  0  0  0  0  0
  151.3152  138.2089  156.4664 N   0  0  0  0  0  0  0  0  0  0  0  0
  152.5586  138.0497  155.7130 C   0  0  0  0  0  0  0  0  0  0  0  0
  150.2046  137.6351  155.9348 C   0  0  0  0  0  0  0  0  0  0  0  0
  149.0604  138.3621  155.8204 N   0  0  0  0  0  0  0  0  0  0  0  0
  147.9570  137.8093  155.3085 C   0  0  0  0  0  0  0  0  0  0  0  0
  147.7790  136.5667  154.8571 N   0  0  0  0  0  0  0  0  0  0  0  0
  148.9231  135.8325  154.9652 C   0  0  0  0  0  0  0  0  0  0  0  0
  150.1699  136.2856  155.4819 C   0  0  0  0  0  0  0  0  0  0  0  0
  151.1111  135.2653  155.4050 N   0  0  0  0  0  0  0  0  0  0  0  0
  150.4570  134.2667  154.8773 C   0  0  0  0  0  0  0  0  0  0  0  0
  149.1293  134.5114  154.6081 N   0  0  0  0  0  0  0  0  0  0  0  0
  148.1948  133.6135  153.9956 C   0  0  0  0  0  0  0  0  0  0  0  0
  148.4815  132.9905  152.6276 C   0  0  0  0  0  0  0  0  0  0  0  0
  146.9681  132.9988  152.3142 C   0  0  0  0  0  0  0  0  0  0  0  0
  146.5888  133.4217  150.8854 C   0  0  0  0  0  0  0  0  0  0  0  0
  146.8986  132.4062  149.9528 O   0  0  0  0  0  0  0  0  0  0  0  0
  146.2155  131.7023  152.6752 C   0  0  0  0  0  0  0  0  0  0  0  0
  146.6870  130.6044  151.9202 O   0  0  0  0  0  0  0  0  0  0  0  0
  146.8917  134.1210  153.3734 C   0  0  0  0  0  0  0  0  0  0  0  0
  152.1066  139.6179  158.3773 C   0  0  0  0  0  0  0  0  0  0  0  0
  151.7923  140.8738  159.2061 C   0  0  0  0  0  0  0  0  0  0  0  0
  150.2612  145.6602  159.8342 H   0  0  0  0  0  0  0  0  0  0  0  0
  151.7726  146.5672  159.7144 H   0  0  0  0  0  0  0  0  0  0  0  0
  151.5733  145.3516  160.9818 H   0  0  0  0  0  0  0  0  0  0  0  0
  150.6121  143.1724  159.7827 H   0  0  0  0  0  0  0  0  0  0  0  0
  152.7197  142.3047  157.8824 H   0  0  0  0  0  0  0  0  0  0  0  0
  149.7163  141.8733  157.5682 H   0  0  0  0  0  0  0  0  0  0  0  0
  150.7385  142.8239  156.5172 H   0  0  0  0  0  0  0  0  0  0  0  0
  150.2854  140.5707  155.5640 H   0  0  0  0  0  0  0  0  0  0  0  0
  151.9944  140.8225  155.8324 H   0  0  0  0  0  0  0  0  0  0  0  0
  150.1061  139.3620  157.7161 H   0  0  0  0  0  0  0  0  0  0  0  0
  152.6608  137.0273  155.3470 H   0  0  0  0  0  0  0  0  0  0  0  0
  153.4278  138.2558  156.3355 H   0  0  0  0  0  0  0  0  0  0  0  0
  152.5850  138.7231  154.8560 H   0  0  0  0  0  0  0  0  0  0  0  0
  147.0929  138.4547  155.2537 H   0  0  0  0  0  0  0  0  0  0  0  0
  150.9297  133.3170  154.6733 H   0  0  0  0  0  0  0  0  0  0  0  0
  147.9927  132.8387  154.7368 H   0  0  0  0  0  0  0  0  0  0  0  0
  149.0564  133.6564  151.9813 H   0  0  0  0  0  0  0  0  0  0  0  0
  148.9408  132.0026  152.6726 H   0  0  0  0  0  0  0  0  0  0  0  0
  145.5199  133.6246  150.8124 H   0  0  0  0  0  0  0  0  0  0  0  0
  147.0936  134.3414  150.5894 H   0  0  0  0  0  0  0  0  0  0  0  0
  147.6240  131.9021  150.2888 H   0  0  0  0  0  0  0  0  0  0  0  0
  146.3383  131.4559  153.7299 H   0  0  0  0  0  0  0  0  0  0  0  0
  145.1422  131.8051  152.5133 H   0  0  0  0  0  0  0  0  0  0  0  0
  147.3480  130.9145  151.3202 H   0  0  0  0  0  0  0  0  0  0  0  0
  146.0253  134.0695  154.0336 H   0  0  0  0  0  0  0  0  0  0  0  0
  146.9943  135.1180  152.9409 H   0  0  0  0  0  0  0  0  0  0  0  0
  152.1042  138.7412  159.0256 H   0  0  0  0  0  0  0  0  0  0  0  0
  153.1163  139.7073  157.9762 H   0  0  0  0  0  0  0  0  0  0  0  0
  152.5472  140.9948  159.9839 H   0  0  0  0  0  0  0  0  0  0  0  0
  150.8395  140.7383  159.7197 H   0  0  0  0  0  0  0  0  0  0  0  0
  1  2  1  0  0  0  0
  1 30  1  0  0  0  0
  1 31  1  0  0  0  0
  1 32  1  0  0  0  0
  2  3  2  0  0  0  0
  2  4  1  0  0  0  0
  4  5  1  0  0  0  0
  4 33  1  0  0  0  0
  5 29  1  0  0  0  0
  5  6  1  0  0  0  0
  5 34  1  0  0  0  0
  6  7  1  0  0  0  0
  6 35  1  0  0  0  0
  6 36  1  0  0  0  0
  7  8  1  0  0  0  0
  7 37  1  0  0  0  0
  7 38  1  0  0  0  0
  8  9  1  0  0  0  0
  8 28  1  0  0  0  0
  8 39  1  0  0  0  0
  9 10  1  0  0  0  0
  9 11  1  0  0  0  0
 10 40  1  0  0  0  0
 10 41  1  0  0  0  0
 10 42  1  0  0  0  0
 11 16  1  0  0  0  0
 11 12  2  0  0  0  0
 12 13  1  0  0  0  0
 13 14  2  0  0  0  0
 13 43  1  0  0  0  0
 14 15  1  0  0  0  0
 15 19  1  0  0  0  0
 15 16  2  0  0  0  0
 16 17  1  0  0  0  0
 17 18  2  0  0  0  0
 18 19  1  0  0  0  0
 18 44  1  0  0  0  0
 19 20  1  0  0  0  0
 20 27  1  0  0  0  0
 20 21  1  0  0  0  0
 20 45  1  0  0  0  0
 21 22  1  0  0  0  0
 21 46  1  0  0  0  0
 21 47  1  0  0  0  0
 22 23  1  0  0  0  0
 22 25  1  0  0  0  0
 22 27  1  0  0  0  0
 23 24  1  0  0  0  0
 23 48  1  0  0  0  0
 23 49  1  0  0  0  0
 24 50  1  0  0  0  0
 25 26  1  0  0  0  0
 25 51  1  0  0  0  0
 25 52  1  0  0  0  0
 26 53  1  0  0  0  0
 27 54  1  0  0  0  0
 27 55  1  0  0  0  0
 28 29  1  0  0  0  0
 28 56  1  0  0  0  0
 28 57  1  0  0  0  0
 29 58  1  0  0  0  0
 29 59  1  0  0  0  0
M  END
> <s_m_source_file>
AV-unprocessed.smi

> <i_m_source_file_index>
233

> <i_lp_mmshare_version>
43012

> <i_f3d_flags>
0

> <s_epik_input>
W0NIM11DKD1PKVtOSF1bQ0BASF0xW0NIMl1bQ0gyXVtDQEhdKFtDSDJdW0NIMl0xKU4oW0NIM10pYyhuW2NIXW4yKWMoYzIzKW5bY0hdbjNbQ0hdKFtDSDJdNClbQ0gyXUM0KFtDSDJdW09IXSlbQ0gyXVtPSF0=

> <s_epik_cmdline>
J2VwaWtfcHl0aG9uJywgJy1waCcsICc3LjAnLCAnLXRuJywgJzgnLCAnLW1hJywgJzIwMCcsICctbWV0YWxfYmluZGluZycsICctaW1hZScsICc8aW5maWxlLm1hZT4nLCAnLW9tYWUnLCAnPG91dGZpbGUubWFlPic=

> <r_lp_tautomer_probability>
1

> <r_epik_Ionization_Penalty>
0.0029036

> <r_epik_Ionization_Penalty_Charging>
0

> <r_epik_Ionization_Penalty_Neutral>
0.0029036

> <r_epik_State_Penalty>
0.00183591

> <r_epik_Charging_Adjusted_Penalty>
0.00183591

> <i_epik_Tot_Q>
0

> <i_epik_Tot_abs_Q>
0

> <r_epik_Metal_State_Penalty>
-0

> <b_epik_Metal_Only>
0

> <s_lp_Force_Field>
OPLS_2005

> <r_lp_Energy>
37.3152

> <b_lp_Chiralities_Consistent>
1

> <s_lp_Variant>
AV-unprocessed.smi:233-1

> <Gold.Version>
5.8.1

> <Gold.Id.Protein>
6NUR|6NUR_protein|mol2

> <Gold.PLP.Fitness>
52.1409

> <Gold.PLP.PLP>
-44.6558

> <Gold.PLP.part.hbond>
-3.0000

> <Gold.PLP.part.metal>
0.0000

> <Gold.PLP.part.buried>
-5.8631

> <Gold.PLP.part.nonpolar>
-35.7683

> <Gold.PLP.part.repulsive>
0.2948

> <Gold.PLP.ligand.clash>
0.0000

> <Gold.PLP.ligand.torsion>
1.5336

> <Gold.PLP.Chemscore.Hbond>
3.0000

> <Gold.PLP.Chemscore.CHOScore>
0.0000

> <Gold.PLP.Chemscore.Metal>
0.0000

> <Gold.Chemscore.Hbonds>
donor molecule, donor type, donor heavy atom, donor atom, acceptor molecule, acceptor atom, score
      L1  H    24    50       P1 10747  1.00
      L1  H    26    53       P1 10747  1.00
      P1  H 10752 10764       L1    17  1.00

> <Gold.PLP.Chemscore.Internal.Correction>
1.5524

> <Gold.Rescore>
     Score         DG    S(hbond)    S(metal)    S(lipo)     H(rot)  DE(clash)    DE(int)     intcor
     14.06     -16.61       2.81        0.00      92.98       3.57       0.20       2.35       ----

> <Gold.Chemscore.Fitness>
14.0627

> <Gold.Chemscore.DG>
-16.6070

> <Gold.Chemscore.ZeroCoef>
-5.4800

> <Gold.Chemscore.Hbond>
2.8120

> <Gold.Chemscore.Metal>
0.0000

> <Gold.Chemscore.Lipo>
92.9810

> <Gold.Chemscore.Internal_Hbond>
0.0000

> <Gold.Chemscore.DEClash>
0.1987

> <Gold.Chemscore.DEInternal>
2.3456

> <Gold.Chemscore.Rot>
3.5719

> <Gold.Chemscore.Internal.Correction>
   9.000000E+99

> <Gold.Chemscore.Hbonds>
donor molecule, donor type, donor heavy atom, donor atom, acceptor molecule, acceptor atom, score
      L1  H    24    50       P1 10747  0.99
      L1  H    26    53       P1 10747  0.98
      P1  H 10752 10764       L1    17  0.86

> <Gold.Chemscore.Hbond.Weighted>
-9.3922

> <Gold.Chemscore.Metal.Weighted>
-0.0000

> <Gold.Chemscore.Lipo.Weighted>
-10.8788

> <Gold.Chemscore.Internal_Hbond.Weighted>
0.0000

> <Gold.Chemscore.DEClash.Weighted>
0.1987

> <Gold.Chemscore.DEInternal.Weighted>
2.3456

> <Gold.Chemscore.Rot.Weighted>
9.1440

> <Gold.Chemscore.Internal.Correction.Weighted>
   9.000000E+99

> <Gold.Protein.RotatedTorsions>
[ 6907 6896 6895 6894 ] final   32.37 input  -60.11 | X-H torsion
[ 7974 7965 7964 7962 ] final  156.04 input  175.53 | X-H torsion
[ 8008 7997 7996 7995 ] final    8.39 input   59.86 | X-H torsion
[ 10167 10162 10161 10158 ] final  160.19 input  -65.29 | X-H torsion
[ 10718 10713 10712 10709 ] final   81.19 input   66.30 | X-H torsion
[ 10763 10752 10751 10750 ] final  -44.97 input  -60.55 | X-H torsion
[ 11005 11000 10999 10996 ] final  -95.98 input  -57.11 | X-H torsion

> <Gold.Protein.ActiveResidues>
 VAL166  LYS551  ARG553  GLY616  TRP617  ASP618  TYR619  PRO620  LYS621  CYS622 
 ASP623  PHE694  ASN695  SER759  ASP760  ASP761  ALA762  ILE779  LEU786  VAL792 
 PHE793  MET794  SER795  GLU796  ALA797  LYS798  CYS799  TRP800  GLU811  SER814 

> <Gold.Protein.RotatedAtoms>
  152.0735  134.9518  160.0574 H   0  0  0  0  0  0  0  0  0  0  0  0  # atno 6907 bound_to 6896
  152.0834  133.4159  159.4519 H   0  0  0  0  0  0  0  0  0  0  0  0  # atno 6908 bound_to 6896
  150.6836  134.2875  159.4696 H   0  0  0  0  0  0  0  0  0  0  0  0  # atno 6909 bound_to 6896
  144.7987  139.7150  143.6191 H   0  0  0  0  0  0  0  0  0  0  0  0  # atno 7974 bound_to 7965
  154.7663  140.2794  155.6173 H   0  0  0  0  0  0  0  0  0  0  0  0  # atno 8008 bound_to 7997
  156.2925  140.2650  156.2382 H   0  0  0  0  0  0  0  0  0  0  0  0  # atno 8009 bound_to 7997
  154.9955  140.0373  157.2327 H   0  0  0  0  0  0  0  0  0  0  0  0  # atno 8010 bound_to 7997
  139.4838  144.4658  151.8643 H   0  0  0  0  0  0  0  0  0  0  0  0  # atno 10167 bound_to 10162
  157.6826  130.9993  150.2191 H   0  0  0  0  0  0  0  0  0  0  0  0  # atno 10718 bound_to 10713
  154.0209  135.6669  153.4772 H   0  0  0  0  0  0  0  0  0  0  0  0  # atno 10763 bound_to 10752
  153.0581  135.5044  154.8024 H   0  0  0  0  0  0  0  0  0  0  0  0  # atno 10764 bound_to 10752
  154.6938  135.3066  154.9406 H   0  0  0  0  0  0  0  0  0  0  0  0  # atno 10765 bound_to 10752
  141.1425  133.8065  157.0509 H   0  0  0  0  0  0  0  0  0  0  0  0  # atno 11005 bound_to 11000
  146.2263  139.5729  142.9585 LP  0  0  0  0  0  0  0  0  0  0  0  0  # atno 17320 bound_to 7965
  145.5607  141.0404  143.2228 LP  0  0  0  0  0  0  0  0  0  0  0  0  # atno 17321 bound_to 7965
  140.4124  144.2352  150.5888 LP  0  0  0  0  0  0  0  0  0  0  0  0  # atno 17342 bound_to 10162
  140.4954  143.2334  151.8758 LP  0  0  0  0  0  0  0  0  0  0  0  0  # atno 17343 bound_to 10162
  156.2846  130.3738  149.7901 LP  0  0  0  0  0  0  0  0  0  0  0  0  # atno 17370 bound_to 10713
  156.5579  130.8371  151.3320 LP  0  0  0  0  0  0  0  0  0  0  0  0  # atno 17371 bound_to 10713
  140.0632  134.9743  157.1341 LP  0  0  0  0  0  0  0  0  0  0  0  0  # atno 17394 bound_to 11000
  140.3818  134.2279  155.7170 LP  0  0  0  0  0  0  0  0  0  0  0  0  # atno 17395 bound_to 11000

$$$$
