AV-unprocessed.smi:3172|AV-procd|sdf|12115|dock10
  -GOLD-   2272017553D 1   1.00000     0.00000
 Structure written by MMmdl.
 43 44  0  0  0  0  0  0  0  0  2 V2000
  146.7590  138.8538  152.4106 C   0  0  0  0  0  0  0  0  0  0  0  0
  147.4698  139.8793  153.2381 C   0  0  0  0  0  0  0  0  0  0  0  0
  146.9296  141.1472  153.4365 N   0  0  0  0  0  0  0  0  0  0  0  0
  147.8227  141.7552  154.2031 C   0  0  0  0  0  0  0  0  0  0  0  0
  148.8941  141.0101  154.5090 N   0  0  0  0  0  0  0  0  0  0  0  0
  150.0377  141.4302  155.3036 C   0  0  0  0  0  0  0  0  0  0  0  0
  149.7066  141.4811  156.8070 C   0  0  2  0  0  0  0  0  0  0  0  0
  148.3145  140.9023  157.0956 C   0  0  0  0  0  0  0  0  0  0  0  0
  149.7929  142.8742  157.3037 N   0  3  0  0  0  0  0  0  0  0  0  0
  151.0756  143.2494  157.9371 C   0  0  0  0  0  0  0  0  0  0  0  0
  151.5858  142.0876  158.8104 C   0  0  0  0  0  0  0  0  0  0  0  0
  152.8999  142.4514  159.5204 C   0  0  0  0  0  0  0  0  0  0  0  0
  152.7416  143.7276  160.3612 C   0  0  0  0  0  0  0  0  0  0  0  0
  152.2275  144.8946  159.5047 C   0  0  0  0  0  0  0  0  0  0  0  0
  150.9173  144.5278  158.7897 C   0  0  0  0  0  0  0  0  0  0  0  0
  148.6758  139.7758  153.8987 C   0  0  0  0  0  0  0  0  0  0  0  0
  149.6242  138.6230  153.9879 C   0  0  0  0  0  0  0  0  0  0  0  0
  146.2159  138.1498  153.0412 H   0  0  0  0  0  0  0  0  0  0  0  0
  147.4598  138.2812  151.8030 H   0  0  0  0  0  0  0  0  0  0  0  0
  146.0397  139.3149  151.7332 H   0  0  0  0  0  0  0  0  0  0  0  0
  147.7003  142.7746  154.5393 H   0  0  0  0  0  0  0  0  0  0  0  0
  150.8667  140.7455  155.1168 H   0  0  0  0  0  0  0  0  0  0  0  0
  150.3619  142.4091  154.9497 H   0  0  0  0  0  0  0  0  0  0  0  0
  150.4359  140.8633  157.3302 H   0  0  0  0  0  0  0  0  0  0  0  0
  148.2421  139.8690  156.7550 H   0  0  0  0  0  0  0  0  0  0  0  0
  147.5342  141.4733  156.5913 H   0  0  0  0  0  0  0  0  0  0  0  0
  148.0956  140.9103  158.1638 H   0  0  0  0  0  0  0  0  0  0  0  0
  149.6477  143.5015  156.5254 H   0  0  0  0  0  0  0  0  0  0  0  0
  151.8109  143.4274  157.1507 H   0  0  0  0  0  0  0  0  0  0  0  0
  150.8334  141.8253  159.5558 H   0  0  0  0  0  0  0  0  0  0  0  0
  151.7373  141.1979  158.1978 H   0  0  0  0  0  0  0  0  0  0  0  0
  153.2203  141.6255  160.1563 H   0  0  0  0  0  0  0  0  0  0  0  0
  153.6885  142.5960  158.7807 H   0  0  0  0  0  0  0  0  0  0  0  0
  152.0467  143.5416  161.1811 H   0  0  0  0  0  0  0  0  0  0  0  0
  153.6950  143.9934  160.8186 H   0  0  0  0  0  0  0  0  0  0  0  0
  152.0753  145.7746  160.1306 H   0  0  0  0  0  0  0  0  0  0  0  0
  152.9828  145.1673  158.7667 H   0  0  0  0  0  0  0  0  0  0  0  0
  150.6013  145.3694  158.1734 H   0  0  0  0  0  0  0  0  0  0  0  0
  150.1297  144.3814  159.5305 H   0  0  0  0  0  0  0  0  0  0  0  0
  149.1333  137.6915  153.7063 H   0  0  0  0  0  0  0  0  0  0  0  0
  150.0041  138.4987  155.0016 H   0  0  0  0  0  0  0  0  0  0  0  0
  150.4732  138.7659  153.3200 H   0  0  0  0  0  0  0  0  0  0  0  0
  149.0451  143.0132  157.9683 H   0  0  0  0  0  0  0  0  0  0  0  0
  1  2  1  0  0  0  0
  1 18  1  0  0  0  0
  1 19  1  0  0  0  0
  1 20  1  0  0  0  0
  2 16  2  0  0  0  0
  2  3  1  0  0  0  0
  3  4  2  0  0  0  0
  4  5  1  0  0  0  0
  4 21  1  0  0  0  0
  5  6  1  0  0  0  0
  5 16  1  0  0  0  0
  6  7  1  0  0  0  0
  6 22  1  0  0  0  0
  6 23  1  0  0  0  0
  7  8  1  0  0  0  0
  7  9  1  0  0  0  0
  7 24  1  0  0  0  0
  8 25  1  0  0  0  0
  8 26  1  0  0  0  0
  8 27  1  0  0  0  0
  9 10  1  0  0  0  0
  9 28  1  0  0  0  0
  9 43  1  0  0  0  0
 10 15  1  0  0  0  0
 10 11  1  0  0  0  0
 10 29  1  0  0  0  0
 11 12  1  0  0  0  0
 11 30  1  0  0  0  0
 11 31  1  0  0  0  0
 12 13  1  0  0  0  0
 12 32  1  0  0  0  0
 12 33  1  0  0  0  0
 13 14  1  0  0  0  0
 13 34  1  0  0  0  0
 13 35  1  0  0  0  0
 14 15  1  0  0  0  0
 14 36  1  0  0  0  0
 14 37  1  0  0  0  0
 15 38  1  0  0  0  0
 15 39  1  0  0  0  0
 16 17  1  0  0  0  0
 17 40  1  0  0  0  0
 17 41  1  0  0  0  0
 17 42  1  0  0  0  0
M  CHG  1   9   1
M  END
> <s_m_source_file>
AV-unprocessed.smi

> <i_m_source_file_index>
3172

> <i_lp_mmshare_version>
43012

> <i_f3d_flags>
0

> <s_epik_input>
W0NIM11jMW5bY0hdbihjMVtDSDNdKVtDSDJdW0NASF0oW0NIM10pW05IXVtDSF0yW0NIMl1bQ0gyXVtDSDJdW0NIMl1bQ0gyXTI=

> <s_epik_cmdline>
J2VwaWtfcHl0aG9uJywgJy1waCcsICc3LjAnLCAnLXRuJywgJzgnLCAnLW1hJywgJzIwMCcsICctbWV0YWxfYmluZGluZycsICctaW1hZScsICc8aW5maWxlLm1hZT4nLCAnLW9tYWUnLCAnPG91dGZpbGUubWFlPic=

> <r_lp_tautomer_probability>
1

> <r_epik_Ionization_Penalty>
0.328572

> <r_epik_Ionization_Penalty_Charging>
0.328572

> <r_epik_Ionization_Penalty_Neutral>
3.58496e-13

> <r_epik_State_Penalty>
0.596179

> <r_epik_Charging_Adjusted_Penalty>
0.924751

> <i_epik_Tot_Q>
1

> <i_epik_Tot_abs_Q>
1

> <r_epik_Metal_State_Penalty>
0.00102252

> <b_epik_Metal_Only>
0

> <s_lp_Force_Field>
OPLS_2005

> <r_lp_Energy>
15.8324

> <b_lp_Chiralities_Consistent>
1

> <s_lp_Variant>
AV-unprocessed.smi:3172-3

> <Gold.Version>
5.8.1

> <Gold.Id.Protein>
6NUR|6NUR_protein|mol2

> <Gold.PLP.Fitness>
45.6301

> <Gold.PLP.PLP>
-39.8150

> <Gold.PLP.part.hbond>
-1.0000

> <Gold.PLP.part.metal>
0.0000

> <Gold.PLP.part.buried>
-1.0037

> <Gold.PLP.part.nonpolar>
-37.3166

> <Gold.PLP.part.repulsive>
0.2011

> <Gold.PLP.ligand.clash>
0.0000

> <Gold.PLP.ligand.torsion>
1.6080

> <Gold.PLP.Chemscore.Hbond>
2.0000

> <Gold.PLP.Chemscore.CHOScore>
1.0000

> <Gold.PLP.Chemscore.Metal>
0.0000

> <Gold.Chemscore.Hbonds>
donor molecule, donor type, donor heavy atom, donor atom, acceptor molecule, acceptor atom, score
      L1  H     9    28       P1  8028  2.00
      L1  C     4    21       P1  8028  1.00

> <Gold.PLP.Chemscore.Internal.Correction>
0.0311

> <Gold.Rescore>
     Score         DG    S(hbond)    S(metal)    S(lipo)     H(rot)  DE(clash)    DE(int)     intcor
     16.00     -17.66       0.99        0.00     108.74       1.50       0.12       1.55       ----

> <Gold.Chemscore.Fitness>
15.9989

> <Gold.Chemscore.DG>
-17.6633

> <Gold.Chemscore.ZeroCoef>
-5.4800

> <Gold.Chemscore.Hbond>
0.9881

> <Gold.Chemscore.Metal>
0.0000

> <Gold.Chemscore.Lipo>
108.7408

> <Gold.Chemscore.Internal_Hbond>
0.0000

> <Gold.Chemscore.DEClash>
0.1155

> <Gold.Chemscore.DEInternal>
1.5489

> <Gold.Chemscore.Rot>
1.4999

> <Gold.Chemscore.Internal.Correction>
   9.000000E+99

> <Gold.Chemscore.Hbonds>
donor molecule, donor type, donor heavy atom, donor atom, acceptor molecule, acceptor atom, score
      L1  H     9    28       P1  8028  0.98

> <Gold.Chemscore.Hbond.Weighted>
-3.3003

> <Gold.Chemscore.Metal.Weighted>
-0.0000

> <Gold.Chemscore.Lipo.Weighted>
-12.7227

> <Gold.Chemscore.Internal_Hbond.Weighted>
0.0000

> <Gold.Chemscore.DEClash.Weighted>
0.1155

> <Gold.Chemscore.DEInternal.Weighted>
1.5489

> <Gold.Chemscore.Rot.Weighted>
3.8397

> <Gold.Chemscore.Internal.Correction.Weighted>
   9.000000E+99

> <Gold.Protein.RotatedTorsions>
[ 6907 6896 6895 6894 ] final   99.46 input  -60.11 | X-H torsion
[ 7974 7965 7964 7962 ] final   42.04 input  175.53 | X-H torsion
[ 8008 7997 7996 7995 ] final  112.44 input   59.86 | X-H torsion
[ 10167 10162 10161 10158 ] final   59.12 input  -65.29 | X-H torsion
[ 10718 10713 10712 10709 ] final   -2.06 input   66.30 | X-H torsion
[ 10763 10752 10751 10750 ] final    5.44 input  -60.55 | X-H torsion
[ 11005 11000 10999 10996 ] final -101.61 input  -57.11 | X-H torsion

> <Gold.Protein.ActiveResidues>
 VAL166  LYS551  ARG553  GLY616  TRP617  ASP618  TYR619  PRO620  LYS621  CYS622 
 ASP623  PHE694  ASN695  SER759  ASP760  ASP761  ALA762  ILE779  LEU786  VAL792 
 PHE793  MET794  SER795  GLU796  ALA797  LYS798  CYS799  TRP800  GLU811  SER814 

> <Gold.Protein.RotatedAtoms>
  152.5391  134.0425  159.8073 H   0  0  0  0  0  0  0  0  0  0  0  0  # atno 6907 bound_to 6896
  151.0579  133.5561  159.2644 H   0  0  0  0  0  0  0  0  0  0  0  0  # atno 6908 bound_to 6896
  151.2471  135.0617  159.9101 H   0  0  0  0  0  0  0  0  0  0  0  0  # atno 6909 bound_to 6896
  146.0774  139.5346  142.9559 H   0  0  0  0  0  0  0  0  0  0  0  0  # atno 7974 bound_to 7965
  156.2192  140.2999  155.9912 H   0  0  0  0  0  0  0  0  0  0  0  0  # atno 8008 bound_to 7997
  155.2525  140.0426  157.3005 H   0  0  0  0  0  0  0  0  0  0  0  0  # atno 8009 bound_to 7997
  154.5815  140.2376  155.8055 H   0  0  0  0  0  0  0  0  0  0  0  0  # atno 8010 bound_to 7997
  140.1799  144.4193  150.6620 H   0  0  0  0  0  0  0  0  0  0  0  0  # atno 10167 bound_to 10162
  156.7964  130.5378  149.5728 H   0  0  0  0  0  0  0  0  0  0  0  0  # atno 10718 bound_to 10713
  153.2594  135.6921  153.7594 H   0  0  0  0  0  0  0  0  0  0  0  0  # atno 10763 bound_to 10752
  153.6659  135.3352  155.3141 H   0  0  0  0  0  0  0  0  0  0  0  0  # atno 10764 bound_to 10752
  154.8424  135.4488  154.1579 H   0  0  0  0  0  0  0  0  0  0  0  0  # atno 10765 bound_to 10752
  141.1223  133.8492  157.1254 H   0  0  0  0  0  0  0  0  0  0  0  0  # atno 11005 bound_to 11000
  145.6281  141.0309  143.1878 LP  0  0  0  0  0  0  0  0  0  0  0  0  # atno 17320 bound_to 7965
  144.7270  139.7843  143.7361 LP  0  0  0  0  0  0  0  0  0  0  0  0  # atno 17321 bound_to 7965
  140.6527  143.2229  151.6041 LP  0  0  0  0  0  0  0  0  0  0  0  0  # atno 17342 bound_to 10162
  139.5301  144.2942  152.1127 LP  0  0  0  0  0  0  0  0  0  0  0  0  # atno 17343 bound_to 10162
  156.1128  130.6052  151.0073 LP  0  0  0  0  0  0  0  0  0  0  0  0  # atno 17370 bound_to 10713
  157.6575  131.0887  150.7913 LP  0  0  0  0  0  0  0  0  0  0  0  0  # atno 17371 bound_to 10713
  140.0191  134.9954  157.0555 LP  0  0  0  0  0  0  0  0  0  0  0  0  # atno 17394 bound_to 11000
  140.4469  134.1622  155.7178 LP  0  0  0  0  0  0  0  0  0  0  0  0  # atno 17395 bound_to 11000

$$$$
