AV-unprocessed.smi:1605|AV-procd|sdf|6453|dock6
  -GOLD-   22720 7103D 1   1.00000     0.00000
 Structure written by MMmdl.
 51 53  0  0  0  0  0  0  0  0  2 V2000
  145.1054  133.8992  153.0592 C   0  0  0  0  0  0  0  0  0  0  0  0
  145.1048  134.9895  153.9678 O   0  0  0  0  0  0  0  0  0  0  0  0
  144.1122  135.9747  153.7041 C   0  0  2  0  0  0  0  0  0  0  0  0
  144.3147  136.4782  152.2667 C   0  0  0  0  0  0  0  0  0  0  0  0
  145.6244  137.2736  152.1212 C   0  0  0  0  0  0  0  0  0  0  0  0
  145.6768  138.4056  153.0817 N   0  3  2  0  0  0  0  0  0  0  0  0
  146.8644  139.2735  152.8698 C   0  0  0  0  0  0  0  0  0  0  0  0
  147.0989  140.2442  154.0439 C   0  0  2  0  0  0  0  0  0  0  0  0
  146.0370  141.1788  154.0842 O   0  0  0  0  0  0  0  0  0  0  0  0
  148.4355  140.9991  153.9128 C   0  0  0  0  0  0  0  0  0  0  0  0
  149.5393  140.2672  154.5075 N   0  0  0  0  0  0  0  0  0  0  0  0
  150.0782  139.1094  154.0787 C   0  0  0  0  0  0  0  0  0  0  0  0
  151.0962  138.6165  154.7781 N   0  0  0  0  0  0  0  0  0  0  0  0
  151.2313  139.5622  155.7803 C   0  0  0  0  0  0  0  0  0  0  0  0
  152.1386  139.6328  156.8598 C   0  0  0  0  0  0  0  0  0  0  0  0
  152.0919  140.7070  157.7769 C   0  0  0  0  0  0  0  0  0  0  0  0
  153.0877  140.7437  158.9229 C   0  0  0  0  0  0  0  0  0  0  0  0
  151.1251  141.7329  157.6214 C   0  0  0  0  0  0  0  0  0  0  0  0
  151.0540  142.8949  158.5964 C   0  0  0  0  0  0  0  0  0  0  0  0
  150.2128  141.6792  156.5470 C   0  0  0  0  0  0  0  0  0  0  0  0
  150.2699  140.6055  155.6411 C   0  0  0  0  0  0  0  0  0  0  0  0
  145.5333  137.9361  154.4858 C   0  0  0  0  0  0  0  0  0  0  0  0
  144.2180  137.1623  154.6796 C   0  0  0  0  0  0  0  0  0  0  0  0
  145.9155  133.2165  153.3150 H   0  0  0  0  0  0  0  0  0  0  0  0
  145.2664  134.2376  152.0350 H   0  0  0  0  0  0  0  0  0  0  0  0
  144.1741  133.3349  153.0996 H   0  0  0  0  0  0  0  0  0  0  0  0
  143.1218  135.5216  153.7742 H   0  0  0  0  0  0  0  0  0  0  0  0
  144.3083  135.6374  151.5720 H   0  0  0  0  0  0  0  0  0  0  0  0
  143.4746  137.1140  151.9842 H   0  0  0  0  0  0  0  0  0  0  0  0
  146.4846  136.6208  152.2781 H   0  0  0  0  0  0  0  0  0  0  0  0
  145.6972  137.6527  151.1011 H   0  0  0  0  0  0  0  0  0  0  0  0
  147.7420  138.6455  152.7095 H   0  0  0  0  0  0  0  0  0  0  0  0
  146.7418  139.8589  151.9570 H   0  0  0  0  0  0  0  0  0  0  0  0
  147.1030  139.6995  154.9873 H   0  0  0  0  0  0  0  0  0  0  0  0
  145.3028  140.8254  153.6051 H   0  0  0  0  0  0  0  0  0  0  0  0
  148.6718  141.1678  152.8614 H   0  0  0  0  0  0  0  0  0  0  0  0
  148.3717  141.9828  154.3804 H   0  0  0  0  0  0  0  0  0  0  0  0
  149.7058  138.6021  153.2006 H   0  0  0  0  0  0  0  0  0  0  0  0
  152.8744  138.8511  156.9782 H   0  0  0  0  0  0  0  0  0  0  0  0
  153.6962  141.6468  158.8714 H   0  0  0  0  0  0  0  0  0  0  0  0
  153.7595  139.8855  158.8942 H   0  0  0  0  0  0  0  0  0  0  0  0
  152.5689  140.7296  159.8816 H   0  0  0  0  0  0  0  0  0  0  0  0
  150.2428  143.5781  158.3429 H   0  0  0  0  0  0  0  0  0  0  0  0
  151.9855  143.4612  158.5843 H   0  0  0  0  0  0  0  0  0  0  0  0
  150.8812  142.5333  159.6103 H   0  0  0  0  0  0  0  0  0  0  0  0
  149.4728  142.4549  156.4162 H   0  0  0  0  0  0  0  0  0  0  0  0
  146.3828  137.3043  154.7500 H   0  0  0  0  0  0  0  0  0  0  0  0
  145.5468  138.7804  155.1738 H   0  0  0  0  0  0  0  0  0  0  0  0
  143.3795  137.8392  154.5110 H   0  0  0  0  0  0  0  0  0  0  0  0
  144.1275  136.8302  155.7133 H   0  0  0  0  0  0  0  0  0  0  0  0
  144.8718  138.9817  152.8795 H   0  0  0  0  0  0  0  0  0  0  0  0
  1  2  1  0  0  0  0
  1 24  1  0  0  0  0
  1 25  1  0  0  0  0
  1 26  1  0  0  0  0
  2  3  1  0  0  0  0
  3 23  1  0  0  0  0
  3  4  1  0  0  0  0
  3 27  1  0  0  0  0
  4  5  1  0  0  0  0
  4 28  1  0  0  0  0
  4 29  1  0  0  0  0
  5  6  1  0  0  0  0
  5 30  1  0  0  0  0
  5 31  1  0  0  0  0
  6  7  1  0  0  0  0
  6 22  1  0  0  0  0
  6 51  1  0  0  0  0
  7  8  1  0  0  0  0
  7 32  1  0  0  0  0
  7 33  1  0  0  0  0
  8  9  1  0  0  0  0
  8 10  1  0  0  0  0
  8 34  1  0  0  0  0
  9 35  1  0  0  0  0
 10 11  1  0  0  0  0
 10 36  1  0  0  0  0
 10 37  1  0  0  0  0
 11 21  1  0  0  0  0
 11 12  1  0  0  0  0
 12 13  2  0  0  0  0
 12 38  1  0  0  0  0
 13 14  1  0  0  0  0
 14 21  2  0  0  0  0
 14 15  1  0  0  0  0
 15 16  2  0  0  0  0
 15 39  1  0  0  0  0
 16 17  1  0  0  0  0
 16 18  1  0  0  0  0
 17 40  1  0  0  0  0
 17 41  1  0  0  0  0
 17 42  1  0  0  0  0
 18 19  1  0  0  0  0
 18 20  2  0  0  0  0
 19 43  1  0  0  0  0
 19 44  1  0  0  0  0
 19 45  1  0  0  0  0
 20 21  1  0  0  0  0
 20 46  1  0  0  0  0
 22 23  1  0  0  0  0
 22 47  1  0  0  0  0
 22 48  1  0  0  0  0
 23 49  1  0  0  0  0
 23 50  1  0  0  0  0
M  CHG  1   6   1
M  END
> <s_m_source_file>
AV-unprocessed.smi

> <i_m_source_file_index>
1605

> <i_lp_mmshare_version>
43012

> <i_f3d_flags>
0

> <s_epik_input>
W0NIM11PW0NIXTFbQ0gyXVtDSDJdTihbQ0gyXVtDSDJdMSlbQ0gyXVtDQEhdKFtPSF0pW0NIMl1uKFtjSF1uMiljKGMyMylbY0hdYyhbQ0gzXSljKFtjSF0zKVtDSDNd

> <s_epik_cmdline>
J2VwaWtfcHl0aG9uJywgJy1waCcsICc3LjAnLCAnLXRuJywgJzgnLCAnLW1hJywgJzIwMCcsICctbWV0YWxfYmluZGluZycsICctaW1hZScsICc8aW5maWxlLm1hZT4nLCAnLW9tYWUnLCAnPG91dGZpbGUubWFlPic=

> <r_epik_Ionization_Penalty>
0.110943

> <r_epik_Ionization_Penalty_Charging>
0.0229283

> <r_epik_Ionization_Penalty_Neutral>
0.0880146

> <r_epik_State_Penalty>
0.0947554

> <r_epik_Charging_Adjusted_Penalty>
0.117684

> <i_epik_Tot_Q>
1

> <i_epik_Tot_abs_Q>
1

> <r_epik_Metal_State_Penalty>
0.0192456

> <b_epik_Metal_Only>
0

> <s_lp_Force_Field>
OPLS_2005

> <r_lp_Energy>
23.6879

> <b_lp_Chiralities_Consistent>
1

> <s_lp_Variant>
AV-unprocessed.smi:1605-3

> <Gold.Version>
5.8.1

> <Gold.Id.Protein>
6NUR|6NUR_protein|mol2

> <Gold.PLP.Fitness>
46.8093

> <Gold.PLP.PLP>
-35.4892

> <Gold.PLP.part.hbond>
-2.0000

> <Gold.PLP.part.metal>
0.0000

> <Gold.PLP.part.buried>
-1.3839

> <Gold.PLP.part.nonpolar>
-31.8302

> <Gold.PLP.part.repulsive>
0.1823

> <Gold.PLP.ligand.clash>
0.0000

> <Gold.PLP.ligand.torsion>
0.5777

> <Gold.PLP.Chemscore.Hbond>
3.0000

> <Gold.PLP.Chemscore.CHOScore>
1.1285

> <Gold.PLP.Chemscore.Metal>
0.0000

> <Gold.Chemscore.Hbonds>
donor molecule, donor type, donor heavy atom, donor atom, acceptor molecule, acceptor atom, score
      L1  H     6    51       P1 10175  2.00
      L1  H     9    35       P1 10175  1.00
      L1  C    12    38       P1  7948  0.37
      L1  C    12    38       P1  7957  0.69

> <Gold.PLP.Chemscore.Internal.Correction>
0.0901

> <Gold.Rescore>
     Score         DG    S(hbond)    S(metal)    S(lipo)     H(rot)  DE(clash)    DE(int)     intcor
     16.90     -17.53       1.93        0.00      96.55       2.22       0.09       0.55       ----

> <Gold.Chemscore.Fitness>
16.9015

> <Gold.Chemscore.DG>
-17.5324

> <Gold.Chemscore.ZeroCoef>
-5.4800

> <Gold.Chemscore.Hbond>
1.9257

> <Gold.Chemscore.Metal>
0.0000

> <Gold.Chemscore.Lipo>
96.5460

> <Gold.Chemscore.Internal_Hbond>
0.0000

> <Gold.Chemscore.DEClash>
0.0857

> <Gold.Chemscore.DEInternal>
0.5452

> <Gold.Chemscore.Rot>
2.2169

> <Gold.Chemscore.Internal.Correction>
   9.000000E+99

> <Gold.Chemscore.Hbonds>
donor molecule, donor type, donor heavy atom, donor atom, acceptor molecule, acceptor atom, score
      L1  H     6    51       P1 10175  0.99
      L1  H     9    35       P1 10175  0.82

> <Gold.Chemscore.Hbond.Weighted>
-6.4319

> <Gold.Chemscore.Metal.Weighted>
-0.0000

> <Gold.Chemscore.Lipo.Weighted>
-11.2959

> <Gold.Chemscore.Internal_Hbond.Weighted>
0.0000

> <Gold.Chemscore.DEClash.Weighted>
0.0857

> <Gold.Chemscore.DEInternal.Weighted>
0.5452

> <Gold.Chemscore.Rot.Weighted>
5.6753

> <Gold.Chemscore.Internal.Correction.Weighted>
   9.000000E+99

> <Gold.Protein.RotatedTorsions>
[ 6907 6896 6895 6894 ] final  112.48 input  -60.11 | X-H torsion
[ 7974 7965 7964 7962 ] final -104.18 input  175.53 | X-H torsion
[ 8008 7997 7996 7995 ] final   46.88 input   59.86 | X-H torsion
[ 10167 10162 10161 10158 ] final   16.07 input  -65.29 | X-H torsion
[ 10718 10713 10712 10709 ] final  -25.83 input   66.30 | X-H torsion
[ 10763 10752 10751 10750 ] final  -83.84 input  -60.55 | X-H torsion
[ 11005 11000 10999 10996 ] final  -60.73 input  -57.11 | X-H torsion

> <Gold.Protein.ActiveResidues>
 VAL166  LYS551  ARG553  GLY616  TRP617  ASP618  TYR619  PRO620  LYS621  CYS622 
 ASP623  PHE694  ASN695  SER759  ASP760  ASP761  ALA762  ILE779  LEU786  VAL792 
 PHE793  MET794  SER795  GLU796  ALA797  LYS798  CYS799  TRP800  GLU811  SER814 

> <Gold.Protein.RotatedAtoms>
  152.4914  133.8511  159.7201 H   0  0  0  0  0  0  0  0  0  0  0  0  # atno 6907 bound_to 6896
  150.9048  133.7063  159.2876 H   0  0  0  0  0  0  0  0  0  0  0  0  # atno 6908 bound_to 6896
  151.4493  135.1032  159.9745 H   0  0  0  0  0  0  0  0  0  0  0  0  # atno 6909 bound_to 6896
  145.2465  140.9223  143.3120 H   0  0  0  0  0  0  0  0  0  0  0  0  # atno 7974 bound_to 7965
  155.3598  140.3418  155.4240 H   0  0  0  0  0  0  0  0  0  0  0  0  # atno 8008 bound_to 7997
  156.1719  140.1635  156.8466 H   0  0  0  0  0  0  0  0  0  0  0  0  # atno 8009 bound_to 7997
  154.5242  140.0760  156.8211 H   0  0  0  0  0  0  0  0  0  0  0  0  # atno 8010 bound_to 7997
  140.5823  143.8956  150.6800 H   0  0  0  0  0  0  0  0  0  0  0  0  # atno 10167 bound_to 10162
  156.4591  130.4500  149.6940 H   0  0  0  0  0  0  0  0  0  0  0  0  # atno 10718 bound_to 10713
  154.5925  135.5542  153.7293 H   0  0  0  0  0  0  0  0  0  0  0  0  # atno 10763 bound_to 10752
  153.0122  135.6346  154.1829 H   0  0  0  0  0  0  0  0  0  0  0  0  # atno 10764 bound_to 10752
  154.1769  135.2889  155.3044 H   0  0  0  0  0  0  0  0  0  0  0  0  # atno 10765 bound_to 10752
  141.1298  133.6624  156.5268 H   0  0  0  0  0  0  0  0  0  0  0  0  # atno 11005 bound_to 11000
  144.9542  139.4050  143.6387 LP  0  0  0  0  0  0  0  0  0  0  0  0  # atno 17320 bound_to 7965
  146.3314  139.8564  142.8864 LP  0  0  0  0  0  0  0  0  0  0  0  0  # atno 17321 bound_to 7965
  140.2459  143.3629  152.1447 LP  0  0  0  0  0  0  0  0  0  0  0  0  # atno 17342 bound_to 10162
  139.5177  144.6995  151.5533 LP  0  0  0  0  0  0  0  0  0  0  0  0  # atno 17343 bound_to 10162
  156.3735  130.7542  151.2528 LP  0  0  0  0  0  0  0  0  0  0  0  0  # atno 17370 bound_to 10713
  157.7499  131.0316  150.4190 LP  0  0  0  0  0  0  0  0  0  0  0  0  # atno 17371 bound_to 10713
  140.4248  134.7155  157.4909 LP  0  0  0  0  0  0  0  0  0  0  0  0  # atno 17394 bound_to 11000
  140.0335  134.6372  155.9075 LP  0  0  0  0  0  0  0  0  0  0  0  0  # atno 17395 bound_to 11000

$$$$
