AV-unprocessed.smi:282|AV-procd|sdf|2119|dock8
  -GOLD-   2262021423D 1   1.00000     0.00000
 Structure written by MMmdl.
 65 69  0  0  0  0  0  0  0  0  2 V2000
  142.3816  136.9981  153.6079 C   0  0  0  0  0  0  0  0  0  0  0  0
  143.4942  136.0793  154.1311 C   0  0  0  0  0  0  0  0  0  0  0  0
  144.5235  135.6435  153.0539 C   0  0  2  0  0  0  0  0  0  0  0  0
  143.8490  134.7660  151.9732 C   0  0  0  0  0  0  0  0  0  0  0  0
  144.8213  134.2509  150.9744 N   0  3  2  0  0  0  0  0  0  0  0  0
  144.1917  133.4595  149.8847 C   0  0  0  0  0  0  0  0  0  0  0  0
  143.7825  132.0488  150.3518 C   0  0  0  0  0  0  0  0  0  0  0  0
  144.9715  131.3065  150.9784 C   0  0  0  0  0  0  0  0  0  0  0  0
  145.6010  132.1481  152.0981 C   0  0  0  0  0  0  0  0  0  0  0  0
  145.9868  133.5516  151.5816 C   0  0  2  0  0  0  0  0  0  0  0  0
  146.6430  134.4276  152.6613 C   0  0  0  0  0  0  0  0  0  0  0  0
  145.6680  134.9230  153.6289 N   0  0  0  0  0  0  0  0  0  0  0  0
  146.2843  135.5324  154.6666 C   0  0  0  0  0  0  0  0  0  0  0  0
  146.2743  134.9578  155.8982 N   0  0  0  0  0  0  0  0  0  0  0  0
  146.8968  135.5603  156.9166 C   0  0  0  0  0  0  0  0  0  0  0  0
  147.5726  136.7123  156.9189 N   0  0  0  0  0  0  0  0  0  0  0  0
  147.5821  137.2865  155.6811 C   0  0  0  0  0  0  0  0  0  0  0  0
  146.9678  136.7650  154.5096 C   0  0  0  0  0  0  0  0  0  0  0  0
  147.1933  137.6095  153.4316 N   0  0  0  0  0  0  0  0  0  0  0  0
  147.9081  138.5774  153.9371 C   0  0  0  0  0  0  0  0  0  0  0  0
  148.1745  138.4738  155.2852 N   0  0  0  0  0  0  0  0  0  0  0  0
  148.9504  139.4024  156.0951 C   0  0  0  0  0  0  0  0  0  0  0  0
  149.7971  140.4390  155.2906 C   0  0  0  0  0  0  0  0  0  0  0  0
  148.8262  141.3770  154.5203 C   0  0  0  0  0  0  0  0  0  0  0  0
  147.9365  142.0807  155.3648 O   0  0  0  0  0  0  0  0  0  0  0  0
  150.6619  141.2595  156.2823 C   0  0  0  0  0  0  0  0  0  0  0  0
  151.8156  140.4362  156.8880 C   0  0  0  0  0  0  0  0  0  0  0  0
  152.6172  139.8770  155.8544 O   0  0  0  0  0  0  0  0  0  0  0  0
  151.8965  138.9894  155.0083 C   0  0  0  0  0  0  0  0  0  0  0  0
  150.7667  139.7523  154.2938 C   0  0  0  0  0  0  0  0  0  0  0  0
  141.7633  137.3566  154.4310 H   0  0  0  0  0  0  0  0  0  0  0  0
  141.7214  136.4822  152.9113 H   0  0  0  0  0  0  0  0  0  0  0  0
  142.7965  137.8703  153.1019 H   0  0  0  0  0  0  0  0  0  0  0  0
  143.9943  136.6220  154.9334 H   0  0  0  0  0  0  0  0  0  0  0  0
  143.0493  135.1984  154.5960 H   0  0  0  0  0  0  0  0  0  0  0  0
  144.9131  136.5399  152.5689 H   0  0  0  0  0  0  0  0  0  0  0  0
  143.3301  133.9347  152.4510 H   0  0  0  0  0  0  0  0  0  0  0  0
  143.0927  135.3421  151.4405 H   0  0  0  0  0  0  0  0  0  0  0  0
  143.3303  133.9943  149.4835 H   0  0  0  0  0  0  0  0  0  0  0  0
  144.9071  133.3758  149.0658 H   0  0  0  0  0  0  0  0  0  0  0  0
  142.9670  132.1120  151.0727 H   0  0  0  0  0  0  0  0  0  0  0  0
  143.3951  131.4783  149.5070 H   0  0  0  0  0  0  0  0  0  0  0  0
  144.6493  130.3405  151.3683 H   0  0  0  0  0  0  0  0  0  0  0  0
  145.7188  131.0989  150.2114 H   0  0  0  0  0  0  0  0  0  0  0  0
  144.9062  132.2261  152.9350 H   0  0  0  0  0  0  0  0  0  0  0  0
  146.4843  131.6380  152.4839 H   0  0  0  0  0  0  0  0  0  0  0  0
  146.7250  133.4129  150.7900 H   0  0  0  0  0  0  0  0  0  0  0  0
  147.4278  133.8655  153.1707 H   0  0  0  0  0  0  0  0  0  0  0  0
  147.1290  135.2792  152.1825 H   0  0  0  0  0  0  0  0  0  0  0  0
  146.8485  135.0451  157.8646 H   0  0  0  0  0  0  0  0  0  0  0  0
  148.2599  139.4030  153.3357 H   0  0  0  0  0  0  0  0  0  0  0  0
  148.2587  139.9271  156.7558 H   0  0  0  0  0  0  0  0  0  0  0  0
  149.5753  138.8033  156.7551 H   0  0  0  0  0  0  0  0  0  0  0  0
  149.3794  142.1200  153.9461 H   0  0  0  0  0  0  0  0  0  0  0  0
  148.2321  140.8050  153.8069 H   0  0  0  0  0  0  0  0  0  0  0  0
  148.3066  142.9303  155.5508 H   0  0  0  0  0  0  0  0  0  0  0  0
  151.1073  142.1154  155.7747 H   0  0  0  0  0  0  0  0  0  0  0  0
  150.0414  141.6737  157.0777 H   0  0  0  0  0  0  0  0  0  0  0  0
  152.4450  141.0811  157.5015 H   0  0  0  0  0  0  0  0  0  0  0  0
  151.4501  139.6484  157.5467 H   0  0  0  0  0  0  0  0  0  0  0  0
  152.5859  138.5761  154.2721 H   0  0  0  0  0  0  0  0  0  0  0  0
  151.5137  138.1464  155.5839 H   0  0  0  0  0  0  0  0  0  0  0  0
  150.2322  139.0914  153.6129 H   0  0  0  0  0  0  0  0  0  0  0  0
  151.2351  140.5039  153.6575 H   0  0  0  0  0  0  0  0  0  0  0  0
  145.1994  135.0766  150.5319 H   0  0  0  0  0  0  0  0  0  0  0  0
  1  2  1  0  0  0  0
  1 31  1  0  0  0  0
  1 32  1  0  0  0  0
  1 33  1  0  0  0  0
  2  3  1  0  0  0  0
  2 34  1  0  0  0  0
  2 35  1  0  0  0  0
  3 12  1  0  0  0  0
  3  4  1  0  0  0  0
  3 36  1  0  0  0  0
  4  5  1  0  0  0  0
  4 37  1  0  0  0  0
  4 38  1  0  0  0  0
  5 10  1  0  0  0  0
  5  6  1  0  0  0  0
  5 65  1  0  0  0  0
  6  7  1  0  0  0  0
  6 39  1  0  0  0  0
  6 40  1  0  0  0  0
  7  8  1  0  0  0  0
  7 41  1  0  0  0  0
  7 42  1  0  0  0  0
  8  9  1  0  0  0  0
  8 43  1  0  0  0  0
  8 44  1  0  0  0  0
  9 10  1  0  0  0  0
  9 45  1  0  0  0  0
  9 46  1  0  0  0  0
 10 11  1  0  0  0  0
 10 47  1  0  0  0  0
 11 12  1  0  0  0  0
 11 48  1  0  0  0  0
 11 49  1  0  0  0  0
 12 13  1  0  0  0  0
 13 18  1  0  0  0  0
 13 14  2  0  0  0  0
 14 15  1  0  0  0  0
 15 16  2  0  0  0  0
 15 50  1  0  0  0  0
 16 17  1  0  0  0  0
 17 21  1  0  0  0  0
 17 18  2  0  0  0  0
 18 19  1  0  0  0  0
 19 20  2  0  0  0  0
 20 21  1  0  0  0  0
 20 51  1  0  0  0  0
 21 22  1  0  0  0  0
 22 23  1  0  0  0  0
 22 52  1  0  0  0  0
 22 53  1  0  0  0  0
 23 30  1  0  0  0  0
 23 24  1  0  0  0  0
 23 26  1  0  0  0  0
 24 25  1  0  0  0  0
 24 54  1  0  0  0  0
 24 55  1  0  0  0  0
 25 56  1  0  0  0  0
 26 27  1  0  0  0  0
 26 57  1  0  0  0  0
 26 58  1  0  0  0  0
 27 28  1  0  0  0  0
 27 59  1  0  0  0  0
 27 60  1  0  0  0  0
 28 29  1  0  0  0  0
 29 30  1  0  0  0  0
 29 61  1  0  0  0  0
 29 62  1  0  0  0  0
 30 63  1  0  0  0  0
 30 64  1  0  0  0  0
M  CHG  1   5   1
M  END
> <s_m_source_file>
AV-unprocessed.smi

> <i_m_source_file_index>
282

> <i_lp_mmshare_version>
43012

> <i_f3d_flags>
0

> <s_epik_input>
W0NIMl0xW0NIMl1bQ0gyXVtDSDJdW0NAQEhdKE4xMilbQ0gyXU4oW0NAQEhdKFtDSDJdMilbQ0gyXVtDSDNdKWMobltjSF1uMyljKGMzNCluW2NIXW40W0NIMl1DNShbQ0gyXVtPSF0pW0NIMl1bQ0gyXU9bQ0gyXVtDSDJdNQ==

> <s_epik_cmdline>
J2VwaWtfcHl0aG9uJywgJy1waCcsICc3LjAnLCAnLXRuJywgJzgnLCAnLW1hJywgJzIwMCcsICctbWV0YWxfYmluZGluZycsICctaW1hZScsICc8aW5maWxlLm1hZT4nLCAnLW9tYWUnLCAnPG91dGZpbGUubWFlPic=

> <r_lp_tautomer_probability>
1

> <r_epik_Ionization_Penalty>
0.00308583

> <r_epik_Ionization_Penalty_Charging>
0.00300384

> <r_epik_Ionization_Penalty_Neutral>
8.19894e-05

> <r_epik_State_Penalty>
-0

> <r_epik_Charging_Adjusted_Penalty>
0.00300384

> <i_epik_Tot_Q>
1

> <i_epik_Tot_abs_Q>
1

> <r_epik_Metal_State_Penalty>
-0

> <b_epik_Metal_Only>
0

> <s_lp_Force_Field>
OPLS_2005

> <r_lp_Energy>
60.5871

> <b_lp_Chiralities_Consistent>
1

> <s_lp_Variant>
AV-unprocessed.smi:282-3

> <Gold.Version>
5.8.1

> <Gold.Id.Protein>
6NUR|6NUR_protein|mol2

> <Gold.PLP.Fitness>
45.6126

> <Gold.PLP.PLP>
-37.0539

> <Gold.PLP.part.hbond>
-2.0000

> <Gold.PLP.part.metal>
0.0000

> <Gold.PLP.part.buried>
-1.8684

> <Gold.PLP.part.nonpolar>
-33.8478

> <Gold.PLP.part.repulsive>
2.4824

> <Gold.PLP.ligand.clash>
0.0000

> <Gold.PLP.ligand.torsion>
0.3247

> <Gold.PLP.Chemscore.Hbond>
2.0000

> <Gold.PLP.Chemscore.CHOScore>
0.9974

> <Gold.PLP.Chemscore.Metal>
0.0000

> <Gold.Chemscore.Hbonds>
donor molecule, donor type, donor heavy atom, donor atom, acceptor molecule, acceptor atom, score
      L1  H    25    56       P1  8028  1.00
      P1  H  7997  8008       L1    28  1.00
      L1  C    20    51       P1  7957  0.75

> <Gold.PLP.Chemscore.Internal.Correction>
0.2158

> <Gold.Rescore>
     Score         DG    S(hbond)    S(metal)    S(lipo)     H(rot)  DE(clash)    DE(int)     intcor
     14.38     -16.33       1.84        0.00      93.94       2.46       0.49       1.45       ----

> <Gold.Chemscore.Fitness>
14.3837

> <Gold.Chemscore.DG>
-16.3279

> <Gold.Chemscore.ZeroCoef>
-5.4800

> <Gold.Chemscore.Hbond>
1.8408

> <Gold.Chemscore.Metal>
0.0000

> <Gold.Chemscore.Lipo>
93.9415

> <Gold.Chemscore.Internal_Hbond>
0.0000

> <Gold.Chemscore.DEClash>
0.4929

> <Gold.Chemscore.DEInternal>
1.4513

> <Gold.Chemscore.Rot>
2.4576

> <Gold.Chemscore.Internal.Correction>
   9.000000E+99

> <Gold.Chemscore.Hbonds>
donor molecule, donor type, donor heavy atom, donor atom, acceptor molecule, acceptor atom, score
      L1  H    25    56       P1  8028  0.98
      P1  H  7997  8008       L1    28  0.65

> <Gold.Chemscore.Hbond.Weighted>
-6.1483

> <Gold.Chemscore.Metal.Weighted>
-0.0000

> <Gold.Chemscore.Lipo.Weighted>
-10.9912

> <Gold.Chemscore.Internal_Hbond.Weighted>
0.0000

> <Gold.Chemscore.DEClash.Weighted>
0.4929

> <Gold.Chemscore.DEInternal.Weighted>
1.4513

> <Gold.Chemscore.Rot.Weighted>
6.2915

> <Gold.Chemscore.Internal.Correction.Weighted>
   9.000000E+99

> <Gold.Protein.RotatedTorsions>
[ 6907 6896 6895 6894 ] final   78.31 input  -60.11 | X-H torsion
[ 7974 7965 7964 7962 ] final  -66.65 input  175.53 | X-H torsion
[ 8008 7997 7996 7995 ] final  -39.62 input   59.86 | X-H torsion
[ 10167 10162 10161 10158 ] final  -51.97 input  -65.29 | X-H torsion
[ 10718 10713 10712 10709 ] final  135.44 input   66.30 | X-H torsion
[ 10763 10752 10751 10750 ] final  142.24 input  -60.55 | X-H torsion
[ 11005 11000 10999 10996 ] final  -23.14 input  -57.11 | X-H torsion

> <Gold.Protein.ActiveResidues>
 VAL166  LYS551  ARG553  GLY616  TRP617  ASP618  TYR619  PRO620  LYS621  CYS622 
 ASP623  PHE694  ASN695  SER759  ASP760  ASP761  ALA762  ILE779  LEU786  VAL792 
 PHE793  MET794  SER795  GLU796  ALA797  LYS798  CYS799  TRP800  GLU811  SER814 

> <Gold.Protein.RotatedAtoms>
  152.5154  134.3684  159.9309 H   0  0  0  0  0  0  0  0  0  0  0  0  # atno 6907 bound_to 6896
  151.3638  133.3873  159.2700 H   0  0  0  0  0  0  0  0  0  0  0  0  # atno 6908 bound_to 6896
  150.9631  134.9035  159.7801 H   0  0  0  0  0  0  0  0  0  0  0  0  # atno 6909 bound_to 6896
  145.7391  140.8962  143.0539 H   0  0  0  0  0  0  0  0  0  0  0  0  # atno 7974 bound_to 7965
  154.4021  140.1547  156.2892 H   0  0  0  0  0  0  0  0  0  0  0  0  # atno 8008 bound_to 7997
  155.8800  140.3444  155.5859 H   0  0  0  0  0  0  0  0  0  0  0  0  # atno 8009 bound_to 7997
  155.7678  140.0826  157.2114 H   0  0  0  0  0  0  0  0  0  0  0  0  # atno 8010 bound_to 7997
  140.6561  143.2600  151.4580 H   0  0  0  0  0  0  0  0  0  0  0  0  # atno 10167 bound_to 10162
  157.4571  131.1070  150.9965 H   0  0  0  0  0  0  0  0  0  0  0  0  # atno 10718 bound_to 10713
  153.9525  135.2968  155.3438 H   0  0  0  0  0  0  0  0  0  0  0  0  # atno 10763 bound_to 10752
  154.7419  135.5021  153.9140 H   0  0  0  0  0  0  0  0  0  0  0  0  # atno 10764 bound_to 10752
  153.0987  135.6728  153.9823 H   0  0  0  0  0  0  0  0  0  0  0  0  # atno 10765 bound_to 10752
  140.8724  133.7711  156.0202 H   0  0  0  0  0  0  0  0  0  0  0  0  # atno 11005 bound_to 11000
  144.6875  139.9436  143.7476 LP  0  0  0  0  0  0  0  0  0  0  0  0  # atno 17320 bound_to 7965
  146.0465  139.3470  143.0665 LP  0  0  0  0  0  0  0  0  0  0  0  0  # atno 17321 bound_to 7965
  139.5785  144.1765  152.1935 LP  0  0  0  0  0  0  0  0  0  0  0  0  # atno 17342 bound_to 10162
  140.1082  144.5480  150.6942 LP  0  0  0  0  0  0  0  0  0  0  0  0  # atno 17343 bound_to 10162
  157.0775  130.5889  149.5414 LP  0  0  0  0  0  0  0  0  0  0  0  0  # atno 17370 bound_to 10713
  156.0012  130.5091  150.7669 LP  0  0  0  0  0  0  0  0  0  0  0  0  # atno 17371 bound_to 10713
  140.8558  134.2900  157.5256 LP  0  0  0  0  0  0  0  0  0  0  0  0  # atno 17394 bound_to 11000
  139.8713  134.9492  156.4018 LP  0  0  0  0  0  0  0  0  0  0  0  0  # atno 17395 bound_to 11000

$$$$
