#       Name:                AV-unprocessed.smi:1791
#       Creating user name   scv26
#       Creation time:       Fri Mar 27 08:46:27 2020


#       File generated by GOLD software.
#

@<TRIPOS>MOLECULE
AV-unprocessed.smi:1791
    45    46     1
SMALL
NO_CHARGES


@<TRIPOS>ATOM
      1 ****        -6.8182   2.1804  -0.9598 C.3            1 S1                 0.0000
      2 ****        -6.2712   0.8666  -0.9274 O.3            1 S1                 0.0000
      3 ****        -4.8984   0.7286  -0.9322 C.ar           1 S1                 0.0000
      4 ****        -4.3508  -0.5692  -0.8939 C.ar           1 S1                 0.0000
      5 ****        -2.9507  -0.7187  -0.8989 C.ar           1 S1                 0.0000
      6 ****        -2.1395   0.4405  -0.9357 C.ar           1 S1                 0.0000
      7 ****        -0.7194   0.4218  -0.9696 N.am           1 S1                 0.0000
      8 ****         0.1141  -0.5545  -0.5723 C.2            1 S1                 0.0000
      9 ****        -0.2301  -1.6130  -0.0470 O.2            1 S1                 0.0000
     10 ****         1.3918  -0.2171  -0.7995 N.am           1 S1                 0.0000
     11 ****         2.5645  -1.0332  -0.4891 C.3            1 S1                 0.0000
     12 ****         3.4645  -1.0979  -1.7316 C.3            1 S1                 0.0000
     13 ****         3.3103  -0.4550   0.7302 C.3            1 S1                 0.0000
     14 ****         2.4939  -0.3978   2.0220 C.3            1 S1                 0.0000
     15 ****         3.5570  -0.3805   3.1079 C.3            1 S1                 0.0000
     16 ****         4.8137  -0.9048   2.4060 C.3            1 S1                 0.0000
     17 ****         4.3878  -1.2975   1.1078 O.3            1 S1                 0.0000
     18 ****        -2.7860   1.6926  -0.9861 C.ar           1 S1                 0.0000
     19 ****        -4.1272   1.8430  -0.9794 N.ar           1 S1                 0.0000
     20 ****        -7.9062   2.1181  -0.9600 H              1 S1                 0.0000
     21 ****        -6.5183   2.7170  -1.8610 H              1 S1                 0.0000
     22 ****        -6.5199   2.7573  -0.0831 H              1 S1                 0.0000
     23 ****        -4.9938  -1.4366  -0.8668 H              1 S1                 0.0000
     24 ****        -2.5315  -1.7128  -0.8909 H              1 S1                 0.0000
     25 ****        -0.2835   1.2714  -1.2969 H              1 S1                 0.0000
     26 ****         1.5712   0.6798  -1.2264 H              1 S1                 0.0000
     27 ****         2.2574  -2.0536  -0.2528 H              1 S1                 0.0000
     28 ****         4.3326  -1.7335  -1.5551 H              1 S1                 0.0000
     29 ****         3.8284  -0.1090  -2.0124 H              1 S1                 0.0000
     30 ****         2.9261  -1.5102  -2.5855 H              1 S1                 0.0000
     31 ****         3.7042   0.5370   0.4992 H              1 S1                 0.0000
     32 ****         1.8282   0.4646   2.0664 H              1 S1                 0.0000
     33 ****         1.8858  -1.2981   2.1213 H              1 S1                 0.0000
     34 ****         3.7246   0.6316   3.4782 H              1 S1                 0.0000
     35 ****         3.2688  -1.0045   3.9545 H              1 S1                 0.0000
     36 ****         5.5600  -0.1145   2.3158 H              1 S1                 0.0000
     37 ****         5.2686  -1.7429   2.9342 H              1 S1                 0.0000
     38 ****        -2.2103   2.6056  -1.0297 H              1 S1                 0.0000
     39 ****        -6.6202   0.3808  -1.7288 LP             1 S1                 0.0000
     40 ****        -6.6100   0.4253  -0.0965 LP             1 S1                 0.0000
     41 ****        -1.1992  -1.7992   0.1142 LP             1 S1                 0.0000
     42 ****         0.4595  -2.2868   0.2185 LP             1 S1                 0.0000
     43 ****         5.1414  -1.1976   0.4580 LP             1 S1                 0.0000
     44 ****         4.0851  -2.2505   1.1231 LP             1 S1                 0.0000
     45 ****        -4.5415   2.7526  -1.0085 LP             1 S1                 0.0000
@<TRIPOS>BOND
    1    1    2 1     
    2    1   20 1     
    3    1   21 1     
    4    1   22 1     
    5    2    3 1     
    6    3   19 ar    
    7    3    4 ar    
    8    4    5 ar    
    9    4   23 1     
   10    5    6 ar    
   11    5   24 1     
   12    6    7 1     
   13    6   18 ar    
   14    7    8 am    
   15    7   25 1     
   16    8    9 2     
   17    8   10 am    
   18   10   11 1     
   19   10   26 1     
   20   11   12 1     
   21   11   13 1     
   22   11   27 1     
   23   12   28 1     
   24   12   29 1     
   25   12   30 1     
   26   13   17 1     
   27   13   14 1     
   28   13   31 1     
   29   14   15 1     
   30   14   32 1     
   31   14   33 1     
   32   15   16 1     
   33   15   34 1     
   34   15   35 1     
   35   16   17 1     
   36   16   36 1     
   37   16   37 1     
   38   18   19 ar    
   39   18   38 1     
   40    2   39 1     
   41    2   40 1     
   42    9   41 1     
   43    9   42 1     
   44   17   43 1     
   45   17   44 1     
   46   19   45 1     
@<TRIPOS>SUBSTRUCTURE
      1 S1             1
@<TRIPOS>SET
LONE_PAIRS      STATIC     ATOMS    <user>   **** ""
7 39 40 41 42 43 44 45
DONOR_HYDROGENS      STATIC     ATOMS    <user>   **** ""
2 25 26
ATOM$BLUE        STATIC     ATOMS    COLORGROUP SYSTEM
7 39 40 41 42 43 44 45
ATOM$RED        STATIC     ATOMS    COLORGROUP SYSTEM
2 25 26
