AV-unprocessed.smi:672|AV-procd|sdf|3294|dock3
  -GOLD-   22720 0253D 1   1.00000     0.00000
 Structure written by MMmdl.
 35 36  0  0  0  0  0  0  0  0  2 V2000
  146.3647  138.5017  152.0828 C   0  0  0  0  0  0  0  0  0  0  0  0
  147.5360  139.4492  152.3633 C   0  0  0  0  0  0  0  0  0  0  0  0
  147.5036  140.0059  153.7475 C   0  0  0  0  0  0  0  0  0  0  0  0
  146.4116  139.9745  154.5160 N   0  0  0  0  0  0  0  0  0  0  0  0
  146.6214  140.5783  155.7471 N   0  0  0  0  0  0  0  0  0  0  0  0
  147.8572  141.0799  155.8833 C   0  0  0  0  0  0  0  0  0  0  0  0
  148.2614  141.7063  157.0007 N   0  5  0  0  0  0  0  0  0  0  0  0
  149.5590  141.6453  157.3773 C   0  0  0  0  0  0  0  0  0  0  0  0
  150.1836  140.6269  157.6836 O   0  0  0  0  0  0  0  0  0  0  0  0
  150.1722  142.8375  157.3993 N   0  0  0  0  0  0  0  0  0  0  0  0
  151.5662  143.0765  157.7675 C   0  0  1  0  0  0  0  0  0  0  0  0
  151.8543  144.5795  157.9592 C   0  0  0  0  0  0  0  0  0  0  0  0
  152.1010  144.7772  159.4554 C   0  0  0  0  0  0  0  0  0  0  0  0
  152.6861  143.4437  159.9166 C   0  0  1  0  0  0  0  0  0  0  0  0
  152.5552  143.1837  161.7096 S   0  0  0  0  0  0  0  0  0  0  0  0
  153.6850  141.7818  161.9160 C   0  0  0  0  0  0  0  0  0  0  0  0
  151.9020  142.4037  159.1118 C   0  0  0  0  0  0  0  0  0  0  0  0
  148.8826  140.8149  154.4733 S   0  0  0  0  0  0  0  0  0  0  0  0
  146.4139  138.1139  151.0654 H   0  0  0  0  0  0  0  0  0  0  0  0
  145.4089  139.0133  152.1992 H   0  0  0  0  0  0  0  0  0  0  0  0
  146.3752  137.6514  152.7654 H   0  0  0  0  0  0  0  0  0  0  0  0
  148.4816  138.9266  152.2147 H   0  0  0  0  0  0  0  0  0  0  0  0
  147.5225  140.2772  151.6539 H   0  0  0  0  0  0  0  0  0  0  0  0
  149.6244  143.6444  157.1387 H   0  0  0  0  0  0  0  0  0  0  0  0
  152.2234  142.6770  156.9926 H   0  0  0  0  0  0  0  0  0  0  0  0
  152.7565  144.8440  157.4064 H   0  0  0  0  0  0  0  0  0  0  0  0
  151.0558  145.2258  157.5924 H   0  0  0  0  0  0  0  0  0  0  0  0
  152.7594  145.6220  159.6583 H   0  0  0  0  0  0  0  0  0  0  0  0
  151.1515  144.9635  159.9596 H   0  0  0  0  0  0  0  0  0  0  0  0
  153.7369  143.3918  159.6274 H   0  0  0  0  0  0  0  0  0  0  0  0
  153.6996  141.4636  162.9583 H   0  0  0  0  0  0  0  0  0  0  0  0
  154.6987  142.0585  161.6269 H   0  0  0  0  0  0  0  0  0  0  0  0
  153.3637  140.9401  161.3027 H   0  0  0  0  0  0  0  0  0  0  0  0
  150.9851  142.1478  159.6458 H   0  0  0  0  0  0  0  0  0  0  0  0
  152.4649  141.4791  158.9798 H   0  0  0  0  0  0  0  0  0  0  0  0
  1  2  1  0  0  0  0
  1 19  1  0  0  0  0
  1 20  1  0  0  0  0
  1 21  1  0  0  0  0
  2  3  1  0  0  0  0
  2 22  1  0  0  0  0
  2 23  1  0  0  0  0
  3 18  1  0  0  0  0
  3  4  2  0  0  0  0
  4  5  1  0  0  0  0
  5  6  2  0  0  0  0
  6  7  1  0  0  0  0
  6 18  1  0  0  0  0
  7  8  1  0  0  0  0
  8  9  2  0  0  0  0
  8 10  1  0  0  0  0
 10 11  1  0  0  0  0
 10 24  1  0  0  0  0
 11 17  1  0  0  0  0
 11 12  1  0  0  0  0
 11 25  1  0  0  0  0
 12 13  1  0  0  0  0
 12 26  1  0  0  0  0
 12 27  1  0  0  0  0
 13 14  1  0  0  0  0
 13 28  1  0  0  0  0
 13 29  1  0  0  0  0
 14 15  1  0  0  0  0
 14 17  1  0  0  0  0
 14 30  1  0  0  0  0
 15 16  1  0  0  0  0
 16 31  1  0  0  0  0
 16 32  1  0  0  0  0
 16 33  1  0  0  0  0
 17 34  1  0  0  0  0
 17 35  1  0  0  0  0
M  CHG  1   7  -1
M  END
> <s_m_source_file>
AV-unprocessed.smi

> <i_m_source_file_index>
672

> <i_lp_mmshare_version>
43012

> <i_f3d_flags>
0

> <s_epik_input>
W0NIM11bQ0gyXWMxbm5jKHMxKVtOSF1DKD1PKVtOSF1bQ0BASF0yW0NIMl1bQ0gyXVtDQEhdKFtDSDJdMilTW0NIM10=

> <s_epik_cmdline>
J2VwaWtfcHl0aG9uJywgJy1waCcsICc3LjAnLCAnLXRuJywgJzgnLCAnLW1hJywgJzIwMCcsICctbWV0YWxfYmluZGluZycsICctaW1hZScsICc8aW5maWxlLm1hZT4nLCAnLW9tYWUnLCAnPG91dGZpbGUubWFlPic=

> <r_lp_tautomer_probability>
1

> <r_epik_Ionization_Penalty>
4.49964

> <r_epik_Ionization_Penalty_Charging>
4.32991

> <r_epik_Ionization_Penalty_Neutral>
0.169727

> <r_epik_State_Penalty>
4.32952

> <r_epik_Charging_Adjusted_Penalty>
8.65943

> <i_epik_Tot_Q>
-1

> <i_epik_Tot_abs_Q>
1

> <r_epik_Metal_State_Penalty>
0.740482

> <b_epik_Metal_Only>
1

> <s_lp_Force_Field>
OPLS_2005

> <r_lp_Energy>
10.5366

> <b_lp_Chiralities_Consistent>
1

> <s_lp_Variant>
AV-unprocessed.smi:672-6

> <Gold.Version>
5.8.1

> <Gold.Id.Protein>
6NUR|6NUR_protein|mol2

> <Gold.PLP.Fitness>
38.9555

> <Gold.PLP.PLP>
-38.3449

> <Gold.PLP.part.hbond>
-1.0000

> <Gold.PLP.part.metal>
0.0000

> <Gold.PLP.part.buried>
0.8894

> <Gold.PLP.part.nonpolar>
-37.7485

> <Gold.PLP.part.repulsive>
0.8339

> <Gold.PLP.ligand.clash>
0.0000

> <Gold.PLP.ligand.torsion>
1.1935

> <Gold.PLP.Chemscore.Hbond>
0.9760

> <Gold.PLP.Chemscore.CHOScore>
0.0000

> <Gold.PLP.Chemscore.Metal>
0.0000

> <Gold.Chemscore.Hbonds>
donor molecule, donor type, donor heavy atom, donor atom, acceptor molecule, acceptor atom, score
      L1  H    10    24       P1  8028  0.94

> <Gold.PLP.Chemscore.Internal.Correction>
0.0695

> <Gold.Rescore>
     Score         DG    S(hbond)    S(metal)    S(lipo)     H(rot)  DE(clash)    DE(int)     intcor
     14.20     -18.80       0.85        0.00     118.77       1.34       2.13       2.47       ----

> <Gold.Chemscore.Fitness>
14.1975

> <Gold.Chemscore.DG>
-18.7963

> <Gold.Chemscore.ZeroCoef>
-5.4800

> <Gold.Chemscore.Hbond>
0.8543

> <Gold.Chemscore.Metal>
0.0000

> <Gold.Chemscore.Lipo>
118.7677

> <Gold.Chemscore.Internal_Hbond>
0.0000

> <Gold.Chemscore.DEClash>
2.1266

> <Gold.Chemscore.DEInternal>
2.4722

> <Gold.Chemscore.Rot>
1.3410

> <Gold.Chemscore.Internal.Correction>
   9.000000E+99

> <Gold.Chemscore.Hbonds>
donor molecule, donor type, donor heavy atom, donor atom, acceptor molecule, acceptor atom, score
      L1  H    10    24       P1  8028  0.79

> <Gold.Chemscore.Hbond.Weighted>
-2.8534

> <Gold.Chemscore.Metal.Weighted>
-0.0000

> <Gold.Chemscore.Lipo.Weighted>
-13.8958

> <Gold.Chemscore.Internal_Hbond.Weighted>
0.0000

> <Gold.Chemscore.DEClash.Weighted>
2.1266

> <Gold.Chemscore.DEInternal.Weighted>
2.4722

> <Gold.Chemscore.Rot.Weighted>
3.4329

> <Gold.Chemscore.Internal.Correction.Weighted>
   9.000000E+99

> <Gold.Protein.RotatedTorsions>
[ 6907 6896 6895 6894 ] final   15.51 input  -60.11 | X-H torsion
[ 7974 7965 7964 7962 ] final   52.33 input  175.53 | X-H torsion
[ 8008 7997 7996 7995 ] final   87.65 input   59.86 | X-H torsion
[ 10167 10162 10161 10158 ] final   16.48 input  -65.29 | X-H torsion
[ 10718 10713 10712 10709 ] final   76.20 input   66.30 | X-H torsion
[ 10763 10752 10751 10750 ] final  -79.07 input  -60.55 | X-H torsion
[ 11005 11000 10999 10996 ] final  -55.88 input  -57.11 | X-H torsion

> <Gold.Protein.ActiveResidues>
 VAL166  LYS551  ARG553  GLY616  TRP617  ASP618  TYR619  PRO620  LYS621  CYS622 
 ASP623  PHE694  ASN695  SER759  ASP760  ASP761  ALA762  ILE779  LEU786  VAL792 
 PHE793  MET794  SER795  GLU796  ALA797  LYS798  CYS799  TRP800  GLU811  SER814 

> <Gold.Protein.RotatedAtoms>
  151.8193  135.0657  160.0422 H   0  0  0  0  0  0  0  0  0  0  0  0  # atno 6907 bound_to 6896
  152.2963  133.5606  159.5598 H   0  0  0  0  0  0  0  0  0  0  0  0  # atno 6908 bound_to 6896
  150.7253  134.0272  159.3763 H   0  0  0  0  0  0  0  0  0  0  0  0  # atno 6909 bound_to 6896
  145.9824  139.4255  143.0124 H   0  0  0  0  0  0  0  0  0  0  0  0  # atno 7974 bound_to 7965
  155.9779  140.3380  155.6636 H   0  0  0  0  0  0  0  0  0  0  0  0  # atno 8008 bound_to 7997
  155.6587  140.0713  157.2580 H   0  0  0  0  0  0  0  0  0  0  0  0  # atno 8009 bound_to 7997
  154.4184  140.1712  156.1740 H   0  0  0  0  0  0  0  0  0  0  0  0  # atno 8010 bound_to 7997
  140.5794  143.9010  150.6777 H   0  0  0  0  0  0  0  0  0  0  0  0  # atno 10167 bound_to 10162
  157.6664  130.9763  150.1463 H   0  0  0  0  0  0  0  0  0  0  0  0  # atno 10718 bound_to 10713
  154.5339  135.5708  153.6782 H   0  0  0  0  0  0  0  0  0  0  0  0  # atno 10763 bound_to 10752
  152.9946  135.6211  154.2592 H   0  0  0  0  0  0  0  0  0  0  0  0  # atno 10764 bound_to 10752
  154.2519  135.2859  155.2792 H   0  0  0  0  0  0  0  0  0  0  0  0  # atno 10765 bound_to 10752
  141.1094  133.6611  156.4536 H   0  0  0  0  0  0  0  0  0  0  0  0  # atno 11005 bound_to 11000
  145.7750  140.9880  143.1129 LP  0  0  0  0  0  0  0  0  0  0  0  0  # atno 17320 bound_to 7965
  144.6865  139.9494  143.7477 LP  0  0  0  0  0  0  0  0  0  0  0  0  # atno 17321 bound_to 7965
  140.2505  143.3596  152.1409 LP  0  0  0  0  0  0  0  0  0  0  0  0  # atno 17342 bound_to 10162
  139.5161  144.6973  151.5595 LP  0  0  0  0  0  0  0  0  0  0  0  0  # atno 17343 bound_to 10162
  156.2273  130.3679  149.8485 LP  0  0  0  0  0  0  0  0  0  0  0  0  # atno 17370 bound_to 10713
  156.6322  130.8670  151.3497 LP  0  0  0  0  0  0  0  0  0  0  0  0  # atno 17371 bound_to 10713
  140.4815  134.6660  157.5173 LP  0  0  0  0  0  0  0  0  0  0  0  0  # atno 17394 bound_to 11000
  139.9980  134.6880  155.9576 LP  0  0  0  0  0  0  0  0  0  0  0  0  # atno 17395 bound_to 11000

$$$$
