AV-unprocessed.smi:1|AV-procd|sdf|14|dock6
  -GOLD-   2262015113D 1   1.00000     0.00000
 Structure written by MMmdl.
 57 62  0  0  0  0  0  0  0  0  1 V2000
  144.3939  145.2647  157.6763 O   0  0  0  0  0  0  0  0  0  0  0  0
  145.0821  144.5654  158.4249 C   0  0  0  0  0  0  0  0  0  0  0  0
  146.2301  143.8420  158.1291 N   0  0  0  0  0  0  0  0  0  0  0  0
  146.2532  143.0478  157.1017 C   0  0  0  0  0  0  0  0  0  0  0  0
  145.2906  142.7177  156.1391 N   0  0  0  0  0  0  0  0  0  0  0  0
  145.4600  141.8085  155.0844 C   0  0  0  0  0  0  0  0  0  0  0  0
  146.5554  141.1391  154.8453 N   0  0  0  0  0  0  0  0  0  0  0  0
  147.5521  141.4379  155.7653 C   0  0  0  0  0  0  0  0  0  0  0  0
  147.5038  142.3041  156.8371 C   0  0  0  0  0  0  0  0  0  0  0  0
  148.7168  142.3215  157.5169 N   0  0  0  0  0  0  0  0  0  0  0  0
  149.4527  141.4607  156.8199 C   0  0  0  0  0  0  0  0  0  0  0  0
  148.8379  140.8954  155.7646 N   0  0  0  0  0  0  0  0  0  0  0  0
  149.4522  139.9082  154.8205 C   0  0  1  0  0  0  0  0  0  0  0  0
  150.8390  139.9897  154.9346 O   0  0  0  0  0  0  0  0  0  0  0  0
  151.4028  138.7019  154.7455 C   0  0  1  0  0  0  0  0  0  0  0  0
  152.8144  138.6339  155.3418 C   0  0  0  0  0  0  0  0  0  0  0  0
  152.8973  139.5110  156.4538 O   0  0  0  0  0  0  0  0  0  0  0  0
  152.9894  139.0134  157.7029 C   0  0  0  0  0  0  0  0  0  0  0  0
  152.9264  137.8106  157.9653 O   0  0  0  0  0  0  0  0  0  0  0  0
  153.1813  140.0719  158.7358 C   0  0  0  0  0  0  0  0  0  0  0  0
  153.9516  139.7849  159.8870 C   0  0  0  0  0  0  0  0  0  0  0  0
  154.1524  140.7646  160.8787 C   0  0  0  0  0  0  0  0  0  0  0  0
  153.5828  142.0429  160.7326 C   0  0  0  0  0  0  0  0  0  0  0  0
  152.8125  142.3402  159.5932 C   0  0  0  0  0  0  0  0  0  0  0  0
  152.6128  141.3623  158.5992 C   0  0  0  0  0  0  0  0  0  0  0  0
  150.3811  137.7552  155.3776 C   0  0  1  0  0  0  0  0  0  0  0  0
  150.5715  137.6285  156.7762 O   0  0  0  0  0  0  0  0  0  0  0  0
  149.0682  137.5906  157.4974 S   0  0  0  0  0  0  0  0  0  0  0  0
  148.6307  136.1878  157.5661 O   0  0  0  0  0  0  0  0  0  0  0  0
  149.0853  138.4694  158.6763 O   0  0  0  0  0  0  0  0  0  0  0  0
  148.2052  138.3412  156.2797 O   0  0  0  0  0  0  0  0  0  0  0  0
  149.0353  138.4552  155.1304 C   0  0  1  0  0  0  0  0  0  0  0  0
  144.6674  144.4557  159.8559 C   0  0  0  0  0  0  0  0  0  0  0  0
  145.5899  144.0122  160.8273 C   0  0  0  0  0  0  0  0  0  0  0  0
  145.2012  143.9137  162.1775 C   0  0  0  0  0  0  0  0  0  0  0  0
  143.8910  144.2604  162.5608 C   0  0  0  0  0  0  0  0  0  0  0  0
  142.9692  144.7068  161.5940 C   0  0  0  0  0  0  0  0  0  0  0  0
  143.3562  144.8054  160.2432 C   0  0  0  0  0  0  0  0  0  0  0  0
  144.5788  141.6931  154.4517 H   0  0  0  0  0  0  0  0  0  0  0  0
  150.4763  141.2368  157.0819 H   0  0  0  0  0  0  0  0  0  0  0  0
  149.1370  140.2350  153.8287 H   0  0  0  0  0  0  0  0  0  0  0  0
  151.4450  138.5191  153.6703 H   0  0  0  0  0  0  0  0  0  0  0  0
  153.0331  137.6181  155.6728 H   0  0  0  0  0  0  0  0  0  0  0  0
  153.5548  138.8943  154.5839 H   0  0  0  0  0  0  0  0  0  0  0  0
  154.3992  138.8105  160.0211 H   0  0  0  0  0  0  0  0  0  0  0  0
  154.7443  140.5344  161.7524 H   0  0  0  0  0  0  0  0  0  0  0  0
  153.7364  142.7938  161.4937 H   0  0  0  0  0  0  0  0  0  0  0  0
  152.3737  143.3205  159.4807 H   0  0  0  0  0  0  0  0  0  0  0  0
  152.0158  141.6236  157.7377 H   0  0  0  0  0  0  0  0  0  0  0  0
  150.4162  136.7608  154.9310 H   0  0  0  0  0  0  0  0  0  0  0  0
  148.5308  138.0442  154.2555 H   0  0  0  0  0  0  0  0  0  0  0  0
  146.5976  143.7471  160.5410 H   0  0  0  0  0  0  0  0  0  0  0  0
  145.9086  143.5738  162.9195 H   0  0  0  0  0  0  0  0  0  0  0  0
  143.5943  144.1851  163.5966 H   0  0  0  0  0  0  0  0  0  0  0  0
  141.9650  144.9744  161.8885 H   0  0  0  0  0  0  0  0  0  0  0  0
  142.6439  145.1504  159.5077 H   0  0  0  0  0  0  0  0  0  0  0  0
  144.3919  143.1718  156.2157 H   0  0  0  0  0  0  0  0  0  0  0  0
  1  2  2  0  0  0  0
  2  3  1  0  0  0  0
  2 33  1  0  0  0  0
  3  4  2  0  0  0  0
  4  9  1  0  0  0  0
  4  5  1  0  0  0  0
  5  6  1  0  0  0  0
  5 57  1  0  0  0  0
  6  7  2  0  0  0  0
  6 39  1  0  0  0  0
  7  8  1  0  0  0  0
  8 12  1  0  0  0  0
  8  9  2  0  0  0  0
  9 10  1  0  0  0  0
 10 11  2  0  0  0  0
 11 12  1  0  0  0  0
 11 40  1  0  0  0  0
 12 13  1  0  0  0  0
 13 32  1  0  0  0  0
 13 14  1  0  0  0  0
 13 41  1  0  0  0  0
 14 15  1  0  0  0  0
 15 16  1  0  0  0  0
 15 26  1  0  0  0  0
 15 42  1  0  0  0  0
 16 17  1  0  0  0  0
 16 43  1  0  0  0  0
 16 44  1  0  0  0  0
 17 18  1  0  0  0  0
 18 19  2  0  0  0  0
 18 20  1  0  0  0  0
 20 25  1  0  0  0  0
 20 21  2  0  0  0  0
 21 22  1  0  0  0  0
 21 45  1  0  0  0  0
 22 23  2  0  0  0  0
 22 46  1  0  0  0  0
 23 24  1  0  0  0  0
 23 47  1  0  0  0  0
 24 25  2  0  0  0  0
 24 48  1  0  0  0  0
 25 49  1  0  0  0  0
 26 32  1  0  0  0  0
 26 27  1  0  0  0  0
 26 50  1  0  0  0  0
 27 28  1  0  0  0  0
 28 29  2  0  0  0  0
 28 30  2  0  0  0  0
 28 31  1  0  0  0  0
 31 32  1  0  0  0  0
 32 51  1  0  0  0  0
 33 38  1  0  0  0  0
 33 34  2  0  0  0  0
 34 35  1  0  0  0  0
 34 52  1  0  0  0  0
 35 36  2  0  0  0  0
 35 53  1  0  0  0  0
 36 37  1  0  0  0  0
 36 54  1  0  0  0  0
 37 38  2  0  0  0  0
 37 55  1  0  0  0  0
 38 56  1  0  0  0  0
M  END
> <s_m_source_file>
AV-unprocessed.smi

> <i_m_source_file_index>
1

> <i_lp_mmshare_version>
43012

> <i_f3d_flags>
0

> <s_epik_input>
W2NIXTFbY0hdW2NIXVtjSF1bY0hdYzFDKD1PKVtOSF1jKG5bY0hdbjIpYyhjMjMpbltjSF1uM1tDQEBIXShbQ0BIXShbQ0BIXTQ1KU9TKE81KSg9Tyk9TylPW0NASF00W0NIMl1PQyg9TyljNltjSF1bY0hdW2NIXVtjSF1bY0hdNg==

> <s_epik_cmdline>
J2VwaWtfcHl0aG9uJywgJy1waCcsICc3LjAnLCAnLXRuJywgJzgnLCAnLW1hJywgJzIwMCcsICctbWV0YWxfYmluZGluZycsICctaW1hZScsICc8aW5maWxlLm1hZT4nLCAnLW9tYWUnLCAnPG91dGZpbGUubWFlPic=

> <r_epik_Ionization_Penalty>
0.122545

> <r_epik_Ionization_Penalty_Charging>
0.122545

> <r_epik_Ionization_Penalty_Neutral>
7.8935e-16

> <r_epik_State_Penalty>
2.69178

> <r_epik_Charging_Adjusted_Penalty>
2.81433

> <i_epik_Tot_Q>
0

> <i_epik_Tot_abs_Q>
0

> <r_epik_Metal_State_Penalty>
3.02665

> <b_epik_Metal_Only>
0

> <s_epik_Chemistry_Notes>
This compound has an ester and may undergo hydrolysis at high or low pH. This compound contains an acetal/aminal-like group ( X-CH(R)-Y where X, Y are N, S, or O) that may be acid/base labile, releasing an aldehyde.

> <s_lp_Force_Field>
OPLS_2005

> <r_lp_Energy>
60.6373

> <b_lp_Chiralities_Consistent>
1

> <s_lp_Variant>
AV-unprocessed.smi:1-14

> <Gold.Version>
5.8.1

> <Gold.Id.Protein>
6NUR|6NUR_protein|mol2

> <Gold.PLP.Fitness>
51.3422

> <Gold.PLP.PLP>
-50.0524

> <Gold.PLP.part.hbond>
-2.0000

> <Gold.PLP.part.metal>
0.0000

> <Gold.PLP.part.buried>
-7.1116

> <Gold.PLP.part.nonpolar>
-41.6335

> <Gold.PLP.part.repulsive>
1.3279

> <Gold.PLP.ligand.clash>
0.0000

> <Gold.PLP.ligand.torsion>
2.2592

> <Gold.PLP.Chemscore.Hbond>
0.9000

> <Gold.PLP.Chemscore.CHOScore>
1.0000

> <Gold.PLP.Chemscore.Metal>
0.0000

> <Gold.Chemscore.Hbonds>
donor molecule, donor type, donor heavy atom, donor atom, acceptor molecule, acceptor atom, score
      P1  H  7989  7998       L1    14  0.95
      L1  C     6    39       P1 10175  1.00

> <Gold.PLP.Chemscore.Internal.Correction>
0.1081

> <Gold.Rescore>
     Score         DG    S(hbond)    S(metal)    S(lipo)     H(rot)  DE(clash)    DE(int)     intcor
     10.39     -14.44       0.04        0.00     122.09       2.13       1.53       2.52       ----

> <Gold.Chemscore.Fitness>
10.3907

> <Gold.Chemscore.DG>
-14.4442

> <Gold.Chemscore.ZeroCoef>
-5.4800

> <Gold.Chemscore.Hbond>
0.0421

> <Gold.Chemscore.Metal>
0.0000

> <Gold.Chemscore.Lipo>
122.0939

> <Gold.Chemscore.Internal_Hbond>
0.0000

> <Gold.Chemscore.DEClash>
1.5319

> <Gold.Chemscore.DEInternal>
2.5215

> <Gold.Chemscore.Rot>
2.1333

> <Gold.Chemscore.Internal.Correction>
   9.000000E+99

> <Gold.Chemscore.Hbonds>
donor molecule, donor type, donor heavy atom, donor atom, acceptor molecule, acceptor atom, score
      P1  H  7989  7998       L1    14  0.18

> <Gold.Chemscore.Hbond.Weighted>
-0.1405

> <Gold.Chemscore.Metal.Weighted>
-0.0000

> <Gold.Chemscore.Lipo.Weighted>
-14.2850

> <Gold.Chemscore.Internal_Hbond.Weighted>
0.0000

> <Gold.Chemscore.DEClash.Weighted>
1.5319

> <Gold.Chemscore.DEInternal.Weighted>
2.5215

> <Gold.Chemscore.Rot.Weighted>
5.4614

> <Gold.Chemscore.Internal.Correction.Weighted>
   9.000000E+99

> <Gold.Protein.RotatedTorsions>
[ 6907 6896 6895 6894 ] final -145.94 input  -60.11 | X-H torsion
[ 7974 7965 7964 7962 ] final   28.54 input  175.53 | X-H torsion
[ 8008 7997 7996 7995 ] final -126.79 input   59.86 | X-H torsion
[ 10167 10162 10161 10158 ] final -118.84 input  -65.29 | X-H torsion
[ 10718 10713 10712 10709 ] final -127.23 input   66.30 | X-H torsion
[ 10763 10752 10751 10750 ] final  -55.98 input  -60.55 | X-H torsion
[ 11005 11000 10999 10996 ] final  138.35 input  -57.11 | X-H torsion

> <Gold.Protein.ActiveResidues>
 VAL166  LYS551  ARG553  GLY616  TRP617  ASP618  TYR619  PRO620  LYS621  CYS622 
 ASP623  PHE694  ASN695  SER759  ASP760  ASP761  ALA762  ILE779  LEU786  VAL792 
 PHE793  MET794  SER795  GLU796  ALA797  LYS798  CYS799  TRP800  GLU811  SER814 

> <Gold.Protein.RotatedAtoms>
  151.1347  133.5012  159.2598 H   0  0  0  0  0  0  0  0  0  0  0  0  # atno 6907 bound_to 6896
  151.1720  135.0321  159.8765 H   0  0  0  0  0  0  0  0  0  0  0  0  # atno 6908 bound_to 6896
  152.5461  134.1209  159.8452 H   0  0  0  0  0  0  0  0  0  0  0  0  # atno 6909 bound_to 6896
  146.1723  139.7042  142.8959 H   0  0  0  0  0  0  0  0  0  0  0  0  # atno 7974 bound_to 7965
  155.2355  140.0427  157.2968 H   0  0  0  0  0  0  0  0  0  0  0  0  # atno 8008 bound_to 7997
  154.5861  140.2414  155.7955 H   0  0  0  0  0  0  0  0  0  0  0  0  # atno 8009 bound_to 7997
  156.2227  140.2964  156.0000 H   0  0  0  0  0  0  0  0  0  0  0  0  # atno 8010 bound_to 7997
  140.0532  143.5040  152.2071 H   0  0  0  0  0  0  0  0  0  0  0  0  # atno 10167 bound_to 10162
  156.1838  130.6750  151.0338 H   0  0  0  0  0  0  0  0  0  0  0  0  # atno 10718 bound_to 10713
  154.1995  135.6413  153.5083 H   0  0  0  0  0  0  0  0  0  0  0  0  # atno 10763 bound_to 10752
  153.0015  135.5448  154.6331 H   0  0  0  0  0  0  0  0  0  0  0  0  # atno 10764 bound_to 10752
  154.5740  135.2919  155.0772 H   0  0  0  0  0  0  0  0  0  0  0  0  # atno 10765 bound_to 10752
  140.0178  134.9410  157.0411 H   0  0  0  0  0  0  0  0  0  0  0  0  # atno 11005 bound_to 11000
  145.4307  141.0415  143.2912 LP  0  0  0  0  0  0  0  0  0  0  0  0  # atno 17320 bound_to 7965
  144.8181  139.5840  143.6999 LP  0  0  0  0  0  0  0  0  0  0  0  0  # atno 17321 bound_to 7965
  139.5940  144.7560  151.3331 LP  0  0  0  0  0  0  0  0  0  0  0  0  # atno 17342 bound_to 10162
  140.7207  143.7144  150.7744 LP  0  0  0  0  0  0  0  0  0  0  0  0  # atno 17343 bound_to 10162
  157.6885  131.0817  150.7174 LP  0  0  0  0  0  0  0  0  0  0  0  0  # atno 17370 bound_to 10713
  156.7231  130.4686  149.5518 LP  0  0  0  0  0  0  0  0  0  0  0  0  # atno 17371 bound_to 10713
  140.4441  134.1651  155.7176 LP  0  0  0  0  0  0  0  0  0  0  0  0  # atno 17394 bound_to 11000
  141.1754  133.8525  157.1438 LP  0  0  0  0  0  0  0  0  0  0  0  0  # atno 17395 bound_to 11000

$$$$
