AV-unprocessed.smi:1648|AV-procd|sdf|6627|dock9
  -GOLD-   22720 7323D 1   1.00000     0.00000
 Structure written by MMmdl.
 42 42  0  0  0  0  0  0  0  0  2 V2000
  147.2092  141.3235  153.7218 C   0  0  0  0  0  0  0  0  0  0  0  0
  146.4795  140.5893  154.8484 C   0  0  0  0  0  0  0  0  0  0  0  0
  147.0454  140.4266  155.9266 O   0  0  0  0  0  0  0  0  0  0  0  0
  145.2329  140.1323  154.6383 N   0  0  0  0  0  0  0  0  0  0  0  0
  144.3796  139.4116  155.5866 C   0  0  2  0  0  0  0  0  0  0  0  0
  144.0483  138.0472  154.9554 C   0  0  0  0  0  0  0  0  0  0  0  0
  144.2863  137.0040  155.5661 O   0  0  0  0  0  0  0  0  0  0  0  0
  143.4842  138.0741  153.7374 N   0  0  0  0  0  0  0  0  0  0  0  0
  143.0429  136.9056  152.9768 C   0  0  2  0  0  0  0  0  0  0  0  0
  141.6337  136.5153  153.4420 C   0  0  0  0  0  0  0  0  0  0  0  0
  144.0327  135.7304  153.1406 C   0  0  0  0  0  0  0  0  0  0  0  0
  144.1742  134.9223  151.9233 N   0  0  0  0  0  0  0  0  0  0  0  0
  143.9003  133.5863  151.7766 C   0  0  0  0  0  0  0  0  0  0  0  0
  144.1638  133.2743  150.4678 C   0  0  0  0  0  0  0  0  0  0  0  0
  144.5978  134.4287  149.8735 N   0  3  0  0  0  0  0  0  0  0  0  0
  144.6143  135.4267  150.7627 C   0  0  0  0  0  0  0  0  0  0  0  0
  143.0727  140.2272  155.8118 C   0  0  0  0  0  0  0  0  0  0  0  0
  143.3688  141.6547  156.3119 C   0  0  0  0  0  0  0  0  0  0  0  0
  142.0994  139.5406  156.7927 C   0  0  0  0  0  0  0  0  0  0  0  0
  147.4242  140.6398  152.9003 H   0  0  0  0  0  0  0  0  0  0  0  0
  148.1564  141.7293  154.0786 H   0  0  0  0  0  0  0  0  0  0  0  0
  146.6146  142.1520  153.3383 H   0  0  0  0  0  0  0  0  0  0  0  0
  144.8539  140.2513  153.7098 H   0  0  0  0  0  0  0  0  0  0  0  0
  144.8849  139.2769  156.5446 H   0  0  0  0  0  0  0  0  0  0  0  0
  143.3366  138.9761  153.3079 H   0  0  0  0  0  0  0  0  0  0  0  0
  142.9709  137.1624  151.9183 H   0  0  0  0  0  0  0  0  0  0  0  0
  141.2540  135.6661  152.8732 H   0  0  0  0  0  0  0  0  0  0  0  0
  140.9328  137.3398  153.3068 H   0  0  0  0  0  0  0  0  0  0  0  0
  141.6244  136.2394  154.4971 H   0  0  0  0  0  0  0  0  0  0  0  0
  145.0186  136.0915  153.4387 H   0  0  0  0  0  0  0  0  0  0  0  0
  143.6920  135.0582  153.9289 H   0  0  0  0  0  0  0  0  0  0  0  0
  143.5367  132.9759  152.5903 H   0  0  0  0  0  0  0  0  0  0  0  0
  144.0767  132.3421  149.9288 H   0  0  0  0  0  0  0  0  0  0  0  0
  144.9128  136.4421  150.5739 H   0  0  0  0  0  0  0  0  0  0  0  0
  142.5527  140.3271  154.8573 H   0  0  0  0  0  0  0  0  0  0  0  0
  143.9182  141.6369  157.2537 H   0  0  0  0  0  0  0  0  0  0  0  0
  142.4463  142.2119  156.4778 H   0  0  0  0  0  0  0  0  0  0  0  0
  143.9581  142.2253  155.5941 H   0  0  0  0  0  0  0  0  0  0  0  0
  142.5699  139.3708  157.7617 H   0  0  0  0  0  0  0  0  0  0  0  0
  141.7478  138.5786  156.4194 H   0  0  0  0  0  0  0  0  0  0  0  0
  141.2139  140.1548  156.9593 H   0  0  0  0  0  0  0  0  0  0  0  0
  144.8687  134.5167  148.9019 H   0  0  0  0  0  0  0  0  0  0  0  0
  1  2  1  0  0  0  0
  1 20  1  0  0  0  0
  1 21  1  0  0  0  0
  1 22  1  0  0  0  0
  2  3  2  0  0  0  0
  2  4  1  0  0  0  0
  4  5  1  0  0  0  0
  4 23  1  0  0  0  0
  5  6  1  0  0  0  0
  5 17  1  0  0  0  0
  5 24  1  0  0  0  0
  6  7  2  0  0  0  0
  6  8  1  0  0  0  0
  8  9  1  0  0  0  0
  8 25  1  0  0  0  0
  9 10  1  0  0  0  0
  9 11  1  0  0  0  0
  9 26  1  0  0  0  0
 10 27  1  0  0  0  0
 10 28  1  0  0  0  0
 10 29  1  0  0  0  0
 11 12  1  0  0  0  0
 11 30  1  0  0  0  0
 11 31  1  0  0  0  0
 12 16  1  0  0  0  0
 12 13  1  0  0  0  0
 13 14  2  0  0  0  0
 13 32  1  0  0  0  0
 14 15  1  0  0  0  0
 14 33  1  0  0  0  0
 15 16  2  0  0  0  0
 15 42  1  0  0  0  0
 16 34  1  0  0  0  0
 17 18  1  0  0  0  0
 17 19  1  0  0  0  0
 17 35  1  0  0  0  0
 18 36  1  0  0  0  0
 18 37  1  0  0  0  0
 18 38  1  0  0  0  0
 19 39  1  0  0  0  0
 19 40  1  0  0  0  0
 19 41  1  0  0  0  0
M  CHG  1  15   1
M  END
> <s_m_source_file>
AV-unprocessed.smi

> <i_m_source_file_index>
1648

> <i_lp_mmshare_version>
43012

> <i_f3d_flags>
0

> <s_epik_input>
W0NIM11DKD1PKVtOSF1bQ0BASF0oW0NIXShbQ0gzXSlbQ0gzXSlDKD1PKVtOSF1bQ0BIXShbQ0gzXSlbQ0gyXW4xW2NIXVtjSF1uW2NIXTE=

> <s_epik_cmdline>
J2VwaWtfcHl0aG9uJywgJy1waCcsICc3LjAnLCAnLXRuJywgJzgnLCAnLW1hJywgJzIwMCcsICctbWV0YWxfYmluZGluZycsICctaW1hZScsICc8aW5maWxlLm1hZT4nLCAnLW9tYWUnLCAnPG91dGZpbGUubWFlPic=

> <r_lp_tautomer_probability>
1

> <r_epik_Ionization_Penalty>
0.251562

> <r_epik_Ionization_Penalty_Charging>
0

> <r_epik_Ionization_Penalty_Neutral>
0.251562

> <r_epik_State_Penalty>
0.242926

> <r_epik_Charging_Adjusted_Penalty>
0.242926

> <i_epik_Tot_Q>
1

> <i_epik_Tot_abs_Q>
1

> <r_epik_Metal_State_Penalty>
0.53388

> <b_epik_Metal_Only>
0

> <s_lp_Force_Field>
OPLS_2005

> <r_lp_Energy>
9.98337

> <b_lp_Chiralities_Consistent>
1

> <s_lp_Variant>
AV-unprocessed.smi:1648-1

> <Gold.Version>
5.8.1

> <Gold.Id.Protein>
6NUR|6NUR_protein|mol2

> <Gold.PLP.Fitness>
38.1251

> <Gold.PLP.PLP>
-24.7246

> <Gold.PLP.part.hbond>
-3.0000

> <Gold.PLP.part.metal>
0.0000

> <Gold.PLP.part.buried>
-5.9580

> <Gold.PLP.part.nonpolar>
-16.7429

> <Gold.PLP.part.repulsive>
0.0998

> <Gold.PLP.ligand.clash>
0.0000

> <Gold.PLP.ligand.torsion>
0.8268

> <Gold.PLP.Chemscore.Hbond>
3.0000

> <Gold.PLP.Chemscore.CHOScore>
1.9978

> <Gold.PLP.Chemscore.Metal>
0.0000

> <Gold.Chemscore.Hbonds>
donor molecule, donor type, donor heavy atom, donor atom, acceptor molecule, acceptor atom, score
      L1  H     4    23       P1 10175  1.00
      L1  H     8    25       P1 10175  1.00
      L1  H    15    42       P1  7921  1.00
      L1  C    13    32       P1 10957  0.74
      L1  C    16    34       P1 10171  1.00

> <Gold.PLP.Chemscore.Internal.Correction>
0.0607

> <Gold.Rescore>
     Score         DG    S(hbond)    S(metal)    S(lipo)     H(rot)  DE(clash)    DE(int)     intcor
     10.68     -13.06       2.97        0.00      37.20       2.61       0.04       2.35       ----

> <Gold.Chemscore.Fitness>
10.6777

> <Gold.Chemscore.DG>
-13.0648

> <Gold.Chemscore.ZeroCoef>
-5.4800

> <Gold.Chemscore.Hbond>
2.9711

> <Gold.Chemscore.Metal>
0.0000

> <Gold.Chemscore.Lipo>
37.1960

> <Gold.Chemscore.Internal_Hbond>
0.0000

> <Gold.Chemscore.DEClash>
0.0354

> <Gold.Chemscore.DEInternal>
2.3516

> <Gold.Chemscore.Rot>
2.6135

> <Gold.Chemscore.Internal.Correction>
   9.000000E+99

> <Gold.Chemscore.Hbonds>
donor molecule, donor type, donor heavy atom, donor atom, acceptor molecule, acceptor atom, score
      L1  H     4    23       P1 10175  0.99
      L1  H     8    25       P1 10175  1.00
      L1  H    15    42       P1  7921  0.95

> <Gold.Chemscore.Hbond.Weighted>
-9.9235

> <Gold.Chemscore.Metal.Weighted>
-0.0000

> <Gold.Chemscore.Lipo.Weighted>
-4.3519

> <Gold.Chemscore.Internal_Hbond.Weighted>
0.0000

> <Gold.Chemscore.DEClash.Weighted>
0.0354

> <Gold.Chemscore.DEInternal.Weighted>
2.3516

> <Gold.Chemscore.Rot.Weighted>
6.6906

> <Gold.Chemscore.Internal.Correction.Weighted>
   9.000000E+99

> <Gold.Protein.RotatedTorsions>
[ 6907 6896 6895 6894 ] final  -95.63 input  -60.11 | X-H torsion
[ 7974 7965 7964 7962 ] final  157.91 input  175.53 | X-H torsion
[ 8008 7997 7996 7995 ] final  167.69 input   59.86 | X-H torsion
[ 10167 10162 10161 10158 ] final   76.26 input  -65.29 | X-H torsion
[ 10718 10713 10712 10709 ] final  162.56 input   66.30 | X-H torsion
[ 10763 10752 10751 10750 ] final   46.24 input  -60.55 | X-H torsion
[ 11005 11000 10999 10996 ] final -158.30 input  -57.11 | X-H torsion

> <Gold.Protein.ActiveResidues>
 VAL166  LYS551  ARG553  GLY616  TRP617  ASP618  TYR619  PRO620  LYS621  CYS622 
 ASP623  PHE694  ASN695  SER759  ASP760  ASP761  ALA762  ILE779  LEU786  VAL792 
 PHE793  MET794  SER795  GLU796  ALA797  LYS798  CYS799  TRP800  GLU811  SER814 

> <Gold.Protein.RotatedAtoms>
  150.6968  134.1628  159.4182 H   0  0  0  0  0  0  0  0  0  0  0  0  # atno 6907 bound_to 6896
  151.9608  135.0122  160.0557 H   0  0  0  0  0  0  0  0  0  0  0  0  # atno 6908 bound_to 6896
  152.1929  133.4750  159.5054 H   0  0  0  0  0  0  0  0  0  0  0  0  # atno 6909 bound_to 6896
  144.7876  139.7405  143.6234 H   0  0  0  0  0  0  0  0  0  0  0  0  # atno 7974 bound_to 7965
  156.1612  140.1610  156.8609 H   0  0  0  0  0  0  0  0  0  0  0  0  # atno 8008 bound_to 7997
  154.5162  140.0789  156.8121 H   0  0  0  0  0  0  0  0  0  0  0  0  # atno 8009 bound_to 7997
  155.3704  140.3400  155.4245 H   0  0  0  0  0  0  0  0  0  0  0  0  # atno 8010 bound_to 7997
  139.9941  144.5735  150.7793 H   0  0  0  0  0  0  0  0  0  0  0  0  # atno 10167 bound_to 10162
  157.1208  131.0492  151.2416 H   0  0  0  0  0  0  0  0  0  0  0  0  # atno 10718 bound_to 10713
  152.9813  135.6014  154.3567 H   0  0  0  0  0  0  0  0  0  0  0  0  # atno 10763 bound_to 10752
  154.3252  135.2769  155.2501 H   0  0  0  0  0  0  0  0  0  0  0  0  # atno 10764 bound_to 10752
  154.4650  135.5956  153.6337 H   0  0  0  0  0  0  0  0  0  0  0  0  # atno 10765 bound_to 10752
  140.6551  134.4409  157.5235 H   0  0  0  0  0  0  0  0  0  0  0  0  # atno 11005 bound_to 11000
  146.2115  139.5474  142.9678 LP  0  0  0  0  0  0  0  0  0  0  0  0  # atno 17320 bound_to 7965
  145.5880  141.0373  143.2086 LP  0  0  0  0  0  0  0  0  0  0  0  0  # atno 17321 bound_to 7965
  140.7444  143.2859  151.3464 LP  0  0  0  0  0  0  0  0  0  0  0  0  # atno 17342 bound_to 10162
  139.6319  144.0705  152.2483 LP  0  0  0  0  0  0  0  0  0  0  0  0  # atno 17343 bound_to 10162
  157.4478  130.7581  149.7125 LP  0  0  0  0  0  0  0  0  0  0  0  0  # atno 17370 bound_to 10713
  155.9829  130.4005  150.3392 LP  0  0  0  0  0  0  0  0  0  0  0  0  # atno 17371 bound_to 10713
  139.9032  134.8508  156.1810 LP  0  0  0  0  0  0  0  0  0  0  0  0  # atno 17394 bound_to 11000
  141.0507  133.6890  156.1767 LP  0  0  0  0  0  0  0  0  0  0  0  0  # atno 17395 bound_to 11000

$$$$
