AV-unprocessed.smi:190|AV-procd|sdf|1491|dock9
  -GOLD-   2262019313D 1   1.00000     0.00000
 Structure written by MMmdl.
 54 58  0  0  0  0  0  0  0  0  1 V2000
  150.0011  140.8383  154.7538 O   0  0  0  0  0  0  0  0  0  0  0  0
  150.7124  141.3051  155.8832 C   0  0  0  0  0  0  0  0  0  0  0  0
  150.3454  140.5271  157.1791 C   0  0  0  0  0  0  0  0  0  0  0  0
  150.2803  139.0118  156.8131 C   0  0  0  0  0  0  0  0  0  0  0  0
  149.6875  138.1429  157.8202 N   0  0  0  0  0  0  0  0  0  0  0  0
  150.3344  137.1947  158.5777 C   0  0  0  0  0  0  0  0  0  0  0  0
  149.5744  136.5348  159.4070 N   0  0  0  0  0  0  0  0  0  0  0  0
  148.2987  137.0523  159.2023 C   0  0  0  0  0  0  0  0  0  0  0  0
  147.0076  136.7912  159.7578 C   0  0  0  0  0  0  0  0  0  0  0  0
  146.7662  135.8655  160.7334 N   0  0  0  0  0  0  0  0  0  0  0  0
  147.8790  135.3230  161.5065 C   0  0  0  0  0  0  0  0  0  0  0  0
  147.2644  134.6195  162.7203 C   0  0  0  0  0  0  0  0  0  0  0  0
  145.7850  134.4921  162.3615 C   0  0  0  0  0  0  0  0  0  0  0  0
  145.5163  135.7348  161.4969 C   0  0  1  0  0  0  0  0  0  0  0  0
  145.2071  136.9535  162.3806 C   0  0  0  0  0  0  0  0  0  0  0  0
  143.6883  137.0523  162.3067 C   0  0  0  0  0  0  0  0  0  0  0  0
  143.4133  136.6821  160.9668 O   0  0  0  0  0  0  0  0  0  0  0  0
  144.2339  135.5651  160.6493 C   0  0  0  0  0  0  0  0  0  0  0  0
  145.9732  137.5165  159.2552 N   0  0  0  0  0  0  0  0  0  0  0  0
  146.1683  138.4290  158.3010 C   0  0  0  0  0  0  0  0  0  0  0  0
  147.3073  138.7774  157.7045 N   0  0  0  0  0  0  0  0  0  0  0  0
  148.3565  138.0564  158.1914 C   0  0  0  0  0  0  0  0  0  0  0  0
  151.3783  140.7895  158.3060 C   0  0  0  0  0  0  0  0  0  0  0  0
  151.3340  142.2386  158.8245 C   0  0  0  0  0  0  0  0  0  0  0  0
  150.0256  142.5464  159.2896 O   0  0  0  0  0  0  0  0  0  0  0  0
  149.0373  142.4622  158.2702 C   0  0  0  0  0  0  0  0  0  0  0  0
  148.9769  141.0275  157.7126 C   0  0  0  0  0  0  0  0  0  0  0  0
  149.2911  140.2897  155.0512 H   0  0  0  0  0  0  0  0  0  0  0  0
  151.7732  141.2393  155.6489 H   0  0  0  0  0  0  0  0  0  0  0  0
  150.4954  142.3668  156.0060 H   0  0  0  0  0  0  0  0  0  0  0  0
  149.7148  138.8789  155.8899 H   0  0  0  0  0  0  0  0  0  0  0  0
  151.2804  138.6306  156.6035 H   0  0  0  0  0  0  0  0  0  0  0  0
  151.3959  137.0094  158.4985 H   0  0  0  0  0  0  0  0  0  0  0  0
  148.4169  134.5974  160.8957 H   0  0  0  0  0  0  0  0  0  0  0  0
  148.5777  136.1027  161.8123 H   0  0  0  0  0  0  0  0  0  0  0  0
  147.7308  133.6567  162.9298 H   0  0  0  0  0  0  0  0  0  0  0  0
  147.3803  135.2451  163.6061 H   0  0  0  0  0  0  0  0  0  0  0  0
  145.6411  133.5850  161.7715 H   0  0  0  0  0  0  0  0  0  0  0  0
  145.1387  134.4214  163.2371 H   0  0  0  0  0  0  0  0  0  0  0  0
  145.5642  136.8593  163.4065 H   0  0  0  0  0  0  0  0  0  0  0  0
  145.6428  137.8673  161.9781 H   0  0  0  0  0  0  0  0  0  0  0  0
  143.2147  136.3451  162.9893 H   0  0  0  0  0  0  0  0  0  0  0  0
  143.3196  138.0529  162.5325 H   0  0  0  0  0  0  0  0  0  0  0  0
  144.4178  135.5045  159.5766 H   0  0  0  0  0  0  0  0  0  0  0  0
  143.6933  134.6602  160.9306 H   0  0  0  0  0  0  0  0  0  0  0  0
  145.2846  138.9540  157.9693 H   0  0  0  0  0  0  0  0  0  0  0  0
  151.1765  140.1381  159.1552 H   0  0  0  0  0  0  0  0  0  0  0  0
  152.3869  140.5426  157.9735 H   0  0  0  0  0  0  0  0  0  0  0  0
  152.0314  142.3547  159.6541 H   0  0  0  0  0  0  0  0  0  0  0  0
  151.6422  142.9515  158.0593 H   0  0  0  0  0  0  0  0  0  0  0  0
  148.0731  142.7294  158.7033 H   0  0  0  0  0  0  0  0  0  0  0  0
  149.2353  143.1956  157.4886 H   0  0  0  0  0  0  0  0  0  0  0  0
  148.2164  140.9598  156.9338 H   0  0  0  0  0  0  0  0  0  0  0  0
  148.6340  140.3908  158.5273 H   0  0  0  0  0  0  0  0  0  0  0  0
  1  2  1  0  0  0  0
  1 28  1  0  0  0  0
  2  3  1  0  0  0  0
  2 29  1  0  0  0  0
  2 30  1  0  0  0  0
  3 27  1  0  0  0  0
  3  4  1  0  0  0  0
  3 23  1  0  0  0  0
  4  5  1  0  0  0  0
  4 31  1  0  0  0  0
  4 32  1  0  0  0  0
  5 22  1  0  0  0  0
  5  6  1  0  0  0  0
  6  7  2  0  0  0  0
  6 33  1  0  0  0  0
  7  8  1  0  0  0  0
  8 22  2  0  0  0  0
  8  9  1  0  0  0  0
  9 10  1  0  0  0  0
  9 19  2  0  0  0  0
 10 14  1  0  0  0  0
 10 11  1  0  0  0  0
 11 12  1  0  0  0  0
 11 34  1  0  0  0  0
 11 35  1  0  0  0  0
 12 13  1  0  0  0  0
 12 36  1  0  0  0  0
 12 37  1  0  0  0  0
 13 14  1  0  0  0  0
 13 38  1  0  0  0  0
 13 39  1  0  0  0  0
 14 18  1  0  0  0  0
 14 15  1  0  0  0  0
 15 16  1  0  0  0  0
 15 40  1  0  0  0  0
 15 41  1  0  0  0  0
 16 17  1  0  0  0  0
 16 42  1  0  0  0  0
 16 43  1  0  0  0  0
 17 18  1  0  0  0  0
 18 44  1  0  0  0  0
 18 45  1  0  0  0  0
 19 20  1  0  0  0  0
 20 21  2  0  0  0  0
 20 46  1  0  0  0  0
 21 22  1  0  0  0  0
 23 24  1  0  0  0  0
 23 47  1  0  0  0  0
 23 48  1  0  0  0  0
 24 25  1  0  0  0  0
 24 49  1  0  0  0  0
 24 50  1  0  0  0  0
 25 26  1  0  0  0  0
 26 27  1  0  0  0  0
 26 51  1  0  0  0  0
 26 52  1  0  0  0  0
 27 53  1  0  0  0  0
 27 54  1  0  0  0  0
M  END
> <s_m_source_file>
AV-unprocessed.smi

> <i_m_source_file_index>
190

> <i_lp_mmshare_version>
43012

> <i_f3d_flags>
0

> <s_epik_input>
W0NIMl0xW0NIMl1PW0NIMl1bQ0gyXUMxKFtDSDJdW09IXSlbQ0gyXW4oW2NIXW4yKWMoYzIzKW5bY0hdbmMzTihbQ0gyXVtDSDJdW0NIMl00KVtDQF00NVtDSDJdW0NIMl1PW0NIMl01

> <s_epik_cmdline>
J2VwaWtfcHl0aG9uJywgJy1waCcsICc3LjAnLCAnLXRuJywgJzgnLCAnLW1hJywgJzIwMCcsICctbWV0YWxfYmluZGluZycsICctaW1hZScsICc8aW5maWxlLm1hZT4nLCAnLW9tYWUnLCAnPG91dGZpbGUubWFlPic=

> <r_lp_tautomer_probability>
1

> <r_epik_Ionization_Penalty>
0.00423054

> <r_epik_Ionization_Penalty_Charging>
0

> <r_epik_Ionization_Penalty_Neutral>
0.00423054

> <r_epik_State_Penalty>
0.00298851

> <r_epik_Charging_Adjusted_Penalty>
0.00298851

> <i_epik_Tot_Q>
0

> <i_epik_Tot_abs_Q>
0

> <r_epik_Metal_State_Penalty>
-0

> <b_epik_Metal_Only>
0

> <s_lp_Force_Field>
OPLS_2005

> <r_lp_Energy>
66.7697

> <b_lp_Chiralities_Consistent>
1

> <s_lp_Variant>
AV-unprocessed.smi:190-1

> <Gold.Version>
5.8.1

> <Gold.Id.Protein>
6NUR|6NUR_protein|mol2

> <Gold.PLP.Fitness>
41.0952

> <Gold.PLP.PLP>
-36.2656

> <Gold.PLP.part.hbond>
-3.0000

> <Gold.PLP.part.metal>
0.0000

> <Gold.PLP.part.buried>
-6.3842

> <Gold.PLP.part.nonpolar>
-25.6952

> <Gold.PLP.part.repulsive>
0.0645

> <Gold.PLP.ligand.clash>
0.0000

> <Gold.PLP.ligand.torsion>
0.4710

> <Gold.PLP.Chemscore.Hbond>
1.8640

> <Gold.PLP.Chemscore.CHOScore>
0.0000

> <Gold.PLP.Chemscore.Metal>
0.0000

> <Gold.Chemscore.Hbonds>
donor molecule, donor type, donor heavy atom, donor atom, acceptor molecule, acceptor atom, score
      P1  H  6896  6908       L1     7  0.73
      P1  H  7989  7998       L1     1  0.53

> <Gold.PLP.Chemscore.Internal.Correction>
0.1796

> <Gold.Rescore>
     Score         DG    S(hbond)    S(metal)    S(lipo)     H(rot)  DE(clash)    DE(int)     intcor
      9.10     -13.26       1.17        0.00      78.87       2.10       0.14       4.02       ----

> <Gold.Chemscore.Fitness>
9.1040

> <Gold.Chemscore.DG>
-13.2591

> <Gold.Chemscore.ZeroCoef>
-5.4800

> <Gold.Chemscore.Hbond>
1.1742

> <Gold.Chemscore.Metal>
0.0000

> <Gold.Chemscore.Lipo>
78.8678

> <Gold.Chemscore.Internal_Hbond>
0.0000

> <Gold.Chemscore.DEClash>
0.1378

> <Gold.Chemscore.DEInternal>
4.0173

> <Gold.Chemscore.Rot>
2.0978

> <Gold.Chemscore.Internal.Correction>
   9.000000E+99

> <Gold.Chemscore.Hbonds>
donor molecule, donor type, donor heavy atom, donor atom, acceptor molecule, acceptor atom, score
      P1  H  6896  6908       L1     7  0.14
      P1  H  7989  7998       L1     1  0.06

> <Gold.Chemscore.Hbond.Weighted>
-3.9219

> <Gold.Chemscore.Metal.Weighted>
-0.0000

> <Gold.Chemscore.Lipo.Weighted>
-9.2275

> <Gold.Chemscore.Internal_Hbond.Weighted>
0.0000

> <Gold.Chemscore.DEClash.Weighted>
0.1378

> <Gold.Chemscore.DEInternal.Weighted>
4.0173

> <Gold.Chemscore.Rot.Weighted>
5.3703

> <Gold.Chemscore.Internal.Correction.Weighted>
   9.000000E+99

> <Gold.Protein.RotatedTorsions>
[ 6907 6896 6895 6894 ] final -169.01 input  -60.11 | X-H torsion
[ 7974 7965 7964 7962 ] final  -90.66 input  175.53 | X-H torsion
[ 8008 7997 7996 7995 ] final  170.84 input   59.86 | X-H torsion
[ 10167 10162 10161 10158 ] final -153.06 input  -65.29 | X-H torsion
[ 10718 10713 10712 10709 ] final  -33.80 input   66.30 | X-H torsion
[ 10763 10752 10751 10750 ] final -105.92 input  -60.55 | X-H torsion
[ 11005 11000 10999 10996 ] final   70.01 input  -57.11 | X-H torsion

> <Gold.Protein.ActiveResidues>
 VAL166  LYS551  ARG553  GLY616  TRP617  ASP618  TYR619  PRO620  LYS621  CYS622 
 ASP623  PHE694  ASN695  SER759  ASP760  ASP761  ALA762  ILE779  LEU786  VAL792 
 PHE793  MET794  SER795  GLU796  ALA797  LYS798  CYS799  TRP800  GLU811  SER814 

> <Gold.Protein.RotatedAtoms>
  151.4848  133.3538  159.2843 H   0  0  0  0  0  0  0  0  0  0  0  0  # atno 6907 bound_to 6896
  150.8873  134.8275  159.7279 H   0  0  0  0  0  0  0  0  0  0  0  0  # atno 6908 bound_to 6896
  152.4801  134.4753  159.9700 H   0  0  0  0  0  0  0  0  0  0  0  0  # atno 6909 bound_to 6896
  145.4235  140.9552  143.2168 H   0  0  0  0  0  0  0  0  0  0  0  0  # atno 7974 bound_to 7965
  156.1327  140.1527  156.9040 H   0  0  0  0  0  0  0  0  0  0  0  0  # atno 8008 bound_to 7997
  154.4922  140.0848  156.7659 H   0  0  0  0  0  0  0  0  0  0  0  0  # atno 8009 bound_to 7997
  155.4225  140.3423  155.4275 H   0  0  0  0  0  0  0  0  0  0  0  0  # atno 8010 bound_to 7997
  139.7129  143.9080  152.2475 H   0  0  0  0  0  0  0  0  0  0  0  0  # atno 10167 bound_to 10162
  156.3583  130.4319  149.7645 H   0  0  0  0  0  0  0  0  0  0  0  0  # atno 10718 bound_to 10713
  154.7978  135.4731  154.0203 H   0  0  0  0  0  0  0  0  0  0  0  0  # atno 10763 bound_to 10752
  153.1732  135.6828  153.8586 H   0  0  0  0  0  0  0  0  0  0  0  0  # atno 10764 bound_to 10752
  153.8161  135.3210  155.3383 H   0  0  0  0  0  0  0  0  0  0  0  0  # atno 10765 bound_to 10752
  139.9621  134.7043  156.0623 H   0  0  0  0  0  0  0  0  0  0  0  0  # atno 11005 bound_to 11000
  144.8229  139.5759  143.6978 LP  0  0  0  0  0  0  0  0  0  0  0  0  # atno 17320 bound_to 7965
  146.2644  139.6485  142.9339 LP  0  0  0  0  0  0  0  0  0  0  0  0  # atno 17321 bound_to 7965
  139.8954  144.6942  150.8724 LP  0  0  0  0  0  0  0  0  0  0  0  0  # atno 17342 bound_to 10162
  140.7737  143.3554  151.1931 LP  0  0  0  0  0  0  0  0  0  0  0  0  # atno 17343 bound_to 10162
  156.4819  130.8045  151.3059 LP  0  0  0  0  0  0  0  0  0  0  0  0  # atno 17370 bound_to 10713
  157.7470  131.0003  150.2921 LP  0  0  0  0  0  0  0  0  0  0  0  0  # atno 17371 bound_to 10713
  141.1299  133.6589  156.3436 LP  0  0  0  0  0  0  0  0  0  0  0  0  # atno 17394 bound_to 11000
  140.5477  134.6058  157.5398 LP  0  0  0  0  0  0  0  0  0  0  0  0  # atno 17395 bound_to 11000

$$$$
