AV-unprocessed.smi:72|AV-procd|sdf|758|dock1
  -GOLD-   2262017 93D 1   1.00000     0.00000
 Structure written by MMmdl.
 29 30  0  0  0  0  0  0  0  0  1 V2000
  143.7541  137.9354  153.8624 N   0  0  0  0  0  0  0  0  0  0  0  0
  143.9260  136.6506  153.3907 C   0  0  0  0  0  0  0  0  0  0  0  0
  143.8718  135.6239  154.3436 N   0  0  0  0  0  0  0  0  0  0  0  0
  144.0420  134.4169  153.9050 C   0  0  0  0  0  0  0  0  0  0  0  0
  144.2823  134.1521  152.4983 N   0  0  0  0  0  0  0  0  0  0  0  0
  144.4663  132.7392  151.9916 C   0  0  1  0  0  0  0  0  0  0  0  0
  143.5011  132.4797  151.0149 O   0  0  0  0  0  0  0  0  0  0  0  0
  144.1016  131.7988  149.9183 C   0  0  1  0  0  0  0  0  0  0  0  0
  143.2784  132.0328  148.6420 C   0  0  0  0  0  0  0  0  0  0  0  0
  141.9644  131.5474  148.8164 O   0  0  0  0  0  0  0  0  0  0  0  0
  145.4964  132.4250  149.8734 C   0  0  2  0  0  0  0  0  0  0  0  0
  146.4291  131.6509  149.1427 O   0  0  0  0  0  0  0  0  0  0  0  0
  145.8528  132.5653  151.3507 C   0  0  2  0  0  0  0  0  0  0  0  0
  146.5041  131.4171  151.8620 O   0  0  0  0  0  0  0  0  0  0  0  0
  144.3000  135.2392  151.5817 C   0  0  0  0  0  0  0  0  0  0  0  0
  144.4615  135.0374  150.3783 O   0  0  0  0  0  0  0  0  0  0  0  0
  144.1188  136.5238  152.1090 N   0  0  0  0  0  0  0  0  0  0  0  0
  144.2861  132.0706  152.8344 H   0  0  0  0  0  0  0  0  0  0  0  0
  144.1830  130.7350  150.1513 H   0  0  0  0  0  0  0  0  0  0  0  0
  145.4354  133.4179  149.4256 H   0  0  0  0  0  0  0  0  0  0  0  0
  146.4864  133.4344  151.5340 H   0  0  0  0  0  0  0  0  0  0  0  0
  143.7720  138.7520  153.2690 H   0  0  0  0  0  0  0  0  0  0  0  0
  143.5951  138.1549  154.8351 H   0  0  0  0  0  0  0  0  0  0  0  0
  144.0134  133.5368  154.5488 H   0  0  0  0  0  0  0  0  0  0  0  0
  143.2622  133.0880  148.3674 H   0  0  0  0  0  0  0  0  0  0  0  0
  143.7180  131.4874  147.8065 H   0  0  0  0  0  0  0  0  0  0  0  0
  141.5121  131.5989  147.9883 H   0  0  0  0  0  0  0  0  0  0  0  0
  147.2494  131.6497  149.6116 H   0  0  0  0  0  0  0  0  0  0  0  0
  147.2029  131.1821  151.2707 H   0  0  0  0  0  0  0  0  0  0  0  0
  1  2  1  0  0  0  0
  1 22  1  0  0  0  0
  1 23  1  0  0  0  0
  2 17  2  0  0  0  0
  2  3  1  0  0  0  0
  3  4  2  0  0  0  0
  4  5  1  0  0  0  0
  4 24  1  0  0  0  0
  5  6  1  0  0  0  0
  5 15  1  0  0  0  0
  6 18  1  0  0  0  0
  6 13  1  0  0  0  0
  6  7  1  0  0  0  0
  7  8  1  0  0  0  0
  8 19  1  0  0  0  0
  8  9  1  0  0  0  0
  8 11  1  0  0  0  0
  9 10  1  0  0  0  0
  9 25  1  0  0  0  0
  9 26  1  0  0  0  0
 10 27  1  0  0  0  0
 11 20  1  0  0  0  0
 11 12  1  0  0  0  0
 11 13  1  0  0  0  0
 12 28  1  0  0  0  0
 13 21  1  0  0  0  0
 13 14  1  0  0  0  0
 14 29  1  0  0  0  0
 15 16  2  0  0  0  0
 15 17  1  0  0  0  0
M  END
> <s_m_source_file>
AV-unprocessed.smi

> <i_m_source_file_index>
72

> <i_lp_mmshare_version>
43012

> <i_f3d_flags>
0

> <s_epik_input>
W05IMl1jMW5bY0hdbihjKD1PKW4xKVtDQEBIXTJPW0NASF0oW0NIMl1bT0hdKVtDQEBIXShbT0hdKVtDQEhdMltPSF0=

> <s_epik_cmdline>
J2VwaWtfcHl0aG9uJywgJy1waCcsICc3LjAnLCAnLXRuJywgJzgnLCAnLW1hJywgJzIwMCcsICctbWV0YWxfYmluZGluZycsICctaW1hZScsICc8aW5maWxlLm1hZT4nLCAnLW9tYWUnLCAnPG91dGZpbGUubWFlPic=

> <r_lp_tautomer_probability>
4.77166e-05

> <r_epik_Ionization_Penalty>
1.3546

> <r_epik_Ionization_Penalty_Charging>
1.46833e-10

> <r_epik_Ionization_Penalty_Neutral>
1.3546

> <r_epik_State_Penalty>
3.51908

> <r_epik_Charging_Adjusted_Penalty>
3.51908

> <i_epik_Tot_Q>
0

> <i_epik_Tot_abs_Q>
0

> <r_epik_Metal_State_Penalty>
3.44088

> <b_epik_Metal_Only>
1

> <s_epik_Chemistry_Notes>
This compound contains an acetal/aminal-like group ( X-CH(R)-Y where X, Y are N, S, or O) that may be acid/base labile, releasing an aldehyde.

> <s_lp_Force_Field>
OPLS_2005

> <r_lp_Energy>
31.7119

> <b_lp_Chiralities_Consistent>
1

> <s_lp_Variant>
AV-unprocessed.smi:72-96

> <Gold.Version>
5.8.1

> <Gold.Id.Protein>
6NUR|6NUR_protein|mol2

> <Gold.PLP.Fitness>
42.1276

> <Gold.PLP.PLP>
-26.8192

> <Gold.PLP.part.hbond>
-6.9778

> <Gold.PLP.part.metal>
0.0000

> <Gold.PLP.part.buried>
-3.8846

> <Gold.PLP.part.nonpolar>
-17.8909

> <Gold.PLP.part.repulsive>
2.6050

> <Gold.PLP.ligand.clash>
0.0000

> <Gold.PLP.ligand.torsion>
0.0248

> <Gold.PLP.Chemscore.Hbond>
4.1139

> <Gold.PLP.Chemscore.CHOScore>
1.0000

> <Gold.PLP.Chemscore.Metal>
0.0000

> <Gold.Chemscore.Hbonds>
donor molecule, donor type, donor heavy atom, donor atom, acceptor molecule, acceptor atom, score
      L1  H     1    22       P1 10175  1.00
      L1  H    12    28       P1 10747  1.00
      L1  H    14    29       P1 10747  0.93
      L1  C     4    24       P1 10957  1.00

> <Gold.PLP.Chemscore.Internal.Correction>
0.0163

> <Gold.Rescore>
     Score         DG    S(hbond)    S(metal)    S(lipo)     H(rot)  DE(clash)    DE(int)     intcor
     10.40     -13.15       3.80        0.00      45.96       4.06       0.33       2.42       ----

> <Gold.Chemscore.Fitness>
10.4006

> <Gold.Chemscore.DG>
-13.1499

> <Gold.Chemscore.ZeroCoef>
-5.4800

> <Gold.Chemscore.Hbond>
3.7981

> <Gold.Chemscore.Metal>
0.0000

> <Gold.Chemscore.Lipo>
45.9633

> <Gold.Chemscore.Internal_Hbond>
0.0000

> <Gold.Chemscore.DEClash>
0.3281

> <Gold.Chemscore.DEInternal>
2.4212

> <Gold.Chemscore.Rot>
4.0600

> <Gold.Chemscore.Internal.Correction>
   9.000000E+99

> <Gold.Chemscore.Hbonds>
donor molecule, donor type, donor heavy atom, donor atom, acceptor molecule, acceptor atom, score
      L1  H     1    22       P1 10175  1.00
      L1  H    12    28       P1 10747  0.95
      L1  H    14    29       P1 10747  0.89

> <Gold.Chemscore.Hbond.Weighted>
-12.6858

> <Gold.Chemscore.Metal.Weighted>
-0.0000

> <Gold.Chemscore.Lipo.Weighted>
-5.3777

> <Gold.Chemscore.Internal_Hbond.Weighted>
0.0000

> <Gold.Chemscore.DEClash.Weighted>
0.3281

> <Gold.Chemscore.DEInternal.Weighted>
2.4212

> <Gold.Chemscore.Rot.Weighted>
10.3936

> <Gold.Chemscore.Internal.Correction.Weighted>
   9.000000E+99

> <Gold.Protein.RotatedTorsions>
[ 6907 6896 6895 6894 ] final   39.46 input  -60.11 | X-H torsion
[ 7974 7965 7964 7962 ] final -140.64 input  175.53 | X-H torsion
[ 8008 7997 7996 7995 ] final -155.24 input   59.86 | X-H torsion
[ 10167 10162 10161 10158 ] final   56.33 input  -65.29 | X-H torsion
[ 10718 10713 10712 10709 ] final  139.53 input   66.30 | X-H torsion
[ 10763 10752 10751 10750 ] final   81.05 input  -60.55 | X-H torsion
[ 11005 11000 10999 10996 ] final  -17.85 input  -57.11 | X-H torsion

> <Gold.Protein.ActiveResidues>
 VAL166  LYS551  ARG553  GLY616  TRP617  ASP618  TYR619  PRO620  LYS621  CYS622 
 ASP623  PHE694  ASN695  SER759  ASP760  ASP761  ALA762  ILE779  LEU786  VAL792 
 PHE793  MET794  SER795  GLU796  ALA797  LYS798  CYS799  TRP800  GLU811  SER814 

> <Gold.Protein.RotatedAtoms>
  152.1698  134.8843  160.0535 H   0  0  0  0  0  0  0  0  0  0  0  0  # atno 6907 bound_to 6896
  151.9807  133.3752  159.4115 H   0  0  0  0  0  0  0  0  0  0  0  0  # atno 6908 bound_to 6896
  150.6900  134.3964  159.5143 H   0  0  0  0  0  0  0  0  0  0  0  0  # atno 6909 bound_to 6896
  144.8581  140.6176  143.5346 H   0  0  0  0  0  0  0  0  0  0  0  0  # atno 7974 bound_to 7965
  155.6988  140.0764  157.2419 H   0  0  0  0  0  0  0  0  0  0  0  0  # atno 8008 bound_to 7997
  154.4076  140.1651  156.2220 H   0  0  0  0  0  0  0  0  0  0  0  0  # atno 8009 bound_to 7997
  155.9386  140.3386  155.6312 H   0  0  0  0  0  0  0  0  0  0  0  0  # atno 8010 bound_to 7997
  140.2099  144.3900  150.6493 H   0  0  0  0  0  0  0  0  0  0  0  0  # atno 10167 bound_to 10162
  157.4133  131.1030  151.0431 H   0  0  0  0  0  0  0  0  0  0  0  0  # atno 10718 bound_to 10713
  153.1084  135.4780  154.8992 H   0  0  0  0  0  0  0  0  0  0  0  0  # atno 10763 bound_to 10752
  154.7455  135.3092  154.8655 H   0  0  0  0  0  0  0  0  0  0  0  0  # atno 10764 bound_to 10752
  153.9251  135.6850  153.4800 H   0  0  0  0  0  0  0  0  0  0  0  0  # atno 10765 bound_to 10752
  140.8210  133.8068  155.9659 H   0  0  0  0  0  0  0  0  0  0  0  0  # atno 11005 bound_to 11000
  145.4366  139.1541  143.3993 LP  0  0  0  0  0  0  0  0  0  0  0  0  # atno 17320 bound_to 7965
  146.2839  140.4485  142.8765 LP  0  0  0  0  0  0  0  0  0  0  0  0  # atno 17321 bound_to 7965
  140.6331  143.2190  151.6453 LP  0  0  0  0  0  0  0  0  0  0  0  0  # atno 17342 bound_to 10162
  139.5184  144.3285  152.0847 LP  0  0  0  0  0  0  0  0  0  0  0  0  # atno 17343 bound_to 10162
  157.1387  130.6134  149.5549 LP  0  0  0  0  0  0  0  0  0  0  0  0  # atno 17370 bound_to 10713
  155.9857  130.4889  150.7045 LP  0  0  0  0  0  0  0  0  0  0  0  0  # atno 17371 bound_to 10713
  140.9099  134.2273  157.4992 LP  0  0  0  0  0  0  0  0  0  0  0  0  # atno 17394 bound_to 11000
  139.8708  134.9745  156.4849 LP  0  0  0  0  0  0  0  0  0  0  0  0  # atno 17395 bound_to 11000

$$$$
