#       Name:                AV-unprocessed.smi:694
#       Creating user name   scv26
#       Creation time:       Fri Mar 27 00:35:57 2020


#       File generated by GOLD software.
#

@<TRIPOS>MOLECULE
AV-unprocessed.smi:694
    47    48     1
SMALL
NO_CHARGES


@<TRIPOS>ATOM
      1 ****        -6.3516   0.1614  -0.8692 C.3            1 S1                 0.0000
      2 ****        -5.6487  -1.0195  -0.3803 N.pl3          1 S1                 0.0000
      3 ****        -6.3932  -2.1441   0.1712 C.3            1 S1                 0.0000
      4 ****        -4.2380  -1.0586  -0.4119 C.ar           1 S1                 0.0000
      5 ****        -3.4811  -2.1595   0.0580 C.ar           1 S1                 0.0000
      6 ****        -2.0730  -2.1221  -0.0079 C.ar           1 S1                 0.0000
      7 ****        -1.4225  -0.9874  -0.5366 C.ar           1 S1                 0.0000
      8 ****        -0.0015  -1.0082  -0.5926 N.am           1 S1                 0.0000
      9 ****         0.8488   0.0010  -0.8502 C.2            1 S1                 0.0000
     10 ****         0.5271   1.1724  -1.0457 O.2            1 S1                 0.0000
     11 ****         2.1202  -0.4239  -0.8542 N.am           1 S1                 0.0000
     12 ****         3.2834   0.4235  -1.0999 C.3            1 S1                 0.0000
     13 ****         3.6749   1.2537   0.1412 C.3            1 S1                 0.0000
     14 ****         4.8884   2.1662  -0.0677 C.3            1 S1                 0.0000
     15 ****         5.4330   2.4611   1.3384 C.3            1 S1                 0.0000
     16 ****         4.7183   1.4955   2.2979 C.3            1 S1                 0.0000
     17 ****         4.0182   0.4602   1.4119 C.3            1 S1                 0.0000
     18 ****         4.9224  -0.5944   1.1371 O.3            1 S1                 0.0000
     19 ****        -2.2235   0.0837  -1.0008 C.ar           1 S1                 0.0000
     20 ****        -3.5692   0.0055  -0.9189 N.pl3          1 S1                 1.0000
     21 ****        -6.1322   0.3272  -1.9244 H              1 S1                 0.0000
     22 ****        -6.0504   1.0469  -0.3085 H              1 S1                 0.0000
     23 ****        -7.4313   0.0526  -0.7659 H              1 S1                 0.0000
     24 ****        -6.1173  -2.3129   1.2127 H              1 S1                 0.0000
     25 ****        -6.1910  -3.0533  -0.3960 H              1 S1                 0.0000
     26 ****        -7.4677  -1.9624   0.1373 H              1 S1                 0.0000
     27 ****        -3.9579  -3.0372   0.4681 H              1 S1                 0.0000
     28 ****        -1.4984  -2.9642   0.3499 H              1 S1                 0.0000
     29 ****         0.4244  -1.9015  -0.3933 H              1 S1                 0.0000
     30 ****         2.2983  -1.4026  -0.6820 H              1 S1                 0.0000
     31 ****         4.1109  -0.2160  -1.4080 H              1 S1                 0.0000
     32 ****         3.0841   1.0854  -1.9445 H              1 S1                 0.0000
     33 ****         2.8342   1.9041   0.3897 H              1 S1                 0.0000
     34 ****         5.6508   1.6469  -0.6501 H              1 S1                 0.0000
     35 ****         4.6280   3.0760  -0.6094 H              1 S1                 0.0000
     36 ****         6.5126   2.3090   1.3643 H              1 S1                 0.0000
     37 ****         5.2430   3.4956   1.6268 H              1 S1                 0.0000
     38 ****         5.3951   1.0467   3.0264 H              1 S1                 0.0000
     39 ****         3.9651   2.0492   2.8602 H              1 S1                 0.0000
     40 ****         3.1296   0.0494   1.8922 H              1 S1                 0.0000
     41 ****         4.5083  -1.1982   0.5401 H              1 S1                 0.0000
     42 ****        -1.8551   0.9961  -1.4440 H              1 S1                 0.0000
     43 ****        -4.1145   0.7962  -1.2627 H              1 S1                 0.0000
     44 ****        -0.4369   1.4373  -1.0194 LP             1 S1                 0.0000
     45 ****         1.2295   1.8596  -1.2308 LP             1 S1                 0.0000
     46 ****         5.1564  -1.0675   1.9865 LP             1 S1                 0.0000
     47 ****         5.7536  -0.2257   0.7210 LP             1 S1                 0.0000
@<TRIPOS>BOND
    1    1    2 1     
    2    1   21 1     
    3    1   22 1     
    4    1   23 1     
    5    2    3 1     
    6    2    4 1     
    7    3   24 1     
    8    3   25 1     
    9    3   26 1     
   10    4   20 ar    
   11    4    5 ar    
   12    5    6 ar    
   13    5   27 1     
   14    6    7 ar    
   15    6   28 1     
   16    7    8 1     
   17    7   19 ar    
   18    8    9 am    
   19    8   29 1     
   20    9   10 2     
   21    9   11 am    
   22   11   12 1     
   23   11   30 1     
   24   12   13 1     
   25   12   31 1     
   26   12   32 1     
   27   13   17 1     
   28   13   14 1     
   29   13   33 1     
   30   14   15 1     
   31   14   34 1     
   32   14   35 1     
   33   15   16 1     
   34   15   36 1     
   35   15   37 1     
   36   16   17 1     
   37   16   38 1     
   38   16   39 1     
   39   17   18 1     
   40   17   40 1     
   41   18   41 1     
   42   19   20 ar    
   43   19   42 1     
   44   20   43 1     
   45   10   44 1     
   46   10   45 1     
   47   18   46 1     
   48   18   47 1     
@<TRIPOS>SUBSTRUCTURE
      1 S1             1
@<TRIPOS>SET
LONE_PAIRS      STATIC     ATOMS    <user>   **** ""
4 44 45 46 47
DONOR_HYDROGENS      STATIC     ATOMS    <user>   **** ""
4 29 30 41 43
ATOM$BLUE        STATIC     ATOMS    COLORGROUP SYSTEM
4 44 45 46 47
ATOM$RED        STATIC     ATOMS    COLORGROUP SYSTEM
4 29 30 41 43
