AV-unprocessed.smi:702|AV-procd|sdf|3422|dock5
  -GOLD-   22720 0403D 1   1.00000     0.00000
 Structure written by MMmdl.
 50 52  0  0  0  0  0  0  0  0  2 V2000
  149.9394  135.8901  156.2366 C   0  0  0  0  0  0  0  0  0  0  0  0
  148.9703  136.9324  155.6331 C   0  0  2  0  0  0  0  0  0  0  0  0
  148.4198  136.3885  154.3859 N   0  0  0  0  0  0  0  0  0  0  0  0
  147.1337  136.0831  154.1595 C   0  0  0  0  0  0  0  0  0  0  0  0
  146.2405  136.2314  154.9934 O   0  0  0  0  0  0  0  0  0  0  0  0
  146.9628  135.5797  152.9249 N   0  0  0  0  0  0  0  0  0  0  0  0
  145.7568  135.1364  152.3175 C   0  0  0  0  0  0  0  0  0  0  0  0
  144.5451  135.7077  152.7654 C   0  0  0  0  0  0  0  0  0  0  0  0
  143.3255  135.2849  152.1980 C   0  0  0  0  0  0  0  0  0  0  0  0
  143.3233  134.3310  151.2422 N   0  3  0  0  0  0  0  0  0  0  0  0
  144.4538  133.7440  150.7940 C   0  0  0  0  0  0  0  0  0  0  0  0
  145.7032  134.1267  151.3231 C   0  0  0  0  0  0  0  0  0  0  0  0
  149.6047  138.3602  155.4278 C   0  0  0  0  0  0  0  0  0  0  0  0
  148.5900  139.3517  154.9500 N   0  0  0  0  0  0  0  0  0  0  0  0
  147.4146  139.5168  155.8206 C   0  0  0  0  0  0  0  0  0  0  0  0
  146.3530  140.4339  155.1920 C   0  0  0  0  0  0  0  0  0  0  0  0
  146.9286  141.7049  154.9183 O   0  0  0  0  0  0  0  0  0  0  0  0
  148.0453  141.6153  154.0428 C   0  0  0  0  0  0  0  0  0  0  0  0
  149.1164  140.6924  154.6504 C   0  0  0  0  0  0  0  0  0  0  0  0
  150.2594  138.7985  156.7825 C   0  0  0  0  0  0  0  0  0  0  0  0
  151.7778  138.8199  156.5854 C   0  0  0  0  0  0  0  0  0  0  0  0
  151.9791  139.0205  155.0916 C   0  0  0  0  0  0  0  0  0  0  0  0
  150.8201  138.2571  154.4511 C   0  0  0  0  0  0  0  0  0  0  0  0
  150.3388  136.2078  157.1992 H   0  0  0  0  0  0  0  0  0  0  0  0
  150.7875  135.6920  155.5821 H   0  0  0  0  0  0  0  0  0  0  0  0
  149.4321  134.9397  156.4054 H   0  0  0  0  0  0  0  0  0  0  0  0
  148.1291  137.0384  156.3187 H   0  0  0  0  0  0  0  0  0  0  0  0
  149.0817  136.2300  153.6402 H   0  0  0  0  0  0  0  0  0  0  0  0
  147.8032  135.4303  152.3856 H   0  0  0  0  0  0  0  0  0  0  0  0
  144.5465  136.4700  153.5312 H   0  0  0  0  0  0  0  0  0  0  0  0
  142.3589  135.6772  152.4790 H   0  0  0  0  0  0  0  0  0  0  0  0
  144.3256  132.9865  150.0347 H   0  0  0  0  0  0  0  0  0  0  0  0
  146.5940  133.6320  150.9664 H   0  0  0  0  0  0  0  0  0  0  0  0
  146.9397  138.5663  156.0496 H   0  0  0  0  0  0  0  0  0  0  0  0
  147.7130  139.9457  156.7773 H   0  0  0  0  0  0  0  0  0  0  0  0
  145.9569  139.9968  154.2741 H   0  0  0  0  0  0  0  0  0  0  0  0
  145.5130  140.5639  155.8744 H   0  0  0  0  0  0  0  0  0  0  0  0
  147.7244  141.2418  153.0692 H   0  0  0  0  0  0  0  0  0  0  0  0
  148.4524  142.6138  153.8835 H   0  0  0  0  0  0  0  0  0  0  0  0
  149.5145  141.1564  155.5523 H   0  0  0  0  0  0  0  0  0  0  0  0
  149.9356  140.6468  153.9366 H   0  0  0  0  0  0  0  0  0  0  0  0
  149.9191  139.7767  157.1148 H   0  0  0  0  0  0  0  0  0  0  0  0
  150.0123  138.1461  157.6192 H   0  0  0  0  0  0  0  0  0  0  0  0
  152.2664  139.5919  157.1803 H   0  0  0  0  0  0  0  0  0  0  0  0
  152.1988  137.8584  156.8818 H   0  0  0  0  0  0  0  0  0  0  0  0
  151.9111  140.0812  154.8495 H   0  0  0  0  0  0  0  0  0  0  0  0
  152.9520  138.6665  154.7495 H   0  0  0  0  0  0  0  0  0  0  0  0
  151.1353  137.2232  154.3119 H   0  0  0  0  0  0  0  0  0  0  0  0
  150.6160  138.6270  153.4473 H   0  0  0  0  0  0  0  0  0  0  0  0
  142.4299  134.0382  150.8453 H   0  0  0  0  0  0  0  0  0  0  0  0
  1  2  1  0  0  0  0
  1 24  1  0  0  0  0
  1 25  1  0  0  0  0
  1 26  1  0  0  0  0
  2  3  1  0  0  0  0
  2 13  1  0  0  0  0
  2 27  1  0  0  0  0
  3  4  1  0  0  0  0
  3 28  1  0  0  0  0
  4  5  2  0  0  0  0
  4  6  1  0  0  0  0
  6  7  1  0  0  0  0
  6 29  1  0  0  0  0
  7 12  1  0  0  0  0
  7  8  2  0  0  0  0
  8  9  1  0  0  0  0
  8 30  1  0  0  0  0
  9 10  2  0  0  0  0
  9 31  1  0  0  0  0
 10 11  1  0  0  0  0
 10 50  1  0  0  0  0
 11 12  2  0  0  0  0
 11 32  1  0  0  0  0
 12 33  1  0  0  0  0
 13 23  1  0  0  0  0
 13 14  1  0  0  0  0
 13 20  1  0  0  0  0
 14 19  1  0  0  0  0
 14 15  1  0  0  0  0
 15 16  1  0  0  0  0
 15 34  1  0  0  0  0
 15 35  1  0  0  0  0
 16 17  1  0  0  0  0
 16 36  1  0  0  0  0
 16 37  1  0  0  0  0
 17 18  1  0  0  0  0
 18 19  1  0  0  0  0
 18 38  1  0  0  0  0
 18 39  1  0  0  0  0
 19 40  1  0  0  0  0
 19 41  1  0  0  0  0
 20 21  1  0  0  0  0
 20 42  1  0  0  0  0
 20 43  1  0  0  0  0
 21 22  1  0  0  0  0
 21 44  1  0  0  0  0
 21 45  1  0  0  0  0
 22 23  1  0  0  0  0
 22 46  1  0  0  0  0
 22 47  1  0  0  0  0
 23 48  1  0  0  0  0
 23 49  1  0  0  0  0
M  CHG  1  10   1
M  END
> <s_m_source_file>
AV-unprocessed.smi

> <i_m_source_file_index>
702

> <i_lp_mmshare_version>
43012

> <i_f3d_flags>
0

> <s_epik_input>
W0NIMl0xW0NIMl1PW0NIMl1bQ0gyXU4xQzIoW0NIMl1bQ0gyXVtDSDJdW0NIMl0yKVtDQEhdKFtDSDNdKVtOSF1DKD1PKVtOSF1jM1tjSF1bY0hdbltjSF1bY0hdMw==

> <s_epik_cmdline>
J2VwaWtfcHl0aG9uJywgJy1waCcsICc3LjAnLCAnLXRuJywgJzgnLCAnLW1hJywgJzIwMCcsICctbWV0YWxfYmluZGluZycsICctaW1hZScsICc8aW5maWxlLm1hZT4nLCAnLW9tYWUnLCAnPG91dGZpbGUubWFlPic=

> <r_epik_Ionization_Penalty>
1.54019

> <r_epik_Ionization_Penalty_Charging>
1.02845

> <r_epik_Ionization_Penalty_Neutral>
0.511739

> <r_epik_State_Penalty>
1.62583

> <r_epik_Charging_Adjusted_Penalty>
2.65428

> <i_epik_Tot_Q>
1

> <i_epik_Tot_abs_Q>
1

> <r_epik_Metal_State_Penalty>
1.71803

> <b_epik_Metal_Only>
0

> <s_lp_Force_Field>
OPLS_2005

> <r_lp_Energy>
73.3397

> <b_lp_Chiralities_Consistent>
1

> <s_lp_Variant>
AV-unprocessed.smi:702-7

> <Gold.Version>
5.8.1

> <Gold.Id.Protein>
6NUR|6NUR_protein|mol2

> <Gold.PLP.Fitness>
37.6381

> <Gold.PLP.PLP>
-27.8857

> <Gold.PLP.part.hbond>
-2.6063

> <Gold.PLP.part.metal>
0.0000

> <Gold.PLP.part.buried>
-3.9694

> <Gold.PLP.part.nonpolar>
-22.0922

> <Gold.PLP.part.repulsive>
0.2390

> <Gold.PLP.ligand.clash>
0.0000

> <Gold.PLP.ligand.torsion>
0.2317

> <Gold.PLP.Chemscore.Hbond>
3.3440

> <Gold.PLP.Chemscore.CHOScore>
0.0000

> <Gold.PLP.Chemscore.Metal>
0.0000

> <Gold.Chemscore.Hbonds>
donor molecule, donor type, donor heavy atom, donor atom, acceptor molecule, acceptor atom, score
      L1  H     3    28       P1  7948  0.70
      L1  H     6    29       P1  7948  0.68
      L1  H    10    50       P1 10186  1.86

> <Gold.PLP.Chemscore.Internal.Correction>
0.1839

> <Gold.Rescore>
     Score         DG    S(hbond)    S(metal)    S(lipo)     H(rot)  DE(clash)    DE(int)     intcor
     15.08     -16.94       1.93        0.00      74.19       1.44       0.26       1.60       ----

> <Gold.Chemscore.Fitness>
15.0777

> <Gold.Chemscore.DG>
-16.9374

> <Gold.Chemscore.ZeroCoef>
-5.4800

> <Gold.Chemscore.Hbond>
1.9349

> <Gold.Chemscore.Metal>
0.0000

> <Gold.Chemscore.Lipo>
74.1859

> <Gold.Chemscore.Internal_Hbond>
0.0000

> <Gold.Chemscore.DEClash>
0.2566

> <Gold.Chemscore.DEInternal>
1.6030

> <Gold.Chemscore.Rot>
1.4394

> <Gold.Chemscore.Internal.Correction>
   9.000000E+99

> <Gold.Chemscore.Hbonds>
donor molecule, donor type, donor heavy atom, donor atom, acceptor molecule, acceptor atom, score
      L1  H     3    28       P1  7948  0.68
      L1  H     6    29       P1  7948  0.67
      L1  H    10    50       P1 10186  0.45

> <Gold.Chemscore.Hbond.Weighted>
-6.4625

> <Gold.Chemscore.Metal.Weighted>
-0.0000

> <Gold.Chemscore.Lipo.Weighted>
-8.6798

> <Gold.Chemscore.Internal_Hbond.Weighted>
0.0000

> <Gold.Chemscore.DEClash.Weighted>
0.2566

> <Gold.Chemscore.DEInternal.Weighted>
1.6030

> <Gold.Chemscore.Rot.Weighted>
3.6848

> <Gold.Chemscore.Internal.Correction.Weighted>
   9.000000E+99

> <Gold.Protein.RotatedTorsions>
[ 6907 6896 6895 6894 ] final  160.65 input  -60.11 | X-H torsion
[ 7974 7965 7964 7962 ] final  -63.88 input  175.53 | X-H torsion
[ 8008 7997 7996 7995 ] final    0.07 input   59.86 | X-H torsion
[ 10167 10162 10161 10158 ] final -137.29 input  -65.29 | X-H torsion
[ 10718 10713 10712 10709 ] final  -49.61 input   66.30 | X-H torsion
[ 10763 10752 10751 10750 ] final -151.05 input  -60.55 | X-H torsion
[ 11005 11000 10999 10996 ] final -171.96 input  -57.11 | X-H torsion

> <Gold.Protein.ActiveResidues>
 VAL166  LYS551  ARG553  GLY616  TRP617  ASP618  TYR619  PRO620  LYS621  CYS622 
 ASP623  PHE694  ASN695  SER759  ASP760  ASP761  ALA762  ILE779  LEU786  VAL792 
 PHE793  MET794  SER795  GLU796  ALA797  LYS798  CYS799  TRP800  GLU811  SER814 

> <Gold.Protein.RotatedAtoms>
  151.9674  133.3715  159.4058 H   0  0  0  0  0  0  0  0  0  0  0  0  # atno 6907 bound_to 6896
  150.6954  134.4176  159.5199 H   0  0  0  0  0  0  0  0  0  0  0  0  # atno 6908 bound_to 6896
  152.1874  134.8701  160.0571 H   0  0  0  0  0  0  0  0  0  0  0  0  # atno 6909 bound_to 6896
  145.7736  140.8800  143.0367 H   0  0  0  0  0  0  0  0  0  0  0  0  # atno 7974 bound_to 7965
  154.6639  140.2597  155.7079 H   0  0  0  0  0  0  0  0  0  0  0  0  # atno 8008 bound_to 7997
  156.2630  140.2843  156.1044 H   0  0  0  0  0  0  0  0  0  0  0  0  # atno 8009 bound_to 7997
  155.1267  140.0378  157.2754 H   0  0  0  0  0  0  0  0  0  0  0  0  # atno 8010 bound_to 7997
  139.8592  143.7099  152.2651 H   0  0  0  0  0  0  0  0  0  0  0  0  # atno 10167 bound_to 10162
  156.1877  130.4152  149.9416 H   0  0  0  0  0  0  0  0  0  0  0  0  # atno 10718 bound_to 10713
  154.8081  135.3269  154.7377 H   0  0  0  0  0  0  0  0  0  0  0  0  # atno 10763 bound_to 10752
  153.8031  135.6902  153.4857 H   0  0  0  0  0  0  0  0  0  0  0  0  # atno 10764 bound_to 10752
  153.1841  135.4575  155.0011 H   0  0  0  0  0  0  0  0  0  0  0  0  # atno 10765 bound_to 10752
  140.5023  134.5881  157.4992 H   0  0  0  0  0  0  0  0  0  0  0  0  # atno 11005 bound_to 11000
  144.6808  139.9889  143.7484 LP  0  0  0  0  0  0  0  0  0  0  0  0  # atno 17320 bound_to 7965
  146.0145  139.3198  143.0850 LP  0  0  0  0  0  0  0  0  0  0  0  0  # atno 17321 bound_to 7965
  139.7390  144.7564  151.0682 LP  0  0  0  0  0  0  0  0  0  0  0  0  # atno 17342 bound_to 10162
  140.7777  143.4995  150.9789 LP  0  0  0  0  0  0  0  0  0  0  0  0  # atno 17343 bound_to 10162
  156.7166  130.8990  151.3614 LP  0  0  0  0  0  0  0  0  0  0  0  0  # atno 17370 bound_to 10713
  157.6909  130.9233  150.0512 LP  0  0  0  0  0  0  0  0  0  0  0  0  # atno 17371 bound_to 10713
  139.9706  134.7299  156.0049 LP  0  0  0  0  0  0  0  0  0  0  0  0  # atno 17394 bound_to 11000
  141.1429  133.6561  156.3782 LP  0  0  0  0  0  0  0  0  0  0  0  0  # atno 17395 bound_to 11000

$$$$
