#       Name:                AV-unprocessed.smi:36
#       Creating user name   scv26
#       Creation time:       Thu Mar 26 16:10:48 2020


#       File generated by GOLD software.
#

@<TRIPOS>MOLECULE
AV-unprocessed.smi:36
    73    76     1
SMALL
NO_CHARGES


@<TRIPOS>ATOM
      1 ****        -5.3347   5.4147   1.6920 C.3            1 S1                 0.0000
      2 ****        -4.5639   4.0989   1.4955 C.3            1 S1                 0.0000
      3 ****        -4.8011   3.1677   2.6962 C.3            1 S1                 0.0000
      4 ****        -5.0319   3.4081   0.2041 C.3            1 S1                 0.0000
      5 ****        -2.6953   4.4721   1.3603 Si             1 S1                 0.0000
      6 ****        -2.3212   5.5792  -0.1378 C.3            1 S1                 0.0000
      7 ****        -2.0460   5.2929   2.9463 C.3            1 S1                 0.0000
      8 ****        -1.8867   3.0016   1.1482 O.3            1 S1                 0.0000
      9 ****        -0.4894   2.8962   0.9750 C.3            1 S1                 0.0000
     10 ****        -0.0769   1.4225   1.0765 C.3            1 S1                 0.0000
     11 ****         1.2803   1.2686   0.6740 O.3            1 S1                 0.0000
     12 ****         1.8512   0.1705   1.3244 C.3            1 S1                 0.0000
     13 ****         2.1436  -0.8809   0.3039 N.pl3          1 S1                 0.0000
     14 ****         1.4101  -1.2400  -0.7699 C.2            1 S1                 0.0000
     15 ****         1.8859  -2.2176  -1.5382 N.2            1 S1                 0.0000
     16 ****         3.0695  -2.5343  -0.8878 C.ar           1 S1                 0.0000
     17 ****         4.0833  -3.4942  -1.1570 C.ar           1 S1                 0.0000
     18 ****         4.0341  -4.3207  -2.2129 N.pl3          1 S1                -1.0000
     19 ****         3.3407  -5.4843  -2.1296 C.2            1 S1                 0.0000
     20 ****         2.7677  -5.9549  -1.1445 O.2            1 S1                 0.0000
     21 ****         3.3568  -6.2797  -3.4074 C.ar           1 S1                 0.0000
     22 ****         3.4243  -7.6906  -3.3536 C.ar           1 S1                 0.0000
     23 ****         3.4091  -8.4541  -4.5371 C.ar           1 S1                 0.0000
     24 ****         3.3169  -7.8151  -5.7877 C.ar           1 S1                 0.0000
     25 ****         3.2363  -6.4116  -5.8535 C.ar           1 S1                 0.0000
     26 ****         3.2513  -5.6473  -4.6705 C.ar           1 S1                 0.0000
     27 ****         5.1368  -3.5317  -0.3014 N.ar           1 S1                 0.0000
     28 ****         5.1858  -2.7027   0.7484 C.ar           1 S1                 0.0000
     29 ****         4.3074  -1.7667   1.1229 N.ar           1 S1                 0.0000
     30 ****         3.2491  -1.7125   0.2626 C.ar           1 S1                 0.0000
     31 ****         0.8260  -0.3476   2.3397 C.3            1 S1                 0.0000
     32 ****        -0.0901   0.8499   2.4945 C.3            1 S1                 0.0000
     33 ****        -1.3815   0.4529   2.9090 O.3            1 S1                 0.0000
     34 ****        -6.4075   5.2360   1.7727 H              1 S1                 0.0000
     35 ****        -5.1776   6.0955   0.8550 H              1 S1                 0.0000
     36 ****        -5.0185   5.9298   2.5994 H              1 S1                 0.0000
     37 ****        -4.4899   3.6356   3.6304 H              1 S1                 0.0000
     38 ****        -4.2406   2.2379   2.5922 H              1 S1                 0.0000
     39 ****        -5.8555   2.9079   2.7949 H              1 S1                 0.0000
     40 ****        -6.0933   3.1610   0.2489 H              1 S1                 0.0000
     41 ****        -4.4845   2.4812   0.0302 H              1 S1                 0.0000
     42 ****        -4.8813   4.0477  -0.6659 H              1 S1                 0.0000
     43 ****        -2.8473   6.5314  -0.0749 H              1 S1                 0.0000
     44 ****        -2.6188   5.1033  -1.0719 H              1 S1                 0.0000
     45 ****        -1.2570   5.8013  -0.2131 H              1 S1                 0.0000
     46 ****        -2.5606   6.2312   3.1513 H              1 S1                 0.0000
     47 ****        -0.9823   5.5172   2.8744 H              1 S1                 0.0000
     48 ****        -2.1831   4.6499   3.8153 H              1 S1                 0.0000
     49 ****        -0.2338   3.2877  -0.0099 H              1 S1                 0.0000
     50 ****         0.0374   3.5023   1.7126 H              1 S1                 0.0000
     51 ****        -0.6920   0.8117   0.4131 H              1 S1                 0.0000
     52 ****         2.8135   0.4418   1.7598 H              1 S1                 0.0000
     53 ****         0.4723  -0.7579  -1.0025 H              1 S1                 0.0000
     54 ****         3.4925  -8.1967  -2.4014 H              1 S1                 0.0000
     55 ****         3.4656  -9.5311  -4.4841 H              1 S1                 0.0000
     56 ****         3.3032  -8.4005  -6.6949 H              1 S1                 0.0000
     57 ****         3.1587  -5.9197  -6.8119 H              1 S1                 0.0000
     58 ****         3.1761  -4.5718  -4.7426 H              1 S1                 0.0000
     59 ****         6.0563  -2.8032   1.3793 H              1 S1                 0.0000
     60 ****         0.2868  -1.2005   1.9225 H              1 S1                 0.0000
     61 ****         1.3096  -0.6541   3.2677 H              1 S1                 0.0000
     62 ****         0.3340   1.5604   3.2054 H              1 S1                 0.0000
     63 ****        -1.7330  -0.1433   2.2655 H              1 S1                 0.0000
     64 ****         1.7913   2.0953   0.9096 LP             1 S1                 0.0000
     65 ****         1.3180   1.1240  -0.3148 LP             1 S1                 0.0000
     66 ****         1.4934  -2.6182  -2.3662 LP             1 S1                 0.0000
     67 ****         4.5077  -4.0796  -3.0600 LP             1 S1                 0.0000
     68 ****         2.7830  -5.4622  -0.2745 LP             1 S1                 0.0000
     69 ****         2.2878  -6.8293  -1.2156 LP             1 S1                 0.0000
     70 ****         5.8803  -4.1823  -0.4564 LP             1 S1                 0.0000
     71 ****         4.4122  -1.1828   1.9279 LP             1 S1                 0.0000
     72 ****        -1.9732   1.2555   2.9840 LP             1 S1                 0.0000
     73 ****        -1.3252  -0.0039   3.7968 LP             1 S1                 0.0000
@<TRIPOS>BOND
    1    1    2 1     
    2    1   34 1     
    3    1   35 1     
    4    1   36 1     
    5    2    3 1     
    6    2    4 1     
    7    2    5 1     
    8    3   37 1     
    9    3   38 1     
   10    3   39 1     
   11    4   40 1     
   12    4   41 1     
   13    4   42 1     
   14    5    6 1     
   15    5    7 1     
   16    5    8 1     
   17    6   43 1     
   18    6   44 1     
   19    6   45 1     
   20    7   46 1     
   21    7   47 1     
   22    7   48 1     
   23    8    9 1     
   24    9   10 1     
   25    9   49 1     
   26    9   50 1     
   27   10   32 1     
   28   10   11 1     
   29   10   51 1     
   30   11   12 1     
   31   12   13 1     
   32   12   31 1     
   33   12   52 1     
   34   13   30 1     
   35   13   14 1     
   36   14   15 2     
   37   14   53 1     
   38   15   16 1     
   39   16   30 ar    
   40   16   17 ar    
   41   17   18 1     
   42   17   27 ar    
   43   18   19 1     
   44   19   20 2     
   45   19   21 1     
   46   21   26 ar    
   47   21   22 ar    
   48   22   23 ar    
   49   22   54 1     
   50   23   24 ar    
   51   23   55 1     
   52   24   25 ar    
   53   24   56 1     
   54   25   26 ar    
   55   25   57 1     
   56   26   58 1     
   57   27   28 ar    
   58   28   29 ar    
   59   28   59 1     
   60   29   30 ar    
   61   31   32 1     
   62   31   60 1     
   63   31   61 1     
   64   32   33 1     
   65   32   62 1     
   66   33   63 1     
   67   11   64 1     
   68   11   65 1     
   69   15   66 1     
   70   18   67 1     
   71   20   68 1     
   72   20   69 1     
   73   27   70 1     
   74   29   71 1     
   75   33   72 1     
   76   33   73 1     
@<TRIPOS>SUBSTRUCTURE
      1 S1             1
@<TRIPOS>SET
LONE_PAIRS      STATIC     ATOMS    <user>   **** ""
10 64 65 66 67 68 69 70 71 72 73
DONOR_HYDROGENS      STATIC     ATOMS    <user>   **** ""
1 63
ATOM$BLUE        STATIC     ATOMS    COLORGROUP SYSTEM
10 64 65 66 67 68 69 70 71 72 73
ATOM$RED        STATIC     ATOMS    COLORGROUP SYSTEM
1 63
