AV-unprocessed.smi:2462|AV-procd|sdf|9718|dock6
  -GOLD-   2272013353D 1   1.00000     0.00000
 Structure written by MMmdl.
 40 41  0  0  0  0  0  0  0  0  1 V2000
  152.2783  143.3763  160.9563 C   0  0  0  0  0  0  0  0  0  0  0  0
  152.0417  142.6307  159.6547 C   0  0  0  0  0  0  0  0  0  0  0  0
  151.1311  143.2238  158.7765 N   0  0  0  0  0  0  0  0  0  0  0  0
  150.8816  142.6691  157.6358 C   0  0  0  0  0  0  0  0  0  0  0  0
  151.5062  141.4723  157.2405 N   0  0  0  0  0  0  0  0  0  0  0  0
  151.1433  140.9429  155.9096 C   0  0  0  0  0  0  0  0  0  0  0  0
  149.6130  140.8755  155.6211 C   0  0  1  0  0  0  0  0  0  0  0  0
  149.2142  142.1567  155.1696 O   0  0  0  0  0  0  0  0  0  0  0  0
  149.3548  139.8975  154.4489 C   0  0  0  0  0  0  0  0  0  0  0  0
  147.8612  139.7136  154.1233 C   0  0  0  0  0  0  0  0  0  0  0  0
  147.0607  139.2789  155.3628 C   0  0  2  0  0  0  0  0  0  0  0  0
  145.5737  139.0863  155.0336 C   0  0  0  0  0  0  0  0  0  0  0  0
  147.2598  140.2936  156.5016 C   0  0  0  0  0  0  0  0  0  0  0  0
  148.7485  140.4798  156.8453 C   0  0  0  0  0  0  0  0  0  0  0  0
  152.3753  140.8079  158.0569 C   0  0  0  0  0  0  0  0  0  0  0  0
  152.8800  139.7325  157.7304 O   0  0  0  0  0  0  0  0  0  0  0  0
  152.6648  141.4616  159.3437 C   0  0  0  0  0  0  0  0  0  0  0  0
  153.6667  140.7707  160.2604 C   0  0  0  0  0  0  0  0  0  0  0  0
  152.0372  142.7426  161.8103 H   0  0  0  0  0  0  0  0  0  0  0  0
  151.6586  144.2716  161.0201 H   0  0  0  0  0  0  0  0  0  0  0  0
  153.3209  143.6856  161.0335 H   0  0  0  0  0  0  0  0  0  0  0  0
  150.1833  143.0965  156.9143 H   0  0  0  0  0  0  0  0  0  0  0  0
  151.6490  141.5103  155.1257 H   0  0  0  0  0  0  0  0  0  0  0  0
  151.5632  139.9407  155.8034 H   0  0  0  0  0  0  0  0  0  0  0  0
  149.1383  142.7282  155.9184 H   0  0  0  0  0  0  0  0  0  0  0  0
  149.8855  140.2303  153.5556 H   0  0  0  0  0  0  0  0  0  0  0  0
  149.7711  138.9200  154.6971 H   0  0  0  0  0  0  0  0  0  0  0  0
  147.4522  140.6429  153.7244 H   0  0  0  0  0  0  0  0  0  0  0  0
  147.7534  138.9705  153.3326 H   0  0  0  0  0  0  0  0  0  0  0  0
  147.4509  138.3162  155.6967 H   0  0  0  0  0  0  0  0  0  0  0  0
  145.1197  140.0157  154.6885 H   0  0  0  0  0  0  0  0  0  0  0  0
  145.0179  138.7494  155.9092 H   0  0  0  0  0  0  0  0  0  0  0  0
  145.4388  138.3392  154.2511 H   0  0  0  0  0  0  0  0  0  0  0  0
  146.8235  141.2538  156.2231 H   0  0  0  0  0  0  0  0  0  0  0  0
  146.7236  139.9626  157.3916 H   0  0  0  0  0  0  0  0  0  0  0  0
  149.1255  139.5459  157.2640 H   0  0  0  0  0  0  0  0  0  0  0  0
  148.8364  141.2271  157.6349 H   0  0  0  0  0  0  0  0  0  0  0  0
  154.6206  140.6433  159.7472 H   0  0  0  0  0  0  0  0  0  0  0  0
  153.2994  139.7830  160.5418 H   0  0  0  0  0  0  0  0  0  0  0  0
  153.8621  141.3230  161.1782 H   0  0  0  0  0  0  0  0  0  0  0  0
  1  2  1  0  0  0  0
  1 19  1  0  0  0  0
  1 20  1  0  0  0  0
  1 21  1  0  0  0  0
  2 17  2  0  0  0  0
  2  3  1  0  0  0  0
  3  4  2  0  0  0  0
  4  5  1  0  0  0  0
  4 22  1  0  0  0  0
  5  6  1  0  0  0  0
  5 15  1  0  0  0  0
  6  7  1  0  0  0  0
  6 23  1  0  0  0  0
  6 24  1  0  0  0  0
  7 14  1  0  0  0  0
  7  8  1  0  0  0  0
  7  9  1  0  0  0  0
  8 25  1  0  0  0  0
  9 10  1  0  0  0  0
  9 26  1  0  0  0  0
  9 27  1  0  0  0  0
 10 11  1  0  0  0  0
 10 28  1  0  0  0  0
 10 29  1  0  0  0  0
 11 12  1  0  0  0  0
 11 13  1  0  0  0  0
 11 30  1  0  0  0  0
 12 31  1  0  0  0  0
 12 32  1  0  0  0  0
 12 33  1  0  0  0  0
 13 14  1  0  0  0  0
 13 34  1  0  0  0  0
 13 35  1  0  0  0  0
 14 36  1  0  0  0  0
 14 37  1  0  0  0  0
 15 16  2  0  0  0  0
 15 17  1  0  0  0  0
 17 18  1  0  0  0  0
 18 38  1  0  0  0  0
 18 39  1  0  0  0  0
 18 40  1  0  0  0  0
M  END
> <s_m_source_file>
AV-unprocessed.smi

> <i_m_source_file_index>
2462

> <i_lp_mmshare_version>
43012

> <i_f3d_flags>
0

> <s_epik_input>
W0NIM11jMW5bY0hdbihjKD1PKWMxW0NIM10pW0NIMl1bQ0BAXTIoW09IXSlbQ0gyXVtDSDJdW0NAQEhdKFtDSDNdKVtDSDJdW0NIMl0y

> <s_epik_cmdline>
J2VwaWtfcHl0aG9uJywgJy1waCcsICc3LjAnLCAnLXRuJywgJzgnLCAnLW1hJywgJzIwMCcsICctbWV0YWxfYmluZGluZycsICctaW1hZScsICc8aW5maWxlLm1hZT4nLCAnLW9tYWUnLCAnPG91dGZpbGUubWFlPic=

> <r_lp_tautomer_probability>
1

> <r_epik_Ionization_Penalty>
0.000179745

> <r_epik_Ionization_Penalty_Charging>
2.35483e-07

> <r_epik_Ionization_Penalty_Neutral>
0.00017951

> <r_epik_State_Penalty>
-0

> <r_epik_Charging_Adjusted_Penalty>
2.35483e-07

> <i_epik_Tot_Q>
0

> <i_epik_Tot_abs_Q>
0

> <r_epik_Metal_State_Penalty>
-0

> <b_epik_Metal_Only>
0

> <s_lp_Force_Field>
OPLS_2005

> <r_lp_Energy>
24.8563

> <b_lp_Chiralities_Consistent>
1

> <s_lp_Variant>
AV-unprocessed.smi:2462-2

> <Gold.Version>
5.8.1

> <Gold.Id.Protein>
6NUR|6NUR_protein|mol2

> <Gold.PLP.Fitness>
39.2693

> <Gold.PLP.PLP>
-31.9204

> <Gold.PLP.part.hbond>
-2.6985

> <Gold.PLP.part.metal>
0.0000

> <Gold.PLP.part.buried>
-4.0312

> <Gold.PLP.part.nonpolar>
-24.6087

> <Gold.PLP.part.repulsive>
0.0979

> <Gold.PLP.ligand.clash>
0.0000

> <Gold.PLP.ligand.torsion>
0.4374

> <Gold.PLP.Chemscore.Hbond>
1.7200

> <Gold.PLP.Chemscore.CHOScore>
1.0000

> <Gold.PLP.Chemscore.Metal>
0.0000

> <Gold.Chemscore.Hbonds>
donor molecule, donor type, donor heavy atom, donor atom, acceptor molecule, acceptor atom, score
      L1  H     8    25       P1  8028  0.40
      P1  H  7997  8010       L1    16  1.00
      L1  C     4    22       P1  8028  1.00

> <Gold.PLP.Chemscore.Internal.Correction>
0.0636

> <Gold.Rescore>
     Score         DG    S(hbond)    S(metal)    S(lipo)     H(rot)  DE(clash)    DE(int)     intcor
     14.61     -15.16       1.64        0.00      72.55       1.68       0.00       0.55       ----

> <Gold.Chemscore.Fitness>
14.6069

> <Gold.Chemscore.DG>
-15.1556

> <Gold.Chemscore.ZeroCoef>
-5.4800

> <Gold.Chemscore.Hbond>
1.6400

> <Gold.Chemscore.Metal>
0.0000

> <Gold.Chemscore.Lipo>
72.5468

> <Gold.Chemscore.Internal_Hbond>
0.0000

> <Gold.Chemscore.DEClash>
0.0030

> <Gold.Chemscore.DEInternal>
0.5456

> <Gold.Chemscore.Rot>
1.6758

> <Gold.Chemscore.Internal.Correction>
   9.000000E+99

> <Gold.Chemscore.Hbonds>
donor molecule, donor type, donor heavy atom, donor atom, acceptor molecule, acceptor atom, score
      L1  H     8    25       P1  8028  0.37
      P1  H  7997  8010       L1    16  0.70

> <Gold.Chemscore.Hbond.Weighted>
-5.4775

> <Gold.Chemscore.Metal.Weighted>
-0.0000

> <Gold.Chemscore.Lipo.Weighted>
-8.4880

> <Gold.Chemscore.Internal_Hbond.Weighted>
0.0000

> <Gold.Chemscore.DEClash.Weighted>
0.0030

> <Gold.Chemscore.DEInternal.Weighted>
0.5456

> <Gold.Chemscore.Rot.Weighted>
4.2899

> <Gold.Chemscore.Internal.Correction.Weighted>
   9.000000E+99

> <Gold.Protein.RotatedTorsions>
[ 6907 6896 6895 6894 ] final  152.33 input  -60.11 | X-H torsion
[ 7974 7965 7964 7962 ] final  138.24 input  175.53 | X-H torsion
[ 8008 7997 7996 7995 ] final   51.92 input   59.86 | X-H torsion
[ 10167 10162 10161 10158 ] final -142.60 input  -65.29 | X-H torsion
[ 10718 10713 10712 10709 ] final  127.20 input   66.30 | X-H torsion
[ 10763 10752 10751 10750 ] final   47.59 input  -60.55 | X-H torsion
[ 11005 11000 10999 10996 ] final    1.83 input  -57.11 | X-H torsion

> <Gold.Protein.ActiveResidues>
 VAL166  LYS551  ARG553  GLY616  TRP617  ASP618  TYR619  PRO620  LYS621  CYS622 
 ASP623  PHE694  ASN695  SER759  ASP760  ASP761  ALA762  ILE779  LEU786  VAL792 
 PHE793  MET794  SER795  GLU796  ALA797  LYS798  CYS799  TRP800  GLU811  SER814 

> <Gold.Protein.RotatedAtoms>
  152.0882  133.4187  159.4531 H   0  0  0  0  0  0  0  0  0  0  0  0  # atno 6907 bound_to 6896
  150.6862  134.2903  159.4673 H   0  0  0  0  0  0  0  0  0  0  0  0  # atno 6908 bound_to 6896
  152.0751  134.9507  160.0625 H   0  0  0  0  0  0  0  0  0  0  0  0  # atno 6909 bound_to 6896
  144.9391  139.4952  143.5580 H   0  0  0  0  0  0  0  0  0  0  0  0  # atno 7974 bound_to 7965
  155.4432  140.3455  155.4292 H   0  0  0  0  0  0  0  0  0  0  0  0  # atno 8008 bound_to 7997
  156.1266  140.1502  156.9157 H   0  0  0  0  0  0  0  0  0  0  0  0  # atno 8009 bound_to 7997
  154.4863  140.0854  156.7472 H   0  0  0  0  0  0  0  0  0  0  0  0  # atno 8010 bound_to 7997
  139.8073  143.7750  152.2662 H   0  0  0  0  0  0  0  0  0  0  0  0  # atno 10167 bound_to 10162
  157.5354  131.1098  150.8944 H   0  0  0  0  0  0  0  0  0  0  0  0  # atno 10718 bound_to 10713
  152.9798  135.5971  154.3788 H   0  0  0  0  0  0  0  0  0  0  0  0  # atno 10763 bound_to 10752
  154.3454  135.2767  155.2402 H   0  0  0  0  0  0  0  0  0  0  0  0  # atno 10764 bound_to 10752
  154.4465  135.6000  153.6218 H   0  0  0  0  0  0  0  0  0  0  0  0  # atno 10765 bound_to 10752
  140.6111  133.9748  155.8178 H   0  0  0  0  0  0  0  0  0  0  0  0  # atno 11005 bound_to 11000
  146.3278  139.8397  142.8892 LP  0  0  0  0  0  0  0  0  0  0  0  0  # atno 17320 bound_to 7965
  145.3019  141.0196  143.3604 LP  0  0  0  0  0  0  0  0  0  0  0  0  # atno 17321 bound_to 7965
  139.7889  144.7417  150.9983 LP  0  0  0  0  0  0  0  0  0  0  0  0  # atno 17342 bound_to 10162
  140.7819  143.4463  151.0477 LP  0  0  0  0  0  0  0  0  0  0  0  0  # atno 17343 bound_to 10162
  156.9513  130.5420  149.5282 LP  0  0  0  0  0  0  0  0  0  0  0  0  # atno 17370 bound_to 10713
  156.0454  130.5531  150.8869 LP  0  0  0  0  0  0  0  0  0  0  0  0  # atno 17371 bound_to 10713
  141.0807  134.0066  157.3389 LP  0  0  0  0  0  0  0  0  0  0  0  0  # atno 17394 bound_to 11000
  139.9192  135.0199  156.7999 LP  0  0  0  0  0  0  0  0  0  0  0  0  # atno 17395 bound_to 11000

$$$$
