#       Name:                AV-unprocessed.smi:2989
#       Creating user name   scv26
#       Creation time:       Fri Mar 27 16:31:39 2020


#       File generated by GOLD software.
#

@<TRIPOS>MOLECULE
AV-unprocessed.smi:2989
    35    37     1
SMALL
NO_CHARGES


@<TRIPOS>ATOM
      1 ****        -1.4192   0.7898  -0.0879 O.3            1 S1                 0.0000
      2 ****        -1.0440  -0.5746  -0.0802 C.3            1 S1                 0.0000
      3 ****         0.4920  -0.6962  -0.1280 C.3            1 S1                 0.0000
      4 ****         1.0684  -0.0586  -1.2988 N.pl3          1 S1                 0.0000
      5 ****         1.0358  -0.7078  -2.4969 N.2            1 S1                 0.0000
      6 ****         1.6010   0.0442  -3.3936 N.2            1 S1                 0.0000
      7 ****         2.0133   1.2129  -2.7749 C.ar           1 S1                 0.0000
      8 ****         2.6721   2.3605  -3.2715 C.ar           1 S1                 0.0000
      9 ****         2.9792   3.4323  -2.4056 C.ar           1 S1                 0.0000
     10 ****         2.6332   3.3713  -1.0383 C.ar           1 S1                 0.0000
     11 ****         1.9766   2.2350  -0.5267 C.ar           1 S1                 0.0000
     12 ****         1.6793   1.1762  -1.4026 C.ar           1 S1                 0.0000
     13 ****        -1.6205  -1.3201   1.1134 C.ar           1 S1                 0.0000
     14 ****        -2.2327  -2.5786   0.9302 C.ar           1 S1                 0.0000
     15 ****        -2.7622  -3.2780   2.0323 C.ar           1 S1                 0.0000
     16 ****        -2.6811  -2.7238   3.3242 C.ar           1 S1                 0.0000
     17 ****        -2.0688  -1.4701   3.5138 C.ar           1 S1                 0.0000
     18 ****        -1.5389  -0.7706   2.4122 C.ar           1 S1                 0.0000
     19 ****        -2.3601   0.8409  -0.1598 H              1 S1                 0.0000
     20 ****        -1.4583  -1.0148  -0.9882 H              1 S1                 0.0000
     21 ****         0.9386  -0.2529   0.7630 H              1 S1                 0.0000
     22 ****         0.7859  -1.7471  -0.1309 H              1 S1                 0.0000
     23 ****         2.9404   2.4177  -4.3160 H              1 S1                 0.0000
     24 ****         3.4816   4.3063  -2.7930 H              1 S1                 0.0000
     25 ****         2.8710   4.1969  -0.3839 H              1 S1                 0.0000
     26 ****         1.7045   2.1795   0.5169 H              1 S1                 0.0000
     27 ****        -2.2981  -3.0137  -0.0562 H              1 S1                 0.0000
     28 ****        -3.2302  -4.2403   1.8863 H              1 S1                 0.0000
     29 ****        -3.0866  -3.2606   4.1691 H              1 S1                 0.0000
     30 ****        -2.0046  -1.0451   4.5046 H              1 S1                 0.0000
     31 ****        -1.0673   0.1888   2.5680 H              1 S1                 0.0000
     32 ****        -0.9956   1.2520  -0.8670 LP             1 S1                 0.0000
     33 ****        -1.1214   1.2266   0.7609 LP             1 S1                 0.0000
     34 ****         0.6422  -1.6127  -2.6591 LP             1 S1                 0.0000
     35 ****         1.7178  -0.1814  -4.3608 LP             1 S1                 0.0000
@<TRIPOS>BOND
    1    1    2 1     
    2    1   19 1     
    3    2    3 1     
    4    2   13 1     
    5    2   20 1     
    6    3    4 1     
    7    3   21 1     
    8    3   22 1     
    9    4   12 1     
   10    4    5 1     
   11    5    6 2     
   12    6    7 1     
   13    7   12 ar    
   14    7    8 ar    
   15    8    9 ar    
   16    8   23 1     
   17    9   10 ar    
   18    9   24 1     
   19   10   11 ar    
   20   10   25 1     
   21   11   12 ar    
   22   11   26 1     
   23   13   18 ar    
   24   13   14 ar    
   25   14   15 ar    
   26   14   27 1     
   27   15   16 ar    
   28   15   28 1     
   29   16   17 ar    
   30   16   29 1     
   31   17   18 ar    
   32   17   30 1     
   33   18   31 1     
   34    1   32 1     
   35    1   33 1     
   36    5   34 1     
   37    6   35 1     
@<TRIPOS>SUBSTRUCTURE
      1 S1             1
@<TRIPOS>SET
LONE_PAIRS      STATIC     ATOMS    <user>   **** ""
4 32 33 34 35
DONOR_HYDROGENS      STATIC     ATOMS    <user>   **** ""
1 19
ATOM$BLUE        STATIC     ATOMS    COLORGROUP SYSTEM
4 32 33 34 35
ATOM$RED        STATIC     ATOMS    COLORGROUP SYSTEM
1 19
