AV-unprocessed.smi:79|AV-procd|sdf|781|dock1
  -GOLD-   2262017143D 1   1.00000     0.00000
 Structure written by MMmdl.
 56 59  0  0  0  0  0  0  0  0  2 V2000
  144.0562  132.4952  149.7538 C   0  0  0  0  0  0  0  0  0  0  0  0
  144.5034  133.4257  150.8889 C   0  0  2  0  0  0  0  0  0  0  0  0
  143.5608  134.4748  150.9853 O   0  0  0  0  0  0  0  0  0  0  0  0
  145.9038  134.0155  150.6239 C   0  0  0  0  0  0  0  0  0  0  0  0
  146.6817  134.2520  151.8677 N   0  3  2  0  0  0  0  0  0  0  0  0
  147.2207  132.9941  152.4398 C   0  0  0  0  0  0  0  0  0  0  0  0
  148.0992  133.2809  153.6662 C   0  0  0  0  0  0  0  0  0  0  0  0
  147.3803  134.0801  154.6543 N   0  0  0  0  0  0  0  0  0  0  0  0
  148.0877  134.2064  155.7997 C   0  0  0  0  0  0  0  0  0  0  0  0
  149.4132  134.5023  155.7512 N   0  0  0  0  0  0  0  0  0  0  0  0
  150.1045  134.6436  156.8866 C   0  0  0  0  0  0  0  0  0  0  0  0
  149.6733  134.5362  158.1457 N   0  0  0  0  0  0  0  0  0  0  0  0
  148.3429  134.2378  158.1922 C   0  0  0  0  0  0  0  0  0  0  0  0
  147.4834  134.0549  157.0743 C   0  0  0  0  0  0  0  0  0  0  0  0
  146.1945  133.7665  157.5023 N   0  0  0  0  0  0  0  0  0  0  0  0
  146.2858  133.7794  158.8048 C   0  0  0  0  0  0  0  0  0  0  0  0
  147.5413  134.0478  159.3047 N   0  0  0  0  0  0  0  0  0  0  0  0
  147.9244  134.1318  160.7059 C   0  0  0  0  0  0  0  0  0  0  0  0
  147.0998  135.1467  161.5189 C   0  0  0  0  0  0  0  0  0  0  0  0
  145.7038  134.5475  161.7842 C   0  0  0  0  0  0  0  0  0  0  0  0
  145.7175  133.5779  162.8131 O   0  0  0  0  0  0  0  0  0  0  0  0
  147.8267  135.7428  162.7330 C   0  0  0  0  0  0  0  0  0  0  0  0
  147.5611  137.0960  162.3022 O   0  0  0  0  0  0  0  0  0  0  0  0
  147.1247  136.5980  161.0181 C   0  0  0  0  0  0  0  0  0  0  0  0
  146.8089  135.3267  154.1312 C   0  0  2  0  0  0  0  0  0  0  0  0
  145.9810  136.0932  155.1831 C   0  0  0  0  0  0  0  0  0  0  0  0
  145.9387  135.0332  152.8908 C   0  0  0  0  0  0  0  0  0  0  0  0
  144.7389  131.6514  149.6486 H   0  0  0  0  0  0  0  0  0  0  0  0
  144.0251  133.0183  148.7972 H   0  0  0  0  0  0  0  0  0  0  0  0
  143.0617  132.0901  149.9445 H   0  0  0  0  0  0  0  0  0  0  0  0
  144.4846  132.8592  151.8190 H   0  0  0  0  0  0  0  0  0  0  0  0
  142.7212  134.1645  150.6826 H   0  0  0  0  0  0  0  0  0  0  0  0
  146.4760  133.3580  149.9674 H   0  0  0  0  0  0  0  0  0  0  0  0
  145.7842  134.9541  150.0800 H   0  0  0  0  0  0  0  0  0  0  0  0
  146.3943  132.3372  152.7166 H   0  0  0  0  0  0  0  0  0  0  0  0
  147.8111  132.4663  151.6899 H   0  0  0  0  0  0  0  0  0  0  0  0
  148.4222  132.3404  154.1150 H   0  0  0  0  0  0  0  0  0  0  0  0
  149.0002  133.8110  153.3536 H   0  0  0  0  0  0  0  0  0  0  0  0
  151.1523  134.8791  156.7703 H   0  0  0  0  0  0  0  0  0  0  0  0
  145.4315  133.5947  159.4396 H   0  0  0  0  0  0  0  0  0  0  0  0
  147.8469  133.1368  161.1460 H   0  0  0  0  0  0  0  0  0  0  0  0
  148.9846  134.3858  160.7415 H   0  0  0  0  0  0  0  0  0  0  0  0
  144.9943  135.3196  162.0817 H   0  0  0  0  0  0  0  0  0  0  0  0
  145.3046  134.0795  160.8839 H   0  0  0  0  0  0  0  0  0  0  0  0
  144.8810  133.5935  163.2525 H   0  0  0  0  0  0  0  0  0  0  0  0
  147.3680  135.5087  163.6942 H   0  0  0  0  0  0  0  0  0  0  0  0
  148.8968  135.5316  162.7570 H   0  0  0  0  0  0  0  0  0  0  0  0
  147.8668  136.7908  160.2428 H   0  0  0  0  0  0  0  0  0  0  0  0
  146.1488  136.9871  160.7256 H   0  0  0  0  0  0  0  0  0  0  0  0
  147.6355  135.9667  153.8180 H   0  0  0  0  0  0  0  0  0  0  0  0
  145.5323  136.9874  154.7496 H   0  0  0  0  0  0  0  0  0  0  0  0
  146.5919  136.4219  156.0242 H   0  0  0  0  0  0  0  0  0  0  0  0
  145.1734  135.4759  155.5782 H   0  0  0  0  0  0  0  0  0  0  0  0
  145.5926  135.9756  152.4686 H   0  0  0  0  0  0  0  0  0  0  0  0
  145.0485  134.4753  153.1865 H   0  0  0  0  0  0  0  0  0  0  0  0
  147.4858  134.8022  151.6024 H   0  0  0  0  0  0  0  0  0  0  0  0
  1  2  1  0  0  0  0
  1 28  1  0  0  0  0
  1 29  1  0  0  0  0
  1 30  1  0  0  0  0
  2  3  1  0  0  0  0
  2  4  1  0  0  0  0
  2 31  1  0  0  0  0
  3 32  1  0  0  0  0
  4  5  1  0  0  0  0
  4 33  1  0  0  0  0
  4 34  1  0  0  0  0
  5 27  1  0  0  0  0
  5  6  1  0  0  0  0
  5 56  1  0  0  0  0
  6  7  1  0  0  0  0
  6 35  1  0  0  0  0
  6 36  1  0  0  0  0
  7  8  1  0  0  0  0
  7 37  1  0  0  0  0
  7 38  1  0  0  0  0
  8  9  1  0  0  0  0
  8 25  1  0  0  0  0
  9 14  1  0  0  0  0
  9 10  2  0  0  0  0
 10 11  1  0  0  0  0
 11 12  2  0  0  0  0
 11 39  1  0  0  0  0
 12 13  1  0  0  0  0
 13 17  1  0  0  0  0
 13 14  2  0  0  0  0
 14 15  1  0  0  0  0
 15 16  2  0  0  0  0
 16 17  1  0  0  0  0
 16 40  1  0  0  0  0
 17 18  1  0  0  0  0
 18 19  1  0  0  0  0
 18 41  1  0  0  0  0
 18 42  1  0  0  0  0
 19 24  1  0  0  0  0
 19 20  1  0  0  0  0
 19 22  1  0  0  0  0
 20 21  1  0  0  0  0
 20 43  1  0  0  0  0
 20 44  1  0  0  0  0
 21 45  1  0  0  0  0
 22 23  1  0  0  0  0
 22 46  1  0  0  0  0
 22 47  1  0  0  0  0
 23 24  1  0  0  0  0
 24 48  1  0  0  0  0
 24 49  1  0  0  0  0
 25 26  1  0  0  0  0
 25 27  1  0  0  0  0
 25 50  1  0  0  0  0
 26 51  1  0  0  0  0
 26 52  1  0  0  0  0
 26 53  1  0  0  0  0
 27 54  1  0  0  0  0
 27 55  1  0  0  0  0
M  CHG  1   5   1
M  END
> <s_m_source_file>
AV-unprocessed.smi

> <i_m_source_file_index>
79

> <i_lp_mmshare_version>
43012

> <i_f3d_flags>
0

> <s_epik_input>
W0NIM11bQ0BIXShbT0hdKVtDSDJdTjFbQ0gyXVtDSDJdTihbQ0BASF0oW0NIM10pW0NIMl0xKWMobltjSF1uMiljKGMyMyluW2NIXW4zW0NIMl1DNChbQ0gyXVtPSF0pW0NIMl1PW0NIMl00

> <s_epik_cmdline>
J2VwaWtfcHl0aG9uJywgJy1waCcsICc3LjAnLCAnLXRuJywgJzgnLCAnLW1hJywgJzIwMCcsICctbWV0YWxfYmluZGluZycsICctaW1hZScsICc8aW5maWxlLm1hZT4nLCAnLW9tYWUnLCAnPG91dGZpbGUubWFlPic=

> <r_lp_tautomer_probability>
1

> <r_epik_Ionization_Penalty>
0.00515943

> <r_epik_Ionization_Penalty_Charging>
0.00509693

> <r_epik_Ionization_Penalty_Neutral>
6.25007e-05

> <r_epik_State_Penalty>
-0

> <r_epik_Charging_Adjusted_Penalty>
0.00509693

> <i_epik_Tot_Q>
1

> <i_epik_Tot_abs_Q>
1

> <r_epik_Metal_State_Penalty>
-0

> <b_epik_Metal_Only>
0

> <s_lp_Force_Field>
OPLS_2005

> <r_lp_Energy>
51.6894

> <b_lp_Chiralities_Consistent>
1

> <s_lp_Variant>
AV-unprocessed.smi:79-5

> <Gold.Version>
5.8.1

> <Gold.Id.Protein>
6NUR|6NUR_protein|mol2

> <Gold.PLP.Fitness>
48.0222

> <Gold.PLP.PLP>
-35.4131

> <Gold.PLP.part.hbond>
-5.3525

> <Gold.PLP.part.metal>
0.0000

> <Gold.PLP.part.buried>
-5.2579

> <Gold.PLP.part.nonpolar>
-25.1099

> <Gold.PLP.part.repulsive>
0.1449

> <Gold.PLP.ligand.clash>
0.0000

> <Gold.PLP.ligand.torsion>
1.5647

> <Gold.PLP.Chemscore.Hbond>
4.8960

> <Gold.PLP.Chemscore.CHOScore>
0.0000

> <Gold.PLP.Chemscore.Metal>
0.0000

> <Gold.Chemscore.Hbonds>
donor molecule, donor type, donor heavy atom, donor atom, acceptor molecule, acceptor atom, score
      L1  H     3    32       P1 10186  0.93
      L1  H     5    56       P1  7948  2.00
      P1  H  6896  6907       L1    12  1.00
      P1  H  6931  6943       L1    23  0.93

> <Gold.PLP.Chemscore.Internal.Correction>
1.0505

> <Gold.Rescore>
     Score         DG    S(hbond)    S(metal)    S(lipo)     H(rot)  DE(clash)    DE(int)     intcor
     13.76     -15.71       3.23        0.00      76.65       3.72       0.29       1.67       ----

> <Gold.Chemscore.Fitness>
13.7624

> <Gold.Chemscore.DG>
-15.7147

> <Gold.Chemscore.ZeroCoef>
-5.4800

> <Gold.Chemscore.Hbond>
3.2324

> <Gold.Chemscore.Metal>
0.0000

> <Gold.Chemscore.Lipo>
76.6520

> <Gold.Chemscore.Internal_Hbond>
0.0000

> <Gold.Chemscore.DEClash>
0.2851

> <Gold.Chemscore.DEInternal>
1.6672

> <Gold.Chemscore.Rot>
3.7226

> <Gold.Chemscore.Internal.Correction>
   9.000000E+99

> <Gold.Chemscore.Hbonds>
donor molecule, donor type, donor heavy atom, donor atom, acceptor molecule, acceptor atom, score
      L1  H     3    32       P1 10186  0.55
      L1  H     5    56       P1  7948  0.47
      P1  H  6896  6907       L1    12  0.93
      P1  H  6931  6943       L1    23  0.49

> <Gold.Chemscore.Hbond.Weighted>
-10.7962

> <Gold.Chemscore.Metal.Weighted>
-0.0000

> <Gold.Chemscore.Lipo.Weighted>
-8.9683

> <Gold.Chemscore.Internal_Hbond.Weighted>
0.0000

> <Gold.Chemscore.DEClash.Weighted>
0.2851

> <Gold.Chemscore.DEInternal.Weighted>
1.6672

> <Gold.Chemscore.Rot.Weighted>
9.5298

> <Gold.Chemscore.Internal.Correction.Weighted>
   9.000000E+99

> <Gold.Protein.RotatedTorsions>
[ 6907 6896 6895 6894 ] final -105.62 input  -60.11 | X-H torsion
[ 7974 7965 7964 7962 ] final   18.56 input  175.53 | X-H torsion
[ 8008 7997 7996 7995 ] final -168.17 input   59.86 | X-H torsion
[ 10167 10162 10161 10158 ] final  -17.22 input  -65.29 | X-H torsion
[ 10718 10713 10712 10709 ] final -155.52 input   66.30 | X-H torsion
[ 10763 10752 10751 10750 ] final -151.24 input  -60.55 | X-H torsion
[ 11005 11000 10999 10996 ] final -110.16 input  -57.11 | X-H torsion

> <Gold.Protein.ActiveResidues>
 VAL166  LYS551  ARG553  GLY616  TRP617  ASP618  TYR619  PRO620  LYS621  CYS622 
 ASP623  PHE694  ASN695  SER759  ASP760  ASP761  ALA762  ILE779  LEU786  VAL792 
 PHE793  MET794  SER795  GLU796  ALA797  LYS798  CYS799  TRP800  GLU811  SER814 

> <Gold.Protein.RotatedAtoms>
  150.7346  134.0099  159.3665 H   0  0  0  0  0  0  0  0  0  0  0  0  # atno 6907 bound_to 6896
  151.8058  135.0693  160.0416 H   0  0  0  0  0  0  0  0  0  0  0  0  # atno 6908 bound_to 6896
  152.3108  133.5714  159.5716 H   0  0  0  0  0  0  0  0  0  0  0  0  # atno 6909 bound_to 6896
  146.2180  139.8440  142.8635 H   0  0  0  0  0  0  0  0  0  0  0  0  # atno 7974 bound_to 7965
  155.8878  140.1019  157.1440 H   0  0  0  0  0  0  0  0  0  0  0  0  # atno 8008 bound_to 7997
  154.4011  140.1316  156.4341 H   0  0  0  0  0  0  0  0  0  0  0  0  # atno 8009 bound_to 7997
  155.7569  140.3464  155.5180 H   0  0  0  0  0  0  0  0  0  0  0  0  # atno 8010 bound_to 7997
  140.7244  143.5038  150.9836 H   0  0  0  0  0  0  0  0  0  0  0  0  # atno 10167 bound_to 10162
  156.5140  130.8448  151.2657 H   0  0  0  0  0  0  0  0  0  0  0  0  # atno 10718 bound_to 10713
  154.8070  135.3265  154.7406 H   0  0  0  0  0  0  0  0  0  0  0  0  # atno 10763 bound_to 10752
  153.8062  135.6899  153.4852 H   0  0  0  0  0  0  0  0  0  0  0  0  # atno 10764 bound_to 10752
  153.1822  135.4582  154.9987 H   0  0  0  0  0  0  0  0  0  0  0  0  # atno 10765 bound_to 10752
  141.0807  133.9224  157.2294 H   0  0  0  0  0  0  0  0  0  0  0  0  # atno 11005 bound_to 11000
  145.2870  141.0156  143.3685 LP  0  0  0  0  0  0  0  0  0  0  0  0  # atno 17320 bound_to 7965
  144.9106  139.4533  143.6589 LP  0  0  0  0  0  0  0  0  0  0  0  0  # atno 17321 bound_to 7965
  139.8748  143.7146  152.3163 LP  0  0  0  0  0  0  0  0  0  0  0  0  # atno 17342 bound_to 10162
  139.7408  144.7560  151.0656 LP  0  0  0  0  0  0  0  0  0  0  0  0  # atno 17343 bound_to 10162
  157.7446  130.9940  150.2692 LP  0  0  0  0  0  0  0  0  0  0  0  0  # atno 17370 bound_to 10713
  156.3213  130.3786  149.7573 LP  0  0  0  0  0  0  0  0  0  0  0  0  # atno 17371 bound_to 10713
  139.9621  135.0151  156.9289 LP  0  0  0  0  0  0  0  0  0  0  0  0  # atno 17394 bound_to 11000
  140.5474  134.0660  155.7359 LP  0  0  0  0  0  0  0  0  0  0  0  0  # atno 17395 bound_to 11000

$$$$
