AV-unprocessed.smi:203|AV-procd|sdf|1592|dock10
  -GOLD-   2262019493D 1   1.00000     0.00000
 Structure written by MMmdl.
 57 61  0  0  0  0  0  0  0  0  1 V2000
  155.3759  141.7342  163.3955 O   0  0  0  0  0  0  0  0  0  0  0  0
  154.8120  141.6661  162.3059 C   0  0  0  0  0  0  0  0  0  0  0  0
  153.4474  142.2759  162.0284 C   0  0  0  0  0  0  0  0  0  0  0  0
  153.0772  141.6637  160.6649 C   0  0  1  0  0  0  0  0  0  0  0  0
  152.1799  142.5326  159.7290 C   0  0  1  0  0  0  0  0  0  0  0  0
  152.6312  144.0159  159.6551 C   0  0  0  0  0  0  0  0  0  0  0  0
  151.7298  144.8398  158.7260 C   0  0  0  0  0  0  0  0  0  0  0  0
  151.6883  144.1977  157.3360 C   0  0  0  0  0  0  0  0  0  0  0  0
  151.2272  142.7389  157.4404 C   0  0  0  0  0  0  0  0  0  0  0  0
  152.0669  141.9790  158.3664 N   0  0  0  0  0  0  0  0  0  0  0  0
  151.7861  140.6602  158.2620 C   0  0  0  0  0  0  0  0  0  0  0  0
  152.8303  139.8211  158.0540 N   0  0  0  0  0  0  0  0  0  0  0  0
  152.6175  138.5065  157.9414 C   0  0  0  0  0  0  0  0  0  0  0  0
  151.4630  137.8390  157.9992 N   0  0  0  0  0  0  0  0  0  0  0  0
  150.4107  138.6840  158.1983 C   0  0  0  0  0  0  0  0  0  0  0  0
  150.4803  140.0982  158.3372 C   0  0  0  0  0  0  0  0  0  0  0  0
  149.2050  140.6209  158.5165 N   0  0  0  0  0  0  0  0  0  0  0  0
  148.4248  139.5753  158.4803 C   0  0  0  0  0  0  0  0  0  0  0  0
  149.0655  138.3728  158.2876 N   0  0  0  0  0  0  0  0  0  0  0  0
  148.4426  137.0661  158.1861 C   0  0  0  0  0  0  0  0  0  0  0  0
  148.8160  136.1306  159.3554 C   0  0  2  0  0  0  0  0  0  0  0  0
  148.9674  134.8309  158.8204 O   0  0  0  0  0  0  0  0  0  0  0  0
  147.7740  136.0916  160.4956 C   0  0  1  0  0  0  0  0  0  0  0  0
  147.9097  134.9029  161.4484 C   0  0  0  0  0  0  0  0  0  0  0  0
  147.2129  135.3823  162.7117 C   0  0  0  0  0  0  0  0  0  0  0  0
  147.1905  136.9057  162.5635 C   0  0  0  0  0  0  0  0  0  0  0  0
  147.9549  137.1741  161.3970 O   0  0  0  0  0  0  0  0  0  0  0  0
  154.4132  141.1744  160.0700 C   0  0  0  0  0  0  0  0  0  0  0  0
  155.2911  141.0632  161.2181 N   0  0  0  0  0  0  0  0  0  0  0  0
  152.7271  142.0159  162.8047 H   0  0  0  0  0  0  0  0  0  0  0  0
  153.5528  143.3584  162.0078 H   0  0  0  0  0  0  0  0  0  0  0  0
  152.5151  140.7662  160.9272 H   0  0  0  0  0  0  0  0  0  0  0  0
  151.1768  142.5340  160.1566 H   0  0  0  0  0  0  0  0  0  0  0  0
  152.6201  144.4802  160.6394 H   0  0  0  0  0  0  0  0  0  0  0  0
  153.6563  144.0877  159.2936 H   0  0  0  0  0  0  0  0  0  0  0  0
  150.7224  144.8944  159.1404 H   0  0  0  0  0  0  0  0  0  0  0  0
  152.0969  145.8644  158.6566 H   0  0  0  0  0  0  0  0  0  0  0  0
  151.0183  144.7567  156.6825 H   0  0  0  0  0  0  0  0  0  0  0  0
  152.6780  144.2394  156.8790 H   0  0  0  0  0  0  0  0  0  0  0  0
  150.1914  142.7042  157.7816 H   0  0  0  0  0  0  0  0  0  0  0  0
  151.2501  142.2800  156.4504 H   0  0  0  0  0  0  0  0  0  0  0  0
  153.4986  137.9030  157.7808 H   0  0  0  0  0  0  0  0  0  0  0  0
  147.3524  139.6534  158.5846 H   0  0  0  0  0  0  0  0  0  0  0  0
  147.3610  137.1998  158.1370 H   0  0  0  0  0  0  0  0  0  0  0  0
  148.7432  136.6220  157.2362 H   0  0  0  0  0  0  0  0  0  0  0  0
  149.7820  136.4298  159.7643 H   0  0  0  0  0  0  0  0  0  0  0  0
  148.3028  134.6980  158.1620 H   0  0  0  0  0  0  0  0  0  0  0  0
  146.7616  136.1262  160.0883 H   0  0  0  0  0  0  0  0  0  0  0  0
  147.4754  133.9865  161.0479 H   0  0  0  0  0  0  0  0  0  0  0  0
  148.9627  134.7120  161.6612 H   0  0  0  0  0  0  0  0  0  0  0  0
  146.1962  134.9925  162.7722 H   0  0  0  0  0  0  0  0  0  0  0  0
  147.7504  135.0644  163.6056 H   0  0  0  0  0  0  0  0  0  0  0  0
  146.1707  137.2645  162.4168 H   0  0  0  0  0  0  0  0  0  0  0  0
  147.6120  137.4178  163.4287 H   0  0  0  0  0  0  0  0  0  0  0  0
  154.3063  140.2147  159.5632 H   0  0  0  0  0  0  0  0  0  0  0  0
  154.8497  141.8809  159.3659 H   0  0  0  0  0  0  0  0  0  0  0  0
  156.1845  140.5942  161.1770 H   0  0  0  0  0  0  0  0  0  0  0  0
  1  2  2  0  0  0  0
  2 29  1  0  0  0  0
  2  3  1  0  0  0  0
  3  4  1  0  0  0  0
  3 30  1  0  0  0  0
  3 31  1  0  0  0  0
  4  5  1  0  0  0  0
  4 28  1  0  0  0  0
  4 32  1  0  0  0  0
  5 10  1  0  0  0  0
  5  6  1  0  0  0  0
  5 33  1  0  0  0  0
  6  7  1  0  0  0  0
  6 34  1  0  0  0  0
  6 35  1  0  0  0  0
  7  8  1  0  0  0  0
  7 36  1  0  0  0  0
  7 37  1  0  0  0  0
  8  9  1  0  0  0  0
  8 38  1  0  0  0  0
  8 39  1  0  0  0  0
  9 10  1  0  0  0  0
  9 40  1  0  0  0  0
  9 41  1  0  0  0  0
 10 11  1  0  0  0  0
 11 16  1  0  0  0  0
 11 12  2  0  0  0  0
 12 13  1  0  0  0  0
 13 14  2  0  0  0  0
 13 42  1  0  0  0  0
 14 15  1  0  0  0  0
 15 19  1  0  0  0  0
 15 16  2  0  0  0  0
 16 17  1  0  0  0  0
 17 18  2  0  0  0  0
 18 19  1  0  0  0  0
 18 43  1  0  0  0  0
 19 20  1  0  0  0  0
 20 21  1  0  0  0  0
 20 44  1  0  0  0  0
 20 45  1  0  0  0  0
 21 22  1  0  0  0  0
 21 23  1  0  0  0  0
 21 46  1  0  0  0  0
 22 47  1  0  0  0  0
 23 27  1  0  0  0  0
 23 24  1  0  0  0  0
 23 48  1  0  0  0  0
 24 25  1  0  0  0  0
 24 49  1  0  0  0  0
 24 50  1  0  0  0  0
 25 26  1  0  0  0  0
 25 51  1  0  0  0  0
 25 52  1  0  0  0  0
 26 27  1  0  0  0  0
 26 53  1  0  0  0  0
 26 54  1  0  0  0  0
 28 29  1  0  0  0  0
 28 55  1  0  0  0  0
 28 56  1  0  0  0  0
 29 57  1  0  0  0  0
M  END
> <s_m_source_file>
AV-unprocessed.smi

> <i_m_source_file_index>
203

> <i_lp_mmshare_version>
43012

> <i_f3d_flags>
0

> <s_epik_input>
Tz1DMVtDSDJdW0NASF0oW0NIMl1bTkhdMSlbQ0BASF0yW0NIMl1bQ0gyXVtDSDJdW0NIMl1OMmMobltjSF1uMyljKGMzNCluW2NIXW40W0NIMl1bQ0BIXShbT0hdKVtDQEBIXTVbQ0gyXVtDSDJdW0NIMl1PNQ==

> <s_epik_cmdline>
J2VwaWtfcHl0aG9uJywgJy1waCcsICc3LjAnLCAnLXRuJywgJzgnLCAnLW1hJywgJzIwMCcsICctbWV0YWxfYmluZGluZycsICctaW1hZScsICc8aW5maWxlLm1hZT4nLCAnLW9tYWUnLCAnPG91dGZpbGUubWFlPic=

> <r_lp_tautomer_probability>
1

> <r_epik_Ionization_Penalty>
0.00175146

> <r_epik_Ionization_Penalty_Charging>
0

> <r_epik_Ionization_Penalty_Neutral>
0.00175146

> <r_epik_State_Penalty>
0.00109045

> <r_epik_Charging_Adjusted_Penalty>
0.00109045

> <i_epik_Tot_Q>
0

> <i_epik_Tot_abs_Q>
0

> <r_epik_Metal_State_Penalty>
-0

> <b_epik_Metal_Only>
0

> <s_lp_Force_Field>
OPLS_2005

> <r_lp_Energy>
55.4973

> <b_lp_Chiralities_Consistent>
1

> <s_lp_Variant>
AV-unprocessed.smi:203-11

> <Gold.Version>
5.8.1

> <Gold.Id.Protein>
6NUR|6NUR_protein|mol2

> <Gold.PLP.Fitness>
61.0002

> <Gold.PLP.PLP>
-53.3475

> <Gold.PLP.part.hbond>
-6.1529

> <Gold.PLP.part.metal>
0.0000

> <Gold.PLP.part.buried>
-2.4362

> <Gold.PLP.part.nonpolar>
-44.4334

> <Gold.PLP.part.repulsive>
0.0027

> <Gold.PLP.ligand.clash>
0.0000

> <Gold.PLP.ligand.torsion>
1.5475

> <Gold.PLP.Chemscore.Hbond>
3.4809

> <Gold.PLP.Chemscore.CHOScore>
0.0000

> <Gold.PLP.Chemscore.Metal>
0.0000

> <Gold.Chemscore.Hbonds>
donor molecule, donor type, donor heavy atom, donor atom, acceptor molecule, acceptor atom, score
      P1  H  6896  6907       L1    22  0.91
      P1  H  6931  6943       L1    27  1.00
      P1  H  6934  6947       L1    27  0.63
      P1  H  7997  8010       L1    12  0.98

> <Gold.PLP.Chemscore.Internal.Correction>
0.3051

> <Gold.Rescore>
     Score         DG    S(hbond)    S(metal)    S(lipo)     H(rot)  DE(clash)    DE(int)     intcor
     12.16     -14.93       0.71        0.00     119.88       2.72       0.18       2.59       ----

> <Gold.Chemscore.Fitness>
12.1607

> <Gold.Chemscore.DG>
-14.9285

> <Gold.Chemscore.ZeroCoef>
-5.4800

> <Gold.Chemscore.Hbond>
0.7120

> <Gold.Chemscore.Metal>
0.0000

> <Gold.Chemscore.Lipo>
119.8813

> <Gold.Chemscore.Internal_Hbond>
0.0000

> <Gold.Chemscore.DEClash>
0.1819

> <Gold.Chemscore.DEInternal>
2.5859

> <Gold.Chemscore.Rot>
2.7171

> <Gold.Chemscore.Internal.Correction>
   9.000000E+99

> <Gold.Chemscore.Hbonds>
donor molecule, donor type, donor heavy atom, donor atom, acceptor molecule, acceptor atom, score
      P1  H  6896  6907       L1    22  0.70
      P1  H  6931  6943       L1    27  0.38
      P1  H  6934  6947       L1    27  0.13
      P1  H  7997  8010       L1    12  0.31

> <Gold.Chemscore.Hbond.Weighted>
-2.3781

> <Gold.Chemscore.Metal.Weighted>
-0.0000

> <Gold.Chemscore.Lipo.Weighted>
-14.0261

> <Gold.Chemscore.Internal_Hbond.Weighted>
0.0000

> <Gold.Chemscore.DEClash.Weighted>
0.1819

> <Gold.Chemscore.DEInternal.Weighted>
2.5859

> <Gold.Chemscore.Rot.Weighted>
6.9557

> <Gold.Chemscore.Internal.Correction.Weighted>
   9.000000E+99

> <Gold.Protein.RotatedTorsions>
[ 6907 6896 6895 6894 ] final -105.25 input  -60.11 | X-H torsion
[ 7974 7965 7964 7962 ] final -158.82 input  175.53 | X-H torsion
[ 8008 7997 7996 7995 ] final   36.66 input   59.86 | X-H torsion
[ 10167 10162 10161 10158 ] final -148.73 input  -65.29 | X-H torsion
[ 10718 10713 10712 10709 ] final  106.83 input   66.30 | X-H torsion
[ 10763 10752 10751 10750 ] final  165.13 input  -60.55 | X-H torsion
[ 11005 11000 10999 10996 ] final  -80.87 input  -57.11 | X-H torsion

> <Gold.Protein.ActiveResidues>
 VAL166  LYS551  ARG553  GLY616  TRP617  ASP618  TYR619  PRO620  LYS621  CYS622 
 ASP623  PHE694  ASN695  SER759  ASP760  ASP761  ALA762  ILE779  LEU786  VAL792 
 PHE793  MET794  SER795  GLU796  ALA797  LYS798  CYS799  TRP800  GLU811  SER814 

> <Gold.Protein.RotatedAtoms>
  150.7327  134.0155  159.3683 H   0  0  0  0  0  0  0  0  0  0  0  0  # atno 6907 bound_to 6896
  151.8117  135.0677  160.0423 H   0  0  0  0  0  0  0  0  0  0  0  0  # atno 6908 bound_to 6896
  152.3068  133.5675  159.5691 H   0  0  0  0  0  0  0  0  0  0  0  0  # atno 6909 bound_to 6896
  144.7490  140.3772  143.6063 H   0  0  0  0  0  0  0  0  0  0  0  0  # atno 7974 bound_to 7965
  155.1911  140.3308  155.4358 H   0  0  0  0  0  0  0  0  0  0  0  0  # atno 8008 bound_to 7997
  156.2442  140.1910  156.6954 H   0  0  0  0  0  0  0  0  0  0  0  0  # atno 8009 bound_to 7997
  154.6205  140.0596  156.9595 H   0  0  0  0  0  0  0  0  0  0  0  0  # atno 8010 bound_to 7997
  139.7506  143.8524  152.2585 H   0  0  0  0  0  0  0  0  0  0  0  0  # atno 10167 bound_to 10162
  157.6653  131.0859  150.6065 H   0  0  0  0  0  0  0  0  0  0  0  0  # atno 10718 bound_to 10713
  154.3193  135.2756  155.2527 H   0  0  0  0  0  0  0  0  0  0  0  0  # atno 10763 bound_to 10752
  154.4888  135.5839  153.6447 H   0  0  0  0  0  0  0  0  0  0  0  0  # atno 10764 bound_to 10752
  152.9878  135.6129  154.3377 H   0  0  0  0  0  0  0  0  0  0  0  0  # atno 10765 bound_to 10752
  141.1667  133.7170  156.8337 H   0  0  0  0  0  0  0  0  0  0  0  0  # atno 11005 bound_to 11000
  145.7015  139.1662  143.2590 LP  0  0  0  0  0  0  0  0  0  0  0  0  # atno 17320 bound_to 7965
  146.1412  140.7055  142.9366 LP  0  0  0  0  0  0  0  0  0  0  0  0  # atno 17321 bound_to 7965
  139.8501  144.7168  150.9224 LP  0  0  0  0  0  0  0  0  0  0  0  0  # atno 17342 bound_to 10162
  140.7797  143.3906  151.1316 LP  0  0  0  0  0  0  0  0  0  0  0  0  # atno 17343 bound_to 10162
  156.6366  130.4446  149.5767 LP  0  0  0  0  0  0  0  0  0  0  0  0  # atno 17370 bound_to 10713
  156.2241  130.6755  151.1398 LP  0  0  0  0  0  0  0  0  0  0  0  0  # atno 17371 bound_to 10713
  140.2032  134.8881  157.3193 LP  0  0  0  0  0  0  0  0  0  0  0  0  # atno 17394 bound_to 11000
  140.2165  134.4075  155.7587 LP  0  0  0  0  0  0  0  0  0  0  0  0  # atno 17395 bound_to 11000

$$$$
