AV-unprocessed.smi:2099|AV-procd|sdf|8569|dock1
  -GOLD-   2272011303D 1   1.00000     0.00000
 Structure written by MMmdl.
 32 33  0  0  0  0  0  0  0  0  1 V2000
  143.5038  132.1947  150.2310 C   0  0  0  0  0  0  0  0  0  0  0  0
  144.5759  133.2297  150.6012 C   0  0  2  0  0  0  0  0  0  0  0  0
  144.9199  133.1749  152.1022 C   0  0  0  0  0  0  0  0  0  0  0  0
  145.9897  134.2137  152.4772 C   0  0  0  0  0  0  0  0  0  0  0  0
  145.5578  135.6362  152.0774 C   0  0  1  0  0  0  0  0  0  0  0  0
  146.6216  136.5833  152.4003 N   0  0  0  0  0  0  0  0  0  0  0  0
  146.4565  137.7320  153.0729 C   0  0  0  0  0  0  0  0  0  0  0  0
  145.3672  138.1200  153.4966 O   0  0  0  0  0  0  0  0  0  0  0  0
  147.6231  138.3859  153.2140 N   0  0  0  0  0  0  0  0  0  0  0  0
  147.8626  139.6313  153.8533 C   0  0  0  0  0  0  0  0  0  0  0  0
  148.6719  139.7806  154.9138 N   0  0  0  0  0  0  0  0  0  0  0  0
  148.7272  141.1002  155.3439 N   0  0  0  0  0  0  0  0  0  0  0  0
  147.9586  141.8933  154.5922 C   0  0  0  0  0  0  0  0  0  0  0  0
  147.0932  141.1059  153.2839 S   0  0  0  0  0  0  0  0  0  0  0  0
  145.2122  135.6957  150.5757 C   0  0  0  0  0  0  0  0  0  0  0  0
  144.1448  134.6541  150.2025 C   0  0  0  0  0  0  0  0  0  0  0  0
  142.5706  132.3820  150.7633 H   0  0  0  0  0  0  0  0  0  0  0  0
  143.8314  131.1844  150.4779 H   0  0  0  0  0  0  0  0  0  0  0  0
  143.2877  132.2182  149.1625 H   0  0  0  0  0  0  0  0  0  0  0  0
  145.4781  132.9821  150.0398 H   0  0  0  0  0  0  0  0  0  0  0  0
  144.0202  133.3522  152.6932 H   0  0  0  0  0  0  0  0  0  0  0  0
  145.2714  132.1775  152.3686 H   0  0  0  0  0  0  0  0  0  0  0  0
  146.1822  134.1691  153.5498 H   0  0  0  0  0  0  0  0  0  0  0  0
  146.9287  133.9587  151.9838 H   0  0  0  0  0  0  0  0  0  0  0  0
  144.6675  135.8927  152.6549 H   0  0  0  0  0  0  0  0  0  0  0  0
  147.5511  136.3452  152.0862 H   0  0  0  0  0  0  0  0  0  0  0  0
  148.4364  137.9421  152.8141 H   0  0  0  0  0  0  0  0  0  0  0  0
  147.9014  142.9495  154.8097 H   0  0  0  0  0  0  0  0  0  0  0  0
  144.8563  136.6916  150.3093 H   0  0  0  0  0  0  0  0  0  0  0  0
  146.1109  135.5208  149.9824 H   0  0  0  0  0  0  0  0  0  0  0  0
  143.9522  134.6991  149.1300 H   0  0  0  0  0  0  0  0  0  0  0  0
  143.2044  134.9065  150.6945 H   0  0  0  0  0  0  0  0  0  0  0  0
  1  2  1  0  0  0  0
  1 17  1  0  0  0  0
  1 18  1  0  0  0  0
  1 19  1  0  0  0  0
  2 16  1  0  0  0  0
  2  3  1  0  0  0  0
  2 20  1  0  0  0  0
  3  4  1  0  0  0  0
  3 21  1  0  0  0  0
  3 22  1  0  0  0  0
  4  5  1  0  0  0  0
  4 23  1  0  0  0  0
  4 24  1  0  0  0  0
  5  6  1  0  0  0  0
  5 15  1  0  0  0  0
  5 25  1  0  0  0  0
  6  7  1  0  0  0  0
  6 26  1  0  0  0  0
  7  8  2  0  0  0  0
  7  9  1  0  0  0  0
  9 10  1  0  0  0  0
  9 27  1  0  0  0  0
 10 14  1  0  0  0  0
 10 11  2  0  0  0  0
 11 12  1  0  0  0  0
 12 13  2  0  0  0  0
 13 14  1  0  0  0  0
 13 28  1  0  0  0  0
 15 16  1  0  0  0  0
 15 29  1  0  0  0  0
 15 30  1  0  0  0  0
 16 31  1  0  0  0  0
 16 32  1  0  0  0  0
M  END
> <s_m_source_file>
AV-unprocessed.smi

> <i_m_source_file_index>
2099

> <i_lp_mmshare_version>
43012

> <i_f3d_flags>
0

> <s_epik_input>
W0NIM11bQ0BASF0xW0NIMl1bQ0gyXVtDQEhdKFtDSDJdW0NIMl0xKVtOSF1DKD1PKVtOSF1jMm5uW2NIXXMy

> <s_epik_cmdline>
J2VwaWtfcHl0aG9uJywgJy1waCcsICc3LjAnLCAnLXRuJywgJzgnLCAnLW1hJywgJzIwMCcsICctbWV0YWxfYmluZGluZycsICctaW1hZScsICc8aW5maWxlLm1hZT4nLCAnLW9tYWUnLCAnPG91dGZpbGUubWFlPic=

> <r_lp_tautomer_probability>
1

> <r_epik_Ionization_Penalty>
0.000322846

> <r_epik_Ionization_Penalty_Charging>
0

> <r_epik_Ionization_Penalty_Neutral>
0.000322846

> <r_epik_State_Penalty>
-0

> <r_epik_Charging_Adjusted_Penalty>
0

> <i_epik_Tot_Q>
0

> <i_epik_Tot_abs_Q>
0

> <r_epik_Metal_State_Penalty>
0.17121

> <b_epik_Metal_Only>
0

> <s_lp_Force_Field>
OPLS_2005

> <r_lp_Energy>
7.94157

> <b_lp_Chiralities_Consistent>
1

> <s_lp_Variant>
AV-unprocessed.smi:2099-1

> <Gold.Version>
5.8.1

> <Gold.Id.Protein>
6NUR|6NUR_protein|mol2

> <Gold.PLP.Fitness>
30.2343

> <Gold.PLP.PLP>
-24.0892

> <Gold.PLP.part.hbond>
-1.7104

> <Gold.PLP.part.metal>
0.0000

> <Gold.PLP.part.buried>
-1.3885

> <Gold.PLP.part.nonpolar>
-22.0596

> <Gold.PLP.part.repulsive>
0.7052

> <Gold.PLP.ligand.clash>
0.0000

> <Gold.PLP.ligand.torsion>
0.7017

> <Gold.PLP.Chemscore.Hbond>
1.5148

> <Gold.PLP.Chemscore.CHOScore>
1.0000

> <Gold.PLP.Chemscore.Metal>
0.0000

> <Gold.Chemscore.Hbonds>
donor molecule, donor type, donor heavy atom, donor atom, acceptor molecule, acceptor atom, score
      L1  H     6    26       P1  7948  0.70
      L1  H     9    27       P1  7948  0.82
      L1  C    13    28       P1  8028  1.00

> <Gold.PLP.Chemscore.Internal.Correction>
0.0043

> <Gold.Rescore>
     Score         DG    S(hbond)    S(metal)    S(lipo)     H(rot)  DE(clash)    DE(int)     intcor
     15.10     -16.08       1.85        0.00      59.62       1.00       0.34       0.64       ----

> <Gold.Chemscore.Fitness>
15.1005

> <Gold.Chemscore.DG>
-16.0789

> <Gold.Chemscore.ZeroCoef>
-5.4800

> <Gold.Chemscore.Hbond>
1.8513

> <Gold.Chemscore.Metal>
0.0000

> <Gold.Chemscore.Lipo>
59.6198

> <Gold.Chemscore.Internal_Hbond>
0.0000

> <Gold.Chemscore.DEClash>
0.3398

> <Gold.Chemscore.DEInternal>
0.6387

> <Gold.Chemscore.Rot>
1.0000

> <Gold.Chemscore.Internal.Correction>
   9.000000E+99

> <Gold.Chemscore.Hbonds>
donor molecule, donor type, donor heavy atom, donor atom, acceptor molecule, acceptor atom, score
      L1  H     6    26       P1  7948  0.69
      L1  H     9    27       P1  7948  0.78

> <Gold.Chemscore.Hbond.Weighted>
-6.1834

> <Gold.Chemscore.Metal.Weighted>
-0.0000

> <Gold.Chemscore.Lipo.Weighted>
-6.9755

> <Gold.Chemscore.Internal_Hbond.Weighted>
0.0000

> <Gold.Chemscore.DEClash.Weighted>
0.3398

> <Gold.Chemscore.DEInternal.Weighted>
0.6387

> <Gold.Chemscore.Rot.Weighted>
2.5600

> <Gold.Chemscore.Internal.Correction.Weighted>
   9.000000E+99

> <Gold.Protein.RotatedTorsions>
[ 6907 6896 6895 6894 ] final  -25.31 input  -60.11 | X-H torsion
[ 7974 7965 7964 7962 ] final   78.19 input  175.53 | X-H torsion
[ 8008 7997 7996 7995 ] final  -76.93 input   59.86 | X-H torsion
[ 10167 10162 10161 10158 ] final   86.34 input  -65.29 | X-H torsion
[ 10718 10713 10712 10709 ] final -171.87 input   66.30 | X-H torsion
[ 10763 10752 10751 10750 ] final  -57.34 input  -60.55 | X-H torsion
[ 11005 11000 10999 10996 ] final  -98.24 input  -57.11 | X-H torsion

> <Gold.Protein.ActiveResidues>
 VAL166  LYS551  ARG553  GLY616  TRP617  ASP618  TYR619  PRO620  LYS621  CYS622 
 ASP623  PHE694  ASN695  SER759  ASP760  ASP761  ALA762  ILE779  LEU786  VAL792 
 PHE793  MET794  SER795  GLU796  ALA797  LYS798  CYS799  TRP800  GLU811  SER814 

> <Gold.Protein.RotatedAtoms>
  151.1770  135.0344  159.8775 H   0  0  0  0  0  0  0  0  0  0  0  0  # atno 6907 bound_to 6896
  152.5446  134.1106  159.8367 H   0  0  0  0  0  0  0  0  0  0  0  0  # atno 6908 bound_to 6896
  151.1218  133.5052  159.2634 H   0  0  0  0  0  0  0  0  0  0  0  0  # atno 6909 bound_to 6896
  145.6804  139.2522  143.1817 H   0  0  0  0  0  0  0  0  0  0  0  0  # atno 7974 bound_to 7965
  154.5550  140.0719  156.8729 H   0  0  0  0  0  0  0  0  0  0  0  0  # atno 8008 bound_to 7997
  155.2920  140.3378  155.4234 H   0  0  0  0  0  0  0  0  0  0  0  0  # atno 8009 bound_to 7997
  156.1994  140.1716  156.7916 H   0  0  0  0  0  0  0  0  0  0  0  0  # atno 8010 bound_to 7997
  139.8886  144.6399  150.8764 H   0  0  0  0  0  0  0  0  0  0  0  0  # atno 10167 bound_to 10162
  156.7472  130.9364  151.3113 H   0  0  0  0  0  0  0  0  0  0  0  0  # atno 10718 bound_to 10713
  154.2208  135.6378  153.5144 H   0  0  0  0  0  0  0  0  0  0  0  0  # atno 10763 bound_to 10752
  152.9969  135.5496  154.6116 H   0  0  0  0  0  0  0  0  0  0  0  0  # atno 10764 bound_to 10752
  154.5575  135.2906  155.0924 H   0  0  0  0  0  0  0  0  0  0  0  0  # atno 10765 bound_to 10752
  141.1351  133.8231  157.0814 H   0  0  0  0  0  0  0  0  0  0  0  0  # atno 11005 bound_to 11000
  146.0969  140.7590  142.9568 LP  0  0  0  0  0  0  0  0  0  0  0  0  # atno 17320 bound_to 7965
  144.7028  140.3726  143.7142 LP  0  0  0  0  0  0  0  0  0  0  0  0  # atno 17321 bound_to 7965
  140.7731  143.3528  151.1980 LP  0  0  0  0  0  0  0  0  0  0  0  0  # atno 17342 bound_to 10162
  139.7131  143.9345  152.2955 LP  0  0  0  0  0  0  0  0  0  0  0  0  # atno 17343 bound_to 10162
  157.6793  130.9124  150.0227 LP  0  0  0  0  0  0  0  0  0  0  0  0  # atno 17370 bound_to 10713
  156.1425  130.3642  149.9560 LP  0  0  0  0  0  0  0  0  0  0  0  0  # atno 17371 bound_to 10713
  140.0449  134.9835  157.1031 LP  0  0  0  0  0  0  0  0  0  0  0  0  # atno 17394 bound_to 11000
  140.4078  134.2014  155.7163 LP  0  0  0  0  0  0  0  0  0  0  0  0  # atno 17395 bound_to 11000

$$$$
