#       Name:                AV-unprocessed.smi:184
#       Creating user name   scv26
#       Creation time:       Thu Mar 26 19:27:25 2020


#       File generated by GOLD software.
#

@<TRIPOS>MOLECULE
AV-unprocessed.smi:184
    64    68     1
SMALL
NO_CHARGES


@<TRIPOS>ATOM
      1 ****        -4.8981  -2.3092  -2.9748 O.2            1 S1                 0.0000
      2 ****        -4.4180  -1.5858  -2.1052 C.2            1 S1                 0.0000
      3 ****        -3.0673  -0.8910  -2.3586 C.3            1 S1                 0.0000
      4 ****        -2.5913  -0.0397  -1.2577 N.3            1 S1                 0.0000
      5 ****        -1.3008   0.3226  -1.4346 C.ar           1 S1                 0.0000
      6 ****        -1.0690   1.5011  -2.0630 N.ar           1 S1                 0.0000
      7 ****         0.1859   1.9138  -2.2650 C.ar           1 S1                 0.0000
      8 ****         1.3280   1.3101  -1.9286 N.ar           1 S1                 0.0000
      9 ****         1.0964   0.1187  -1.3061 C.ar           1 S1                 0.0000
     10 ****        -0.1774  -0.4500  -1.0257 C.ar           1 S1                 0.0000
     11 ****        -0.0202  -1.6780  -0.3955 N.2            1 S1                 0.0000
     12 ****         1.2730  -1.8224  -0.2992 C.2            1 S1                 0.0000
     13 ****         2.0203  -0.7851  -0.8107 N.pl3          1 S1                 0.0000
     14 ****         3.4722  -0.6853  -0.8308 C.3            1 S1                 0.0000
     15 ****         4.0901  -0.1894   0.5053 C.3            1 S1                 0.0000
     16 ****         3.7772  -1.1468   1.5009 O.3            1 S1                 0.0000
     17 ****         5.6272  -0.0990   0.4253 C.3            1 S1                 0.0000
     18 ****         6.0828   1.1272  -0.3872 C.3            1 S1                 0.0000
     19 ****         5.5246   2.3138   0.1666 O.3            1 S1                 0.0000
     20 ****         4.1016   2.3294   0.1324 C.3            1 S1                 0.0000
     21 ****         3.5451   1.1741   0.9833 C.3            1 S1                 0.0000
     22 ****        -3.0112  -0.4006   0.0997 C.3            1 S1                 0.0000
     23 ****        -2.5505   0.5966   1.1904 C.3            1 S1                 0.0000
     24 ****        -3.0464   0.1620   2.5801 C.3            1 S1                 0.0000
     25 ****        -4.5730  -0.0155   2.6082 C.3            1 S1                 0.0000
     26 ****        -5.0467  -0.9781   1.5072 C.3            1 S1                 0.0000
     27 ****        -4.5508  -0.5139   0.1269 C.3            1 S1                 0.0000
     28 ****        -5.0357  -1.3981  -0.9276 N.am           1 S1                 0.0000
     29 ****        -2.3318  -1.6675  -2.5768 H              1 S1                 0.0000
     30 ****        -3.1611  -0.2819  -3.2588 H              1 S1                 0.0000
     31 ****         0.2900   2.8644  -2.7669 H              1 S1                 0.0000
     32 ****         1.7212  -2.6934   0.1567 H              1 S1                 0.0000
     33 ****         3.8720  -1.6679  -1.0865 H              1 S1                 0.0000
     34 ****         3.7519  -0.0286  -1.6542 H              1 S1                 0.0000
     35 ****         4.1572  -0.8646   2.3190 H              1 S1                 0.0000
     36 ****         6.0428  -0.0135   1.4309 H              1 S1                 0.0000
     37 ****         6.0457  -1.0118  -0.0007 H              1 S1                 0.0000
     38 ****         7.1695   1.2080  -0.3589 H              1 S1                 0.0000
     39 ****         5.8044   1.0362  -1.4376 H              1 S1                 0.0000
     40 ****         3.7525   3.2835   0.5277 H              1 S1                 0.0000
     41 ****         3.7532   2.2705  -0.8989 H              1 S1                 0.0000
     42 ****         2.4552   1.1920   0.9834 H              1 S1                 0.0000
     43 ****         3.8447   1.3430   2.0189 H              1 S1                 0.0000
     44 ****        -2.5937  -1.3821   0.3307 H              1 S1                 0.0000
     45 ****        -1.4635   0.6729   1.2197 H              1 S1                 0.0000
     46 ****        -2.9241   1.5957   0.9616 H              1 S1                 0.0000
     47 ****        -2.5665  -0.7771   2.8584 H              1 S1                 0.0000
     48 ****        -2.7443   0.8959   3.3278 H              1 S1                 0.0000
     49 ****        -4.8867  -0.3839   3.5854 H              1 S1                 0.0000
     50 ****        -5.0542   0.9542   2.4748 H              1 S1                 0.0000
     51 ****        -4.6788  -1.9837   1.7159 H              1 S1                 0.0000
     52 ****        -6.1358  -1.0367   1.5165 H              1 S1                 0.0000
     53 ****        -4.9779   0.4697  -0.0778 H              1 S1                 0.0000
     54 ****        -5.9125  -1.8723  -0.7670 H              1 S1                 0.0000
     55 ****        -5.7685  -2.7745  -2.8138 LP             1 S1                 0.0000
     56 ****        -4.4183  -2.4327  -3.8435 LP             1 S1                 0.0000
     57 ****        -3.1159   0.8086  -1.3286 LP             1 S1                 0.0000
     58 ****        -1.8363   2.0611  -2.3751 LP             1 S1                 0.0000
     59 ****         2.2377   1.6837  -2.1099 LP             1 S1                 0.0000
     60 ****        -0.7339  -2.3067  -0.0867 LP             1 S1                 0.0000
     61 ****         4.1539  -2.0366   1.2433 LP             1 S1                 0.0000
     62 ****         2.7847  -1.2205   1.5978 LP             1 S1                 0.0000
     63 ****         5.8642   3.0979  -0.3528 LP             1 S1                 0.0000
     64 ****         5.8211   2.3909   1.1185 LP             1 S1                 0.0000
@<TRIPOS>BOND
    1    1    2 2     
    2    2   28 am    
    3    2    3 1     
    4    3    4 1     
    5    3   29 1     
    6    3   30 1     
    7    4    5 1     
    8    4   22 1     
    9    5   10 ar    
   10    5    6 ar    
   11    6    7 ar    
   12    7    8 ar    
   13    7   31 1     
   14    8    9 ar    
   15    9   13 1     
   16    9   10 ar    
   17   10   11 1     
   18   11   12 2     
   19   12   13 1     
   20   12   32 1     
   21   13   14 1     
   22   14   15 1     
   23   14   33 1     
   24   14   34 1     
   25   15   21 1     
   26   15   16 1     
   27   15   17 1     
   28   16   35 1     
   29   17   18 1     
   30   17   36 1     
   31   17   37 1     
   32   18   19 1     
   33   18   38 1     
   34   18   39 1     
   35   19   20 1     
   36   20   21 1     
   37   20   40 1     
   38   20   41 1     
   39   21   42 1     
   40   21   43 1     
   41   22   27 1     
   42   22   23 1     
   43   22   44 1     
   44   23   24 1     
   45   23   45 1     
   46   23   46 1     
   47   24   25 1     
   48   24   47 1     
   49   24   48 1     
   50   25   26 1     
   51   25   49 1     
   52   25   50 1     
   53   26   27 1     
   54   26   51 1     
   55   26   52 1     
   56   27   28 1     
   57   27   53 1     
   58   28   54 1     
   59    1   55 1     
   60    1   56 1     
   61    4   57 1     
   62    6   58 1     
   63    8   59 1     
   64   11   60 1     
   65   16   61 1     
   66   16   62 1     
   67   19   63 1     
   68   19   64 1     
@<TRIPOS>SUBSTRUCTURE
      1 S1             1
@<TRIPOS>SET
LONE_PAIRS      STATIC     ATOMS    <user>   **** ""
10 55 56 57 58 59 60 61 62 63 64
DONOR_HYDROGENS      STATIC     ATOMS    <user>   **** ""
2 35 54
ATOM$BLUE        STATIC     ATOMS    COLORGROUP SYSTEM
10 55 56 57 58 59 60 61 62 63 64
ATOM$RED        STATIC     ATOMS    COLORGROUP SYSTEM
2 35 54
