#       Name:                AV-unprocessed.smi:2110
#       Creating user name   scv26
#       Creation time:       Fri Mar 27 11:35:13 2020


#       File generated by GOLD software.
#

@<TRIPOS>MOLECULE
AV-unprocessed.smi:2110
    50    51     1
SMALL
NO_CHARGES


@<TRIPOS>ATOM
      1 ****        -1.7959   3.5551  -0.8338 C.3            1 S1                 0.0000
      2 ****        -1.7137   3.9597   0.6437 C.3            1 S1                 0.0000
      3 ****        -1.9194   2.7943   1.5181 N.pl3          1 S1                 0.0000
      4 ****        -3.1066   2.8192   2.3879 C.3            1 S1                 0.0000
      5 ****        -4.4019   2.6721   1.5772 C.3            1 S1                 0.0000
      6 ****        -0.5813   1.7670   1.9195 S.o2           1 S1                 0.0000
      7 ****         0.4594   1.9080   0.8892 O.2            1 S1                 0.0000
      8 ****        -0.2739   1.9436   3.3466 O.2            1 S1                 0.0000
      9 ****        -1.3429   0.2301   1.7162 N.pl3          1 S1                 0.0000
     10 ****        -1.8588  -0.2065   0.4165 C.3            1 S1                 0.0000
     11 ****        -0.7737  -0.5533  -0.5879 C.ar           1 S1                 0.0000
     12 ****        -0.8854  -0.1221  -1.9257 C.ar           1 S1                 0.0000
     13 ****         0.1354  -0.4501  -2.8366 C.ar           1 S1                 0.0000
     14 ****         1.1999  -1.1695  -2.4223 N.pl3          1 S1                 1.0000
     15 ****         1.3636  -1.6162  -1.1527 C.ar           1 S1                 0.0000
     16 ****         2.5342  -2.3471  -0.8502 N.3            1 S1                 0.0000
     17 ****         2.9714  -3.3269  -1.8438 C.3            1 S1                 0.0000
     18 ****         4.4068  -3.7940  -1.5486 C.3            1 S1                 0.0000
     19 ****         4.4912  -4.2721  -0.2112 O.3            1 S1                 0.0000
     20 ****         4.1959  -3.2491   0.7321 C.3            1 S1                 0.0000
     21 ****         2.7513  -2.7605   0.5335 C.3            1 S1                 0.0000
     22 ****         0.3554  -1.3113  -0.2030 C.ar           1 S1                 0.0000
     23 ****        -1.6576   4.4228  -1.4788 H              1 S1                 0.0000
     24 ****        -2.7665   3.1180  -1.0695 H              1 S1                 0.0000
     25 ****        -1.0293   2.8265  -1.0956 H              1 S1                 0.0000
     26 ****        -0.7421   4.4040   0.8617 H              1 S1                 0.0000
     27 ****        -2.4568   4.7291   0.8561 H              1 S1                 0.0000
     28 ****        -3.0446   2.0052   3.1104 H              1 S1                 0.0000
     29 ****        -3.1145   3.7444   2.9653 H              1 S1                 0.0000
     30 ****        -5.2688   2.6587   2.2379 H              1 S1                 0.0000
     31 ****        -4.4075   1.7429   1.0074 H              1 S1                 0.0000
     32 ****        -4.5371   3.4963   0.8770 H              1 S1                 0.0000
     33 ****        -1.8285  -0.1286   2.5382 H              1 S1                 0.0000
     34 ****        -2.4748  -1.0924   0.5702 H              1 S1                 0.0000
     35 ****        -2.5154   0.5633   0.0117 H              1 S1                 0.0000
     36 ****        -1.7370   0.4577  -2.2509 H              1 S1                 0.0000
     37 ****         0.1354  -0.1576  -3.8766 H              1 S1                 0.0000
     38 ****         2.2900  -4.1780  -1.8207 H              1 S1                 0.0000
     39 ****         2.9387  -2.9175  -2.8532 H              1 S1                 0.0000
     40 ****         4.6872  -4.5969  -2.2305 H              1 S1                 0.0000
     41 ****         5.1200  -2.9827  -1.7033 H              1 S1                 0.0000
     42 ****         4.3222  -3.6467   1.7391 H              1 S1                 0.0000
     43 ****         4.9037  -2.4253   0.6252 H              1 S1                 0.0000
     44 ****         2.5697  -1.9273   1.2128 H              1 S1                 0.0000
     45 ****         2.0473  -3.5542   0.7869 H              1 S1                 0.0000
     46 ****         0.4283  -1.6463   0.8205 H              1 S1                 0.0000
     47 ****         1.9272  -1.3844  -3.1048 H              1 S1                 0.0000
     48 ****         3.1895  -1.5975  -0.9430 LP             1 S1                 0.0000
     49 ****         5.4181  -4.6086  -0.0451 LP             1 S1                 0.0000
     50 ****         3.8387  -5.0206  -0.0927 LP             1 S1                 0.0000
@<TRIPOS>BOND
    1    1    2 1     
    2    1   23 1     
    3    1   24 1     
    4    1   25 1     
    5    2    3 1     
    6    2   26 1     
    7    2   27 1     
    8    3    4 1     
    9    3    6 1     
   10    4    5 1     
   11    4   28 1     
   12    4   29 1     
   13    5   30 1     
   14    5   31 1     
   15    5   32 1     
   16    6    7 2     
   17    6    8 2     
   18    6    9 1     
   19    9   10 1     
   20    9   33 1     
   21   10   11 1     
   22   10   34 1     
   23   10   35 1     
   24   11   22 ar    
   25   11   12 ar    
   26   12   13 ar    
   27   12   36 1     
   28   13   14 ar    
   29   13   37 1     
   30   14   15 ar    
   31   14   47 1     
   32   15   16 1     
   33   15   22 ar    
   34   16   21 1     
   35   16   17 1     
   36   17   18 1     
   37   17   38 1     
   38   17   39 1     
   39   18   19 1     
   40   18   40 1     
   41   18   41 1     
   42   19   20 1     
   43   20   21 1     
   44   20   42 1     
   45   20   43 1     
   46   21   44 1     
   47   21   45 1     
   48   22   46 1     
   49   16   48 1     
   50   19   49 1     
   51   19   50 1     
@<TRIPOS>SUBSTRUCTURE
      1 S1             1
@<TRIPOS>SET
LONE_PAIRS      STATIC     ATOMS    <user>   **** ""
5 7 8 48 49 50
DONOR_HYDROGENS      STATIC     ATOMS    <user>   **** ""
2 33 47
ATOM$BLUE        STATIC     ATOMS    COLORGROUP SYSTEM
5 7 8 48 49 50
ATOM$RED        STATIC     ATOMS    COLORGROUP SYSTEM
2 33 47
