AV-unprocessed.smi:921|AV-procd|sdf|4171|dock6
  -GOLD-   22720 2 83D 1   1.00000     0.00000
 Structure written by MMmdl.
 40 42  0  0  0  0  0  0  0  0  2 V2000
  150.0465  135.9103  154.3845 N   0  0  0  0  0  0  0  0  0  0  0  0
  151.0475  136.5420  155.0029 C   0  0  0  0  0  0  0  0  0  0  0  0
  151.5909  136.0796  156.0047 O   0  0  0  0  0  0  0  0  0  0  0  0
  151.4950  137.8826  154.4116 C   0  0  0  0  0  0  0  0  0  0  0  0
  150.3546  138.8536  154.3472 C   0  0  0  0  0  0  0  0  0  0  0  0
  149.2204  138.6909  153.6083 N   0  3  0  0  0  0  0  0  0  0  0  0
  148.3947  139.8049  153.7543 C   0  0  0  0  0  0  0  0  0  0  0  0
  147.1536  140.0959  153.1966 C   0  0  0  0  0  0  0  0  0  0  0  0
  146.5783  141.3355  153.5444 C   0  0  0  0  0  0  0  0  0  0  0  0
  147.2357  142.2314  154.4116 C   0  0  0  0  0  0  0  0  0  0  0  0
  148.4938  141.9249  154.9696 C   0  0  0  0  0  0  0  0  0  0  0  0
  149.0540  140.6934  154.6280 C   0  0  0  0  0  0  0  0  0  0  0  0
  150.2480  140.0551  154.9899 N   0  0  0  0  0  0  0  0  0  0  0  0
  151.1739  140.7224  155.9249 C   0  0  0  0  0  0  0  0  0  0  0  0
  150.8144  140.5310  157.4182 C   0  0  2  0  0  0  0  0  0  0  0  0
  149.4197  140.6727  157.6078 O   0  0  0  0  0  0  0  0  0  0  0  0
  151.6295  141.4267  158.3456 C   0  0  0  0  0  0  0  0  0  0  0  0
  151.5343  142.8350  158.2593 C   0  0  0  0  0  0  0  0  0  0  0  0
  152.3068  143.6553  159.1035 C   0  0  0  0  0  0  0  0  0  0  0  0
  152.2165  145.0025  159.0048 F   0  0  0  0  0  0  0  0  0  0  0  0
  153.1762  143.0749  160.0459 C   0  0  0  0  0  0  0  0  0  0  0  0
  153.2759  141.6741  160.1393 C   0  0  0  0  0  0  0  0  0  0  0  0
  152.5081  140.8516  159.2917 C   0  0  0  0  0  0  0  0  0  0  0  0
  152.6276  139.5056  159.3852 F   0  0  0  0  0  0  0  0  0  0  0  0
  149.7148  135.0272  154.7460 H   0  0  0  0  0  0  0  0  0  0  0  0
  149.6179  136.3162  153.5653 H   0  0  0  0  0  0  0  0  0  0  0  0
  152.2972  138.3153  155.0109 H   0  0  0  0  0  0  0  0  0  0  0  0
  151.9013  137.7081  153.4166 H   0  0  0  0  0  0  0  0  0  0  0  0
  146.6497  139.4129  152.5285 H   0  0  0  0  0  0  0  0  0  0  0  0
  145.6151  141.6054  153.1360 H   0  0  0  0  0  0  0  0  0  0  0  0
  146.7657  143.1733  154.6544 H   0  0  0  0  0  0  0  0  0  0  0  0
  148.9846  142.6203  155.6336 H   0  0  0  0  0  0  0  0  0  0  0  0
  152.1663  140.3127  155.7338 H   0  0  0  0  0  0  0  0  0  0  0  0
  151.2416  141.7803  155.6706 H   0  0  0  0  0  0  0  0  0  0  0  0
  151.0388  139.4971  157.6825 H   0  0  0  0  0  0  0  0  0  0  0  0
  149.1616  140.1343  158.3407 H   0  0  0  0  0  0  0  0  0  0  0  0
  150.8796  143.2958  157.5343 H   0  0  0  0  0  0  0  0  0  0  0  0
  153.7682  143.7035  160.6947 H   0  0  0  0  0  0  0  0  0  0  0  0
  153.9453  141.2288  160.8604 H   0  0  0  0  0  0  0  0  0  0  0  0
  149.0334  137.8784  153.0349 H   0  0  0  0  0  0  0  0  0  0  0  0
  1  2  1  0  0  0  0
  1 25  1  0  0  0  0
  1 26  1  0  0  0  0
  2  3  2  0  0  0  0
  2  4  1  0  0  0  0
  4  5  1  0  0  0  0
  4 27  1  0  0  0  0
  4 28  1  0  0  0  0
  5 13  1  0  0  0  0
  5  6  2  0  0  0  0
  6  7  1  0  0  0  0
  6 40  1  0  0  0  0
  7 12  2  0  0  0  0
  7  8  1  0  0  0  0
  8  9  2  0  0  0  0
  8 29  1  0  0  0  0
  9 10  1  0  0  0  0
  9 30  1  0  0  0  0
 10 11  2  0  0  0  0
 10 31  1  0  0  0  0
 11 12  1  0  0  0  0
 11 32  1  0  0  0  0
 12 13  1  0  0  0  0
 13 14  1  0  0  0  0
 14 15  1  0  0  0  0
 14 33  1  0  0  0  0
 14 34  1  0  0  0  0
 15 16  1  0  0  0  0
 15 17  1  0  0  0  0
 15 35  1  0  0  0  0
 16 36  1  0  0  0  0
 17 23  1  0  0  0  0
 17 18  2  0  0  0  0
 18 19  1  0  0  0  0
 18 37  1  0  0  0  0
 19 20  1  0  0  0  0
 19 21  2  0  0  0  0
 21 22  1  0  0  0  0
 21 38  1  0  0  0  0
 22 23  2  0  0  0  0
 22 39  1  0  0  0  0
 23 24  1  0  0  0  0
M  CHG  1   6   1
M  END
> <s_m_source_file>
AV-unprocessed.smi

> <i_m_source_file_index>
921

> <i_lp_mmshare_version>
43012

> <i_f3d_flags>
0

> <s_epik_input>
W2NIXTFbY0hdW2NIXVtjSF1jKGMxMiluKGMobjIpW0NIMl1DKD1PKVtOSDJdKVtDSDJdW0NASF0oW09IXSljM1tjSF1jKEYpW2NIXVtjSF1jM0Y=

> <s_epik_cmdline>
J2VwaWtfcHl0aG9uJywgJy1waCcsICc3LjAnLCAnLXRuJywgJzgnLCAnLW1hJywgJzIwMCcsICctbWV0YWxfYmluZGluZycsICctaW1hZScsICc8aW5maWxlLm1hZT4nLCAnLW9tYWUnLCAnPG91dGZpbGUubWFlPic=

> <r_epik_Ionization_Penalty>
1.66646

> <r_epik_Ionization_Penalty_Charging>
1.66645

> <r_epik_Ionization_Penalty_Neutral>
3.86504e-06

> <r_epik_State_Penalty>
1.76975

> <r_epik_Charging_Adjusted_Penalty>
3.43621

> <i_epik_Tot_Q>
1

> <i_epik_Tot_abs_Q>
1

> <r_epik_Metal_State_Penalty>
1.80493

> <b_epik_Metal_Only>
0

> <s_lp_Force_Field>
OPLS_2005

> <r_lp_Energy>
13.8702

> <b_lp_Chiralities_Consistent>
1

> <s_lp_Variant>
AV-unprocessed.smi:921-3

> <Gold.Version>
5.8.1

> <Gold.Id.Protein>
6NUR|6NUR_protein|mol2

> <Gold.PLP.Fitness>
66.5676

> <Gold.PLP.PLP>
-55.4843

> <Gold.PLP.part.hbond>
-4.7333

> <Gold.PLP.part.metal>
0.0000

> <Gold.PLP.part.buried>
1.9439

> <Gold.PLP.part.nonpolar>
-53.1869

> <Gold.PLP.part.repulsive>
0.1512

> <Gold.PLP.ligand.clash>
0.0000

> <Gold.PLP.ligand.torsion>
0.4485

> <Gold.PLP.Chemscore.Hbond>
3.9675

> <Gold.PLP.Chemscore.CHOScore>
0.0000

> <Gold.PLP.Chemscore.Metal>
0.0000

> <Gold.Chemscore.Hbonds>
donor molecule, donor type, donor heavy atom, donor atom, acceptor molecule, acceptor atom, score
      L1  H     1    26       P1  7948  1.00
      L1  H     6    40       P1  7948  2.00
      P1  H 10752 10764       L1     3  0.96

> <Gold.PLP.Chemscore.Internal.Correction>
0.0780

> <Gold.Rescore>
     Score         DG    S(hbond)    S(metal)    S(lipo)     H(rot)  DE(clash)    DE(int)     intcor
     16.54     -19.06       2.38        0.00     117.60       3.17       0.87       1.65       ----

> <Gold.Chemscore.Fitness>
16.5388

> <Gold.Chemscore.DG>
-19.0611

> <Gold.Chemscore.ZeroCoef>
-5.4800

> <Gold.Chemscore.Hbond>
2.3776

> <Gold.Chemscore.Metal>
0.0000

> <Gold.Chemscore.Lipo>
117.6016

> <Gold.Chemscore.Internal_Hbond>
0.0000

> <Gold.Chemscore.DEClash>
0.8676

> <Gold.Chemscore.DEInternal>
1.6547

> <Gold.Chemscore.Rot>
3.1717

> <Gold.Chemscore.Internal.Correction>
   9.000000E+99

> <Gold.Chemscore.Hbonds>
donor molecule, donor type, donor heavy atom, donor atom, acceptor molecule, acceptor atom, score
      L1  H     1    26       P1  7948  0.43
      L1  H     6    40       P1  7948  0.97
      P1  H 10752 10764       L1     3  0.22

> <Gold.Chemscore.Hbond.Weighted>
-7.9413

> <Gold.Chemscore.Metal.Weighted>
-0.0000

> <Gold.Chemscore.Lipo.Weighted>
-13.7594

> <Gold.Chemscore.Internal_Hbond.Weighted>
0.0000

> <Gold.Chemscore.DEClash.Weighted>
0.8676

> <Gold.Chemscore.DEInternal.Weighted>
1.6547

> <Gold.Chemscore.Rot.Weighted>
8.1196

> <Gold.Chemscore.Internal.Correction.Weighted>
   9.000000E+99

> <Gold.Protein.RotatedTorsions>
[ 6907 6896 6895 6894 ] final -169.35 input  -60.11 | X-H torsion
[ 7974 7965 7964 7962 ] final   90.23 input  175.53 | X-H torsion
[ 8008 7997 7996 7995 ] final  -69.75 input   59.86 | X-H torsion
[ 10167 10162 10161 10158 ] final   47.65 input  -65.29 | X-H torsion
[ 10718 10713 10712 10709 ] final  -95.45 input   66.30 | X-H torsion
[ 10763 10752 10751 10750 ] final  -14.62 input  -60.55 | X-H torsion
[ 11005 11000 10999 10996 ] final  115.69 input  -57.11 | X-H torsion

> <Gold.Protein.ActiveResidues>
 VAL166  LYS551  ARG553  GLY616  TRP617  ASP618  TYR619  PRO620  LYS621  CYS622 
 ASP623  PHE694  ASN695  SER759  ASP760  ASP761  ALA762  ILE779  LEU786  VAL792 
 PHE793  MET794  SER795  GLU796  ALA797  LYS798  CYS799  TRP800  GLU811  SER814 

> <Gold.Protein.RotatedAtoms>
  151.4902  133.3526  159.2851 H   0  0  0  0  0  0  0  0  0  0  0  0  # atno 6907 bound_to 6896
  150.8839  134.8236  159.7256 H   0  0  0  0  0  0  0  0  0  0  0  0  # atno 6908 bound_to 6896
  152.4780  134.4804  159.9715 H   0  0  0  0  0  0  0  0  0  0  0  0  # atno 6909 bound_to 6896
  145.5217  139.2279  143.2668 H   0  0  0  0  0  0  0  0  0  0  0  0  # atno 7974 bound_to 7965
  154.4961  140.0847  156.7700 H   0  0  0  0  0  0  0  0  0  0  0  0  # atno 8008 bound_to 7997
  155.4112  140.3441  155.4245 H   0  0  0  0  0  0  0  0  0  0  0  0  # atno 8009 bound_to 7997
  156.1396  140.1525  156.8929 H   0  0  0  0  0  0  0  0  0  0  0  0  # atno 8010 bound_to 7997
  140.3015  144.2929  150.6218 H   0  0  0  0  0  0  0  0  0  0  0  0  # atno 10167 bound_to 10162
  156.0044  130.5110  150.6078 H   0  0  0  0  0  0  0  0  0  0  0  0  # atno 10718 bound_to 10713
  153.5311  135.7014  153.5683 H   0  0  0  0  0  0  0  0  0  0  0  0  # atno 10763 bound_to 10752
  153.3690  135.3950  155.1774 H   0  0  0  0  0  0  0  0  0  0  0  0  # atno 10764 bound_to 10752
  154.8684  135.3807  154.4808 H   0  0  0  0  0  0  0  0  0  0  0  0  # atno 10765 bound_to 10752
  139.9018  134.9587  156.7084 H   0  0  0  0  0  0  0  0  0  0  0  0  # atno 11005 bound_to 11000
  146.2101  140.6030  142.9063 LP  0  0  0  0  0  0  0  0  0  0  0  0  # atno 17320 bound_to 7965
  144.7672  140.5557  143.6695 LP  0  0  0  0  0  0  0  0  0  0  0  0  # atno 17321 bound_to 7965
  140.5647  143.2187  151.7704 LP  0  0  0  0  0  0  0  0  0  0  0  0  # atno 17342 bound_to 10162
  139.4914  144.4300  151.9883 LP  0  0  0  0  0  0  0  0  0  0  0  0  # atno 17343 bound_to 10162
  157.3916  131.0796  151.1388 LP  0  0  0  0  0  0  0  0  0  0  0  0  # atno 17370 bound_to 10713
  157.2078  130.6424  149.5763 LP  0  0  0  0  0  0  0  0  0  0  0  0  # atno 17371 bound_to 10713
  140.7095  133.9236  155.8075 LP  0  0  0  0  0  0  0  0  0  0  0  0  # atno 17394 bound_to 11000
  141.0311  134.0754  157.4013 LP  0  0  0  0  0  0  0  0  0  0  0  0  # atno 17395 bound_to 11000

$$$$
