AV-unprocessed.smi:1701|AV-procd|sdf|6842|dock5
  -GOLD-   22720 8 23D 1   1.00000     0.00000
 Structure written by MMmdl.
 54 56  0  0  0  0  0  0  0  0  4 V2000
  151.6015  145.2130  159.8350 C   0  0  0  0  0  0  0  0  0  0  0  0
  152.5705  144.2714  159.1076 C   0  0  0  0  0  0  0  0  0  0  0  0
  152.2810  142.8639  159.3774 N   0  0  0  0  0  0  0  0  0  0  0  0
  152.7987  142.2563  160.6005 C   0  0  0  0  0  0  0  0  0  0  0  0
  154.2857  141.8977  160.4826 C   0  0  0  0  0  0  0  0  0  0  0  0
  151.5506  142.0915  158.4445 C   0  0  0  0  0  0  0  0  0  0  0  0
  151.4492  140.6794  158.5112 C   0  0  0  0  0  0  0  0  0  0  0  0
  150.7059  139.9808  157.5381 C   0  0  0  0  0  0  0  0  0  0  0  0
  150.0559  140.6912  156.5089 C   0  0  0  0  0  0  0  0  0  0  0  0
  149.3424  139.9444  155.5333 N   0  0  0  0  0  0  0  0  0  0  0  0
  148.9787  140.3006  154.2764 C   0  0  0  0  0  0  0  0  0  0  0  0
  149.1907  141.4515  153.8989 O   0  0  0  0  0  0  0  0  0  0  0  0
  148.3585  139.3921  153.4641 N   0  5  0  0  0  0  0  0  0  0  0  0
  146.9358  139.2813  153.1123 C   0  0  1  0  0  0  0  0  0  0  0  0
  146.7301  138.4660  151.8220 C   0  0  0  0  0  0  0  0  0  0  0  0
  145.4324  137.6643  152.0432 C   0  0  0  0  0  0  0  0  0  0  0  0
  144.9760  138.0171  153.4016 N   0  3  1  0  0  0  0  0  0  0  0  0
  144.1746  137.0102  154.1316 C   0  0  0  0  0  0  0  0  0  0  0  0
  143.7028  137.6112  155.4713 C   0  0  0  0  0  0  0  0  0  0  0  0
  144.8796  138.1773  156.2932 C   0  0  0  0  0  0  0  0  0  0  0  0
  145.7279  139.1538  155.4544 C   0  0  0  0  0  0  0  0  0  0  0  0
  146.1650  138.4563  154.1494 C   0  0  2  0  0  0  0  0  0  0  0  0
  150.1940  142.0981  156.4765 C   0  0  0  0  0  0  0  0  0  0  0  0
  150.9169  142.7265  157.4281 N   0  3  0  0  0  0  0  0  0  0  0  0
  151.8285  146.2533  159.6022 H   0  0  0  0  0  0  0  0  0  0  0  0
  151.6676  145.0942  160.9168 H   0  0  0  0  0  0  0  0  0  0  0  0
  150.5687  145.0254  159.5400 H   0  0  0  0  0  0  0  0  0  0  0  0
  152.4931  144.4407  158.0332 H   0  0  0  0  0  0  0  0  0  0  0  0
  153.6018  144.5114  159.3676 H   0  0  0  0  0  0  0  0  0  0  0  0
  152.6232  142.9020  161.4605 H   0  0  0  0  0  0  0  0  0  0  0  0
  152.2310  141.3471  160.8019 H   0  0  0  0  0  0  0  0  0  0  0  0
  154.6454  141.4336  161.4011 H   0  0  0  0  0  0  0  0  0  0  0  0
  154.8962  142.7818  160.2974 H   0  0  0  0  0  0  0  0  0  0  0  0
  154.4594  141.1950  159.6672 H   0  0  0  0  0  0  0  0  0  0  0  0
  151.9250  140.1139  159.2977 H   0  0  0  0  0  0  0  0  0  0  0  0
  150.6320  138.9042  157.5884 H   0  0  0  0  0  0  0  0  0  0  0  0
  149.0381  139.0278  155.8269 H   0  0  0  0  0  0  0  0  0  0  0  0
  146.4417  140.2484  153.0024 H   0  0  0  0  0  0  0  0  0  0  0  0
  146.6665  139.1156  150.9486 H   0  0  0  0  0  0  0  0  0  0  0  0
  147.5559  137.7728  151.6520 H   0  0  0  0  0  0  0  0  0  0  0  0
  144.6632  137.9085  151.3096 H   0  0  0  0  0  0  0  0  0  0  0  0
  145.6350  136.5938  151.9740 H   0  0  0  0  0  0  0  0  0  0  0  0
  143.3159  136.7168  153.5271 H   0  0  0  0  0  0  0  0  0  0  0  0
  144.7718  136.1133  154.3028 H   0  0  0  0  0  0  0  0  0  0  0  0
  142.9873  138.4104  155.2738 H   0  0  0  0  0  0  0  0  0  0  0  0
  143.1695  136.8578  156.0517 H   0  0  0  0  0  0  0  0  0  0  0  0
  144.5075  138.6769  157.1880 H   0  0  0  0  0  0  0  0  0  0  0  0
  145.5090  137.3556  156.6371 H   0  0  0  0  0  0  0  0  0  0  0  0
  145.1429  140.0513  155.2422 H   0  0  0  0  0  0  0  0  0  0  0  0
  146.5962  139.4745  156.0327 H   0  0  0  0  0  0  0  0  0  0  0  0
  146.7519  137.5692  154.4009 H   0  0  0  0  0  0  0  0  0  0  0  0
  149.7706  142.7457  155.7231 H   0  0  0  0  0  0  0  0  0  0  0  0
  144.4005  138.8403  153.2976 H   0  0  0  0  0  0  0  0  0  0  0  0
  150.9950  143.7419  157.3730 H   0  0  0  0  0  0  0  0  0  0  0  0
  1  2  1  0  0  0  0
  1 25  1  0  0  0  0
  1 26  1  0  0  0  0
  1 27  1  0  0  0  0
  2  3  1  0  0  0  0
  2 28  1  0  0  0  0
  2 29  1  0  0  0  0
  3  4  1  0  0  0  0
  3  6  1  0  0  0  0
  4  5  1  0  0  0  0
  4 30  1  0  0  0  0
  4 31  1  0  0  0  0
  5 32  1  0  0  0  0
  5 33  1  0  0  0  0
  5 34  1  0  0  0  0
  6 24  1  0  0  0  0
  6  7  2  0  0  0  0
  7  8  1  0  0  0  0
  7 35  1  0  0  0  0
  8  9  2  0  0  0  0
  8 36  1  0  0  0  0
  9 10  1  0  0  0  0
  9 23  1  0  0  0  0
 10 11  1  0  0  0  0
 10 37  1  0  0  0  0
 11 12  2  0  0  0  0
 11 13  1  0  0  0  0
 13 14  1  0  0  0  0
 14 22  1  0  0  0  0
 14 15  1  0  0  0  0
 14 38  1  0  0  0  0
 15 16  1  0  0  0  0
 15 39  1  0  0  0  0
 15 40  1  0  0  0  0
 16 17  1  0  0  0  0
 16 41  1  0  0  0  0
 16 42  1  0  0  0  0
 17 22  1  0  0  0  0
 17 18  1  0  0  0  0
 17 53  1  0  0  0  0
 18 19  1  0  0  0  0
 18 43  1  0  0  0  0
 18 44  1  0  0  0  0
 19 20  1  0  0  0  0
 19 45  1  0  0  0  0
 19 46  1  0  0  0  0
 20 21  1  0  0  0  0
 20 47  1  0  0  0  0
 20 48  1  0  0  0  0
 21 22  1  0  0  0  0
 21 49  1  0  0  0  0
 21 50  1  0  0  0  0
 22 51  1  0  0  0  0
 23 24  2  0  0  0  0
 23 52  1  0  0  0  0
 24 54  1  0  0  0  0
M  CHG  1  13  -1
M  CHG  1  17   1
M  CHG  1  24   1
M  END
> <s_m_source_file>
AV-unprocessed.smi

> <i_m_source_file_index>
1701

> <i_lp_mmshare_version>
43012

> <i_f3d_flags>
0

> <s_epik_input>
W0NIM11bQ0gyXU4oW0NIMl1bQ0gzXSljMVtjSF1bY0hdYyhbY0hdbjEpW05IXUMoPU8pW05IXVtDQEhdKFtDSDJdW0NIMl0yKVtDQEBIXShOMjMpW0NIMl1bQ0gyXVtDSDJdW0NIMl0z

> <s_epik_cmdline>
J2VwaWtfcHl0aG9uJywgJy1waCcsICc3LjAnLCAnLXRuJywgJzgnLCAnLW1hJywgJzIwMCcsICctbWV0YWxfYmluZGluZycsICctaW1hZScsICc8aW5maWxlLm1hZT4nLCAnLW9tYWUnLCAnPG91dGZpbGUubWFlPic=

> <r_lp_tautomer_probability>
0.999994

> <r_epik_Ionization_Penalty>
7.37095

> <r_epik_Ionization_Penalty_Charging>
7.37095

> <r_epik_Ionization_Penalty_Neutral>
3.78969e-06

> <r_epik_State_Penalty>
6.83842

> <r_epik_Charging_Adjusted_Penalty>
14.2094

> <i_epik_Tot_Q>
1

> <i_epik_Tot_abs_Q>
3

> <r_epik_Metal_State_Penalty>
2.78552

> <b_epik_Metal_Only>
1

> <s_lp_Force_Field>
OPLS_2005

> <r_lp_Energy>
47.735

> <b_lp_Chiralities_Consistent>
1

> <s_lp_Variant>
AV-unprocessed.smi:1701-22

> <Gold.Version>
5.8.1

> <Gold.Id.Protein>
6NUR|6NUR_protein|mol2

> <Gold.PLP.Fitness>
45.1734

> <Gold.PLP.PLP>
-39.1382

> <Gold.PLP.part.hbond>
-3.0000

> <Gold.PLP.part.metal>
0.0000

> <Gold.PLP.part.buried>
-0.7690

> <Gold.PLP.part.nonpolar>
-38.5605

> <Gold.PLP.part.repulsive>
3.4114

> <Gold.PLP.ligand.clash>
0.0000

> <Gold.PLP.ligand.torsion>
1.7564

> <Gold.PLP.Chemscore.Hbond>
3.1398

> <Gold.PLP.Chemscore.CHOScore>
0.0000

> <Gold.PLP.Chemscore.Metal>
0.0000

> <Gold.Chemscore.Hbonds>
donor molecule, donor type, donor heavy atom, donor atom, acceptor molecule, acceptor atom, score
      L1  H    17    53       P1 10175  2.00
      P1  H  8011  8017       L1    12  0.74

> <Gold.PLP.Chemscore.Internal.Correction>
0.1285

> <Gold.Rescore>
     Score         DG    S(hbond)    S(metal)    S(lipo)     H(rot)  DE(clash)    DE(int)     intcor
     14.48     -19.71       1.94        0.00      94.26       1.28       2.40       2.83       ----

> <Gold.Chemscore.Fitness>
14.4827

> <Gold.Chemscore.DG>
-19.7110

> <Gold.Chemscore.ZeroCoef>
-5.4800

> <Gold.Chemscore.Hbond>
1.9430

> <Gold.Chemscore.Metal>
0.0000

> <Gold.Chemscore.Lipo>
94.2558

> <Gold.Chemscore.Internal_Hbond>
0.0000

> <Gold.Chemscore.DEClash>
2.3969

> <Gold.Chemscore.DEInternal>
2.8315

> <Gold.Chemscore.Rot>
1.2838

> <Gold.Chemscore.Internal.Correction>
   9.000000E+99

> <Gold.Chemscore.Hbonds>
donor molecule, donor type, donor heavy atom, donor atom, acceptor molecule, acceptor atom, score
      L1  H    17    53       P1 10175  0.98
      P1  H  8011  8017       L1    12  0.73

> <Gold.Chemscore.Hbond.Weighted>
-6.4896

> <Gold.Chemscore.Metal.Weighted>
-0.0000

> <Gold.Chemscore.Lipo.Weighted>
-11.0279

> <Gold.Chemscore.Internal_Hbond.Weighted>
0.0000

> <Gold.Chemscore.DEClash.Weighted>
2.3969

> <Gold.Chemscore.DEInternal.Weighted>
2.8315

> <Gold.Chemscore.Rot.Weighted>
3.2865

> <Gold.Chemscore.Internal.Correction.Weighted>
   9.000000E+99

> <Gold.Protein.RotatedTorsions>
[ 6907 6896 6895 6894 ] final -145.02 input  -60.11 | X-H torsion
[ 7974 7965 7964 7962 ] final   57.30 input  175.53 | X-H torsion
[ 8008 7997 7996 7995 ] final   76.21 input   59.86 | X-H torsion
[ 10167 10162 10161 10158 ] final  -24.55 input  -65.29 | X-H torsion
[ 10718 10713 10712 10709 ] final  -53.48 input   66.30 | X-H torsion
[ 10763 10752 10751 10750 ] final  110.94 input  -60.55 | X-H torsion
[ 11005 11000 10999 10996 ] final -139.57 input  -57.11 | X-H torsion

> <Gold.Protein.ActiveResidues>
 VAL166  LYS551  ARG553  GLY616  TRP617  ASP618  TYR619  PRO620  LYS621  CYS622 
 ASP623  PHE694  ASN695  SER759  ASP760  ASP761  ALA762  ILE779  LEU786  VAL792 
 PHE793  MET794  SER795  GLU796  ALA797  LYS798  CYS799  TRP800  GLU811  SER814 

> <Gold.Protein.RotatedAtoms>
  151.1221  133.5097  159.2601 H   0  0  0  0  0  0  0  0  0  0  0  0  # atno 6907 bound_to 6896
  151.1850  135.0377  159.8818 H   0  0  0  0  0  0  0  0  0  0  0  0  # atno 6908 bound_to 6896
  152.5456  134.1068  159.8395 H   0  0  0  0  0  0  0  0  0  0  0  0  # atno 6909 bound_to 6896
  145.9305  139.3804  143.0424 H   0  0  0  0  0  0  0  0  0  0  0  0  # atno 7974 bound_to 7965
  155.8241  140.3468  155.5532 H   0  0  0  0  0  0  0  0  0  0  0  0  # atno 8008 bound_to 7997
  155.8311  140.0927  157.1812 H   0  0  0  0  0  0  0  0  0  0  0  0  # atno 8009 bound_to 7997
  154.4004  140.1412  156.3603 H   0  0  0  0  0  0  0  0  0  0  0  0  # atno 8010 bound_to 7997
  140.7288  143.4343  151.0753 H   0  0  0  0  0  0  0  0  0  0  0  0  # atno 10167 bound_to 10162
  156.1531  130.4151  149.9912 H   0  0  0  0  0  0  0  0  0  0  0  0  # atno 10718 bound_to 10713
  153.4562  135.3732  155.2312 H   0  0  0  0  0  0  0  0  0  0  0  0  # atno 10763 bound_to 10752
  154.8757  135.3897  154.3979 H   0  0  0  0  0  0  0  0  0  0  0  0  # atno 10764 bound_to 10752
  153.4546  135.7086  153.6152 H   0  0  0  0  0  0  0  0  0  0  0  0  # atno 10765 bound_to 10752
  140.8506  134.2290  157.4762 H   0  0  0  0  0  0  0  0  0  0  0  0  # atno 11005 bound_to 11000
  145.8432  140.9569  143.0788 LP  0  0  0  0  0  0  0  0  0  0  0  0  # atno 17320 bound_to 7965
  144.6764  140.0311  143.7482 LP  0  0  0  0  0  0  0  0  0  0  0  0  # atno 17321 bound_to 7965
  139.8004  143.8092  152.3162 LP  0  0  0  0  0  0  0  0  0  0  0  0  # atno 17342 bound_to 10162
  139.8107  144.7337  150.9701 LP  0  0  0  0  0  0  0  0  0  0  0  0  # atno 17343 bound_to 10162
  156.7764  130.9205  151.3645 LP  0  0  0  0  0  0  0  0  0  0  0  0  # atno 17370 bound_to 10713
  157.6673  130.9019  149.9961 LP  0  0  0  0  0  0  0  0  0  0  0  0  # atno 17371 bound_to 10713
  139.8704  134.9681  156.4621 LP  0  0  0  0  0  0  0  0  0  0  0  0  # atno 17394 bound_to 11000
  140.8794  133.7929  155.9450 LP  0  0  0  0  0  0  0  0  0  0  0  0  # atno 17395 bound_to 11000

$$$$
