#       Name:                AV-unprocessed.smi:798
#       Creating user name   scv26
#       Creation time:       Fri Mar 27 01:20:18 2020


#       File generated by GOLD software.
#

@<TRIPOS>MOLECULE
AV-unprocessed.smi:798
    40    42     1
SMALL
NO_CHARGES


@<TRIPOS>ATOM
      1 ****        -0.8789   2.4374   0.1981 O.2            1 S1                 0.0000
      2 ****        -1.3480   1.3031   0.2954 C.2            1 S1                 0.0000
      3 ****        -2.6573   1.0029   0.3531 N.am           1 S1                 0.0000
      4 ****        -3.7669   1.8882   0.3246 C.2            1 S1                 0.0000
      5 ****        -3.6535   3.2226   0.2345 N.2            1 S1                 0.0000
      6 ****        -4.8927   3.8500   0.2304 N.2            1 S1                 0.0000
      7 ****        -5.8904   2.9655   0.3165 C.2            1 S1                 0.0000
      8 ****        -5.4138   1.2789   0.4100 S.3            1 S1                 0.0000
      9 ****        -0.5961   0.1955   0.3541 N.am           1 S1                 0.0000
     10 ****         0.8640   0.1710   0.3033 C.3            1 S1                 0.0000
     11 ****         1.4327   0.3349  -1.1292 C.3            1 S1                 0.0000
     12 ****         0.7783  -0.6573  -2.1144 C.3            1 S1                 0.0000
     13 ****         1.3457  -2.0126  -1.6530 C.3            1 S1                 0.0000
     14 ****         2.2760  -1.6154  -0.4900 C.3            1 S1                 0.0000
     15 ****         2.8192  -0.2777  -0.9799 C.3            1 S1                 0.0000
     16 ****         1.4207  -1.2106   0.7352 C.3            1 S1                 0.0000
     17 ****         2.2162  -1.1418   2.0534 C.3            1 S1                 0.0000
     18 ****         2.6132  -2.4345   2.4591 O.3            1 S1                 0.0000
     19 ****        -2.8881   0.0232   0.4278 H              1 S1                 0.0000
     20 ****        -6.9144   3.3086   0.3247 H              1 S1                 0.0000
     21 ****        -1.0633  -0.6961   0.4303 H              1 S1                 0.0000
     22 ****         1.2660   0.9568   0.9468 H              1 S1                 0.0000
     23 ****         1.4274   1.3661  -1.4840 H              1 S1                 0.0000
     24 ****        -0.3112  -0.6302  -2.1025 H              1 S1                 0.0000
     25 ****         1.0956  -0.4436  -3.1358 H              1 S1                 0.0000
     26 ****         0.5647  -2.7072  -1.3418 H              1 S1                 0.0000
     27 ****         1.9091  -2.4850  -2.4586 H              1 S1                 0.0000
     28 ****         3.0348  -2.3681  -0.2739 H              1 S1                 0.0000
     29 ****         3.3652  -0.3508  -1.9225 H              1 S1                 0.0000
     30 ****         3.4437   0.2379  -0.2493 H              1 S1                 0.0000
     31 ****         0.6103  -1.9299   0.8693 H              1 S1                 0.0000
     32 ****         3.0980  -0.5084   1.9571 H              1 S1                 0.0000
     33 ****         1.5973  -0.7129   2.8421 H              1 S1                 0.0000
     34 ****         3.0961  -2.3605   3.2683 H              1 S1                 0.0000
     35 ****        -1.4888   3.2287   0.1555 LP             1 S1                 0.0000
     36 ****         0.1120   2.5673   0.1617 LP             1 S1                 0.0000
     37 ****        -2.7807   3.7074   0.1772 LP             1 S1                 0.0000
     38 ****        -5.0219   4.8398   0.1705 LP             1 S1                 0.0000
     39 ****         3.1941  -2.8449   1.7562 LP             1 S1                 0.0000
     40 ****         1.8053  -3.0067   2.5998 LP             1 S1                 0.0000
@<TRIPOS>BOND
    1    1    2 2     
    2    2    3 am    
    3    2    9 am    
    4    3    4 1     
    5    3   19 1     
    6    4    8 1     
    7    4    5 2     
    8    5    6 1     
    9    6    7 2     
   10    7    8 1     
   11    7   20 1     
   12    9   10 1     
   13    9   21 1     
   14   10   16 1     
   15   10   11 1     
   16   10   22 1     
   17   11   15 1     
   18   11   12 1     
   19   11   23 1     
   20   12   13 1     
   21   12   24 1     
   22   12   25 1     
   23   13   14 1     
   24   13   26 1     
   25   13   27 1     
   26   14   15 1     
   27   14   16 1     
   28   14   28 1     
   29   15   29 1     
   30   15   30 1     
   31   16   17 1     
   32   16   31 1     
   33   17   18 1     
   34   17   32 1     
   35   17   33 1     
   36   18   34 1     
   37    1   35 1     
   38    1   36 1     
   39    5   37 1     
   40    6   38 1     
   41   18   39 1     
   42   18   40 1     
@<TRIPOS>SUBSTRUCTURE
      1 S1             1
@<TRIPOS>SET
LONE_PAIRS      STATIC     ATOMS    <user>   **** ""
6 35 36 37 38 39 40
DONOR_HYDROGENS      STATIC     ATOMS    <user>   **** ""
3 19 21 34
ATOM$BLUE        STATIC     ATOMS    COLORGROUP SYSTEM
6 35 36 37 38 39 40
ATOM$RED        STATIC     ATOMS    COLORGROUP SYSTEM
3 19 21 34
