#       Name:                AV-unprocessed.smi:132
#       Creating user name   scv26
#       Creation time:       Thu Mar 26 18:30:29 2020


#       File generated by GOLD software.
#

@<TRIPOS>MOLECULE
AV-unprocessed.smi:132
    51    54     1
SMALL
NO_CHARGES


@<TRIPOS>ATOM
      1 ****        -1.0625   3.2579   1.4487 O.2            1 S1                 0.0000
      2 ****        -1.5155   2.1139   1.5125 C.2            1 S1                 0.0000
      3 ****        -2.9439   1.8174   1.5314 C.2            1 S1                 0.0000
      4 ****        -3.8326   2.8247   1.4965 F              1 S1                 0.0000
      5 ****        -3.3906   0.5441   1.5825 C.2            1 S1                 0.0000
      6 ****        -2.5469  -0.5523   1.6187 N.am           1 S1                 0.0000
      7 ****        -3.1147  -1.9508   1.6610 C.3            1 S1                 0.0000
      8 ****        -3.5653  -2.3918   0.2618 C.3            1 S1                 0.0000
      9 ****        -5.0736  -2.2806   0.3547 C.3            1 S1                 0.0000
     10 ****        -5.3185  -2.5796   1.8282 C.3            1 S1                 0.0000
     11 ****        -4.2345  -1.9486   2.4975 O.3            1 S1                 0.0000
     12 ****        -1.1477  -0.3626   1.5918 C.2            1 S1                 0.0000
     13 ****        -0.3736  -1.3226   1.5798 O.2            1 S1                 0.0000
     14 ****        -0.6777   0.9719   1.5593 N.am           1 S1                 0.0000
     15 ****         0.7618   1.1801   1.5277 C.3            1 S1                 0.0000
     16 ****         1.3106   1.1338   0.1315 C.2            1 S1                 0.0000
     17 ****         0.6473   1.1561  -1.0285 N.2            1 S1                 0.0000
     18 ****         1.6076   1.0996  -2.0117 N.2            1 S1                 0.0000
     19 ****         2.7856   1.0513  -1.3803 C.2            1 S1                 0.0000
     20 ****         4.1264   0.9896  -1.9613 C.ar           1 S1                 0.0000
     21 ****         5.2742   0.9607  -1.1358 C.ar           1 S1                 0.0000
     22 ****         6.5611   0.9048  -1.7057 C.ar           1 S1                 0.0000
     23 ****         6.7127   0.8768  -3.1051 C.ar           1 S1                 0.0000
     24 ****         8.2896   0.8102  -3.8020 Cl             1 S1                 0.0000
     25 ****         5.5752   0.9040  -3.9342 C.ar           1 S1                 0.0000
     26 ****         4.2881   0.9599  -3.3649 C.ar           1 S1                 0.0000
     27 ****         2.6574   1.0690  -0.0258 O.3            1 S1                 0.0000
     28 ****        -4.4582   0.3826   1.5922 H              1 S1                 0.0000
     29 ****        -2.3532  -2.6007   2.0933 H              1 S1                 0.0000
     30 ****        -3.1257  -1.7807  -0.5278 H              1 S1                 0.0000
     31 ****        -3.2661  -3.4299   0.1124 H              1 S1                 0.0000
     32 ****        -5.3940  -1.2659   0.1162 H              1 S1                 0.0000
     33 ****        -5.5951  -2.9678  -0.3118 H              1 S1                 0.0000
     34 ****        -6.2798  -2.2067   2.1820 H              1 S1                 0.0000
     35 ****        -5.2770  -3.6541   2.0132 H              1 S1                 0.0000
     36 ****         0.9917   2.1366   1.9983 H              1 S1                 0.0000
     37 ****         1.2299   0.4183   2.1532 H              1 S1                 0.0000
     38 ****         5.1819   0.9822  -0.0599 H              1 S1                 0.0000
     39 ****         7.4315   0.8842  -1.0666 H              1 S1                 0.0000
     40 ****         5.6874   0.8828  -5.0082 H              1 S1                 0.0000
     41 ****         3.4261   0.9808  -4.0157 H              1 S1                 0.0000
     42 ****        -0.0734   3.4036   1.4284 LP             1 S1                 0.0000
     43 ****        -1.6839   4.0408   1.4173 LP             1 S1                 0.0000
     44 ****        -4.4827  -1.0062   2.7218 LP             1 S1                 0.0000
     45 ****        -4.0248  -2.4472   3.3386 LP             1 S1                 0.0000
     46 ****        -0.7337  -2.2554   1.5891 LP             1 S1                 0.0000
     47 ****         0.6142  -1.1681   1.5608 LP             1 S1                 0.0000
     48 ****        -0.3434   1.2040  -1.1555 LP             1 S1                 0.0000
     49 ****         1.4555   1.0955  -3.0000 LP             1 S1                 0.0000
     50 ****         3.0313   0.2375   0.3851 LP             1 S1                 0.0000
     51 ****         3.1081   1.8686   0.3711 LP             1 S1                 0.0000
@<TRIPOS>BOND
    1    1    2 2     
    2    2   14 am    
    3    2    3 1     
    4    3    4 1     
    5    3    5 2     
    6    5    6 1     
    7    5   28 1     
    8    6    7 1     
    9    6   12 am    
   10    7   11 1     
   11    7    8 1     
   12    7   29 1     
   13    8    9 1     
   14    8   30 1     
   15    8   31 1     
   16    9   10 1     
   17    9   32 1     
   18    9   33 1     
   19   10   11 1     
   20   10   34 1     
   21   10   35 1     
   22   12   13 2     
   23   12   14 am    
   24   14   15 1     
   25   15   16 1     
   26   15   36 1     
   27   15   37 1     
   28   16   27 1     
   29   16   17 2     
   30   17   18 1     
   31   18   19 2     
   32   19   20 1     
   33   19   27 1     
   34   20   26 ar    
   35   20   21 ar    
   36   21   22 ar    
   37   21   38 1     
   38   22   23 ar    
   39   22   39 1     
   40   23   24 1     
   41   23   25 ar    
   42   25   26 ar    
   43   25   40 1     
   44   26   41 1     
   45    1   42 1     
   46    1   43 1     
   47   11   44 1     
   48   11   45 1     
   49   13   46 1     
   50   13   47 1     
   51   17   48 1     
   52   18   49 1     
   53   27   50 1     
   54   27   51 1     
@<TRIPOS>SUBSTRUCTURE
      1 S1             1
@<TRIPOS>SET
LONE_PAIRS      STATIC     ATOMS    <user>   **** ""
10 42 43 44 45 46 47 48 49 50 51
ATOM$BLUE        STATIC     ATOMS    COLORGROUP SYSTEM
10 42 43 44 45 46 47 48 49 50 51
