AV-unprocessed.smi:2376|AV-procd|sdf|9444|dock1
  -GOLD-   2272013 73D 1   1.00000     0.00000
 Structure written by MMmdl.
 28 29  0  0  0  0  0  0  0  0  1 V2000
  150.8857  137.9830  153.1644 N   0  0  0  0  0  0  0  0  0  0  0  0
  151.1445  138.1986  154.4615 C   0  0  0  0  0  0  0  0  0  0  0  0
  151.7569  137.2184  155.1674 N   0  0  0  0  0  0  0  0  0  0  0  0
  152.0230  137.4066  156.4646 C   0  0  0  0  0  0  0  0  0  0  0  0
  151.7662  138.4751  157.2252 N   0  0  0  0  0  0  0  0  0  0  0  0
  151.1515  139.4593  156.5068 C   0  0  0  0  0  0  0  0  0  0  0  0
  150.8055  139.4030  155.1283 C   0  0  0  0  0  0  0  0  0  0  0  0
  150.1900  140.5854  154.7387 N   0  0  0  0  0  0  0  0  0  0  0  0
  150.1722  141.3038  155.8291 C   0  0  0  0  0  0  0  0  0  0  0  0
  150.7286  140.7040  156.9377 N   0  0  0  0  0  0  0  0  0  0  0  0
  150.8349  141.2659  158.2709 C   0  0  0  0  0  0  0  0  0  0  0  0
  152.1974  140.9548  158.9015 C   0  0  0  0  0  0  0  0  0  0  0  0
  152.5142  141.9682  159.8404 O   0  0  0  0  0  0  0  0  0  0  0  0
  152.7384  143.2289  159.2287 C   0  0  0  0  0  0  0  0  0  0  0  0
  151.8121  144.2782  159.8551 C   0  0  0  0  0  0  0  0  0  0  0  0
  152.1054  145.4775  159.3542 F   0  0  0  0  0  0  0  0  0  0  0  0
  150.5399  143.9968  159.5748 F   0  0  0  0  0  0  0  0  0  0  0  0
  151.9825  144.3133  161.1765 F   0  0  0  0  0  0  0  0  0  0  0  0
  150.4285  138.6986  152.6177 H   0  0  0  0  0  0  0  0  0  0  0  0
  151.1450  137.1057  152.7375 H   0  0  0  0  0  0  0  0  0  0  0  0
  152.5119  136.5837  156.9650 H   0  0  0  0  0  0  0  0  0  0  0  0
  149.7470  142.2966  155.8553 H   0  0  0  0  0  0  0  0  0  0  0  0
  150.6795  142.3439  158.2103 H   0  0  0  0  0  0  0  0  0  0  0  0
  150.0297  140.8647  158.8880 H   0  0  0  0  0  0  0  0  0  0  0  0
  152.1674  139.9833  159.3978 H   0  0  0  0  0  0  0  0  0  0  0  0
  152.9665  140.9074  158.1288 H   0  0  0  0  0  0  0  0  0  0  0  0
  153.7792  143.5285  159.3612 H   0  0  0  0  0  0  0  0  0  0  0  0
  152.5515  143.1612  158.1557 H   0  0  0  0  0  0  0  0  0  0  0  0
  1  2  1  0  0  0  0
  1 19  1  0  0  0  0
  1 20  1  0  0  0  0
  2  7  1  0  0  0  0
  2  3  2  0  0  0  0
  3  4  1  0  0  0  0
  4  5  2  0  0  0  0
  4 21  1  0  0  0  0
  5  6  1  0  0  0  0
  6 10  1  0  0  0  0
  6  7  2  0  0  0  0
  7  8  1  0  0  0  0
  8  9  2  0  0  0  0
  9 10  1  0  0  0  0
  9 22  1  0  0  0  0
 10 11  1  0  0  0  0
 11 12  1  0  0  0  0
 11 23  1  0  0  0  0
 11 24  1  0  0  0  0
 12 13  1  0  0  0  0
 12 25  1  0  0  0  0
 12 26  1  0  0  0  0
 13 14  1  0  0  0  0
 14 15  1  0  0  0  0
 14 27  1  0  0  0  0
 14 28  1  0  0  0  0
 15 16  1  0  0  0  0
 15 17  1  0  0  0  0
 15 18  1  0  0  0  0
M  END
> <s_m_source_file>
AV-unprocessed.smi

> <i_m_source_file_index>
2376

> <i_lp_mmshare_version>
43012

> <i_f3d_flags>
0

> <s_epik_input>
bjFbY0hdbmMoW05IMl0pYyhjMTIpbltjSF1uMltDSDJdW0NIMl1PW0NIMl1DKEYpKEYpRg==

> <s_epik_cmdline>
J2VwaWtfcHl0aG9uJywgJy1waCcsICc3LjAnLCAnLXRuJywgJzgnLCAnLW1hJywgJzIwMCcsICctbWV0YWxfYmluZGluZycsICctaW1hZScsICc8aW5maWxlLm1hZT4nLCAnLW9tYWUnLCAnPG91dGZpbGUubWFlPic=

> <r_lp_tautomer_probability>
1

> <r_epik_Ionization_Penalty>
0.000856314

> <r_epik_Ionization_Penalty_Charging>
0

> <r_epik_Ionization_Penalty_Neutral>
0.000856314

> <r_epik_State_Penalty>
-0

> <r_epik_Charging_Adjusted_Penalty>
0

> <i_epik_Tot_Q>
0

> <i_epik_Tot_abs_Q>
0

> <r_epik_Metal_State_Penalty>
-0

> <b_epik_Metal_Only>
0

> <s_lp_Force_Field>
OPLS_2005

> <r_lp_Energy>
6.06006

> <b_lp_Chiralities_Consistent>
1

> <s_lp_Variant>
AV-unprocessed.smi:2376-1

> <Gold.Version>
5.8.1

> <Gold.Id.Protein>
6NUR|6NUR_protein|mol2

> <Gold.PLP.Fitness>
45.8710

> <Gold.PLP.PLP>
-35.8044

> <Gold.PLP.part.hbond>
-4.6414

> <Gold.PLP.part.metal>
0.0000

> <Gold.PLP.part.buried>
-1.6839

> <Gold.PLP.part.nonpolar>
-29.2907

> <Gold.PLP.part.repulsive>
0.3085

> <Gold.PLP.ligand.clash>
0.0000

> <Gold.PLP.ligand.torsion>
0.8167

> <Gold.PLP.Chemscore.Hbond>
2.8983

> <Gold.PLP.Chemscore.CHOScore>
0.9556

> <Gold.PLP.Chemscore.Metal>
0.0000

> <Gold.Chemscore.Hbonds>
donor molecule, donor type, donor heavy atom, donor atom, acceptor molecule, acceptor atom, score
      L1  H     1    19       P1  7957  0.66
      L1  H     1    20       P1  7949  1.00
      P1  H  7989  7998       L1     8  0.40
      P1  H 10752 10764       L1     3  0.86
      L1  C     9    22       P1  8028  0.88

> <Gold.PLP.Chemscore.Internal.Correction>
0.1382

> <Gold.Rescore>
     Score         DG    S(hbond)    S(metal)    S(lipo)     H(rot)  DE(clash)    DE(int)     intcor
      8.33      -9.48       1.76        0.00      43.30       2.72       0.53       0.62       ----

> <Gold.Chemscore.Fitness>
8.3310

> <Gold.Chemscore.DG>
-9.4758

> <Gold.Chemscore.ZeroCoef>
-5.4800

> <Gold.Chemscore.Hbond>
1.7646

> <Gold.Chemscore.Metal>
0.0000

> <Gold.Chemscore.Lipo>
43.3034

> <Gold.Chemscore.Internal_Hbond>
0.0000

> <Gold.Chemscore.DEClash>
0.5271

> <Gold.Chemscore.DEInternal>
0.6177

> <Gold.Chemscore.Rot>
2.7204

> <Gold.Chemscore.Internal.Correction>
   9.000000E+99

> <Gold.Chemscore.Hbonds>
donor molecule, donor type, donor heavy atom, donor atom, acceptor molecule, acceptor atom, score
      L1  H     1    19       P1  7957  0.11
      L1  H     1    20       P1  7949  0.49
      P1  H  7989  7998       L1     8  0.01
      P1  H 10752 10764       L1     3  0.44

> <Gold.Chemscore.Hbond.Weighted>
-5.8937

> <Gold.Chemscore.Metal.Weighted>
-0.0000

> <Gold.Chemscore.Lipo.Weighted>
-5.0665

> <Gold.Chemscore.Internal_Hbond.Weighted>
0.0000

> <Gold.Chemscore.DEClash.Weighted>
0.5271

> <Gold.Chemscore.DEInternal.Weighted>
0.6177

> <Gold.Chemscore.Rot.Weighted>
6.9644

> <Gold.Chemscore.Internal.Correction.Weighted>
   9.000000E+99

> <Gold.Protein.RotatedTorsions>
[ 6907 6896 6895 6894 ] final  -19.86 input  -60.11 | X-H torsion
[ 7974 7965 7964 7962 ] final   22.06 input  175.53 | X-H torsion
[ 8008 7997 7996 7995 ] final  -48.90 input   59.86 | X-H torsion
[ 10167 10162 10161 10158 ] final  155.23 input  -65.29 | X-H torsion
[ 10718 10713 10712 10709 ] final  -95.11 input   66.30 | X-H torsion
[ 10763 10752 10751 10750 ] final  -62.00 input  -60.55 | X-H torsion
[ 11005 11000 10999 10996 ] final   31.64 input  -57.11 | X-H torsion

> <Gold.Protein.ActiveResidues>
 VAL166  LYS551  ARG553  GLY616  TRP617  ASP618  TYR619  PRO620  LYS621  CYS622 
 ASP623  PHE694  ASN695  SER759  ASP760  ASP761  ALA762  ILE779  LEU786  VAL792 
 PHE793  MET794  SER795  GLU796  ALA797  LYS798  CYS799  TRP800  GLU811  SER814 

> <Gold.Protein.RotatedAtoms>
  151.2568  135.0640  159.9082 H   0  0  0  0  0  0  0  0  0  0  0  0  # atno 6907 bound_to 6896
  152.5372  134.0273  159.8019 H   0  0  0  0  0  0  0  0  0  0  0  0  # atno 6908 bound_to 6896
  151.0490  133.5591  159.2675 H   0  0  0  0  0  0  0  0  0  0  0  0  # atno 6909 bound_to 6896
  146.2045  139.7938  142.8736 H   0  0  0  0  0  0  0  0  0  0  0  0  # atno 7974 bound_to 7965
  154.4036  140.1310  156.4415 H   0  0  0  0  0  0  0  0  0  0  0  0  # atno 8008 bound_to 7997
  155.7454  140.3489  155.5104 H   0  0  0  0  0  0  0  0  0  0  0  0  # atno 8009 bound_to 7997
  155.9000  140.1018  157.1347 H   0  0  0  0  0  0  0  0  0  0  0  0  # atno 8010 bound_to 7997
  139.4821  144.5117  151.8015 H   0  0  0  0  0  0  0  0  0  0  0  0  # atno 10167 bound_to 10162
  156.0038  130.5095  150.6027 H   0  0  0  0  0  0  0  0  0  0  0  0  # atno 10718 bound_to 10713
  154.2933  135.6249  153.5394 H   0  0  0  0  0  0  0  0  0  0  0  0  # atno 10763 bound_to 10752
  152.9850  135.5661  154.5366 H   0  0  0  0  0  0  0  0  0  0  0  0  # atno 10764 bound_to 10752
  154.4981  135.2870  155.1419 H   0  0  0  0  0  0  0  0  0  0  0  0  # atno 10765 bound_to 10752
  140.2818  134.2965  155.7799 H   0  0  0  0  0  0  0  0  0  0  0  0  # atno 11005 bound_to 11000
  145.3369  141.0279  143.3414 LP  0  0  0  0  0  0  0  0  0  0  0  0  # atno 17320 bound_to 7965
  144.8759  139.4972  143.6746 LP  0  0  0  0  0  0  0  0  0  0  0  0  # atno 17321 bound_to 7965
  140.4620  144.1708  150.5907 LP  0  0  0  0  0  0  0  0  0  0  0  0  # atno 17342 bound_to 10162
  140.4474  143.2501  151.9393 LP  0  0  0  0  0  0  0  0  0  0  0  0  # atno 17343 bound_to 10162
  157.3873  131.0790  151.1424 LP  0  0  0  0  0  0  0  0  0  0  0  0  # atno 17370 bound_to 10713
  157.2128  130.6445  149.5780 LP  0  0  0  0  0  0  0  0  0  0  0  0  # atno 17371 bound_to 10713
  141.2161  133.7530  156.9491 LP  0  0  0  0  0  0  0  0  0  0  0  0  # atno 17394 bound_to 11000
  140.1277  134.9376  157.2293 LP  0  0  0  0  0  0  0  0  0  0  0  0  # atno 17395 bound_to 11000

$$$$
