AV-unprocessed.smi:1575|AV-procd|sdf|6339|dock7
  -GOLD-   22720 6553D 1   1.00000     0.00000
 Structure written by MMmdl.
 41 41  0  0  0  0  0  0  0  0  1 V2000
  146.7707  138.8418  152.4329 C   0  0  0  0  0  0  0  0  0  0  0  0
  147.7721  138.0515  153.1317 N   0  0  0  0  0  0  0  0  0  0  0  0
  147.8651  137.9606  154.4662 C   0  0  0  0  0  0  0  0  0  0  0  0
  147.0919  138.5362  155.2340 O   0  0  0  0  0  0  0  0  0  0  0  0
  148.9944  137.0688  155.0100 C   0  0  2  0  0  0  0  0  0  0  0  0
  150.3430  137.7098  154.6043 C   0  0  0  0  0  0  0  0  0  0  0  0
  150.7040  139.0121  155.3561 C   0  0  0  0  0  0  0  0  0  0  0  0
  149.8894  140.2212  154.8663 C   0  0  0  0  0  0  0  0  0  0  0  0
  152.2086  139.3007  155.2444 C   0  0  0  0  0  0  0  0  0  0  0  0
  148.9095  135.7370  154.4112 N   0  0  0  0  0  0  0  0  0  0  0  0
  148.9482  134.5777  155.0854 C   0  0  0  0  0  0  0  0  0  0  0  0
  149.0596  134.5131  156.3105 O   0  0  0  0  0  0  0  0  0  0  0  0
  148.8176  133.3019  154.2427 C   0  0  0  0  0  0  0  0  0  0  0  0
  147.5056  133.1824  153.5913 N   0  0  0  0  0  0  0  0  0  0  0  0
  147.4072  133.1800  152.2071 C   0  0  0  0  0  0  0  0  0  0  0  0
  146.2307  133.0806  151.5438 C   0  0  0  0  0  0  0  0  0  0  0  0
  144.9754  132.9681  152.2788 C   0  0  0  0  0  0  0  0  0  0  0  0
  143.8614  132.8708  151.7692 O   0  0  0  0  0  0  0  0  0  0  0  0
  145.1159  132.9773  153.6692 N   0  0  0  0  0  0  0  0  0  0  0  0
  146.3247  133.0824  154.3591 C   0  0  0  0  0  0  0  0  0  0  0  0
  146.3364  133.0860  155.5895 O   0  0  0  0  0  0  0  0  0  0  0  0
  144.2732  132.9038  154.2202 H   0  0  0  0  0  0  0  0  0  0  0  0
  146.8947  138.7311  151.3558 H   0  0  0  0  0  0  0  0  0  0  0  0
  146.8701  139.8993  152.6810 H   0  0  0  0  0  0  0  0  0  0  0  0
  145.7638  138.5149  152.6956 H   0  0  0  0  0  0  0  0  0  0  0  0
  148.4401  137.5468  152.5673 H   0  0  0  0  0  0  0  0  0  0  0  0
  148.9145  137.0056  156.0965 H   0  0  0  0  0  0  0  0  0  0  0  0
  151.1439  136.9843  154.7604 H   0  0  0  0  0  0  0  0  0  0  0  0
  150.3392  137.9179  153.5328 H   0  0  0  0  0  0  0  0  0  0  0  0
  150.4884  138.8748  156.4163 H   0  0  0  0  0  0  0  0  0  0  0  0
  150.0205  140.3806  153.7956 H   0  0  0  0  0  0  0  0  0  0  0  0
  150.1988  141.1335  155.3772 H   0  0  0  0  0  0  0  0  0  0  0  0
  148.8243  140.0949  155.0592 H   0  0  0  0  0  0  0  0  0  0  0  0
  152.5052  139.4657  154.2079 H   0  0  0  0  0  0  0  0  0  0  0  0
  152.7995  138.4702  155.6317 H   0  0  0  0  0  0  0  0  0  0  0  0
  152.4819  140.1892  155.8143 H   0  0  0  0  0  0  0  0  0  0  0  0
  148.8009  135.6979  153.4082 H   0  0  0  0  0  0  0  0  0  0  0  0
  149.6130  133.3088  153.4962 H   0  0  0  0  0  0  0  0  0  0  0  0
  149.0109  132.4223  154.8604 H   0  0  0  0  0  0  0  0  0  0  0  0
  148.3115  133.2653  151.6214 H   0  0  0  0  0  0  0  0  0  0  0  0
  146.2185  133.0851  150.4635 H   0  0  0  0  0  0  0  0  0  0  0  0
  1  2  1  0  0  0  0
  1 23  1  0  0  0  0
  1 24  1  0  0  0  0
  1 25  1  0  0  0  0
  2  3  1  0  0  0  0
  2 26  1  0  0  0  0
  3  4  2  0  0  0  0
  3  5  1  0  0  0  0
  5  6  1  0  0  0  0
  5 10  1  0  0  0  0
  5 27  1  0  0  0  0
  6  7  1  0  0  0  0
  6 28  1  0  0  0  0
  6 29  1  0  0  0  0
  7  8  1  0  0  0  0
  7  9  1  0  0  0  0
  7 30  1  0  0  0  0
  8 31  1  0  0  0  0
  8 32  1  0  0  0  0
  8 33  1  0  0  0  0
  9 34  1  0  0  0  0
  9 35  1  0  0  0  0
  9 36  1  0  0  0  0
 10 11  1  0  0  0  0
 10 37  1  0  0  0  0
 11 12  2  0  0  0  0
 11 13  1  0  0  0  0
 13 14  1  0  0  0  0
 13 38  1  0  0  0  0
 13 39  1  0  0  0  0
 14 20  1  0  0  0  0
 14 15  1  0  0  0  0
 15 16  2  0  0  0  0
 15 40  1  0  0  0  0
 16 17  1  0  0  0  0
 16 41  1  0  0  0  0
 17 18  2  0  0  0  0
 17 19  1  0  0  0  0
 19 22  1  0  0  0  0
 19 20  1  0  0  0  0
 20 21  2  0  0  0  0
M  END
> <s_m_source_file>
AV-unprocessed.smi

> <i_m_source_file_index>
1575

> <i_lp_mmshare_version>
43012

> <i_f3d_flags>
0

> <s_epik_input>
W0NIM11bTkhdQyg9TylbQ0BIXShbQ0gyXVtDSF0oW0NIM10pW0NIM10pW05IXUMoPU8pW0NIMl1uMVtjSF1bY0hdYyg9TylbbkhdYzE9Tw==

> <s_epik_cmdline>
J2VwaWtfcHl0aG9uJywgJy1waCcsICc3LjAnLCAnLXRuJywgJzgnLCAnLW1hJywgJzIwMCcsICctbWV0YWxfYmluZGluZycsICctaW1hZScsICc8aW5maWxlLm1hZT4nLCAnLW9tYWUnLCAnPG91dGZpbGUubWFlPic=

> <r_lp_tautomer_probability>
0.999537

> <r_epik_Ionization_Penalty>
0.00357166

> <r_epik_Ionization_Penalty_Charging>
0.00357161

> <r_epik_Ionization_Penalty_Neutral>
5.44484e-08

> <r_epik_State_Penalty>
0.00253761

> <r_epik_Charging_Adjusted_Penalty>
0.00610921

> <i_epik_Tot_Q>
0

> <i_epik_Tot_abs_Q>
0

> <r_epik_Metal_State_Penalty>
0.368734

> <b_epik_Metal_Only>
0

> <s_lp_Force_Field>
OPLS_2005

> <r_lp_Energy>
6.26633

> <b_lp_Chiralities_Consistent>
1

> <s_lp_Variant>
AV-unprocessed.smi:1575-1

> <Gold.Version>
5.8.1

> <Gold.Id.Protein>
6NUR|6NUR_protein|mol2

> <Gold.PLP.Fitness>
38.4932

> <Gold.PLP.PLP>
-29.8144

> <Gold.PLP.part.hbond>
-2.9267

> <Gold.PLP.part.metal>
0.0000

> <Gold.PLP.part.buried>
-3.8519

> <Gold.PLP.part.nonpolar>
-24.9946

> <Gold.PLP.part.repulsive>
0.3407

> <Gold.PLP.ligand.clash>
0.0000

> <Gold.PLP.ligand.torsion>
0.3896

> <Gold.PLP.Chemscore.Hbond>
2.8866

> <Gold.PLP.Chemscore.CHOScore>
0.2128

> <Gold.PLP.Chemscore.Metal>
0.0000

> <Gold.Chemscore.Hbonds>
donor molecule, donor type, donor heavy atom, donor atom, acceptor molecule, acceptor atom, score
      L1  H     2    26       P1  7948  1.00
      L1  H    10    37       P1  7948  1.00
      L1  H    19    22       P1 10957  0.92
      L1  C    15    40       P1 10747  0.18

> <Gold.PLP.Chemscore.Internal.Correction>
0.1596

> <Gold.Rescore>
     Score         DG    S(hbond)    S(metal)    S(lipo)     H(rot)  DE(clash)    DE(int)     intcor
     13.95     -14.52       2.88        0.00      56.53       2.81       0.03       0.54       ----

> <Gold.Chemscore.Fitness>
13.9494

> <Gold.Chemscore.DG>
-14.5171

> <Gold.Chemscore.ZeroCoef>
-5.4800

> <Gold.Chemscore.Hbond>
2.8773

> <Gold.Chemscore.Metal>
0.0000

> <Gold.Chemscore.Lipo>
56.5251

> <Gold.Chemscore.Internal_Hbond>
0.0000

> <Gold.Chemscore.DEClash>
0.0272

> <Gold.Chemscore.DEInternal>
0.5404

> <Gold.Chemscore.Rot>
2.8072

> <Gold.Chemscore.Internal.Correction>
   9.000000E+99

> <Gold.Chemscore.Hbonds>
donor molecule, donor type, donor heavy atom, donor atom, acceptor molecule, acceptor atom, score
      L1  H     2    26       P1  7948  0.93
      L1  H    10    37       P1  7948  0.94
      L1  H    19    22       P1 10957  0.80

> <Gold.Chemscore.Hbond.Weighted>
-9.6101

> <Gold.Chemscore.Metal.Weighted>
-0.0000

> <Gold.Chemscore.Lipo.Weighted>
-6.6134

> <Gold.Chemscore.Internal_Hbond.Weighted>
0.0000

> <Gold.Chemscore.DEClash.Weighted>
0.0272

> <Gold.Chemscore.DEInternal.Weighted>
0.5404

> <Gold.Chemscore.Rot.Weighted>
7.1864

> <Gold.Chemscore.Internal.Correction.Weighted>
   9.000000E+99

> <Gold.Protein.RotatedTorsions>
[ 6907 6896 6895 6894 ] final -116.86 input  -60.11 | X-H torsion
[ 7974 7965 7964 7962 ] final  -84.35 input  175.53 | X-H torsion
[ 8008 7997 7996 7995 ] final   48.02 input   59.86 | X-H torsion
[ 10167 10162 10161 10158 ] final  -57.77 input  -65.29 | X-H torsion
[ 10718 10713 10712 10709 ] final   96.08 input   66.30 | X-H torsion
[ 10763 10752 10751 10750 ] final  138.51 input  -60.55 | X-H torsion
[ 11005 11000 10999 10996 ] final   63.08 input  -57.11 | X-H torsion

> <Gold.Protein.ActiveResidues>
 VAL166  LYS551  ARG553  GLY616  TRP617  ASP618  TYR619  PRO620  LYS621  CYS622 
 ASP623  PHE694  ASN695  SER759  ASP760  ASP761  ALA762  ILE779  LEU786  VAL792 
 PHE793  MET794  SER795  GLU796  ALA797  LYS798  CYS799  TRP800  GLU811  SER814 

> <Gold.Protein.RotatedAtoms>
  150.8090  133.8457  159.3191 H   0  0  0  0  0  0  0  0  0  0  0  0  # atno 6907 bound_to 6896
  151.6248  135.1027  160.0119 H   0  0  0  0  0  0  0  0  0  0  0  0  # atno 6908 bound_to 6896
  152.4181  133.7031  159.6492 H   0  0  0  0  0  0  0  0  0  0  0  0  # atno 6909 bound_to 6896
  145.5078  140.9542  143.1724 H   0  0  0  0  0  0  0  0  0  0  0  0  # atno 7974 bound_to 7965
  155.3788  140.3427  155.4246 H   0  0  0  0  0  0  0  0  0  0  0  0  # atno 8008 bound_to 7997
  156.1622  140.1604  156.8626 H   0  0  0  0  0  0  0  0  0  0  0  0  # atno 8009 bound_to 7997
  154.5150  140.0780  156.8046 H   0  0  0  0  0  0  0  0  0  0  0  0  # atno 8010 bound_to 7997
  140.6238  143.2430  151.5415 H   0  0  0  0  0  0  0  0  0  0  0  0  # atno 10167 bound_to 10162
  157.6931  131.0566  150.4436 H   0  0  0  0  0  0  0  0  0  0  0  0  # atno 10718 bound_to 10713
  153.8908  135.3033  155.3447 H   0  0  0  0  0  0  0  0  0  0  0  0  # atno 10763 bound_to 10752
  154.7717  135.4882  153.9665 H   0  0  0  0  0  0  0  0  0  0  0  0  # atno 10764 bound_to 10752
  153.1299  135.6801  153.9294 H   0  0  0  0  0  0  0  0  0  0  0  0  # atno 10765 bound_to 10752
  140.0049  134.6385  155.9872 H   0  0  0  0  0  0  0  0  0  0  0  0  # atno 11005 bound_to 11000
  144.7744  139.6662  143.7181 LP  0  0  0  0  0  0  0  0  0  0  0  0  # atno 17320 bound_to 7965
  146.2186  139.5594  142.9633 LP  0  0  0  0  0  0  0  0  0  0  0  0  # atno 17321 bound_to 7965
  139.5462  144.2516  152.1445 LP  0  0  0  0  0  0  0  0  0  0  0  0  # atno 17342 bound_to 10162
  140.1742  144.4906  150.6563 LP  0  0  0  0  0  0  0  0  0  0  0  0  # atno 17343 bound_to 10162
  156.4793  130.4070  149.6471 LP  0  0  0  0  0  0  0  0  0  0  0  0  # atno 17370 bound_to 10713
  156.3523  130.7438  151.2399 LP  0  0  0  0  0  0  0  0  0  0  0  0  # atno 17371 bound_to 10713
  141.1669  133.6537  156.4512 LP  0  0  0  0  0  0  0  0  0  0  0  0  # atno 17394 bound_to 11000
  140.4660  134.6797  157.5107 LP  0  0  0  0  0  0  0  0  0  0  0  0  # atno 17395 bound_to 11000

$$$$
