AV-unprocessed.smi:1100|AV-procd|sdf|4763|dock2
  -GOLD-   22720 3303D 1   1.00000     0.00000
 Structure written by MMmdl.
 43 44  0  0  0  0  0  0  0  0  3 V2000
  148.2719  138.7173  154.2169 C   0  0  0  0  0  0  0  0  0  0  0  0
  149.4712  137.8834  154.7340 C   0  0  2  0  0  0  0  0  0  0  0  0
  150.8590  138.4071  154.2691 C   0  0  0  0  0  0  0  0  0  0  0  0
  151.0690  139.7946  154.6867 N   0  5  0  0  0  0  0  0  0  0  0  0
  151.7828  140.1812  155.7797 C   0  0  0  0  0  0  0  0  0  0  0  0
  152.8486  139.7010  156.1812 O   0  0  0  0  0  0  0  0  0  0  0  0
  151.1919  141.2067  156.4248 N   0  0  0  0  0  0  0  0  0  0  0  0
  151.5560  141.8704  157.6078 C   0  0  0  0  0  0  0  0  0  0  0  0
  150.9235  143.1438  157.8794 C   0  0  0  0  0  0  0  0  0  0  0  0
  151.2017  143.8390  158.9992 C   0  0  0  0  0  0  0  0  0  0  0  0
  152.1543  143.3396  159.9930 C   0  0  0  0  0  0  0  0  0  0  0  0
  152.4219  143.9653  161.0195 O   0  0  0  0  0  0  0  0  0  0  0  0
  152.7253  142.1339  159.7078 N   0  0  0  0  0  0  0  0  0  0  0  0
  153.6863  141.5465  160.6453 C   0  0  0  0  0  0  0  0  0  0  0  0
  152.4256  141.4123  158.5359 C   0  0  0  0  0  0  0  0  0  0  0  0
  149.3363  136.4231  154.4377 N   0  3  0  0  0  0  0  0  0  0  0  0
  150.4790  135.6104  154.9243 C   0  0  0  0  0  0  0  0  0  0  0  0
  150.3569  134.1628  154.4187 C   0  0  0  0  0  0  0  0  0  0  0  0
  149.1119  133.6101  154.8289 O   0  0  0  0  0  0  0  0  0  0  0  0
  148.0071  134.3343  154.3012 C   0  0  0  0  0  0  0  0  0  0  0  0
  148.0483  135.7798  154.8210 C   0  0  0  0  0  0  0  0  0  0  0  0
  148.3092  139.7471  154.5767 H   0  0  0  0  0  0  0  0  0  0  0  0
  147.3287  138.3013  154.5715 H   0  0  0  0  0  0  0  0  0  0  0  0
  148.2235  138.7572  153.1273 H   0  0  0  0  0  0  0  0  0  0  0  0
  149.4662  137.9753  155.8213 H   0  0  0  0  0  0  0  0  0  0  0  0
  151.6346  137.7504  154.6668 H   0  0  0  0  0  0  0  0  0  0  0  0
  150.9316  138.3053  153.1861 H   0  0  0  0  0  0  0  0  0  0  0  0
  150.3537  141.5604  155.9875 H   0  0  0  0  0  0  0  0  0  0  0  0
  150.2144  143.5486  157.1718 H   0  0  0  0  0  0  0  0  0  0  0  0
  150.7117  144.7862  159.1695 H   0  0  0  0  0  0  0  0  0  0  0  0
  154.0767  140.5862  160.3070 H   0  0  0  0  0  0  0  0  0  0  0  0
  153.2202  141.3823  161.6182 H   0  0  0  0  0  0  0  0  0  0  0  0
  154.5398  142.2115  160.7857 H   0  0  0  0  0  0  0  0  0  0  0  0
  152.9446  140.4702  158.4696 H   0  0  0  0  0  0  0  0  0  0  0  0
  151.4200  136.0342  154.5712 H   0  0  0  0  0  0  0  0  0  0  0  0
  150.5066  135.6284  156.0147 H   0  0  0  0  0  0  0  0  0  0  0  0
  150.4436  134.1229  153.3319 H   0  0  0  0  0  0  0  0  0  0  0  0
  151.1651  133.5537  154.8240 H   0  0  0  0  0  0  0  0  0  0  0  0
  148.0250  134.3102  153.2103 H   0  0  0  0  0  0  0  0  0  0  0  0
  147.0833  133.8484  154.6156 H   0  0  0  0  0  0  0  0  0  0  0  0
  147.9373  135.7721  155.9060 H   0  0  0  0  0  0  0  0  0  0  0  0
  147.2030  136.3360  154.4150 H   0  0  0  0  0  0  0  0  0  0  0  0
  149.3860  136.3672  153.4302 H   0  0  0  0  0  0  0  0  0  0  0  0
  1  2  1  0  0  0  0
  1 22  1  0  0  0  0
  1 23  1  0  0  0  0
  1 24  1  0  0  0  0
  2  3  1  0  0  0  0
  2 16  1  0  0  0  0
  2 25  1  0  0  0  0
  3  4  1  0  0  0  0
  3 26  1  0  0  0  0
  3 27  1  0  0  0  0
  4  5  1  0  0  0  0
  5  6  2  0  0  0  0
  5  7  1  0  0  0  0
  7  8  1  0  0  0  0
  7 28  1  0  0  0  0
  8 15  2  0  0  0  0
  8  9  1  0  0  0  0
  9 10  2  0  0  0  0
  9 29  1  0  0  0  0
 10 11  1  0  0  0  0
 10 30  1  0  0  0  0
 11 12  2  0  0  0  0
 11 13  1  0  0  0  0
 13 14  1  0  0  0  0
 13 15  1  0  0  0  0
 14 31  1  0  0  0  0
 14 32  1  0  0  0  0
 14 33  1  0  0  0  0
 15 34  1  0  0  0  0
 16 21  1  0  0  0  0
 16 17  1  0  0  0  0
 16 43  1  0  0  0  0
 17 18  1  0  0  0  0
 17 35  1  0  0  0  0
 17 36  1  0  0  0  0
 18 19  1  0  0  0  0
 18 37  1  0  0  0  0
 18 38  1  0  0  0  0
 19 20  1  0  0  0  0
 20 21  1  0  0  0  0
 20 39  1  0  0  0  0
 20 40  1  0  0  0  0
 21 41  1  0  0  0  0
 21 42  1  0  0  0  0
M  CHG  1   4  -1
M  CHG  1  16   1
M  END
> <s_m_source_file>
AV-unprocessed.smi

> <i_m_source_file_index>
1100

> <i_lp_mmshare_version>
43012

> <i_f3d_flags>
0

> <s_epik_input>
W0NIMl0xW0NIMl1PW0NIMl1bQ0gyXU4xW0NASF0oW0NIM10pW0NIMl1bTkhdQyg9TylbTkhdYzJbY0hdW2NIXWMoPU8pbihbQ0gzXSlbY0hdMg==

> <s_epik_cmdline>
J2VwaWtfcHl0aG9uJywgJy1waCcsICc3LjAnLCAnLXRuJywgJzgnLCAnLW1hJywgJzIwMCcsICctbWV0YWxfYmluZGluZycsICctaW1hZScsICc8aW5maWxlLm1hZT4nLCAnLW9tYWUnLCAnPG91dGZpbGUubWFlPic=

> <r_lp_tautomer_probability>
1

> <r_epik_Ionization_Penalty>
6.79272

> <r_epik_Ionization_Penalty_Charging>
6.79272

> <r_epik_Ionization_Penalty_Neutral>
3.37009e-06

> <r_epik_State_Penalty>
7.34577

> <r_epik_Charging_Adjusted_Penalty>
14.1385

> <i_epik_Tot_Q>
0

> <i_epik_Tot_abs_Q>
2

> <r_epik_Metal_State_Penalty>
3.26257

> <b_epik_Metal_Only>
1

> <s_lp_Force_Field>
OPLS_2005

> <r_lp_Energy>
31.7412

> <b_lp_Chiralities_Consistent>
1

> <s_lp_Variant>
AV-unprocessed.smi:1100-5

> <Gold.Version>
5.8.1

> <Gold.Id.Protein>
6NUR|6NUR_protein|mol2

> <Gold.PLP.Fitness>
49.7281

> <Gold.PLP.PLP>
-38.7489

> <Gold.PLP.part.hbond>
-3.0000

> <Gold.PLP.part.metal>
0.0000

> <Gold.PLP.part.buried>
-4.9936

> <Gold.PLP.part.nonpolar>
-30.6365

> <Gold.PLP.part.repulsive>
0.3343

> <Gold.PLP.ligand.clash>
0.0000

> <Gold.PLP.ligand.torsion>
0.5794

> <Gold.PLP.Chemscore.Hbond>
4.0000

> <Gold.PLP.Chemscore.CHOScore>
0.0000

> <Gold.PLP.Chemscore.Metal>
0.0000

> <Gold.Chemscore.Hbonds>
donor molecule, donor type, donor heavy atom, donor atom, acceptor molecule, acceptor atom, score
      L1  H    16    43       P1  7948  2.00
      P1  H  7989  7998       L1     4  1.00
      P1  H  7997  8008       L1     6  1.00

> <Gold.PLP.Chemscore.Internal.Correction>
0.1381

> <Gold.Rescore>
     Score         DG    S(hbond)    S(metal)    S(lipo)     H(rot)  DE(clash)    DE(int)     intcor
     18.07     -19.97       2.73        0.00      79.00       1.51       0.08       1.82       ----

> <Gold.Chemscore.Fitness>
18.0693

> <Gold.Chemscore.DG>
-19.9652

> <Gold.Chemscore.ZeroCoef>
-5.4800

> <Gold.Chemscore.Hbond>
2.7289

> <Gold.Chemscore.Metal>
0.0000

> <Gold.Chemscore.Lipo>
79.0022

> <Gold.Chemscore.Internal_Hbond>
0.0000

> <Gold.Chemscore.DEClash>
0.0757

> <Gold.Chemscore.DEInternal>
1.8203

> <Gold.Chemscore.Rot>
1.5128

> <Gold.Chemscore.Internal.Correction>
   9.000000E+99

> <Gold.Chemscore.Hbonds>
donor molecule, donor type, donor heavy atom, donor atom, acceptor molecule, acceptor atom, score
      L1  H    16    43       P1  7948  0.77
      P1  H  7989  7998       L1     4  0.32
      P1  H  7997  8008       L1     6  0.95

> <Gold.Chemscore.Hbond.Weighted>
-9.1146

> <Gold.Chemscore.Metal.Weighted>
-0.0000

> <Gold.Chemscore.Lipo.Weighted>
-9.2433

> <Gold.Chemscore.Internal_Hbond.Weighted>
0.0000

> <Gold.Chemscore.DEClash.Weighted>
0.0757

> <Gold.Chemscore.DEInternal.Weighted>
1.8203

> <Gold.Chemscore.Rot.Weighted>
3.8726

> <Gold.Chemscore.Internal.Correction.Weighted>
   9.000000E+99

> <Gold.Protein.RotatedTorsions>
[ 6907 6896 6895 6894 ] final -101.37 input  -60.11 | X-H torsion
[ 7974 7965 7964 7962 ] final -171.46 input  175.53 | X-H torsion
[ 8008 7997 7996 7995 ] final  -60.00 input   59.86 | X-H torsion
[ 10167 10162 10161 10158 ] final   20.95 input  -65.29 | X-H torsion
[ 10718 10713 10712 10709 ] final -155.56 input   66.30 | X-H torsion
[ 10763 10752 10751 10750 ] final -125.46 input  -60.55 | X-H torsion
[ 11005 11000 10999 10996 ] final -158.31 input  -57.11 | X-H torsion

> <Gold.Protein.ActiveResidues>
 VAL166  LYS551  ARG553  GLY616  TRP617  ASP618  TYR619  PRO620  LYS621  CYS622 
 ASP623  PHE694  ASN695  SER759  ASP760  ASP761  ALA762  ILE779  LEU786  VAL792 
 PHE793  MET794  SER795  GLU796  ALA797  LYS798  CYS799  TRP800  GLU811  SER814 

> <Gold.Protein.RotatedAtoms>
  150.7152  134.0744  159.3875 H   0  0  0  0  0  0  0  0  0  0  0  0  # atno 6907 bound_to 6896
  151.8727  135.0481  160.0490 H   0  0  0  0  0  0  0  0  0  0  0  0  # atno 6908 bound_to 6896
  152.2630  133.5278  159.5430 H   0  0  0  0  0  0  0  0  0  0  0  0  # atno 6909 bound_to 6896
  144.7157  140.1919  143.6347 H   0  0  0  0  0  0  0  0  0  0  0  0  # atno 7974 bound_to 7965
  154.4378  140.1049  156.6204 H   0  0  0  0  0  0  0  0  0  0  0  0  # atno 8008 bound_to 7997
  155.5714  140.3489  155.4497 H   0  0  0  0  0  0  0  0  0  0  0  0  # atno 8009 bound_to 7997
  156.0387  140.1277  157.0169 H   0  0  0  0  0  0  0  0  0  0  0  0  # atno 8010 bound_to 7997
  140.5465  143.9586  150.6551 H   0  0  0  0  0  0  0  0  0  0  0  0  # atno 10167 bound_to 10162
  156.5145  130.8450  151.2659 H   0  0  0  0  0  0  0  0  0  0  0  0  # atno 10718 bound_to 10713
  154.8736  135.4029  154.3272 H   0  0  0  0  0  0  0  0  0  0  0  0  # atno 10763 bound_to 10752
  153.4091  135.7020  153.6377 H   0  0  0  0  0  0  0  0  0  0  0  0  # atno 10764 bound_to 10752
  153.5087  135.3712  155.2546 H   0  0  0  0  0  0  0  0  0  0  0  0  # atno 10765 bound_to 10752
  140.6550  134.4410  157.5235 H   0  0  0  0  0  0  0  0  0  0  0  0  # atno 11005 bound_to 11000
  145.8760  139.2297  143.1633 LP  0  0  0  0  0  0  0  0  0  0  0  0  # atno 17320 bound_to 7965
  146.0040  140.8495  143.0004 LP  0  0  0  0  0  0  0  0  0  0  0  0  # atno 17321 bound_to 7965
  140.3000  143.3267  152.0980 LP  0  0  0  0  0  0  0  0  0  0  0  0  # atno 17342 bound_to 10162
  139.5009  144.6702  151.6260 LP  0  0  0  0  0  0  0  0  0  0  0  0  # atno 17343 bound_to 10162
  157.7446  130.9938  150.2686 LP  0  0  0  0  0  0  0  0  0  0  0  0  # atno 17370 bound_to 10713
  156.3208  130.3785  149.7577 LP  0  0  0  0  0  0  0  0  0  0  0  0  # atno 17371 bound_to 10713
  139.9032  134.8507  156.1808 LP  0  0  0  0  0  0  0  0  0  0  0  0  # atno 17394 bound_to 11000
  141.0508  133.6889  156.1769 LP  0  0  0  0  0  0  0  0  0  0  0  0  # atno 17395 bound_to 11000

$$$$
