AV-unprocessed.smi:49|AV-procd|sdf|476|dock8
  -GOLD-   2262016343D 1   1.00000     0.00000
 Structure written by MMmdl.
 27 28  0  0  0  0  0  0  0  0  1 V2000
  153.5910  141.9012  160.6753 C   0  0  0  0  0  0  0  0  0  0  0  0
  153.0725  143.2150  160.0797 C   0  0  0  0  0  0  0  0  0  0  0  0
  152.0849  142.9884  158.9834 C   0  0  0  0  0  0  0  0  0  0  0  0
  151.6867  141.7401  158.5940 N   0  0  0  0  0  0  0  0  0  0  0  0
  150.8632  142.0544  157.5976 C   0  0  0  0  0  0  0  0  0  0  0  0
  150.1050  141.0816  156.7484 C   0  0  1  0  0  0  0  0  0  0  0  0
  149.3164  141.7628  155.6204 C   0  0  0  0  0  0  0  0  0  0  0  0
  149.2999  140.6996  154.5317 C   0  0  1  0  0  0  0  0  0  0  0  0
  149.0843  141.2327  153.2426 O   0  0  0  0  0  0  0  0  0  0  0  0
  150.6847  140.0773  154.6788 C   0  0  0  0  0  0  0  0  0  0  0  0
  150.9618  140.0729  156.1126 N   0  0  0  0  0  0  0  0  0  0  0  0
  150.7905  143.3718  157.3961 N   0  0  0  0  0  0  0  0  0  0  0  0
  151.5850  144.0060  158.2839 N   0  0  0  0  0  0  0  0  0  0  0  0
  149.3933  140.5607  157.3901 H   0  0  0  0  0  0  0  0  0  0  0  0
  148.5323  139.9553  154.7488 H   0  0  0  0  0  0  0  0  0  0  0  0
  150.2462  143.8576  156.6978 H   0  0  0  0  0  0  0  0  0  0  0  0
  154.3129  142.0928  161.4691 H   0  0  0  0  0  0  0  0  0  0  0  0
  154.0836  141.2927  159.9165 H   0  0  0  0  0  0  0  0  0  0  0  0
  152.7763  141.3140  161.0999 H   0  0  0  0  0  0  0  0  0  0  0  0
  152.6050  143.8160  160.8605 H   0  0  0  0  0  0  0  0  0  0  0  0
  153.9072  143.8027  159.6956 H   0  0  0  0  0  0  0  0  0  0  0  0
  148.3228  142.0882  155.9294 H   0  0  0  0  0  0  0  0  0  0  0  0
  149.8591  142.6393  155.2604 H   0  0  0  0  0  0  0  0  0  0  0  0
  149.2278  140.5491  152.6062 H   0  0  0  0  0  0  0  0  0  0  0  0
  150.7455  139.0780  154.2474 H   0  0  0  0  0  0  0  0  0  0  0  0
  151.4230  140.7012  154.1733 H   0  0  0  0  0  0  0  0  0  0  0  0
  150.7159  139.1619  156.4859 H   0  0  0  0  0  0  0  0  0  0  0  0
  1  2  1  0  0  0  0
  1 17  1  0  0  0  0
  1 18  1  0  0  0  0
  1 19  1  0  0  0  0
  2 20  1  0  0  0  0
  2 21  1  0  0  0  0
  2  3  1  0  0  0  0
  3  4  1  0  0  0  0
  3 13  2  0  0  0  0
  4  5  2  0  0  0  0
  5  6  1  0  0  0  0
  5 12  1  0  0  0  0
  6 14  1  0  0  0  0
  6 11  1  0  0  0  0
  6  7  1  0  0  0  0
  7  8  1  0  0  0  0
  7 22  1  0  0  0  0
  7 23  1  0  0  0  0
  8 15  1  0  0  0  0
  8  9  1  0  0  0  0
  8 10  1  0  0  0  0
  9 24  1  0  0  0  0
 10 11  1  0  0  0  0
 10 25  1  0  0  0  0
 10 26  1  0  0  0  0
 11 27  1  0  0  0  0
 12 13  1  0  0  0  0
 12 16  1  0  0  0  0
M  END
> <s_m_source_file>
AV-unprocessed.smi

> <i_m_source_file_index>
49

> <i_lp_mmshare_version>
43012

> <i_f3d_flags>
0

> <s_epik_input>
W0NIM11bQ0gyXWMxbmMobltuSF0xKVtDQEBIXTJbQ0gyXVtDQEBIXShbT0hdKVtDSDJdW05IXTI=

> <s_epik_cmdline>
J2VwaWtfcHl0aG9uJywgJy1waCcsICc3LjAnLCAnLXRuJywgJzgnLCAnLW1hJywgJzIwMCcsICctbWV0YWxfYmluZGluZycsICctaW1hZScsICc8aW5maWxlLm1hZT4nLCAnLW9tYWUnLCAnPG91dGZpbGUubWFlPic=

> <r_epik_Ionization_Penalty>
1.31544

> <r_epik_Ionization_Penalty_Charging>
0

> <r_epik_Ionization_Penalty_Neutral>
1.31544

> <r_epik_State_Penalty>
2.06074

> <r_epik_Charging_Adjusted_Penalty>
2.06074

> <i_epik_Tot_Q>
0

> <i_epik_Tot_abs_Q>
0

> <r_epik_Metal_State_Penalty>
2.32913

> <b_epik_Metal_Only>
0

> <s_lp_Force_Field>
OPLS_2005

> <r_lp_Energy>
18.1426

> <b_lp_Chiralities_Consistent>
1

> <s_lp_Variant>
AV-unprocessed.smi:49-14

> <Gold.Version>
5.8.1

> <Gold.Id.Protein>
6NUR|6NUR_protein|mol2

> <Gold.PLP.Fitness>
34.9868

> <Gold.PLP.PLP>
-26.7156

> <Gold.PLP.part.hbond>
-3.3928

> <Gold.PLP.part.metal>
0.0000

> <Gold.PLP.part.buried>
-1.6801

> <Gold.PLP.part.nonpolar>
-22.0211

> <Gold.PLP.part.repulsive>
0.0921

> <Gold.PLP.ligand.clash>
0.0000

> <Gold.PLP.ligand.torsion>
0.0450

> <Gold.PLP.Chemscore.Hbond>
2.7841

> <Gold.PLP.Chemscore.CHOScore>
0.0000

> <Gold.PLP.Chemscore.Metal>
0.0000

> <Gold.Chemscore.Hbonds>
donor molecule, donor type, donor heavy atom, donor atom, acceptor molecule, acceptor atom, score
      L1  H     9    24       P1  7957  1.00
      L1  H    12    16       P1  8028  1.00
      P1  H  8011  8017       L1     9  0.70

> <Gold.PLP.Chemscore.Internal.Correction>
0.0090

> <Gold.Rescore>
     Score         DG    S(hbond)    S(metal)    S(lipo)     H(rot)  DE(clash)    DE(int)     intcor
     14.28     -14.52       2.40        0.00      49.19       1.86       0.15       0.08       ----

> <Gold.Chemscore.Fitness>
14.2818

> <Gold.Chemscore.DG>
-14.5152

> <Gold.Chemscore.ZeroCoef>
-5.4800

> <Gold.Chemscore.Hbond>
2.4046

> <Gold.Chemscore.Metal>
0.0000

> <Gold.Chemscore.Lipo>
49.1854

> <Gold.Chemscore.Internal_Hbond>
0.0000

> <Gold.Chemscore.DEClash>
0.1524

> <Gold.Chemscore.DEInternal>
0.0810

> <Gold.Chemscore.Rot>
1.8558

> <Gold.Chemscore.Internal.Correction>
   9.000000E+99

> <Gold.Chemscore.Hbonds>
donor molecule, donor type, donor heavy atom, donor atom, acceptor molecule, acceptor atom, score
      L1  H     9    24       P1  7957  0.94
      L1  H    12    16       P1  8028  1.00
      P1  H  8011  8017       L1     9  0.07

> <Gold.Chemscore.Hbond.Weighted>
-8.0313

> <Gold.Chemscore.Metal.Weighted>
-0.0000

> <Gold.Chemscore.Lipo.Weighted>
-5.7547

> <Gold.Chemscore.Internal_Hbond.Weighted>
0.0000

> <Gold.Chemscore.DEClash.Weighted>
0.1524

> <Gold.Chemscore.DEInternal.Weighted>
0.0810

> <Gold.Chemscore.Rot.Weighted>
4.7507

> <Gold.Chemscore.Internal.Correction.Weighted>
   9.000000E+99

> <Gold.Protein.RotatedTorsions>
[ 6907 6896 6895 6894 ] final   90.68 input  -60.11 | X-H torsion
[ 7974 7965 7964 7962 ] final   18.69 input  175.53 | X-H torsion
[ 8008 7997 7996 7995 ] final   87.44 input   59.86 | X-H torsion
[ 10167 10162 10161 10158 ] final  145.19 input  -65.29 | X-H torsion
[ 10718 10713 10712 10709 ] final   61.47 input   66.30 | X-H torsion
[ 10763 10752 10751 10750 ] final  -97.45 input  -60.55 | X-H torsion
[ 11005 11000 10999 10996 ] final   61.53 input  -57.11 | X-H torsion

> <Gold.Protein.ActiveResidues>
 VAL166  LYS551  ARG553  GLY616  TRP617  ASP618  TYR619  PRO620  LYS621  CYS622 
 ASP623  PHE694  ASN695  SER759  ASP760  ASP761  ALA762  ILE779  LEU786  VAL792 
 PHE793  MET794  SER795  GLU796  ALA797  LYS798  CYS799  TRP800  GLU811  SER814 

> <Gold.Protein.RotatedAtoms>
  152.5446  134.1773  159.8620 H   0  0  0  0  0  0  0  0  0  0  0  0  # atno 6907 bound_to 6896
  151.1778  133.4736  159.2601 H   0  0  0  0  0  0  0  0  0  0  0  0  # atno 6908 bound_to 6896
  151.1209  135.0090  159.8593 H   0  0  0  0  0  0  0  0  0  0  0  0  # atno 6909 bound_to 6896
  146.2176  139.8421  142.8639 H   0  0  0  0  0  0  0  0  0  0  0  0  # atno 7974 bound_to 7965
  155.9754  140.3382  155.6614 H   0  0  0  0  0  0  0  0  0  0  0  0  # atno 8008 bound_to 7997
  155.6619  140.0717  157.2569 H   0  0  0  0  0  0  0  0  0  0  0  0  # atno 8009 bound_to 7997
  154.4177  140.1707  156.1774 H   0  0  0  0  0  0  0  0  0  0  0  0  # atno 8010 bound_to 7997
  139.4931  144.5919  151.6663 H   0  0  0  0  0  0  0  0  0  0  0  0  # atno 10167 bound_to 10162
  157.5830  130.8997  149.9466 H   0  0  0  0  0  0  0  0  0  0  0  0  # atno 10718 bound_to 10713
  154.7329  135.5046  153.8993 H   0  0  0  0  0  0  0  0  0  0  0  0  # atno 10763 bound_to 10752
  153.0967  135.6674  153.9758 H   0  0  0  0  0  0  0  0  0  0  0  0  # atno 10764 bound_to 10752
  153.9555  135.3053  155.3415 H   0  0  0  0  0  0  0  0  0  0  0  0  # atno 10765 bound_to 10752
  140.0155  134.6232  155.9716 H   0  0  0  0  0  0  0  0  0  0  0  0  # atno 11005 bound_to 11000
  145.2889  141.0161  143.3675 LP  0  0  0  0  0  0  0  0  0  0  0  0  # atno 17320 bound_to 7965
  144.9093  139.4549  143.6595 LP  0  0  0  0  0  0  0  0  0  0  0  0  # atno 17321 bound_to 7965
  140.5548  144.0366  150.6143 LP  0  0  0  0  0  0  0  0  0  0  0  0  # atno 17342 bound_to 10162
  140.3432  143.3007  152.0566 LP  0  0  0  0  0  0  0  0  0  0  0  0  # atno 17343 bound_to 10162
  156.0877  130.3666  150.0454 LP  0  0  0  0  0  0  0  0  0  0  0  0  # atno 17370 bound_to 10713
  156.8590  130.9485  151.3619 LP  0  0  0  0  0  0  0  0  0  0  0  0  # atno 17371 bound_to 10713
  141.1740  133.6539  156.4757 LP  0  0  0  0  0  0  0  0  0  0  0  0  # atno 17394 bound_to 11000
  140.4479  134.6956  157.5025 LP  0  0  0  0  0  0  0  0  0  0  0  0  # atno 17395 bound_to 11000

$$$$
