AV-unprocessed.smi:2047|AV-procd|sdf|8315|dock4
  -GOLD-   2272010583D 1   1.00000     0.00000
 Structure written by MMmdl.
 42 44  0  0  0  0  0  0  0  0  1 V2000
  150.3858  133.9286  155.5436 O   0  0  0  0  0  0  0  0  0  0  0  0
  149.8584  134.5252  154.6050 C   0  0  0  0  0  0  0  0  0  0  0  0
  148.9464  134.0068  153.7655 N   0  0  0  0  0  0  0  0  0  0  0  0
  148.3705  132.7039  153.7686 C   0  0  0  0  0  0  0  0  0  0  0  0
  148.8442  131.6777  154.6232 C   0  0  0  0  0  0  0  0  0  0  0  0
  148.2837  130.3918  154.5351 C   0  0  0  0  0  0  0  0  0  0  0  0
  147.2768  130.1695  153.5816 C   0  0  0  0  0  0  0  0  0  0  0  0
  146.8246  131.1300  152.7514 N   0  0  0  0  0  0  0  0  0  0  0  0
  147.3450  132.3794  152.8340 C   0  0  0  0  0  0  0  0  0  0  0  0
  146.8229  133.3475  151.9455 N   0  0  0  0  0  0  0  0  0  0  0  0
  146.0575  132.9389  150.7725 C   0  0  0  0  0  0  0  0  0  0  0  0
  145.3591  134.2089  150.2958 C   0  0  0  0  0  0  0  0  0  0  0  0
  145.0420  134.9175  151.6090 C   0  0  0  0  0  0  0  0  0  0  0  0
  146.2215  134.5495  152.5160 C   0  0  0  0  0  0  0  0  0  0  0  0
  150.1224  135.8028  154.2988 N   0  0  0  0  0  0  0  0  0  0  0  0
  151.0792  136.6533  154.9998 C   0  0  2  0  0  0  0  0  0  0  0  0
  150.5101  137.1345  156.3473 C   0  0  0  0  0  0  0  0  0  0  0  0
  151.3732  138.2940  156.8579 C   0  0  0  0  0  0  0  0  0  0  0  0
  151.9782  139.1697  155.3659 S   0  0  0  0  0  0  0  0  0  0  0  0
  151.1803  140.3868  155.1535 O   0  0  0  0  0  0  0  0  0  0  0  0
  153.4472  139.2246  155.4067 O   0  0  0  0  0  0  0  0  0  0  0  0
  151.4452  137.8915  154.1656 C   0  0  0  0  0  0  0  0  0  0  0  0
  148.5473  134.6482  153.0957 H   0  0  0  0  0  0  0  0  0  0  0  0
  149.6436  131.8443  155.3282 H   0  0  0  0  0  0  0  0  0  0  0  0
  148.6276  129.5924  155.1745 H   0  0  0  0  0  0  0  0  0  0  0  0
  146.8267  129.1934  153.4772 H   0  0  0  0  0  0  0  0  0  0  0  0
  146.7044  132.5175  150.0026 H   0  0  0  0  0  0  0  0  0  0  0  0
  145.3081  132.1922  151.0391 H   0  0  0  0  0  0  0  0  0  0  0  0
  146.0461  134.8136  149.7019 H   0  0  0  0  0  0  0  0  0  0  0  0
  144.4735  134.0070  149.6929 H   0  0  0  0  0  0  0  0  0  0  0  0
  144.9165  135.9944  151.4929 H   0  0  0  0  0  0  0  0  0  0  0  0
  144.1188  134.5151  152.0276 H   0  0  0  0  0  0  0  0  0  0  0  0
  145.8984  134.3974  153.5469 H   0  0  0  0  0  0  0  0  0  0  0  0
  146.9604  135.3511  152.5068 H   0  0  0  0  0  0  0  0  0  0  0  0
  149.6354  136.2144  153.5161 H   0  0  0  0  0  0  0  0  0  0  0  0
  151.9917  136.0914  155.2087 H   0  0  0  0  0  0  0  0  0  0  0  0
  149.4924  137.4985  156.1985 H   0  0  0  0  0  0  0  0  0  0  0  0
  150.4557  136.3259  157.0768 H   0  0  0  0  0  0  0  0  0  0  0  0
  150.8271  138.9812  157.5042 H   0  0  0  0  0  0  0  0  0  0  0  0
  152.2404  137.9189  157.4015 H   0  0  0  0  0  0  0  0  0  0  0  0
  152.2393  137.6980  153.4441 H   0  0  0  0  0  0  0  0  0  0  0  0
  150.5779  138.2807  153.6311 H   0  0  0  0  0  0  0  0  0  0  0  0
  1  2  2  0  0  0  0
  2  3  1  0  0  0  0
  2 15  1  0  0  0  0
  3  4  1  0  0  0  0
  3 23  1  0  0  0  0
  4  9  1  0  0  0  0
  4  5  2  0  0  0  0
  5  6  1  0  0  0  0
  5 24  1  0  0  0  0
  6  7  2  0  0  0  0
  6 25  1  0  0  0  0
  7  8  1  0  0  0  0
  7 26  1  0  0  0  0
  8  9  2  0  0  0  0
  9 10  1  0  0  0  0
 10 14  1  0  0  0  0
 10 11  1  0  0  0  0
 11 12  1  0  0  0  0
 11 27  1  0  0  0  0
 11 28  1  0  0  0  0
 12 13  1  0  0  0  0
 12 29  1  0  0  0  0
 12 30  1  0  0  0  0
 13 14  1  0  0  0  0
 13 31  1  0  0  0  0
 13 32  1  0  0  0  0
 14 33  1  0  0  0  0
 14 34  1  0  0  0  0
 15 16  1  0  0  0  0
 15 35  1  0  0  0  0
 16 22  1  0  0  0  0
 16 17  1  0  0  0  0
 16 36  1  0  0  0  0
 17 18  1  0  0  0  0
 17 37  1  0  0  0  0
 17 38  1  0  0  0  0
 18 19  1  0  0  0  0
 18 39  1  0  0  0  0
 18 40  1  0  0  0  0
 19 20  2  0  0  0  0
 19 21  2  0  0  0  0
 19 22  1  0  0  0  0
 22 41  1  0  0  0  0
 22 42  1  0  0  0  0
M  END
> <s_m_source_file>
AV-unprocessed.smi

> <i_m_source_file_index>
2047

> <i_lp_mmshare_version>
43012

> <i_f3d_flags>
0

> <s_epik_input>
Tz1TMSg9TylbQ0gyXVtDSDJdW0NASF0oW0NIMl0xKVtOSF1DKD1PKVtOSF1jMltjSF1bY0hdW2NIXW5jMk4zW0NIMl1bQ0gyXVtDSDJdW0NIMl0z

> <s_epik_cmdline>
J2VwaWtfcHl0aG9uJywgJy1waCcsICc3LjAnLCAnLXRuJywgJzgnLCAnLW1hJywgJzIwMCcsICctbWV0YWxfYmluZGluZycsICctaW1hZScsICc8aW5maWxlLm1hZT4nLCAnLW9tYWUnLCAnPG91dGZpbGUubWFlPic=

> <r_lp_tautomer_probability>
1

> <r_epik_Ionization_Penalty>
0.0840625

> <r_epik_Ionization_Penalty_Charging>
0

> <r_epik_Ionization_Penalty_Neutral>
0.0840625

> <r_epik_State_Penalty>
0.0741601

> <r_epik_Charging_Adjusted_Penalty>
0.0741601

> <i_epik_Tot_Q>
0

> <i_epik_Tot_abs_Q>
0

> <r_epik_Metal_State_Penalty>
0.0657339

> <b_epik_Metal_Only>
0

> <s_lp_Force_Field>
OPLS_2005

> <r_lp_Energy>
32.0686

> <b_lp_Chiralities_Consistent>
1

> <s_lp_Variant>
AV-unprocessed.smi:2047-1

> <Gold.Version>
5.8.1

> <Gold.Id.Protein>
6NUR|6NUR_protein|mol2

> <Gold.PLP.Fitness>
43.2946

> <Gold.PLP.PLP>
-32.3123

> <Gold.PLP.part.hbond>
-4.6171

> <Gold.PLP.part.metal>
0.0000

> <Gold.PLP.part.buried>
-2.7574

> <Gold.PLP.part.nonpolar>
-26.0278

> <Gold.PLP.part.repulsive>
0.4421

> <Gold.PLP.ligand.clash>
0.0000

> <Gold.PLP.ligand.torsion>
0.4516

> <Gold.PLP.Chemscore.Hbond>
3.8553

> <Gold.PLP.Chemscore.CHOScore>
0.0000

> <Gold.PLP.Chemscore.Metal>
0.0000

> <Gold.Chemscore.Hbonds>
donor molecule, donor type, donor heavy atom, donor atom, acceptor molecule, acceptor atom, score
      L1  H     3    23       P1  7948  0.88
      L1  H    15    35       P1  7948  1.00
      P1  H  7989  7998       L1    20  1.00
      P1  H  7997  8009       L1    21  0.86

> <Gold.PLP.Chemscore.Internal.Correction>
0.3197

> <Gold.Rescore>
     Score         DG    S(hbond)    S(metal)    S(lipo)     H(rot)  DE(clash)    DE(int)     intcor
     16.19     -18.92       2.89        0.00      59.76       1.25       0.28       2.44       ----

> <Gold.Chemscore.Fitness>
16.1936

> <Gold.Chemscore.DG>
-18.9211

> <Gold.Chemscore.ZeroCoef>
-5.4800

> <Gold.Chemscore.Hbond>
2.8876

> <Gold.Chemscore.Metal>
0.0000

> <Gold.Chemscore.Lipo>
59.7562

> <Gold.Chemscore.Internal_Hbond>
0.0000

> <Gold.Chemscore.DEClash>
0.2844

> <Gold.Chemscore.DEInternal>
2.4430

> <Gold.Chemscore.Rot>
1.2480

> <Gold.Chemscore.Internal.Correction>
   9.000000E+99

> <Gold.Chemscore.Hbonds>
donor molecule, donor type, donor heavy atom, donor atom, acceptor molecule, acceptor atom, score
      L1  H     3    23       P1  7948  0.29
      L1  H    15    35       P1  7948  0.34
      P1  H  7989  7998       L1    20  0.38
      P1  H  7997  8009       L1    21  0.82

> <Gold.Chemscore.Hbond.Weighted>
-9.6445

> <Gold.Chemscore.Metal.Weighted>
-0.0000

> <Gold.Chemscore.Lipo.Weighted>
-6.9915

> <Gold.Chemscore.Internal_Hbond.Weighted>
0.0000

> <Gold.Chemscore.DEClash.Weighted>
0.2844

> <Gold.Chemscore.DEInternal.Weighted>
2.4430

> <Gold.Chemscore.Rot.Weighted>
3.1948

> <Gold.Chemscore.Internal.Correction.Weighted>
   9.000000E+99

> <Gold.Protein.RotatedTorsions>
[ 6907 6896 6895 6894 ] final -143.60 input  -60.11 | X-H torsion
[ 7974 7965 7964 7962 ] final  146.18 input  175.53 | X-H torsion
[ 8008 7997 7996 7995 ] final -161.96 input   59.86 | X-H torsion
[ 10167 10162 10161 10158 ] final  -11.07 input  -65.29 | X-H torsion
[ 10718 10713 10712 10709 ] final -110.34 input   66.30 | X-H torsion
[ 10763 10752 10751 10750 ] final   45.88 input  -60.55 | X-H torsion
[ 11005 11000 10999 10996 ] final -165.78 input  -57.11 | X-H torsion

> <Gold.Protein.ActiveResidues>
 VAL166  LYS551  ARG553  GLY616  TRP617  ASP618  TYR619  PRO620  LYS621  CYS622 
 ASP623  PHE694  ASN695  SER759  ASP760  ASP761  ALA762  ILE779  LEU786  VAL792 
 PHE793  MET794  SER795  GLU796  ALA797  LYS798  CYS799  TRP800  GLU811  SER814 

> <Gold.Protein.RotatedAtoms>
  151.1026  133.5232  159.2609 H   0  0  0  0  0  0  0  0  0  0  0  0  # atno 6907 bound_to 6896
  151.2057  135.0460  159.8900 H   0  0  0  0  0  0  0  0  0  0  0  0  # atno 6908 bound_to 6896
  152.5444  134.0849  159.8305 H   0  0  0  0  0  0  0  0  0  0  0  0  # atno 6909 bound_to 6896
  144.8692  139.5873  143.5894 H   0  0  0  0  0  0  0  0  0  0  0  0  # atno 7974 bound_to 7965
  155.7998  140.0890  157.1963 H   0  0  0  0  0  0  0  0  0  0  0  0  # atno 8008 bound_to 7997
  154.3982  140.1474  156.3320 H   0  0  0  0  0  0  0  0  0  0  0  0  # atno 8009 bound_to 7997
  155.8474  140.3436  155.5673 H   0  0  0  0  0  0  0  0  0  0  0  0  # atno 8010 bound_to 7997
  140.7129  143.5679  150.9124 H   0  0  0  0  0  0  0  0  0  0  0  0  # atno 10167 bound_to 10162
  156.0585  130.5810  150.8223 H   0  0  0  0  0  0  0  0  0  0  0  0  # atno 10718 bound_to 10713
  152.9818  135.6025  154.3509 H   0  0  0  0  0  0  0  0  0  0  0  0  # atno 10763 bound_to 10752
  154.3199  135.2770  155.2526 H   0  0  0  0  0  0  0  0  0  0  0  0  # atno 10764 bound_to 10752
  154.4698  135.5944  153.6369 H   0  0  0  0  0  0  0  0  0  0  0  0  # atno 10765 bound_to 10752
  140.5718  134.5230  157.5163 H   0  0  0  0  0  0  0  0  0  0  0  0  # atno 11005 bound_to 11000
  146.2918  139.7161  142.9155 LP  0  0  0  0  0  0  0  0  0  0  0  0  # atno 17320 bound_to 7965
  145.4163  141.0402  143.2989 LP  0  0  0  0  0  0  0  0  0  0  0  0  # atno 17321 bound_to 7965
  139.9405  143.6388  152.3055 LP  0  0  0  0  0  0  0  0  0  0  0  0  # atno 17342 bound_to 10162
  139.6870  144.7650  151.1505 LP  0  0  0  0  0  0  0  0  0  0  0  0  # atno 17343 bound_to 10162
  157.5575  131.0945  150.9607 LP  0  0  0  0  0  0  0  0  0  0  0  0  # atno 17370 bound_to 10713
  156.9852  130.5542  149.5299 LP  0  0  0  0  0  0  0  0  0  0  0  0  # atno 17371 bound_to 10713
  139.9358  134.7878  156.0807 LP  0  0  0  0  0  0  0  0  0  0  0  0  # atno 17394 bound_to 11000
  141.1051  133.6663  156.2845 LP  0  0  0  0  0  0  0  0  0  0  0  0  # atno 17395 bound_to 11000

$$$$
