AV-unprocessed.smi:3013|AV-procd|sdf|11464|dock8
  -GOLD-   2272016403D 1   1.00000     0.00000
 Structure written by MMmdl.
 45 46  0  0  0  0  0  0  0  0  2 V2000
  148.8662  130.3679  153.9001 C   0  0  0  0  0  0  0  0  0  0  0  0
  148.4267  131.6910  153.2373 C   0  0  2  0  0  0  0  0  0  0  0  0
  148.0233  132.7686  154.2676 C   0  0  0  0  0  0  0  0  0  0  0  0
  149.2144  133.3674  155.0403 C   0  0  0  0  0  0  0  0  0  0  0  0
  149.5977  134.6737  154.5158 N   0  0  0  0  0  0  0  0  0  0  0  0
  150.5059  135.4873  155.0744 C   0  0  0  0  0  0  0  0  0  0  0  0
  151.1347  135.2008  156.0937 O   0  0  0  0  0  0  0  0  0  0  0  0
  150.6299  136.6333  154.3832 N   0  0  0  0  0  0  0  0  0  0  0  0
  151.4932  137.7271  154.6621 C   0  0  0  0  0  0  0  0  0  0  0  0
  152.8072  137.6583  154.8525 N   0  0  0  0  0  0  0  0  0  0  0  0
  153.0761  138.9803  155.0669 C   0  0  0  0  0  0  0  0  0  0  0  0
  152.0303  139.8054  155.0152 N   0  0  0  0  0  0  0  0  0  0  0  0
  151.0015  138.9666  154.7491 N   0  0  0  0  0  0  0  0  0  0  0  0
  149.6481  139.4679  154.6074 C   0  0  0  0  0  0  0  0  0  0  0  0
  147.3483  131.5031  152.2223 N   0  3  0  0  0  0  0  0  0  0  0  0
  146.8419  132.7543  151.5929 C   0  0  0  0  0  0  0  0  0  0  0  0
  145.9166  132.4344  150.4072 C   0  0  0  0  0  0  0  0  0  0  0  0
  144.7531  131.5354  150.8468 C   0  0  0  0  0  0  0  0  0  0  0  0
  145.2946  130.2712  151.5274 C   0  0  0  0  0  0  0  0  0  0  0  0
  146.2377  130.6296  152.6887 C   0  0  0  0  0  0  0  0  0  0  0  0
  149.7540  130.5119  154.5154 H   0  0  0  0  0  0  0  0  0  0  0  0
  149.1193  129.6095  153.1594 H   0  0  0  0  0  0  0  0  0  0  0  0
  148.0888  129.9591  154.5458 H   0  0  0  0  0  0  0  0  0  0  0  0
  149.2891  132.0902  152.7013 H   0  0  0  0  0  0  0  0  0  0  0  0
  147.5083  133.5740  153.7420 H   0  0  0  0  0  0  0  0  0  0  0  0
  147.3033  132.3629  154.9788 H   0  0  0  0  0  0  0  0  0  0  0  0
  148.9595  133.4973  156.0917 H   0  0  0  0  0  0  0  0  0  0  0  0
  150.0712  132.6921  155.0093 H   0  0  0  0  0  0  0  0  0  0  0  0
  149.1266  134.9855  153.6791 H   0  0  0  0  0  0  0  0  0  0  0  0
  150.0404  136.7399  153.5710 H   0  0  0  0  0  0  0  0  0  0  0  0
  154.0728  139.3456  155.2656 H   0  0  0  0  0  0  0  0  0  0  0  0
  148.9808  138.9175  155.2710 H   0  0  0  0  0  0  0  0  0  0  0  0
  149.3157  139.3370  153.5775 H   0  0  0  0  0  0  0  0  0  0  0  0
  149.6031  140.5275  154.8624 H   0  0  0  0  0  0  0  0  0  0  0  0
  146.2980  133.3492  152.3279 H   0  0  0  0  0  0  0  0  0  0  0  0
  147.6713  133.3659  151.2395 H   0  0  0  0  0  0  0  0  0  0  0  0
  145.5304  133.3584  149.9759 H   0  0  0  0  0  0  0  0  0  0  0  0
  146.4867  131.9396  149.6198 H   0  0  0  0  0  0  0  0  0  0  0  0
  144.1076  132.0788  151.5381 H   0  0  0  0  0  0  0  0  0  0  0  0
  144.1369  131.2679  149.9880 H   0  0  0  0  0  0  0  0  0  0  0  0
  144.4676  129.6615  151.8925 H   0  0  0  0  0  0  0  0  0  0  0  0
  145.8285  129.6621  150.7966 H   0  0  0  0  0  0  0  0  0  0  0  0
  146.6400  129.7100  153.1149 H   0  0  0  0  0  0  0  0  0  0  0  0
  145.6781  131.1286  153.4806 H   0  0  0  0  0  0  0  0  0  0  0  0
  147.7875  130.9829  151.4761 H   0  0  0  0  0  0  0  0  0  0  0  0
  1  2  1  0  0  0  0
  1 21  1  0  0  0  0
  1 22  1  0  0  0  0
  1 23  1  0  0  0  0
  2  3  1  0  0  0  0
  2 15  1  0  0  0  0
  2 24  1  0  0  0  0
  3  4  1  0  0  0  0
  3 25  1  0  0  0  0
  3 26  1  0  0  0  0
  4  5  1  0  0  0  0
  4 27  1  0  0  0  0
  4 28  1  0  0  0  0
  5  6  1  0  0  0  0
  5 29  1  0  0  0  0
  6  7  2  0  0  0  0
  6  8  1  0  0  0  0
  8  9  1  0  0  0  0
  8 30  1  0  0  0  0
  9 13  1  0  0  0  0
  9 10  2  0  0  0  0
 10 11  1  0  0  0  0
 11 12  2  0  0  0  0
 11 31  1  0  0  0  0
 12 13  1  0  0  0  0
 13 14  1  0  0  0  0
 14 32  1  0  0  0  0
 14 33  1  0  0  0  0
 14 34  1  0  0  0  0
 15 20  1  0  0  0  0
 15 16  1  0  0  0  0
 15 45  1  0  0  0  0
 16 17  1  0  0  0  0
 16 35  1  0  0  0  0
 16 36  1  0  0  0  0
 17 18  1  0  0  0  0
 17 37  1  0  0  0  0
 17 38  1  0  0  0  0
 18 19  1  0  0  0  0
 18 39  1  0  0  0  0
 18 40  1  0  0  0  0
 19 20  1  0  0  0  0
 19 41  1  0  0  0  0
 19 42  1  0  0  0  0
 20 43  1  0  0  0  0
 20 44  1  0  0  0  0
M  CHG  1  15   1
M  END
> <s_m_source_file>
AV-unprocessed.smi

> <i_m_source_file_index>
3013

> <i_lp_mmshare_version>
43012

> <i_f3d_flags>
0

> <s_epik_input>
W0NIMl0xW0NIMl1bQ0gyXVtDSDJdW0NIMl1OMVtDQEhdKFtDSDNdKVtDSDJdW0NIMl1bTkhdQyg9TylbTkhdYzJuW2NIXW5uMltDSDNd

> <s_epik_cmdline>
J2VwaWtfcHl0aG9uJywgJy1waCcsICc3LjAnLCAnLXRuJywgJzgnLCAnLW1hJywgJzIwMCcsICctbWV0YWxfYmluZGluZycsICctaW1hZScsICc8aW5maWxlLm1hZT4nLCAnLW9tYWUnLCAnPG91dGZpbGUubWFlPic=

> <r_lp_tautomer_probability>
1

> <r_epik_Ionization_Penalty>
0.000375855

> <r_epik_Ionization_Penalty_Charging>
0.000355659

> <r_epik_Ionization_Penalty_Neutral>
2.01955e-05

> <r_epik_State_Penalty>
0.000216264

> <r_epik_Charging_Adjusted_Penalty>
0.000571923

> <i_epik_Tot_Q>
1

> <i_epik_Tot_abs_Q>
1

> <r_epik_Metal_State_Penalty>
-0

> <b_epik_Metal_Only>
0

> <s_lp_Force_Field>
OPLS_2005

> <r_lp_Energy>
21.7492

> <b_lp_Chiralities_Consistent>
1

> <s_lp_Variant>
AV-unprocessed.smi:3013-1

> <Gold.Version>
5.8.1

> <Gold.Id.Protein>
6NUR|6NUR_protein|mol2

> <Gold.PLP.Fitness>
53.2423

> <Gold.PLP.PLP>
-41.1890

> <Gold.PLP.part.hbond>
-6.8553

> <Gold.PLP.part.metal>
0.0000

> <Gold.PLP.part.buried>
-1.8199

> <Gold.PLP.part.nonpolar>
-33.1179

> <Gold.PLP.part.repulsive>
0.2859

> <Gold.PLP.ligand.clash>
0.0000

> <Gold.PLP.ligand.torsion>
1.0944

> <Gold.PLP.Chemscore.Hbond>
4.6928

> <Gold.PLP.Chemscore.CHOScore>
0.0000

> <Gold.PLP.Chemscore.Metal>
0.0000

> <Gold.Chemscore.Hbonds>
donor molecule, donor type, donor heavy atom, donor atom, acceptor molecule, acceptor atom, score
      L1  H     5    29       P1  7948  0.65
      L1  H     8    30       P1  7948  0.86
      L1  H    15    45       P1 10747  1.00
      P1  H  7989  7998       L1    12  0.56
      P1  H 10752 10763       L1     7  0.25

> <Gold.PLP.Chemscore.Internal.Correction>
0.1637

> <Gold.Rescore>
     Score         DG    S(hbond)    S(metal)    S(lipo)     H(rot)  DE(clash)    DE(int)     intcor
     15.75     -17.48       2.76        0.00      67.78       2.01       0.66       1.06       ----

> <Gold.Chemscore.Fitness>
15.7537

> <Gold.Chemscore.DG>
-17.4774

> <Gold.Chemscore.ZeroCoef>
-5.4800

> <Gold.Chemscore.Hbond>
2.7620

> <Gold.Chemscore.Metal>
0.0000

> <Gold.Chemscore.Lipo>
67.7804

> <Gold.Chemscore.Internal_Hbond>
0.0000

> <Gold.Chemscore.DEClash>
0.6596

> <Gold.Chemscore.DEInternal>
1.0641

> <Gold.Chemscore.Rot>
2.0148

> <Gold.Chemscore.Internal.Correction>
   9.000000E+99

> <Gold.Chemscore.Hbonds>
donor molecule, donor type, donor heavy atom, donor atom, acceptor molecule, acceptor atom, score
      L1  H     5    29       P1  7948  0.19
      L1  H     8    30       P1  7948  0.16
      L1  H    15    45       P1 10747  0.95
      P1  H  7989  7998       L1    12  0.05
      P1  H 10752 10763       L1    10  0.06

> <Gold.Chemscore.Hbond.Weighted>
-9.2249

> <Gold.Chemscore.Metal.Weighted>
-0.0000

> <Gold.Chemscore.Lipo.Weighted>
-7.9303

> <Gold.Chemscore.Internal_Hbond.Weighted>
0.0000

> <Gold.Chemscore.DEClash.Weighted>
0.6596

> <Gold.Chemscore.DEInternal.Weighted>
1.0641

> <Gold.Chemscore.Rot.Weighted>
5.1579

> <Gold.Chemscore.Internal.Correction.Weighted>
   9.000000E+99

> <Gold.Protein.RotatedTorsions>
[ 6907 6896 6895 6894 ] final  -11.72 input  -60.11 | X-H torsion
[ 7974 7965 7964 7962 ] final  -98.00 input  175.53 | X-H torsion
[ 8008 7997 7996 7995 ] final   28.27 input   59.86 | X-H torsion
[ 10167 10162 10161 10158 ] final  137.45 input  -65.29 | X-H torsion
[ 10718 10713 10712 10709 ] final  -68.19 input   66.30 | X-H torsion
[ 10763 10752 10751 10750 ] final   88.55 input  -60.55 | X-H torsion
[ 11005 11000 10999 10996 ] final -131.84 input  -57.11 | X-H torsion

> <Gold.Protein.ActiveResidues>
 VAL166  LYS551  ARG553  GLY616  TRP617  ASP618  TYR619  PRO620  LYS621  CYS622 
 ASP623  PHE694  ASN695  SER759  ASP760  ASP761  ALA762  ILE779  LEU786  VAL792 
 PHE793  MET794  SER795  GLU796  ALA797  LYS798  CYS799  TRP800  GLU811  SER814 

> <Gold.Protein.RotatedAtoms>
  151.3817  135.0941  159.9497 H   0  0  0  0  0  0  0  0  0  0  0  0  # atno 6907 bound_to 6896
  152.5106  133.9065  159.7477 H   0  0  0  0  0  0  0  0  0  0  0  0  # atno 6908 bound_to 6896
  150.9500  133.6505  159.2802 H   0  0  0  0  0  0  0  0  0  0  0  0  # atno 6909 bound_to 6896
  145.3264  140.9432  143.2687 H   0  0  0  0  0  0  0  0  0  0  0  0  # atno 7974 bound_to 7965
  155.0560  140.3185  155.4676 H   0  0  0  0  0  0  0  0  0  0  0  0  # atno 8008 bound_to 7997
  156.2824  140.2137  156.5630 H   0  0  0  0  0  0  0  0  0  0  0  0  # atno 8009 bound_to 7997
  154.7171  140.0493  157.0592 H   0  0  0  0  0  0  0  0  0  0  0  0  # atno 8010 bound_to 7997
  139.5144  144.6409  151.5572 H   0  0  0  0  0  0  0  0  0  0  0  0  # atno 10167 bound_to 10162
  156.0518  130.4290  150.1964 H   0  0  0  0  0  0  0  0  0  0  0  0  # atno 10718 bound_to 10713
  153.1780  135.4503  154.9991 H   0  0  0  0  0  0  0  0  0  0  0  0  # atno 10763 bound_to 10752
  154.8011  135.3256  154.7550 H   0  0  0  0  0  0  0  0  0  0  0  0  # atno 10764 bound_to 10752
  153.8018  135.6962  153.4909 H   0  0  0  0  0  0  0  0  0  0  0  0  # atno 10765 bound_to 10752
  140.9223  134.1428  157.4304 H   0  0  0  0  0  0  0  0  0  0  0  0  # atno 11005 bound_to 11000
  144.8899  139.4789  143.6683 LP  0  0  0  0  0  0  0  0  0  0  0  0  # atno 17320 bound_to 7965
  146.3063  139.7590  142.9054 LP  0  0  0  0  0  0  0  0  0  0  0  0  # atno 17321 bound_to 7965
  140.6175  143.9321  150.6500 LP  0  0  0  0  0  0  0  0  0  0  0  0  # atno 17342 bound_to 10162
  140.2583  143.3542  152.1345 LP  0  0  0  0  0  0  0  0  0  0  0  0  # atno 17343 bound_to 10162
  157.0046  130.9932  151.3382 LP  0  0  0  0  0  0  0  0  0  0  0  0  # atno 17370 bound_to 10713
  157.5452  130.8146  149.8077 LP  0  0  0  0  0  0  0  0  0  0  0  0  # atno 17371 bound_to 10713
  139.8778  134.9976  156.5853 LP  0  0  0  0  0  0  0  0  0  0  0  0  # atno 17394 bound_to 11000
  140.7972  133.8534  155.8696 LP  0  0  0  0  0  0  0  0  0  0  0  0  # atno 17395 bound_to 11000

$$$$
