AV-unprocessed.smi:318|AV-procd|sdf|2330|dock2
  -GOLD-   2262022233D 1   1.00000     0.00000
 Structure written by MMmdl.
 38 39  0  0  0  0  0  0  0  0  1 V2000
  154.6864  139.7022  159.1345 O   0  0  0  0  0  0  0  0  0  0  0  0
  154.9662  140.5936  159.9376 C   0  0  0  0  0  0  0  0  0  0  0  0
  153.8921  141.5636  160.4515 C   0  0  0  0  0  0  0  0  0  0  0  0
  153.0202  142.0968  159.3902 N   0  0  0  0  0  0  0  0  0  0  0  0
  153.0354  143.4897  159.1961 C   0  0  0  0  0  0  0  0  0  0  0  0
  152.2816  144.0796  158.2588 C   0  0  0  0  0  0  0  0  0  0  0  0
  151.4393  143.2458  157.4367 C   0  0  0  0  0  0  0  0  0  0  0  0
  151.3989  141.9035  157.6032 C   0  0  0  0  0  0  0  0  0  0  0  0
  150.5146  141.0064  156.7400 C   0  0  0  0  0  0  0  0  0  0  0  0
  151.2453  140.0700  156.1334 F   0  0  0  0  0  0  0  0  0  0  0  0
  149.5942  140.3969  157.4882 F   0  0  0  0  0  0  0  0  0  0  0  0
  149.8778  141.7003  155.7953 F   0  0  0  0  0  0  0  0  0  0  0  0
  152.2319  141.2637  158.6423 C   0  0  0  0  0  0  0  0  0  0  0  0
  152.2258  140.0466  158.8353 O   0  0  0  0  0  0  0  0  0  0  0  0
  156.2004  140.7774  160.4305 N   0  0  0  0  0  0  0  0  0  0  0  0
  157.3752  139.9797  160.0915 C   0  0  0  0  0  0  0  0  0  0  0  0
  157.1139  138.4815  160.3559 C   0  0  0  0  0  0  0  0  0  0  0  0
  158.3677  137.6344  160.0846 C   0  0  0  0  0  0  0  0  0  0  0  0
  159.5680  138.1363  160.9020 C   0  0  0  0  0  0  0  0  0  0  0  0
  159.8363  139.6253  160.6339 C   0  0  0  0  0  0  0  0  0  0  0  0
  158.5849  140.4753  160.9066 C   0  0  0  0  0  0  0  0  0  0  0  0
  153.2990  141.0440  161.2056 H   0  0  0  0  0  0  0  0  0  0  0  0
  154.3768  142.3818  160.9876 H   0  0  0  0  0  0  0  0  0  0  0  0
  153.6876  144.0416  159.8573 H   0  0  0  0  0  0  0  0  0  0  0  0
  152.3013  145.1511  158.1245 H   0  0  0  0  0  0  0  0  0  0  0  0
  150.8344  143.7190  156.6779 H   0  0  0  0  0  0  0  0  0  0  0  0
  156.3385  141.5305  161.0888 H   0  0  0  0  0  0  0  0  0  0  0  0
  157.6016  140.1171  159.0322 H   0  0  0  0  0  0  0  0  0  0  0  0
  156.7991  138.3384  161.3907 H   0  0  0  0  0  0  0  0  0  0  0  0
  156.2935  138.1247  159.7321 H   0  0  0  0  0  0  0  0  0  0  0  0
  158.1682  136.5889  160.3213 H   0  0  0  0  0  0  0  0  0  0  0  0
  158.6086  137.6696  159.0215 H   0  0  0  0  0  0  0  0  0  0  0  0
  159.3761  137.9844  161.9649 H   0  0  0  0  0  0  0  0  0  0  0  0
  160.4545  137.5491  160.6605 H   0  0  0  0  0  0  0  0  0  0  0  0
  160.6628  139.9717  161.2550 H   0  0  0  0  0  0  0  0  0  0  0  0
  160.1501  139.7595  159.5979 H   0  0  0  0  0  0  0  0  0  0  0  0
  158.7926  141.5195  160.6694 H   0  0  0  0  0  0  0  0  0  0  0  0
  158.3522  140.4406  161.9719 H   0  0  0  0  0  0  0  0  0  0  0  0
  1  2  2  0  0  0  0
  2  3  1  0  0  0  0
  2 15  1  0  0  0  0
  3  4  1  0  0  0  0
  3 22  1  0  0  0  0
  3 23  1  0  0  0  0
  4 13  1  0  0  0  0
  4  5  1  0  0  0  0
  5  6  2  0  0  0  0
  5 24  1  0  0  0  0
  6  7  1  0  0  0  0
  6 25  1  0  0  0  0
  7  8  2  0  0  0  0
  7 26  1  0  0  0  0
  8  9  1  0  0  0  0
  8 13  1  0  0  0  0
  9 10  1  0  0  0  0
  9 11  1  0  0  0  0
  9 12  1  0  0  0  0
 13 14  2  0  0  0  0
 15 16  1  0  0  0  0
 15 27  1  0  0  0  0
 16 21  1  0  0  0  0
 16 17  1  0  0  0  0
 16 28  1  0  0  0  0
 17 18  1  0  0  0  0
 17 29  1  0  0  0  0
 17 30  1  0  0  0  0
 18 19  1  0  0  0  0
 18 31  1  0  0  0  0
 18 32  1  0  0  0  0
 19 20  1  0  0  0  0
 19 33  1  0  0  0  0
 19 34  1  0  0  0  0
 20 21  1  0  0  0  0
 20 35  1  0  0  0  0
 20 36  1  0  0  0  0
 21 37  1  0  0  0  0
 21 38  1  0  0  0  0
M  END
> <s_m_source_file>
AV-unprocessed.smi

> <i_m_source_file_index>
318

> <i_lp_mmshare_version>
43012

> <i_f3d_flags>
0

> <s_epik_input>
W0NIMl0xW0NIMl1bQ0gyXVtDSDJdW0NIMl1bQ0hdMVtOSF1DKD1PKVtDSDJdbjJbY0hdW2NIXVtjSF1jKEMoRikoRilGKWMyPU8=

> <s_epik_cmdline>
J2VwaWtfcHl0aG9uJywgJy1waCcsICc3LjAnLCAnLXRuJywgJzgnLCAnLW1hJywgJzIwMCcsICctbWV0YWxfYmluZGluZycsICctaW1hZScsICc8aW5maWxlLm1hZT4nLCAnLW9tYWUnLCAnPG91dGZpbGUubWFlPic=

> <r_lp_tautomer_probability>
1

> <r_epik_Ionization_Penalty>
2.11101e-08

> <r_epik_Ionization_Penalty_Charging>
2.0632e-09

> <r_epik_Ionization_Penalty_Neutral>
1.90469e-08

> <r_epik_State_Penalty>
-0

> <r_epik_Charging_Adjusted_Penalty>
2.0632e-09

> <i_epik_Tot_Q>
0

> <i_epik_Tot_abs_Q>
0

> <r_epik_Metal_State_Penalty>
-0

> <b_epik_Metal_Only>
0

> <s_lp_Force_Field>
OPLS_2005

> <r_lp_Energy>
18.6605

> <b_lp_Chiralities_Consistent>
1

> <s_lp_Variant>
AV-unprocessed.smi:318-1

> <Gold.Version>
5.8.1

> <Gold.Id.Protein>
6NUR|6NUR_protein|mol2

> <Gold.PLP.Fitness>
41.3945

> <Gold.PLP.PLP>
-38.8060

> <Gold.PLP.part.hbond>
-2.0000

> <Gold.PLP.part.metal>
0.0000

> <Gold.PLP.part.buried>
-4.0399

> <Gold.PLP.part.nonpolar>
-33.4414

> <Gold.PLP.part.repulsive>
0.0472

> <Gold.PLP.ligand.clash>
0.2780

> <Gold.PLP.ligand.torsion>
0.2322

> <Gold.PLP.Chemscore.Hbond>
1.0000

> <Gold.PLP.Chemscore.CHOScore>
0.0000

> <Gold.PLP.Chemscore.Metal>
0.0000

> <Gold.Chemscore.Hbonds>
donor molecule, donor type, donor heavy atom, donor atom, acceptor molecule, acceptor atom, score
      P1  H  7997  8009       L1     1  1.00

> <Gold.PLP.Chemscore.Internal.Correction>
0.3308

> <Gold.Rescore>
     Score         DG    S(hbond)    S(metal)    S(lipo)     H(rot)  DE(clash)    DE(int)     intcor
      8.93     -13.94       0.96        0.00      78.48       1.54       0.45       4.57       ----

> <Gold.Chemscore.Fitness>
8.9277

> <Gold.Chemscore.DG>
-13.9441

> <Gold.Chemscore.ZeroCoef>
-5.4800

> <Gold.Chemscore.Hbond>
0.9642

> <Gold.Chemscore.Metal>
0.0000

> <Gold.Chemscore.Lipo>
78.4770

> <Gold.Chemscore.Internal_Hbond>
0.0000

> <Gold.Chemscore.DEClash>
0.4457

> <Gold.Chemscore.DEInternal>
4.5707

> <Gold.Chemscore.Rot>
1.5383

> <Gold.Chemscore.Internal.Correction>
   9.000000E+99

> <Gold.Chemscore.Hbonds>
donor molecule, donor type, donor heavy atom, donor atom, acceptor molecule, acceptor atom, score
      P1  H  7997  8009       L1     1  0.90

> <Gold.Chemscore.Hbond.Weighted>
-3.2203

> <Gold.Chemscore.Metal.Weighted>
-0.0000

> <Gold.Chemscore.Lipo.Weighted>
-9.1818

> <Gold.Chemscore.Internal_Hbond.Weighted>
0.0000

> <Gold.Chemscore.DEClash.Weighted>
0.4457

> <Gold.Chemscore.DEInternal.Weighted>
4.5707

> <Gold.Chemscore.Rot.Weighted>
3.9380

> <Gold.Chemscore.Internal.Correction.Weighted>
   9.000000E+99

> <Gold.Protein.RotatedTorsions>
[ 6907 6896 6895 6894 ] final  -89.41 input  -60.11 | X-H torsion
[ 7974 7965 7964 7962 ] final -156.81 input  175.53 | X-H torsion
[ 8008 7997 7996 7995 ] final  114.59 input   59.86 | X-H torsion
[ 10167 10162 10161 10158 ] final  -83.90 input  -65.29 | X-H torsion
[ 10718 10713 10712 10709 ] final -104.34 input   66.30 | X-H torsion
[ 10763 10752 10751 10750 ] final   82.22 input  -60.55 | X-H torsion
[ 11005 11000 10999 10996 ] final   32.23 input  -57.11 | X-H torsion

> <Gold.Protein.ActiveResidues>
 VAL166  LYS551  ARG553  GLY616  TRP617  ASP618  TYR619  PRO620  LYS621  CYS622 
 ASP623  PHE694  ASN695  SER759  ASP760  ASP761  ALA762  ILE779  LEU786  VAL792 
 PHE793  MET794  SER795  GLU796  ALA797  LYS798  CYS799  TRP800  GLU811  SER814 

> <Gold.Protein.RotatedAtoms>
  150.6874  134.2591  159.4541 H   0  0  0  0  0  0  0  0  0  0  0  0  # atno 6907 bound_to 6896
  152.0523  134.9643  160.0584 H   0  0  0  0  0  0  0  0  0  0  0  0  # atno 6908 bound_to 6896
  152.1103  133.4262  159.4665 H   0  0  0  0  0  0  0  0  0  0  0  0  # atno 6909 bound_to 6896
  144.7576  140.4057  143.6000 H   0  0  0  0  0  0  0  0  0  0  0  0  # atno 7974 bound_to 7965
  156.2330  140.2956  156.0239 H   0  0  0  0  0  0  0  0  0  0  0  0  # atno 8008 bound_to 7997
  155.2171  140.0414  157.2959 H   0  0  0  0  0  0  0  0  0  0  0  0  # atno 8009 bound_to 7997
  154.6029  140.2431  155.7776 H   0  0  0  0  0  0  0  0  0  0  0  0  # atno 8010 bound_to 7997
  140.4183  143.2595  151.8924 H   0  0  0  0  0  0  0  0  0  0  0  0  # atno 10167 bound_to 10162
  156.0300  130.5510  150.7382 H   0  0  0  0  0  0  0  0  0  0  0  0  # atno 10718 bound_to 10713
  153.1184  135.4736  154.9153 H   0  0  0  0  0  0  0  0  0  0  0  0  # atno 10763 bound_to 10752
  154.7551  135.3116  154.8488 H   0  0  0  0  0  0  0  0  0  0  0  0  # atno 10764 bound_to 10752
  153.9059  135.6870  153.4807 H   0  0  0  0  0  0  0  0  0  0  0  0  # atno 10765 bound_to 10752
  140.2757  134.3031  155.7815 H   0  0  0  0  0  0  0  0  0  0  0  0  # atno 11005 bound_to 11000
  145.6726  139.1602  143.2746 LP  0  0  0  0  0  0  0  0  0  0  0  0  # atno 17320 bound_to 7965
  146.1604  140.6796  142.9280 LP  0  0  0  0  0  0  0  0  0  0  0  0  # atno 17321 bound_to 7965
  139.4782  144.5464  151.8451 LP  0  0  0  0  0  0  0  0  0  0  0  0  # atno 17342 bound_to 10162
  140.4562  144.1786  150.5902 LP  0  0  0  0  0  0  0  0  0  0  0  0  # atno 17343 bound_to 10162
  157.4958  131.0914  151.0373 LP  0  0  0  0  0  0  0  0  0  0  0  0  # atno 17370 bound_to 10713
  157.0768  130.5886  149.5413 LP  0  0  0  0  0  0  0  0  0  0  0  0  # atno 17371 bound_to 10713
  141.2171  133.7494  156.9403 LP  0  0  0  0  0  0  0  0  0  0  0  0  # atno 17394 bound_to 11000
  140.1331  134.9343  157.2364 LP  0  0  0  0  0  0  0  0  0  0  0  0  # atno 17395 bound_to 11000

$$$$
