AV-unprocessed.smi:157|AV-procd|sdf|1321|dock2
  -GOLD-   2262019 13D 1   1.00000     0.00000
 Structure written by MMmdl.
 36 38  0  0  0  0  0  0  0  0  2 V2000
  149.6178  137.3730  154.0863 O   0  0  0  0  0  0  0  0  0  0  0  0
  150.9338  137.0504  154.4817 C   0  0  0  0  0  0  0  0  0  0  0  0
  151.5282  138.1860  155.3328 C   0  0  1  0  0  0  0  0  0  0  0  0
  150.5543  138.7261  156.2205 O   0  0  0  0  0  0  0  0  0  0  0  0
  151.1761  139.2612  157.3529 C   0  0  2  0  0  0  0  0  0  0  0  0
  150.9602  140.7409  157.3683 N   0  0  0  0  0  0  0  0  0  0  0  0
  150.1889  141.4549  156.5207 C   0  0  0  0  0  0  0  0  0  0  0  0
  150.1837  142.7564  156.7543 N   0  3  0  0  0  0  0  0  0  0  0  0
  151.0128  142.9629  157.8366 C   0  0  0  0  0  0  0  0  0  0  0  0
  151.4789  141.6992  158.2078 C   0  0  0  0  0  0  0  0  0  0  0  0
  152.3516  141.3311  159.2431 N   0  0  0  0  0  0  0  0  0  0  0  0
  152.6416  142.1152  160.2299 C   0  0  0  0  0  0  0  0  0  0  0  0
  152.2680  143.4326  160.4372 N   0  0  0  0  0  0  0  0  0  0  0  0
  152.3528  144.4513  159.4057 C   0  0  0  0  0  0  0  0  0  0  0  0
  151.2472  144.3505  158.3464 C   0  0  2  0  0  0  0  0  0  0  0  0
  150.0732  144.9438  158.8613 O   0  0  0  0  0  0  0  0  0  0  0  0
  152.6747  138.9527  157.2543 C   0  0  0  0  0  0  0  0  0  0  0  0
  152.7094  137.8247  156.2434 C   0  0  1  0  0  0  0  0  0  0  0  0
  152.5333  136.5743  156.8820 O   0  0  0  0  0  0  0  0  0  0  0  0
  151.8359  139.0004  154.6743 H   0  0  0  0  0  0  0  0  0  0  0  0
  150.7021  138.8856  158.2604 H   0  0  0  0  0  0  0  0  0  0  0  0
  151.5471  144.9671  157.4982 H   0  0  0  0  0  0  0  0  0  0  0  0
  153.6517  137.8022  155.6949 H   0  0  0  0  0  0  0  0  0  0  0  0
  149.3987  136.8598  153.3233 H   0  0  0  0  0  0  0  0  0  0  0  0
  150.9000  136.1294  155.0637 H   0  0  0  0  0  0  0  0  0  0  0  0
  151.5440  136.8460  153.6017 H   0  0  0  0  0  0  0  0  0  0  0  0
  149.6288  141.0016  155.7226 H   0  0  0  0  0  0  0  0  0  0  0  0
  153.2721  141.7377  161.0363 H   0  0  0  0  0  0  0  0  0  0  0  0
  152.3905  143.8287  161.3583 H   0  0  0  0  0  0  0  0  0  0  0  0
  152.3595  145.4402  159.8654 H   0  0  0  0  0  0  0  0  0  0  0  0
  153.3217  144.3389  158.9166 H   0  0  0  0  0  0  0  0  0  0  0  0
  149.5750  145.3053  158.1445 H   0  0  0  0  0  0  0  0  0  0  0  0
  153.2064  139.8203  156.8598 H   0  0  0  0  0  0  0  0  0  0  0  0
  153.0942  138.6983  158.2284 H   0  0  0  0  0  0  0  0  0  0  0  0
  153.1090  136.5371  157.6309 H   0  0  0  0  0  0  0  0  0  0  0  0
  149.6757  143.4588  156.2322 H   0  0  0  0  0  0  0  0  0  0  0  0
  1  2  1  0  0  0  0
  1 24  1  0  0  0  0
  2  3  1  0  0  0  0
  2 25  1  0  0  0  0
  2 26  1  0  0  0  0
  3 20  1  0  0  0  0
  3 18  1  0  0  0  0
  3  4  1  0  0  0  0
  4  5  1  0  0  0  0
  5 21  1  0  0  0  0
  5  6  1  0  0  0  0
  5 17  1  0  0  0  0
  6 10  1  0  0  0  0
  6  7  1  0  0  0  0
  7  8  2  0  0  0  0
  7 27  1  0  0  0  0
  8  9  1  0  0  0  0
  8 36  1  0  0  0  0
  9 15  1  0  0  0  0
  9 10  2  0  0  0  0
 10 11  1  0  0  0  0
 11 12  2  0  0  0  0
 12 13  1  0  0  0  0
 12 28  1  0  0  0  0
 13 14  1  0  0  0  0
 13 29  1  0  0  0  0
 14 15  1  0  0  0  0
 14 30  1  0  0  0  0
 14 31  1  0  0  0  0
 15 22  1  0  0  0  0
 15 16  1  0  0  0  0
 16 32  1  0  0  0  0
 17 18  1  0  0  0  0
 17 33  1  0  0  0  0
 17 34  1  0  0  0  0
 18 23  1  0  0  0  0
 18 19  1  0  0  0  0
 19 35  1  0  0  0  0
M  CHG  1   8   1
M  END
> <s_m_source_file>
AV-unprocessed.smi

> <i_m_source_file_index>
157

> <i_lp_mmshare_version>
43012

> <i_f3d_flags>
0

> <s_epik_input>
W09IXVtDSDJdW0NASF0xT1tDQEhdKFtDSDJdW0NAQEhdMVtPSF0pbihbY0hdbjIpYyhjMjMpTj1bQ0hdW05IXVtDSDJdW0NASF0zW09IXQ==

> <s_epik_cmdline>
J2VwaWtfcHl0aG9uJywgJy1waCcsICc3LjAnLCAnLXRuJywgJzgnLCAnLW1hJywgJzIwMCcsICctbWV0YWxfYmluZGluZycsICctaW1hZScsICc8aW5maWxlLm1hZT4nLCAnLW9tYWUnLCAnPG91dGZpbGUubWFlPic=

> <r_epik_Ionization_Penalty>
1.68594

> <r_epik_Ionization_Penalty_Charging>
0

> <r_epik_Ionization_Penalty_Neutral>
1.68594

> <r_epik_State_Penalty>
1.79006

> <r_epik_Charging_Adjusted_Penalty>
1.79006

> <i_epik_Tot_Q>
1

> <i_epik_Tot_abs_Q>
1

> <r_epik_Metal_State_Penalty>
5.85324

> <b_epik_Metal_Only>
0

> <s_epik_Chemistry_Notes>
This compound has an imine and may undergo hydrolysis. This compound contains an acetal/aminal-like group ( X-CH(R)-Y where X, Y are N, S, or O) that may be acid/base labile, releasing an aldehyde.

> <s_lp_Force_Field>
OPLS_2005

> <r_lp_Energy>
54.2112

> <b_lp_Chiralities_Consistent>
1

> <s_lp_Variant>
AV-unprocessed.smi:157-31

> <Gold.Version>
5.8.1

> <Gold.Id.Protein>
6NUR|6NUR_protein|mol2

> <Gold.PLP.Fitness>
46.8273

> <Gold.PLP.PLP>
-32.3317

> <Gold.PLP.part.hbond>
-4.0537

> <Gold.PLP.part.metal>
0.0000

> <Gold.PLP.part.buried>
-3.2885

> <Gold.PLP.part.nonpolar>
-26.3546

> <Gold.PLP.part.repulsive>
0.0874

> <Gold.PLP.ligand.clash>
0.0000

> <Gold.PLP.ligand.torsion>
0.2548

> <Gold.PLP.Chemscore.Hbond>
5.0000

> <Gold.PLP.Chemscore.CHOScore>
0.0000

> <Gold.PLP.Chemscore.Metal>
0.0000

> <Gold.Chemscore.Hbonds>
donor molecule, donor type, donor heavy atom, donor atom, acceptor molecule, acceptor atom, score
      L1  H     1    24       P1  7948  1.00
      L1  H     8    36       P1  8028  2.00
      L1  H    16    32       P1  8029  1.00
      P1  H 10752 10763       L1    19  0.50

> <Gold.PLP.Chemscore.Internal.Correction>
0.0052

> <Gold.Rescore>
     Score         DG    S(hbond)    S(metal)    S(lipo)     H(rot)  DE(clash)    DE(int)     intcor
     12.53     -13.50       3.15        0.00      58.79       3.67       0.79       0.17       ----

> <Gold.Chemscore.Fitness>
12.5294

> <Gold.Chemscore.DG>
-13.4984

> <Gold.Chemscore.ZeroCoef>
-5.4800

> <Gold.Chemscore.Hbond>
3.1511

> <Gold.Chemscore.Metal>
0.0000

> <Gold.Chemscore.Lipo>
58.7912

> <Gold.Chemscore.Internal_Hbond>
0.0000

> <Gold.Chemscore.DEClash>
0.7943

> <Gold.Chemscore.DEInternal>
0.1746

> <Gold.Chemscore.Rot>
3.6659

> <Gold.Chemscore.Internal.Correction>
   9.000000E+99

> <Gold.Chemscore.Hbonds>
donor molecule, donor type, donor heavy atom, donor atom, acceptor molecule, acceptor atom, score
      L1  H     1    24       P1  7948  0.90
      L1  H     8    36       P1  8028  0.98
      L1  H    16    32       P1  8029  0.38
      P1  H 10752 10763       L1    19  0.05

> <Gold.Chemscore.Hbond.Weighted>
-10.5247

> <Gold.Chemscore.Metal.Weighted>
-0.0000

> <Gold.Chemscore.Lipo.Weighted>
-6.8786

> <Gold.Chemscore.Internal_Hbond.Weighted>
0.0000

> <Gold.Chemscore.DEClash.Weighted>
0.7943

> <Gold.Chemscore.DEInternal.Weighted>
0.1746

> <Gold.Chemscore.Rot.Weighted>
9.3848

> <Gold.Chemscore.Internal.Correction.Weighted>
   9.000000E+99

> <Gold.Protein.RotatedTorsions>
[ 6907 6896 6895 6894 ] final  167.89 input  -60.11 | X-H torsion
[ 7974 7965 7964 7962 ] final  127.75 input  175.53 | X-H torsion
[ 8008 7997 7996 7995 ] final  -95.88 input   59.86 | X-H torsion
[ 10167 10162 10161 10158 ] final  -17.27 input  -65.29 | X-H torsion
[ 10718 10713 10712 10709 ] final -118.66 input   66.30 | X-H torsion
[ 10763 10752 10751 10750 ] final  107.17 input  -60.55 | X-H torsion
[ 11005 11000 10999 10996 ] final  147.47 input  -57.11 | X-H torsion

> <Gold.Protein.ActiveResidues>
 VAL166  LYS551  ARG553  GLY616  TRP617  ASP618  TYR619  PRO620  LYS621  CYS622 
 ASP623  PHE694  ASN695  SER759  ASP760  ASP761  ALA762  ILE779  LEU786  VAL792 
 PHE793  MET794  SER795  GLU796  ALA797  LYS798  CYS799  TRP800  GLU811  SER814 

> <Gold.Protein.RotatedAtoms>
  151.8561  133.3448  159.3688 H   0  0  0  0  0  0  0  0  0  0  0  0  # atno 6907 bound_to 6896
  150.7192  134.5251  159.5682 H   0  0  0  0  0  0  0  0  0  0  0  0  # atno 6908 bound_to 6896
  152.2755  134.7887  160.0457 H   0  0  0  0  0  0  0  0  0  0  0  0  # atno 6909 bound_to 6896
  145.0471  139.3914  143.5073 H   0  0  0  0  0  0  0  0  0  0  0  0  # atno 7974 bound_to 7965
  154.7671  140.0476  157.1021 H   0  0  0  0  0  0  0  0  0  0  0  0  # atno 8008 bound_to 7997
  154.9866  140.3108  155.4904 H   0  0  0  0  0  0  0  0  0  0  0  0  # atno 8009 bound_to 7997
  156.2914  140.2226  156.4968 H   0  0  0  0  0  0  0  0  0  0  0  0  # atno 8010 bound_to 7997
  140.7245  143.5032  150.9843 H   0  0  0  0  0  0  0  0  0  0  0  0  # atno 10167 bound_to 10162
  156.1123  130.6258  150.9319 H   0  0  0  0  0  0  0  0  0  0  0  0  # atno 10718 bound_to 10713
  153.4030  135.3853  155.2000 H   0  0  0  0  0  0  0  0  0  0  0  0  # atno 10763 bound_to 10752
  154.8731  135.3776  154.4595 H   0  0  0  0  0  0  0  0  0  0  0  0  # atno 10764 bound_to 10752
  153.5095  135.7087  153.5850 H   0  0  0  0  0  0  0  0  0  0  0  0  # atno 10765 bound_to 10752
  140.0879  134.9058  157.1604 H   0  0  0  0  0  0  0  0  0  0  0  0  # atno 11005 bound_to 11000
  146.3515  140.0102  142.8668 LP  0  0  0  0  0  0  0  0  0  0  0  0  # atno 17320 bound_to 7965
  145.1574  140.9655  143.4397 LP  0  0  0  0  0  0  0  0  0  0  0  0  # atno 17321 bound_to 7965
  139.8742  143.7153  152.3163 LP  0  0  0  0  0  0  0  0  0  0  0  0  # atno 17342 bound_to 10162
  139.7413  144.7558  151.0648 LP  0  0  0  0  0  0  0  0  0  0  0  0  # atno 17343 bound_to 10162
  157.6305  131.0921  150.8451 LP  0  0  0  0  0  0  0  0  0  0  0  0  # atno 17370 bound_to 10713
  156.8559  130.5096  149.5308 LP  0  0  0  0  0  0  0  0  0  0  0  0  # atno 17371 bound_to 10713
  140.3394  134.2720  155.7214 LP  0  0  0  0  0  0  0  0  0  0  0  0  # atno 17394 bound_to 11000
  141.2068  133.7822  157.0154 LP  0  0  0  0  0  0  0  0  0  0  0  0  # atno 17395 bound_to 11000

$$$$
