AV-unprocessed.smi:2850|AV-procd|sdf|10967|dock1
  -GOLD-   2272015423D 1   1.00000     0.00000
 Structure written by MMmdl.
 45 46  0  0  0  0  0  0  0  0  2 V2000
  152.0700  143.6334  160.4751 C   0  0  0  0  0  0  0  0  0  0  0  0
  152.8577  142.0565  160.0430 S   0  0  0  0  0  0  0  0  0  0  0  0
  152.0764  141.4690  158.5711 C   0  0  0  0  0  0  0  0  0  0  0  0
  150.9928  142.1658  158.0071 C   0  0  0  0  0  0  0  0  0  0  0  0
  150.4349  141.6347  156.8309 C   0  0  0  0  0  0  0  0  0  0  0  0
  150.9997  140.4514  156.3131 C   0  0  0  0  0  0  0  0  0  0  0  0
  150.4698  139.9095  155.1328 N   0  0  0  0  0  0  0  0  0  0  0  0
  149.3110  140.4959  154.4675 C   0  0  0  0  0  0  0  0  0  0  0  0
  148.1898  139.4762  154.1934 C   0  0  2  0  0  0  0  0  0  0  0  0
  146.9618  140.1014  153.4966 C   0  0  0  0  0  0  0  0  0  0  0  0
  145.8902  139.0947  153.3020 N   0  3  1  0  0  0  0  0  0  0  0  0
  146.1607  138.1509  152.1830 C   0  0  0  0  0  0  0  0  0  0  0  0
  145.4199  136.8053  152.3324 C   0  0  0  0  0  0  0  0  0  0  0  0
  145.7476  135.8793  151.1514 C   0  0  0  0  0  0  0  0  0  0  0  0
  143.8993  136.9973  152.4577 C   0  0  0  0  0  0  0  0  0  0  0  0
  145.5513  138.4464  154.5947 C   0  0  0  0  0  0  0  0  0  0  0  0
  146.8087  137.9077  155.3052 C   0  0  0  0  0  0  0  0  0  0  0  0
  147.7687  138.9485  155.4466 O   0  0  0  0  0  0  0  0  0  0  0  0
  152.0425  139.8301  156.9204 N   0  0  0  0  0  0  0  0  0  0  0  0
  152.5801  140.3337  158.0366 N   0  0  0  0  0  0  0  0  0  0  0  0
  152.5005  144.0267  161.3959 H   0  0  0  0  0  0  0  0  0  0  0  0
  150.9993  143.4953  160.6264 H   0  0  0  0  0  0  0  0  0  0  0  0
  152.2204  144.3684  159.6841 H   0  0  0  0  0  0  0  0  0  0  0  0
  150.6083  143.0709  158.4532 H   0  0  0  0  0  0  0  0  0  0  0  0
  149.6039  142.1232  156.3433 H   0  0  0  0  0  0  0  0  0  0  0  0
  150.8989  139.0908  154.7258 H   0  0  0  0  0  0  0  0  0  0  0  0
  148.9296  141.3198  155.0719 H   0  0  0  0  0  0  0  0  0  0  0  0
  149.6444  140.9384  153.5285 H   0  0  0  0  0  0  0  0  0  0  0  0
  148.5871  138.6598  153.5894 H   0  0  0  0  0  0  0  0  0  0  0  0
  146.5667  140.9126  154.1099 H   0  0  0  0  0  0  0  0  0  0  0  0
  147.2345  140.5486  152.5401 H   0  0  0  0  0  0  0  0  0  0  0  0
  145.8486  138.6059  151.2417 H   0  0  0  0  0  0  0  0  0  0  0  0
  147.2337  137.9830  152.0896 H   0  0  0  0  0  0  0  0  0  0  0  0
  145.7687  136.3014  153.2333 H   0  0  0  0  0  0  0  0  0  0  0  0
  145.4274  136.3148  150.2042 H   0  0  0  0  0  0  0  0  0  0  0  0
  145.2517  134.9138  151.2572 H   0  0  0  0  0  0  0  0  0  0  0  0
  146.8196  135.6908  151.0849 H   0  0  0  0  0  0  0  0  0  0  0  0
  143.4879  137.4961  151.5796 H   0  0  0  0  0  0  0  0  0  0  0  0
  143.6423  137.5952  153.3323 H   0  0  0  0  0  0  0  0  0  0  0  0
  143.3916  136.0379  152.5616 H   0  0  0  0  0  0  0  0  0  0  0  0
  145.0763  139.1935  155.2319 H   0  0  0  0  0  0  0  0  0  0  0  0
  144.8174  137.6530  154.4610 H   0  0  0  0  0  0  0  0  0  0  0  0
  146.5451  137.5380  156.2962 H   0  0  0  0  0  0  0  0  0  0  0  0
  147.2443  137.0659  154.7655 H   0  0  0  0  0  0  0  0  0  0  0  0
  145.0730  139.6144  153.0150 H   0  0  0  0  0  0  0  0  0  0  0  0
  1  2  1  0  0  0  0
  1 21  1  0  0  0  0
  1 22  1  0  0  0  0
  1 23  1  0  0  0  0
  2  3  1  0  0  0  0
  3 20  1  0  0  0  0
  3  4  2  0  0  0  0
  4  5  1  0  0  0  0
  4 24  1  0  0  0  0
  5  6  2  0  0  0  0
  5 25  1  0  0  0  0
  6  7  1  0  0  0  0
  6 19  1  0  0  0  0
  7  8  1  0  0  0  0
  7 26  1  0  0  0  0
  8  9  1  0  0  0  0
  8 27  1  0  0  0  0
  8 28  1  0  0  0  0
  9 18  1  0  0  0  0
  9 10  1  0  0  0  0
  9 29  1  0  0  0  0
 10 11  1  0  0  0  0
 10 30  1  0  0  0  0
 10 31  1  0  0  0  0
 11 12  1  0  0  0  0
 11 16  1  0  0  0  0
 11 45  1  0  0  0  0
 12 13  1  0  0  0  0
 12 32  1  0  0  0  0
 12 33  1  0  0  0  0
 13 14  1  0  0  0  0
 13 15  1  0  0  0  0
 13 34  1  0  0  0  0
 14 35  1  0  0  0  0
 14 36  1  0  0  0  0
 14 37  1  0  0  0  0
 15 38  1  0  0  0  0
 15 39  1  0  0  0  0
 15 40  1  0  0  0  0
 16 17  1  0  0  0  0
 16 41  1  0  0  0  0
 16 42  1  0  0  0  0
 17 18  1  0  0  0  0
 17 43  1  0  0  0  0
 17 44  1  0  0  0  0
 19 20  2  0  0  0  0
M  CHG  1  11   1
M  END
> <s_m_source_file>
AV-unprocessed.smi

> <i_m_source_file_index>
2850

> <i_lp_mmshare_version>
43012

> <i_f3d_flags>
0

> <s_epik_input>
W0NIM11TYzFbY0hdW2NIXWMobm4xKVtOSF1bQ0gyXVtDQEBIXTJbQ0gyXU4oW0NIMl1bQ0gyXU8yKVtDSDJdW0NIXShbQ0gzXSlbQ0gzXQ==

> <s_epik_cmdline>
J2VwaWtfcHl0aG9uJywgJy1waCcsICc3LjAnLCAnLXRuJywgJzgnLCAnLW1hJywgJzIwMCcsICctbWV0YWxfYmluZGluZycsICctaW1hZScsICc8aW5maWxlLm1hZT4nLCAnLW9tYWUnLCAnPG91dGZpbGUubWFlPic=

> <r_lp_tautomer_probability>
0.999978

> <r_epik_Ionization_Penalty>
0.0874875

> <r_epik_Ionization_Penalty_Charging>
0.0831532

> <r_epik_Ionization_Penalty_Neutral>
0.00433433

> <r_epik_State_Penalty>
0.0738301

> <r_epik_Charging_Adjusted_Penalty>
0.156983

> <i_epik_Tot_Q>
1

> <i_epik_Tot_abs_Q>
1

> <r_epik_Metal_State_Penalty>
0.073888

> <b_epik_Metal_Only>
0

> <s_lp_Force_Field>
OPLS_2005

> <r_lp_Energy>
26.7302

> <b_lp_Chiralities_Consistent>
1

> <s_lp_Variant>
AV-unprocessed.smi:2850-3

> <Gold.Version>
5.8.1

> <Gold.Id.Protein>
6NUR|6NUR_protein|mol2

> <Gold.PLP.Fitness>
43.5970

> <Gold.PLP.PLP>
-35.1698

> <Gold.PLP.part.hbond>
-2.6126

> <Gold.PLP.part.metal>
0.0000

> <Gold.PLP.part.buried>
-2.5725

> <Gold.PLP.part.nonpolar>
-30.2543

> <Gold.PLP.part.repulsive>
0.1512

> <Gold.PLP.ligand.clash>
0.0000

> <Gold.PLP.ligand.torsion>
0.3865

> <Gold.PLP.Chemscore.Hbond>
2.9920

> <Gold.PLP.Chemscore.CHOScore>
0.0000

> <Gold.PLP.Chemscore.Metal>
0.0000

> <Gold.Chemscore.Hbonds>
donor molecule, donor type, donor heavy atom, donor atom, acceptor molecule, acceptor atom, score
      L1  H    11    45       P1 10175  2.00
      P1  H  7997  8010       L1    20  0.11

> <Gold.PLP.Chemscore.Internal.Correction>
0.2241

> <Gold.Rescore>
     Score         DG    S(hbond)    S(metal)    S(lipo)     H(rot)  DE(clash)    DE(int)     intcor
     14.50     -15.33       1.10        0.00      87.91       1.60       0.41       0.42       ----

> <Gold.Chemscore.Fitness>
14.5015

> <Gold.Chemscore.DG>
-15.3327

> <Gold.Chemscore.ZeroCoef>
-5.4800

> <Gold.Chemscore.Hbond>
1.0971

> <Gold.Chemscore.Metal>
0.0000

> <Gold.Chemscore.Lipo>
87.9071

> <Gold.Chemscore.Internal_Hbond>
0.0000

> <Gold.Chemscore.DEClash>
0.4117

> <Gold.Chemscore.DEInternal>
0.4195

> <Gold.Chemscore.Rot>
1.6003

> <Gold.Chemscore.Internal.Correction>
   9.000000E+99

> <Gold.Chemscore.Hbonds>
donor molecule, donor type, donor heavy atom, donor atom, acceptor molecule, acceptor atom, score
      L1  H    11    45       P1 10175  1.00

> <Gold.Chemscore.Hbond.Weighted>
-3.6644

> <Gold.Chemscore.Metal.Weighted>
-0.0000

> <Gold.Chemscore.Lipo.Weighted>
-10.2851

> <Gold.Chemscore.Internal_Hbond.Weighted>
0.0000

> <Gold.Chemscore.DEClash.Weighted>
0.4117

> <Gold.Chemscore.DEInternal.Weighted>
0.4195

> <Gold.Chemscore.Rot.Weighted>
4.0968

> <Gold.Chemscore.Internal.Correction.Weighted>
   9.000000E+99

> <Gold.Protein.RotatedTorsions>
[ 6907 6896 6895 6894 ] final  -42.92 input  -60.11 | X-H torsion
[ 7974 7965 7964 7962 ] final   55.76 input  175.53 | X-H torsion
[ 8008 7997 7996 7995 ] final   29.30 input   59.86 | X-H torsion
[ 10167 10162 10161 10158 ] final -105.08 input  -65.29 | X-H torsion
[ 10718 10713 10712 10709 ] final  -71.04 input   66.30 | X-H torsion
[ 10763 10752 10751 10750 ] final  173.37 input  -60.55 | X-H torsion
[ 11005 11000 10999 10996 ] final  133.88 input  -57.11 | X-H torsion

> <Gold.Protein.ActiveResidues>
 VAL166  LYS551  ARG553  GLY616  TRP617  ASP618  TYR619  PRO620  LYS621  CYS622 
 ASP623  PHE694  ASN695  SER759  ASP760  ASP761  ALA762  ILE779  LEU786  VAL792 
 PHE793  MET794  SER795  GLU796  ALA797  LYS798  CYS799  TRP800  GLU811  SER814 

> <Gold.Protein.RotatedAtoms>
  150.9497  134.8898  159.7663 H   0  0  0  0  0  0  0  0  0  0  0  0  # atno 6907 bound_to 6896
  152.5114  134.3824  159.9365 H   0  0  0  0  0  0  0  0  0  0  0  0  # atno 6908 bound_to 6896
  151.3840  133.3771  159.2748 H   0  0  0  0  0  0  0  0  0  0  0  0  # atno 6909 bound_to 6896
  145.9470  139.3938  143.0329 H   0  0  0  0  0  0  0  0  0  0  0  0  # atno 7974 bound_to 7965
  155.0723  140.3201  155.4626 H   0  0  0  0  0  0  0  0  0  0  0  0  # atno 8008 bound_to 7997
  156.2787  140.2109  156.5796 H   0  0  0  0  0  0  0  0  0  0  0  0  # atno 8009 bound_to 7997
  154.7045  140.0504  157.0478 H   0  0  0  0  0  0  0  0  0  0  0  0  # atno 8010 bound_to 7997
  140.2024  143.3808  152.1119 H   0  0  0  0  0  0  0  0  0  0  0  0  # atno 10167 bound_to 10162
  156.0380  130.4343  150.2385 H   0  0  0  0  0  0  0  0  0  0  0  0  # atno 10718 bound_to 10713
  154.4391  135.2761  155.1860 H   0  0  0  0  0  0  0  0  0  0  0  0  # atno 10763 bound_to 10752
  154.3733  135.6104  153.5755 H   0  0  0  0  0  0  0  0  0  0  0  0  # atno 10764 bound_to 10752
  152.9840  135.5862  154.4716 H   0  0  0  0  0  0  0  0  0  0  0  0  # atno 10765 bound_to 10752
  139.9880  134.9525  156.9788 H   0  0  0  0  0  0  0  0  0  0  0  0  # atno 11005 bound_to 11000
  145.8223  140.9673  143.0892 LP  0  0  0  0  0  0  0  0  0  0  0  0  # atno 17320 bound_to 7965
  144.6789  140.0057  143.7484 LP  0  0  0  0  0  0  0  0  0  0  0  0  # atno 17321 bound_to 7965
  139.5212  144.7043  151.5402 LP  0  0  0  0  0  0  0  0  0  0  0  0  # atno 17342 bound_to 10162
  140.6381  143.8943  150.6666 LP  0  0  0  0  0  0  0  0  0  0  0  0  # atno 17343 bound_to 10162
  157.0482  131.0055  151.3262 LP  0  0  0  0  0  0  0  0  0  0  0  0  # atno 17370 bound_to 10713
  157.5160  130.7968  149.7756 LP  0  0  0  0  0  0  0  0  0  0  0  0  # atno 17371 bound_to 10713
  140.4965  134.1140  155.7242 LP  0  0  0  0  0  0  0  0  0  0  0  0  # atno 17394 bound_to 11000
  141.1541  133.8915  157.2022 LP  0  0  0  0  0  0  0  0  0  0  0  0  # atno 17395 bound_to 11000

$$$$
