AV-unprocessed.smi:2855|AV-procd|sdf|10992|dock7
  -GOLD-   2272015443D 1   1.00000     0.00000
 Structure written by MMmdl.
 46 47  0  0  0  0  0  0  0  0  2 V2000
  154.8935  140.5204  163.0097 C   0  0  0  0  0  0  0  0  0  0  0  0
  153.9537  141.1256  161.9574 C   0  0  1  0  0  0  0  0  0  0  0  0
  152.9341  142.0822  162.5945 C   0  0  0  0  0  0  0  0  0  0  0  0
  151.9918  142.6921  161.5450 C   0  0  0  0  0  0  0  0  0  0  0  0
  152.7549  143.4336  160.4171 C   0  0  2  0  0  0  0  0  0  0  0  0
  151.7842  144.0718  159.3743 C   0  0  0  0  0  0  0  0  0  0  0  0
  152.5114  144.9401  158.3292 C   0  0  0  0  0  0  0  0  0  0  0  0
  150.6790  144.9164  160.0373 C   0  0  0  0  0  0  0  0  0  0  0  0
  153.8162  142.4850  159.7884 C   0  0  2  0  0  0  0  0  0  0  0  0
  153.1632  141.4508  158.9912 N   0  0  0  0  0  0  0  0  0  0  0  0
  153.7506  140.3984  158.3996 C   0  0  0  0  0  0  0  0  0  0  0  0
  154.9528  140.1569  158.5013 O   0  0  0  0  0  0  0  0  0  0  0  0
  152.8596  139.4678  157.5586 C   0  0  0  0  0  0  0  0  0  0  0  0
  153.2830  139.3321  156.1519 N   0  0  0  0  0  0  0  0  0  0  0  0
  153.2505  140.4855  155.3483 C   0  0  0  0  0  0  0  0  0  0  0  0
  153.6561  140.4684  154.0643 C   0  0  0  0  0  0  0  0  0  0  0  0
  154.1386  139.2099  153.5094 C   0  0  0  0  0  0  0  0  0  0  0  0
  154.5148  139.1761  152.3395 O   0  0  0  0  0  0  0  0  0  0  0  0
  154.1503  138.1180  154.3289 N   0  5  0  0  0  0  0  0  0  0  0  0
  153.7384  138.1508  155.6340 C   0  0  0  0  0  0  0  0  0  0  0  0
  153.7743  137.1581  156.3614 O   0  0  0  0  0  0  0  0  0  0  0  0
  154.7392  141.8596  160.8562 C   0  0  0  0  0  0  0  0  0  0  0  0
  155.4750  141.2925  163.5142 H   0  0  0  0  0  0  0  0  0  0  0  0
  155.5940  139.8208  162.5527 H   0  0  0  0  0  0  0  0  0  0  0  0
  154.3327  139.9753  163.7693 H   0  0  0  0  0  0  0  0  0  0  0  0
  153.4053  140.3017  161.4984 H   0  0  0  0  0  0  0  0  0  0  0  0
  152.3464  141.5528  163.3451 H   0  0  0  0  0  0  0  0  0  0  0  0
  153.4563  142.8827  163.1205 H   0  0  0  0  0  0  0  0  0  0  0  0
  151.3671  141.9069  161.1162 H   0  0  0  0  0  0  0  0  0  0  0  0
  151.3152  143.3691  162.0638 H   0  0  0  0  0  0  0  0  0  0  0  0
  153.3049  144.2512  160.8858 H   0  0  0  0  0  0  0  0  0  0  0  0
  151.2846  143.2689  158.8303 H   0  0  0  0  0  0  0  0  0  0  0  0
  153.1074  145.7189  158.8057 H   0  0  0  0  0  0  0  0  0  0  0  0
  151.8011  145.4278  157.6612 H   0  0  0  0  0  0  0  0  0  0  0  0
  153.1713  144.3478  157.6957 H   0  0  0  0  0  0  0  0  0  0  0  0
  151.1020  145.6924  160.6759 H   0  0  0  0  0  0  0  0  0  0  0  0
  150.0056  144.3104  160.6418 H   0  0  0  0  0  0  0  0  0  0  0  0
  150.0588  145.4084  159.2875 H   0  0  0  0  0  0  0  0  0  0  0  0
  154.4546  143.0713  159.1265 H   0  0  0  0  0  0  0  0  0  0  0  0
  152.1708  141.5646  158.8414 H   0  0  0  0  0  0  0  0  0  0  0  0
  152.8237  138.4892  158.0401 H   0  0  0  0  0  0  0  0  0  0  0  0
  151.8371  139.8451  157.6063 H   0  0  0  0  0  0  0  0  0  0  0  0
  152.8887  141.3774  155.8387 H   0  0  0  0  0  0  0  0  0  0  0  0
  153.6295  141.3644  153.4616 H   0  0  0  0  0  0  0  0  0  0  0  0
  155.3409  142.6489  161.3087 H   0  0  0  0  0  0  0  0  0  0  0  0
  155.4480  141.1776  160.3851 H   0  0  0  0  0  0  0  0  0  0  0  0
  1  2  1  0  0  0  0
  1 23  1  0  0  0  0
  1 24  1  0  0  0  0
  1 25  1  0  0  0  0
  2 22  1  0  0  0  0
  2  3  1  0  0  0  0
  2 26  1  0  0  0  0
  3  4  1  0  0  0  0
  3 27  1  0  0  0  0
  3 28  1  0  0  0  0
  4  5  1  0  0  0  0
  4 29  1  0  0  0  0
  4 30  1  0  0  0  0
  5  6  1  0  0  0  0
  5  9  1  0  0  0  0
  5 31  1  0  0  0  0
  6  7  1  0  0  0  0
  6  8  1  0  0  0  0
  6 32  1  0  0  0  0
  7 33  1  0  0  0  0
  7 34  1  0  0  0  0
  7 35  1  0  0  0  0
  8 36  1  0  0  0  0
  8 37  1  0  0  0  0
  8 38  1  0  0  0  0
  9 10  1  0  0  0  0
  9 22  1  0  0  0  0
  9 39  1  0  0  0  0
 10 11  1  0  0  0  0
 10 40  1  0  0  0  0
 11 12  2  0  0  0  0
 11 13  1  0  0  0  0
 13 14  1  0  0  0  0
 13 41  1  0  0  0  0
 13 42  1  0  0  0  0
 14 20  1  0  0  0  0
 14 15  1  0  0  0  0
 15 16  2  0  0  0  0
 15 43  1  0  0  0  0
 16 17  1  0  0  0  0
 16 44  1  0  0  0  0
 17 18  2  0  0  0  0
 17 19  1  0  0  0  0
 19 20  1  0  0  0  0
 20 21  2  0  0  0  0
 22 45  1  0  0  0  0
 22 46  1  0  0  0  0
M  CHG  1  19  -1
M  END
> <s_m_source_file>
AV-unprocessed.smi

> <i_m_source_file_index>
2855

> <i_lp_mmshare_version>
43012

> <i_f3d_flags>
0

> <s_epik_input>
W0NIM11bQ0BASF0xW0NIMl1bQ0gyXVtDQEBIXShbQ0hdKFtDSDNdKVtDSDNdKVtDQEhdKFtDSDJdMSlbTkhdQyg9TylbQ0gyXW4yW2NIXVtjSF1jKD1PKVtuSF1jMj1P

> <s_epik_cmdline>
J2VwaWtfcHl0aG9uJywgJy1waCcsICc3LjAnLCAnLXRuJywgJzgnLCAnLW1hJywgJzIwMCcsICctbWV0YWxfYmluZGluZycsICctaW1hZScsICc8aW5maWxlLm1hZT4nLCAnLW9tYWUnLCAnPG91dGZpbGUubWFlPic=

> <r_lp_tautomer_probability>
0.999537

> <r_epik_Ionization_Penalty>
3.12102

> <r_epik_Ionization_Penalty_Charging>
2.9581e-08

> <r_epik_Ionization_Penalty_Neutral>
3.12102

> <r_epik_State_Penalty>
3.12011

> <r_epik_Charging_Adjusted_Penalty>
3.12011

> <i_epik_Tot_Q>
-1

> <i_epik_Tot_abs_Q>
1

> <r_epik_Metal_State_Penalty>
0.463583

> <b_epik_Metal_Only>
1

> <s_lp_Force_Field>
OPLS_2005

> <r_lp_Energy>
20.8659

> <b_lp_Chiralities_Consistent>
1

> <s_lp_Variant>
AV-unprocessed.smi:2855-16

> <Gold.Version>
5.8.1

> <Gold.Id.Protein>
6NUR|6NUR_protein|mol2

> <Gold.PLP.Fitness>
52.7049

> <Gold.PLP.PLP>
-43.1943

> <Gold.PLP.part.hbond>
-3.9679

> <Gold.PLP.part.metal>
0.0000

> <Gold.PLP.part.buried>
0.2324

> <Gold.PLP.part.nonpolar>
-43.2145

> <Gold.PLP.part.repulsive>
4.3969

> <Gold.PLP.ligand.clash>
0.0000

> <Gold.PLP.ligand.torsion>
0.1390

> <Gold.PLP.Chemscore.Hbond>
3.2503

> <Gold.PLP.Chemscore.CHOScore>
0.0000

> <Gold.PLP.Chemscore.Metal>
0.0000

> <Gold.Chemscore.Hbonds>
donor molecule, donor type, donor heavy atom, donor atom, acceptor molecule, acceptor atom, score
      P1  H  7997  8009       L1    12  0.03
      P1  H 10752 10765       L1    21  0.35

> <Gold.PLP.Chemscore.Internal.Correction>
0.0378

> <Gold.Rescore>
     Score         DG    S(hbond)    S(metal)    S(lipo)     H(rot)  DE(clash)    DE(int)     intcor
     15.43     -21.43       1.68        0.00     128.00       1.81       3.68       2.31       ----

> <Gold.Chemscore.Fitness>
15.4306

> <Gold.Chemscore.DG>
-21.4262

> <Gold.Chemscore.ZeroCoef>
-5.4800

> <Gold.Chemscore.Hbond>
1.6776

> <Gold.Chemscore.Metal>
0.0000

> <Gold.Chemscore.Lipo>
128.0033

> <Gold.Chemscore.Internal_Hbond>
0.0000

> <Gold.Chemscore.DEClash>
3.6820

> <Gold.Chemscore.DEInternal>
2.3135

> <Gold.Chemscore.Rot>
1.8100

> <Gold.Chemscore.Internal.Correction>
   9.000000E+99

> <Gold.Chemscore.Hbonds>
donor molecule, donor type, donor heavy atom, donor atom, acceptor molecule, acceptor atom, score
      P1  H 10752 10765       L1    21  0.23

> <Gold.Chemscore.Hbond.Weighted>
-5.6033

> <Gold.Chemscore.Metal.Weighted>
-0.0000

> <Gold.Chemscore.Lipo.Weighted>
-14.9764

> <Gold.Chemscore.Internal_Hbond.Weighted>
0.0000

> <Gold.Chemscore.DEClash.Weighted>
3.6820

> <Gold.Chemscore.DEInternal.Weighted>
2.3135

> <Gold.Chemscore.Rot.Weighted>
4.6335

> <Gold.Chemscore.Internal.Correction.Weighted>
   9.000000E+99

> <Gold.Protein.RotatedTorsions>
[ 6907 6896 6895 6894 ] final -147.24 input  -60.11 | X-H torsion
[ 7974 7965 7964 7962 ] final  133.40 input  175.53 | X-H torsion
[ 8008 7997 7996 7995 ] final  136.07 input   59.86 | X-H torsion
[ 10167 10162 10161 10158 ] final   56.42 input  -65.29 | X-H torsion
[ 10718 10713 10712 10709 ] final  -78.32 input   66.30 | X-H torsion
[ 10763 10752 10751 10750 ] final -138.74 input  -60.55 | X-H torsion
[ 11005 11000 10999 10996 ] final  139.04 input  -57.11 | X-H torsion

> <Gold.Protein.ActiveResidues>
 VAL166  LYS551  ARG553  GLY616  TRP617  ASP618  TYR619  PRO620  LYS621  CYS622 
 ASP623  PHE694  ASN695  SER759  ASP760  ASP761  ALA762  ILE779  LEU786  VAL792 
 PHE793  MET794  SER795  GLU796  ALA797  LYS798  CYS799  TRP800  GLU811  SER814 

> <Gold.Protein.RotatedAtoms>
  151.1529  133.4895  159.2594 H   0  0  0  0  0  0  0  0  0  0  0  0  # atno 6907 bound_to 6896
  151.1535  135.0238  159.8689 H   0  0  0  0  0  0  0  0  0  0  0  0  # atno 6908 bound_to 6896
  152.5463  134.1411  159.8532 H   0  0  0  0  0  0  0  0  0  0  0  0  # atno 6909 bound_to 6896
  144.9869  139.4446  143.5358 H   0  0  0  0  0  0  0  0  0  0  0  0  # atno 7974 bound_to 7965
  156.3004  140.2454  156.3685 H   0  0  0  0  0  0  0  0  0  0  0  0  # atno 8008 bound_to 7997
  154.8811  140.0412  157.1802 H   0  0  0  0  0  0  0  0  0  0  0  0  # atno 8009 bound_to 7997
  154.8695  140.2933  155.5494 H   0  0  0  0  0  0  0  0  0  0  0  0  # atno 8010 bound_to 7997
  140.2090  144.3909  150.6497 H   0  0  0  0  0  0  0  0  0  0  0  0  # atno 10167 bound_to 10162
  156.0121  130.4515  150.3478 H   0  0  0  0  0  0  0  0  0  0  0  0  # atno 10718 bound_to 10713
  154.8628  135.3603  154.5434 H   0  0  0  0  0  0  0  0  0  0  0  0  # atno 10763 bound_to 10752
  153.6055  135.7011  153.5372 H   0  0  0  0  0  0  0  0  0  0  0  0  # atno 10764 bound_to 10752
  153.3254  135.4139  155.1412 H   0  0  0  0  0  0  0  0  0  0  0  0  # atno 10765 bound_to 10752
  140.0226  134.9389  157.0505 H   0  0  0  0  0  0  0  0  0  0  0  0  # atno 11005 bound_to 11000
  146.3422  139.9177  142.8771 LP  0  0  0  0  0  0  0  0  0  0  0  0  # atno 17320 bound_to 7965
  145.2340  140.9984  143.3974 LP  0  0  0  0  0  0  0  0  0  0  0  0  # atno 17321 bound_to 7965
  140.6337  143.2191  151.6440 LP  0  0  0  0  0  0  0  0  0  0  0  0  # atno 17342 bound_to 10162
  139.5187  144.3275  152.0856 LP  0  0  0  0  0  0  0  0  0  0  0  0  # atno 17343 bound_to 10162
  157.1572  131.0336  151.2858 LP  0  0  0  0  0  0  0  0  0  0  0  0  # atno 17370 bound_to 10713
  157.4342  130.7507  149.7015 LP  0  0  0  0  0  0  0  0  0  0  0  0  # atno 17371 bound_to 10713
  140.4361  134.1730  155.7171 LP  0  0  0  0  0  0  0  0  0  0  0  0  # atno 17394 bound_to 11000
  141.1783  133.8467  157.1346 LP  0  0  0  0  0  0  0  0  0  0  0  0  # atno 17395 bound_to 11000

$$$$
