AV-unprocessed.smi:104|AV-procd|sdf|1007|dock3
  -GOLD-   2262018 03D 1   1.00000     0.00000
 Structure written by MMmdl.
 47 49  0  0  0  0  0  0  0  0  1 V2000
  147.1814  135.0110  162.0195 C   0  0  0  0  0  0  0  0  0  0  0  0
  147.6748  135.9739  160.9480 C   0  0  0  0  0  0  0  0  0  0  0  0
  147.9252  137.1511  161.2076 O   0  0  0  0  0  0  0  0  0  0  0  0
  147.7953  135.3850  159.7481 O   0  0  0  0  0  0  0  0  0  0  0  0
  148.7780  135.8434  158.8338 C   0  0  0  0  0  0  0  0  0  0  0  0
  148.3342  137.1946  158.2458 C   0  0  2  0  0  0  0  0  0  0  0  0
  147.0272  137.0229  157.6914 O   0  0  0  0  0  0  0  0  0  0  0  0
  147.0442  137.2144  156.3091 C   0  0  2  0  0  0  0  0  0  0  0  0
  146.1483  136.2117  155.6473 N   0  0  0  0  0  0  0  0  0  0  0  0
  145.6214  135.0596  156.1828 C   0  0  0  0  0  0  0  0  0  0  0  0
  145.9783  134.5256  157.9752 Br  0  0  0  0  0  0  0  0  0  0  0  0
  144.8379  134.3494  155.4212 N   0  0  0  0  0  0  0  0  0  0  0  0
  144.8077  135.0868  154.2442 C   0  0  0  0  0  0  0  0  0  0  0  0
  144.1515  134.9240  152.9981 C   0  0  0  0  0  0  0  0  0  0  0  0
  143.3522  133.8840  152.7233 N   0  0  0  0  0  0  0  0  0  0  0  0
  144.3353  135.8635  152.0413 N   0  0  0  0  0  0  0  0  0  0  0  0
  145.1249  136.9125  152.2914 C   0  0  0  0  0  0  0  0  0  0  0  0
  145.8054  137.1977  153.4038 N   0  0  0  0  0  0  0  0  0  0  0  0
  145.6223  136.2507  154.3696 C   0  0  0  0  0  0  0  0  0  0  0  0
  148.5040  137.1056  155.8535 C   0  0  2  0  0  0  0  0  0  0  0  0
  148.8853  135.7474  155.6329 O   0  0  0  0  0  0  0  0  0  0  0  0
  150.1044  135.4404  155.1567 C   0  0  0  0  0  0  0  0  0  0  0  0
  150.2887  133.9411  154.9675 C   0  0  0  0  0  0  0  0  0  0  0  0
  150.9944  136.2397  154.8677 O   0  0  0  0  0  0  0  0  0  0  0  0
  149.1959  137.6900  157.0700 C   0  0  2  0  0  0  0  0  0  0  0  0
  150.5723  137.3295  157.1199 O   0  0  0  0  0  0  0  0  0  0  0  0
  151.3442  137.7476  158.1369 C   0  0  0  0  0  0  0  0  0  0  0  0
  152.7586  137.1890  158.0590 C   0  0  0  0  0  0  0  0  0  0  0  0
  150.9945  138.4902  159.0541 O   0  0  0  0  0  0  0  0  0  0  0  0
  147.9376  134.2525  162.2220 H   0  0  0  0  0  0  0  0  0  0  0  0
  146.2688  134.5131  161.6915 H   0  0  0  0  0  0  0  0  0  0  0  0
  146.9699  135.5443  162.9464 H   0  0  0  0  0  0  0  0  0  0  0  0
  149.7193  135.9514  159.3731 H   0  0  0  0  0  0  0  0  0  0  0  0
  148.9437  135.1169  158.0381 H   0  0  0  0  0  0  0  0  0  0  0  0
  148.3137  137.9482  159.0335 H   0  0  0  0  0  0  0  0  0  0  0  0
  146.6049  138.1869  156.0847 H   0  0  0  0  0  0  0  0  0  0  0  0
  143.1959  133.1713  153.4217 H   0  0  0  0  0  0  0  0  0  0  0  0
  142.9089  133.8142  151.8188 H   0  0  0  0  0  0  0  0  0  0  0  0
  145.2272  137.6255  151.4864 H   0  0  0  0  0  0  0  0  0  0  0  0
  148.6671  137.7244  154.9700 H   0  0  0  0  0  0  0  0  0  0  0  0
  149.8084  133.3910  155.7768 H   0  0  0  0  0  0  0  0  0  0  0  0
  151.3481  133.6840  154.9572 H   0  0  0  0  0  0  0  0  0  0  0  0
  149.8457  133.6255  154.0229 H   0  0  0  0  0  0  0  0  0  0  0  0
  149.1009  138.7755  157.0041 H   0  0  0  0  0  0  0  0  0  0  0  0
  153.2688  137.5738  157.1760 H   0  0  0  0  0  0  0  0  0  0  0  0
  152.7340  136.1008  157.9997 H   0  0  0  0  0  0  0  0  0  0  0  0
  153.3319  137.4732  158.9415 H   0  0  0  0  0  0  0  0  0  0  0  0
  1  2  1  0  0  0  0
  1 30  1  0  0  0  0
  1 31  1  0  0  0  0
  1 32  1  0  0  0  0
  2  3  2  0  0  0  0
  2  4  1  0  0  0  0
  4  5  1  0  0  0  0
  5  6  1  0  0  0  0
  5 33  1  0  0  0  0
  5 34  1  0  0  0  0
  6 25  1  0  0  0  0
  6  7  1  0  0  0  0
  6 35  1  0  0  0  0
  7  8  1  0  0  0  0
  8  9  1  0  0  0  0
  8 20  1  0  0  0  0
  8 36  1  0  0  0  0
  9 19  1  0  0  0  0
  9 10  1  0  0  0  0
 10 11  1  0  0  0  0
 10 12  2  0  0  0  0
 12 13  1  0  0  0  0
 13 19  2  0  0  0  0
 13 14  1  0  0  0  0
 14 15  1  0  0  0  0
 14 16  2  0  0  0  0
 15 37  1  0  0  0  0
 15 38  1  0  0  0  0
 16 17  1  0  0  0  0
 17 18  2  0  0  0  0
 17 39  1  0  0  0  0
 18 19  1  0  0  0  0
 20 21  1  0  0  0  0
 20 25  1  0  0  0  0
 20 40  1  0  0  0  0
 21 22  1  0  0  0  0
 22 23  1  0  0  0  0
 22 24  2  0  0  0  0
 23 41  1  0  0  0  0
 23 42  1  0  0  0  0
 23 43  1  0  0  0  0
 25 26  1  0  0  0  0
 25 44  1  0  0  0  0
 26 27  1  0  0  0  0
 27 28  1  0  0  0  0
 27 29  2  0  0  0  0
 28 45  1  0  0  0  0
 28 46  1  0  0  0  0
 28 47  1  0  0  0  0
M  END
> <s_m_source_file>
AV-unprocessed.smi

> <i_m_source_file_index>
104

> <i_lp_mmshare_version>
43012

> <i_f3d_flags>
0

> <s_epik_input>
W0NIM11DKD1PKU9bQ0gyXVtDQEBIXTFPW0NASF0oW0NAQEhdKE9DKD1PKVtDSDNdKVtDQEhdMU9DKD1PKVtDSDNdKW4oYyhCciluMiljKGMyMyluW2NIXW5jM1tOSDJd

> <s_epik_cmdline>
J2VwaWtfcHl0aG9uJywgJy1waCcsICc3LjAnLCAnLXRuJywgJzgnLCAnLW1hJywgJzIwMCcsICctbWV0YWxfYmluZGluZycsICctaW1hZScsICc8aW5maWxlLm1hZT4nLCAnLW9tYWUnLCAnPG91dGZpbGUubWFlPic=

> <r_lp_tautomer_probability>
1

> <r_epik_Ionization_Penalty>
7.36622e-05

> <r_epik_Ionization_Penalty_Charging>
0

> <r_epik_Ionization_Penalty_Neutral>
7.36622e-05

> <r_epik_State_Penalty>
-0

> <r_epik_Charging_Adjusted_Penalty>
0

> <i_epik_Tot_Q>
0

> <i_epik_Tot_abs_Q>
0

> <r_epik_Metal_State_Penalty>
-0

> <b_epik_Metal_Only>
0

> <s_epik_Chemistry_Notes>
This compound has an ester and may undergo hydrolysis at high or low pH. This compound contains an acetal/aminal-like group ( X-CH(R)-Y where X, Y are N, S, or O) that may be acid/base labile, releasing an aldehyde.

> <s_lp_Force_Field>
OPLS_2005

> <r_lp_Energy>
19.209

> <b_lp_Chiralities_Consistent>
1

> <s_lp_Variant>
AV-unprocessed.smi:104-15

> <Gold.Version>
5.8.1

> <Gold.Id.Protein>
6NUR|6NUR_protein|mol2

> <Gold.PLP.Fitness>
36.2777

> <Gold.PLP.PLP>
-23.9059

> <Gold.PLP.part.hbond>
-4.2837

> <Gold.PLP.part.metal>
0.0000

> <Gold.PLP.part.buried>
-5.0468

> <Gold.PLP.part.nonpolar>
-14.0850

> <Gold.PLP.part.repulsive>
0.5883

> <Gold.PLP.ligand.clash>
0.0000

> <Gold.PLP.ligand.torsion>
0.9484

> <Gold.PLP.Chemscore.Hbond>
3.6535

> <Gold.PLP.Chemscore.CHOScore>
1.0000

> <Gold.PLP.Chemscore.Metal>
0.0000

> <Gold.Chemscore.Hbonds>
donor molecule, donor type, donor heavy atom, donor atom, acceptor molecule, acceptor atom, score
      L1  H    15    37       P1 10957  1.00
      P1  H  6931  6943       L1     3  1.00
      P1  H  6934  6947       L1     3  0.75
      P1  H 10752 10763       L1    24  0.93
      L1  C    17    39       P1 10171  1.00

> <Gold.PLP.Chemscore.Internal.Correction>
0.3081

> <Gold.Rescore>
     Score         DG    S(hbond)    S(metal)    S(lipo)     H(rot)  DE(clash)    DE(int)     intcor
      2.24      -9.96       3.63        0.00      28.76       4.31       0.04       7.68       ----

> <Gold.Chemscore.Fitness>
2.2379

> <Gold.Chemscore.DG>
-9.9560

> <Gold.Chemscore.ZeroCoef>
-5.4800

> <Gold.Chemscore.Hbond>
3.6337

> <Gold.Chemscore.Metal>
0.0000

> <Gold.Chemscore.Lipo>
28.7641

> <Gold.Chemscore.Internal_Hbond>
0.0000

> <Gold.Chemscore.DEClash>
0.0370

> <Gold.Chemscore.DEInternal>
7.6811

> <Gold.Chemscore.Rot>
4.3070

> <Gold.Chemscore.Internal.Correction>
   9.000000E+99

> <Gold.Chemscore.Hbonds>
donor molecule, donor type, donor heavy atom, donor atom, acceptor molecule, acceptor atom, score
      L1  H    15    37       P1 10957  0.88
      P1  H  6931  6943       L1     3  0.95
      P1  H  6934  6947       L1     3  0.69
      P1  H 10752 10763       L1    24  0.87

> <Gold.Chemscore.Hbond.Weighted>
-12.1365

> <Gold.Chemscore.Metal.Weighted>
-0.0000

> <Gold.Chemscore.Lipo.Weighted>
-3.3654

> <Gold.Chemscore.Internal_Hbond.Weighted>
0.0000

> <Gold.Chemscore.DEClash.Weighted>
0.0370

> <Gold.Chemscore.DEInternal.Weighted>
7.6811

> <Gold.Chemscore.Rot.Weighted>
11.0259

> <Gold.Chemscore.Internal.Correction.Weighted>
   9.000000E+99

> <Gold.Protein.RotatedTorsions>
[ 6907 6896 6895 6894 ] final  -38.26 input  -60.11 | X-H torsion
[ 7974 7965 7964 7962 ] final  -79.80 input  175.53 | X-H torsion
[ 8008 7997 7996 7995 ] final   -9.08 input   59.86 | X-H torsion
[ 10167 10162 10161 10158 ] final   82.41 input  -65.29 | X-H torsion
[ 10718 10713 10712 10709 ] final  -22.74 input   66.30 | X-H torsion
[ 10763 10752 10751 10750 ] final   56.97 input  -60.55 | X-H torsion
[ 11005 11000 10999 10996 ] final  -74.86 input  -57.11 | X-H torsion

> <Gold.Protein.ActiveResidues>
 VAL166  LYS551  ARG553  GLY616  TRP617  ASP618  TYR619  PRO620  LYS621  CYS622 
 ASP623  PHE694  ASN695  SER759  ASP760  ASP761  ALA762  ILE779  LEU786  VAL792 
 PHE793  MET794  SER795  GLU796  ALA797  LYS798  CYS799  TRP800  GLU811  SER814 

> <Gold.Protein.RotatedAtoms>
  151.0046  134.9349  159.7972 H   0  0  0  0  0  0  0  0  0  0  0  0  # atno 6907 bound_to 6896
  152.5287  134.3108  159.9123 H   0  0  0  0  0  0  0  0  0  0  0  0  # atno 6908 bound_to 6896
  151.3114  133.4037  159.2681 H   0  0  0  0  0  0  0  0  0  0  0  0  # atno 6909 bound_to 6896
  145.5684  140.9470  143.1409 H   0  0  0  0  0  0  0  0  0  0  0  0  # atno 7974 bound_to 7965
  154.5680  140.2364  155.8234 H   0  0  0  0  0  0  0  0  0  0  0  0  # atno 8008 bound_to 7997
  156.2084  140.3033  155.9636 H   0  0  0  0  0  0  0  0  0  0  0  0  # atno 8009 bound_to 7997
  155.2765  140.0420  157.3002 H   0  0  0  0  0  0  0  0  0  0  0  0  # atno 8010 bound_to 7997
  139.9291  144.6164  150.8363 H   0  0  0  0  0  0  0  0  0  0  0  0  # atno 10167 bound_to 10162
  156.5004  130.4587  149.6704 H   0  0  0  0  0  0  0  0  0  0  0  0  # atno 10718 bound_to 10713
  152.9841  135.5658  154.5315 H   0  0  0  0  0  0  0  0  0  0  0  0  # atno 10763 bound_to 10752
  154.4786  135.2787  155.1590 H   0  0  0  0  0  0  0  0  0  0  0  0  # atno 10764 bound_to 10752
  154.3108  135.6288  153.5518 H   0  0  0  0  0  0  0  0  0  0  0  0  # atno 10765 bound_to 10752
  141.1639  133.6926  156.7429 H   0  0  0  0  0  0  0  0  0  0  0  0  # atno 11005 bound_to 11000
  144.7449  139.7346  143.7296 LP  0  0  0  0  0  0  0  0  0  0  0  0  # atno 17320 bound_to 7965
  146.1802  139.4990  142.9871 LP  0  0  0  0  0  0  0  0  0  0  0  0  # atno 17321 bound_to 7965
  140.7642  143.3243  151.2551 LP  0  0  0  0  0  0  0  0  0  0  0  0  # atno 17342 bound_to 10162
  139.6797  143.9875  152.2801 LP  0  0  0  0  0  0  0  0  0  0  0  0  # atno 17343 bound_to 10162
  156.3338  130.7346  151.2280 LP  0  0  0  0  0  0  0  0  0  0  0  0  # atno 17370 bound_to 10713
  157.7463  131.0422  150.4685 LP  0  0  0  0  0  0  0  0  0  0  0  0  # atno 17371 bound_to 10713
  140.2661  134.8429  157.3804 LP  0  0  0  0  0  0  0  0  0  0  0  0  # atno 17394 bound_to 11000
  140.1565  134.4783  155.7924 LP  0  0  0  0  0  0  0  0  0  0  0  0  # atno 17395 bound_to 11000

$$$$
