#       Name:                AV-unprocessed.smi:91
#       Creating user name   scv26
#       Creation time:       Thu Mar 26 17:26:12 2020


#       File generated by GOLD software.
#

@<TRIPOS>MOLECULE
AV-unprocessed.smi:91
    72    75     1
SMALL
NO_CHARGES


@<TRIPOS>ATOM
      1 ****        -4.6902  -1.3956   4.3209 C.3            1 S1                 0.0000
      2 ****        -4.2377  -0.4603   3.3580 O.3            1 S1                 0.0000
      3 ****        -4.7023  -0.7574   2.0505 C.3            1 S1                 0.0000
      4 ****        -4.1786   0.2868   1.0546 C.3            1 S1                 0.0000
      5 ****        -2.6450   0.4114   1.0686 C.3            1 S1                 0.0000
      6 ****        -2.2240   1.4914   0.1853 N.3            1 S1                 0.0000
      7 ****        -0.9003   1.4971  -0.1151 C.ar           1 S1                 0.0000
      8 ****        -0.1224   2.5502   0.2548 N.ar           1 S1                 0.0000
      9 ****         1.1843   2.5576  -0.0248 C.ar           1 S1                 0.0000
     10 ****         1.9073   1.6318  -0.6573 N.ar           1 S1                 0.0000
     11 ****         1.1316   0.5780  -1.0403 C.ar           1 S1                 0.0000
     12 ****        -0.2661   0.4310  -0.8141 C.ar           1 S1                 0.0000
     13 ****        -0.7088  -0.7680  -1.3620 N.2            1 S1                 0.0000
     14 ****         0.3665  -1.3025  -1.8735 C.2            1 S1                 0.0000
     15 ****         1.5173  -0.5640  -1.7181 N.pl3          1 S1                 0.0000
     16 ****         2.8488  -0.9149  -2.1783 C.3            1 S1                 0.0000
     17 ****         3.7719  -1.4177  -1.0408 C.3            1 S1                 0.0000
     18 ****         3.1428  -2.5775  -0.2310 C.3            1 S1                 0.0000
     19 ****         2.9095  -3.7093  -1.0442 O.3            1 S1                 0.0000
     20 ****         5.1865  -1.7633  -1.5701 C.3            1 S1                 0.0000
     21 ****         6.1916  -2.1627  -0.5041 C.3            1 S1                 0.0000
     22 ****         7.5212  -1.9711  -1.2251 C.3            1 S1                 0.0000
     23 ****         7.3154  -0.8947  -2.1329 O.3            1 S1                 0.0000
     24 ****         5.9272  -0.5891  -2.2191 C.3            1 S1                 0.0000
     25 ****        -2.8601   2.7658   0.5096 C.3            1 S1                 0.0000
     26 ****        -4.4002   2.6372   0.5140 C.3            1 S1                 0.0000
     27 ****        -5.0206   3.8868   1.1579 C.3            1 S1                 0.0000
     28 ****        -4.9690   2.4665  -0.9109 C.3            1 S1                 0.0000
     29 ****        -4.7848   1.5443   1.3555 O.3            1 S1                 0.0000
     30 ****        -4.3087  -1.1224   5.3046 H              1 S1                 0.0000
     31 ****        -4.3365  -2.4014   4.0904 H              1 S1                 0.0000
     32 ****        -5.7796  -1.4109   4.3746 H              1 S1                 0.0000
     33 ****        -4.3551  -1.7494   1.7567 H              1 S1                 0.0000
     34 ****        -5.7931  -0.7762   2.0310 H              1 S1                 0.0000
     35 ****        -4.4988  -0.0295   0.0620 H              1 S1                 0.0000
     36 ****        -2.2904   0.6320   2.0763 H              1 S1                 0.0000
     37 ****        -2.2013  -0.5408   0.7798 H              1 S1                 0.0000
     38 ****         1.7284   3.4297   0.3070 H              1 S1                 0.0000
     39 ****         0.3519  -2.2597  -2.3747 H              1 S1                 0.0000
     40 ****         2.7573  -1.6739  -2.9562 H              1 S1                 0.0000
     41 ****         3.2740  -0.0334  -2.6585 H              1 S1                 0.0000
     42 ****         3.8882  -0.5890  -0.3405 H              1 S1                 0.0000
     43 ****         3.7880  -2.8690   0.5973 H              1 S1                 0.0000
     44 ****         2.1999  -2.2713   0.2219 H              1 S1                 0.0000
     45 ****         2.5254  -4.3882  -0.5106 H              1 S1                 0.0000
     46 ****         5.1170  -2.5724  -2.2991 H              1 S1                 0.0000
     47 ****         6.1295  -1.4884   0.3513 H              1 S1                 0.0000
     48 ****         6.0588  -3.1838  -0.1455 H              1 S1                 0.0000
     49 ****         8.3418  -1.7643  -0.5379 H              1 S1                 0.0000
     50 ****         7.7752  -2.8640  -1.7976 H              1 S1                 0.0000
     51 ****         5.6268  -0.4264  -3.2545 H              1 S1                 0.0000
     52 ****         5.7473   0.3351  -1.6675 H              1 S1                 0.0000
     53 ****        -2.5124   3.0858   1.4932 H              1 S1                 0.0000
     54 ****        -2.5557   3.5336  -0.2034 H              1 S1                 0.0000
     55 ****        -4.7655   4.7889   0.6008 H              1 S1                 0.0000
     56 ****        -4.6677   4.0197   2.1812 H              1 S1                 0.0000
     57 ****        -6.1080   3.8147   1.1935 H              1 S1                 0.0000
     58 ****        -4.7801   3.3545  -1.5146 H              1 S1                 0.0000
     59 ****        -6.0477   2.3090  -0.8866 H              1 S1                 0.0000
     60 ****        -4.5236   1.6251  -1.4406 H              1 S1                 0.0000
     61 ****        -3.2377  -0.4651   3.3516 LP             1 S1                 0.0000
     62 ****        -4.5650   0.4488   3.6156 LP             1 S1                 0.0000
     63 ****        -2.5981   1.2892  -0.7198 LP             1 S1                 0.0000
     64 ****        -0.5311   3.3237   0.7391 LP             1 S1                 0.0000
     65 ****         2.8902   1.7016  -0.8282 LP             1 S1                 0.0000
     66 ****        -1.6384  -1.1365  -1.3637 LP             1 S1                 0.0000
     67 ****         3.7742  -4.0318  -1.4295 LP             1 S1                 0.0000
     68 ****         2.2834  -3.4685  -1.7858 LP             1 S1                 0.0000
     69 ****         7.6541  -1.1548  -3.0372 LP             1 S1                 0.0000
     70 ****         7.8124  -0.0894  -1.8098 LP             1 S1                 0.0000
     71 ****        -4.5461   1.7828   2.2968 LP             1 S1                 0.0000
     72 ****        -5.7757   1.4332   1.2808 LP             1 S1                 0.0000
@<TRIPOS>BOND
    1    1    2 1     
    2    1   30 1     
    3    1   31 1     
    4    1   32 1     
    5    2    3 1     
    6    3    4 1     
    7    3   33 1     
    8    3   34 1     
    9    4   29 1     
   10    4    5 1     
   11    4   35 1     
   12    5    6 1     
   13    5   36 1     
   14    5   37 1     
   15    6    7 1     
   16    6   25 1     
   17    7   12 ar    
   18    7    8 ar    
   19    8    9 ar    
   20    9   10 ar    
   21    9   38 1     
   22   10   11 ar    
   23   11   15 1     
   24   11   12 ar    
   25   12   13 1     
   26   13   14 2     
   27   14   15 1     
   28   14   39 1     
   29   15   16 1     
   30   16   17 1     
   31   16   40 1     
   32   16   41 1     
   33   17   18 1     
   34   17   20 1     
   35   17   42 1     
   36   18   19 1     
   37   18   43 1     
   38   18   44 1     
   39   19   45 1     
   40   20   24 1     
   41   20   21 1     
   42   20   46 1     
   43   21   22 1     
   44   21   47 1     
   45   21   48 1     
   46   22   23 1     
   47   22   49 1     
   48   22   50 1     
   49   23   24 1     
   50   24   51 1     
   51   24   52 1     
   52   25   26 1     
   53   25   53 1     
   54   25   54 1     
   55   26   27 1     
   56   26   28 1     
   57   26   29 1     
   58   27   55 1     
   59   27   56 1     
   60   27   57 1     
   61   28   58 1     
   62   28   59 1     
   63   28   60 1     
   64    2   61 1     
   65    2   62 1     
   66    6   63 1     
   67    8   64 1     
   68   10   65 1     
   69   13   66 1     
   70   19   67 1     
   71   19   68 1     
   72   23   69 1     
   73   23   70 1     
   74   29   71 1     
   75   29   72 1     
@<TRIPOS>SUBSTRUCTURE
      1 S1             1
@<TRIPOS>SET
LONE_PAIRS      STATIC     ATOMS    <user>   **** ""
12 61 62 63 64 65 66 67 68 69 70 71 72
DONOR_HYDROGENS      STATIC     ATOMS    <user>   **** ""
1 45
ATOM$BLUE        STATIC     ATOMS    COLORGROUP SYSTEM
12 61 62 63 64 65 66 67 68 69 70 71 72
ATOM$RED        STATIC     ATOMS    COLORGROUP SYSTEM
1 45
