AV-unprocessed.smi:601|AV-procd|sdf|3032|dock3
  -GOLD-   2262023543D 1   1.00000     0.00000
 Structure written by MMmdl.
 50 51  0  0  0  0  0  0  0  0  1 V2000
  147.0664  141.1500  153.4669 C   0  0  0  0  0  0  0  0  0  0  0  0
  148.2807  141.8502  154.0870 C   0  0  0  0  0  0  0  0  0  0  0  0
  148.9690  140.9939  155.1590 C   0  0  0  0  0  0  0  0  0  0  0  0
  150.1883  141.6980  155.7811 C   0  0  0  0  0  0  0  0  0  0  0  0
  150.7425  140.9424  156.9146 N   0  0  0  0  0  0  0  0  0  0  0  0
  151.0609  141.5641  158.0804 C   0  0  0  0  0  0  0  0  0  0  0  0
  151.6209  140.9660  159.0015 O   0  0  0  0  0  0  0  0  0  0  0  0
  150.6700  143.0517  158.2797 C   0  0  1  0  0  0  0  0  0  0  0  0
  150.9357  143.6037  159.6865 C   0  0  0  0  0  0  0  0  0  0  0  0
  152.3866  144.0674  159.6472 C   0  0  0  0  0  0  0  0  0  0  0  0
  152.7310  144.1088  158.1555 C   0  0  0  0  0  0  0  0  0  0  0  0
  151.4956  143.8930  157.4822 O   0  0  0  0  0  0  0  0  0  0  0  0
  150.9640  139.5684  156.7123 C   0  0  0  0  0  0  0  0  0  0  0  0
  150.2727  138.6209  157.4133 C   0  0  0  0  0  0  0  0  0  0  0  0
  149.3066  138.9994  158.3344 N   0  0  0  0  0  0  0  0  0  0  0  0
  150.5112  137.2552  157.2328 N   0  0  0  0  0  0  0  0  0  0  0  0
  149.7983  136.2136  157.9457 C   0  0  0  0  0  0  0  0  0  0  0  0
  149.1093  135.2138  157.0018 C   0  0  0  0  0  0  0  0  0  0  0  0
  148.4871  134.0351  157.7562 C   0  0  0  0  0  0  0  0  0  0  0  0
  151.5259  136.8232  156.3448 C   0  0  0  0  0  0  0  0  0  0  0  0
  151.8152  135.6396  156.1662 O   0  0  0  0  0  0  0  0  0  0  0  0
  152.2245  137.8066  155.6534 N   0  0  0  0  0  0  0  0  0  0  0  0
  152.0198  139.1791  155.7683 C   0  0  0  0  0  0  0  0  0  0  0  0
  152.7121  139.9513  155.1062 O   0  0  0  0  0  0  0  0  0  0  0  0
  152.9465  137.4996  155.0178 H   0  0  0  0  0  0  0  0  0  0  0  0
  146.6002  141.7788  152.7081 H   0  0  0  0  0  0  0  0  0  0  0  0
  146.3124  140.9266  154.2223 H   0  0  0  0  0  0  0  0  0  0  0  0
  147.3539  140.2119  152.9914 H   0  0  0  0  0  0  0  0  0  0  0  0
  148.9947  142.0961  153.3001 H   0  0  0  0  0  0  0  0  0  0  0  0
  147.9635  142.7979  154.5236 H   0  0  0  0  0  0  0  0  0  0  0  0
  148.2466  140.7448  155.9369 H   0  0  0  0  0  0  0  0  0  0  0  0
  149.2817  140.0479  154.7161 H   0  0  0  0  0  0  0  0  0  0  0  0
  150.9545  141.8275  155.0149 H   0  0  0  0  0  0  0  0  0  0  0  0
  149.9208  142.7076  156.0974 H   0  0  0  0  0  0  0  0  0  0  0  0
  149.6206  143.1912  158.0191 H   0  0  0  0  0  0  0  0  0  0  0  0
  150.2838  144.4595  159.8652 H   0  0  0  0  0  0  0  0  0  0  0  0
  150.7450  142.8843  160.4839 H   0  0  0  0  0  0  0  0  0  0  0  0
  152.4967  145.0457  160.1159 H   0  0  0  0  0  0  0  0  0  0  0  0
  153.0408  143.3693  160.1709 H   0  0  0  0  0  0  0  0  0  0  0  0
  153.1752  145.0583  157.8565 H   0  0  0  0  0  0  0  0  0  0  0  0
  153.4309  143.3126  157.8975 H   0  0  0  0  0  0  0  0  0  0  0  0
  149.0901  139.9701  158.5103 H   0  0  0  0  0  0  0  0  0  0  0  0
  148.8204  138.3221  158.9042 H   0  0  0  0  0  0  0  0  0  0  0  0
  150.5207  135.7182  158.5938 H   0  0  0  0  0  0  0  0  0  0  0  0
  149.0908  136.6903  158.6268 H   0  0  0  0  0  0  0  0  0  0  0  0
  148.3328  135.7197  156.4272 H   0  0  0  0  0  0  0  0  0  0  0  0
  149.8310  134.8351  156.2770 H   0  0  0  0  0  0  0  0  0  0  0  0
  148.0076  133.3412  157.0653 H   0  0  0  0  0  0  0  0  0  0  0  0
  147.7310  134.3767  158.4635 H   0  0  0  0  0  0  0  0  0  0  0  0
  149.2434  133.4812  158.3134 H   0  0  0  0  0  0  0  0  0  0  0  0
  1  2  1  0  0  0  0
  1 26  1  0  0  0  0
  1 27  1  0  0  0  0
  1 28  1  0  0  0  0
  2  3  1  0  0  0  0
  2 29  1  0  0  0  0
  2 30  1  0  0  0  0
  3  4  1  0  0  0  0
  3 31  1  0  0  0  0
  3 32  1  0  0  0  0
  4  5  1  0  0  0  0
  4 33  1  0  0  0  0
  4 34  1  0  0  0  0
  5  6  1  0  0  0  0
  5 13  1  0  0  0  0
  6  7  2  0  0  0  0
  6  8  1  0  0  0  0
  8 12  1  0  0  0  0
  8  9  1  0  0  0  0
  8 35  1  0  0  0  0
  9 10  1  0  0  0  0
  9 36  1  0  0  0  0
  9 37  1  0  0  0  0
 10 11  1  0  0  0  0
 10 38  1  0  0  0  0
 10 39  1  0  0  0  0
 11 12  1  0  0  0  0
 11 40  1  0  0  0  0
 11 41  1  0  0  0  0
 13 23  1  0  0  0  0
 13 14  2  0  0  0  0
 14 15  1  0  0  0  0
 14 16  1  0  0  0  0
 15 42  1  0  0  0  0
 15 43  1  0  0  0  0
 16 17  1  0  0  0  0
 16 20  1  0  0  0  0
 17 18  1  0  0  0  0
 17 44  1  0  0  0  0
 17 45  1  0  0  0  0
 18 19  1  0  0  0  0
 18 46  1  0  0  0  0
 18 47  1  0  0  0  0
 19 48  1  0  0  0  0
 19 49  1  0  0  0  0
 19 50  1  0  0  0  0
 20 21  2  0  0  0  0
 20 22  1  0  0  0  0
 22 25  1  0  0  0  0
 22 23  1  0  0  0  0
 23 24  2  0  0  0  0
M  END
> <s_m_source_file>
AV-unprocessed.smi

> <i_m_source_file_index>
601

> <i_lp_mmshare_version>
43012

> <i_f3d_flags>
0

> <s_epik_input>
TzFbQ0gyXVtDSDJdW0NIMl1bQ0BIXTFDKD1PKU4oW0NIMl1bQ0gyXVtDSDJdW0NIM10pYzJjKFtOSDJdKW4oW0NIMl1bQ0gyXVtDSDNdKWMoPU8pW25IXWMyPU8=

> <s_epik_cmdline>
J2VwaWtfcHl0aG9uJywgJy1waCcsICc3LjAnLCAnLXRuJywgJzgnLCAnLW1hJywgJzIwMCcsICctbWV0YWxfYmluZGluZycsICctaW1hZScsICc8aW5maWxlLm1hZT4nLCAnLW9tYWUnLCAnPG91dGZpbGUubWFlPic=

> <r_lp_tautomer_probability>
1

> <r_epik_Ionization_Penalty>
6.19718e-05

> <r_epik_Ionization_Penalty_Charging>
2.78773e-05

> <r_epik_Ionization_Penalty_Neutral>
3.40944e-05

> <r_epik_State_Penalty>
-0

> <r_epik_Charging_Adjusted_Penalty>
2.78773e-05

> <i_epik_Tot_Q>
0

> <i_epik_Tot_abs_Q>
0

> <r_epik_Metal_State_Penalty>
0.0271358

> <b_epik_Metal_Only>
0

> <s_lp_Force_Field>
OPLS_2005

> <r_lp_Energy>
41.2463

> <b_lp_Chiralities_Consistent>
1

> <s_lp_Variant>
AV-unprocessed.smi:601-2

> <Gold.Version>
5.8.1

> <Gold.Id.Protein>
6NUR|6NUR_protein|mol2

> <Gold.PLP.Fitness>
42.2951

> <Gold.PLP.PLP>
-35.5615

> <Gold.PLP.part.hbond>
-3.0000

> <Gold.PLP.part.metal>
0.0000

> <Gold.PLP.part.buried>
-4.6131

> <Gold.PLP.part.nonpolar>
-29.5428

> <Gold.PLP.part.repulsive>
0.5228

> <Gold.PLP.ligand.clash>
0.0000

> <Gold.PLP.ligand.torsion>
1.6142

> <Gold.PLP.Chemscore.Hbond>
2.5120

> <Gold.PLP.Chemscore.CHOScore>
0.0000

> <Gold.PLP.Chemscore.Metal>
0.0000

> <Gold.Chemscore.Hbonds>
donor molecule, donor type, donor heavy atom, donor atom, acceptor molecule, acceptor atom, score
      P1  H  7989  7998       L1    24  0.39
      P1  H  7997  8008       L1    24  1.00
      P1  H 10752 10763       L1    21  1.00

> <Gold.PLP.Chemscore.Internal.Correction>
2.4259

> <Gold.Rescore>
     Score         DG    S(hbond)    S(metal)    S(lipo)     H(rot)  DE(clash)    DE(int)     intcor
     13.84     -17.16       1.95        0.00      87.07       1.96       0.19       3.13       ----

> <Gold.Chemscore.Fitness>
13.8389

> <Gold.Chemscore.DG>
-17.1602

> <Gold.Chemscore.ZeroCoef>
-5.4800

> <Gold.Chemscore.Hbond>
1.9495

> <Gold.Chemscore.Metal>
0.0000

> <Gold.Chemscore.Lipo>
87.0711

> <Gold.Chemscore.Internal_Hbond>
0.0000

> <Gold.Chemscore.DEClash>
0.1891

> <Gold.Chemscore.DEInternal>
3.1323

> <Gold.Chemscore.Rot>
1.9603

> <Gold.Chemscore.Internal.Correction>
   9.000000E+99

> <Gold.Chemscore.Hbonds>
donor molecule, donor type, donor heavy atom, donor atom, acceptor molecule, acceptor atom, score
      P1  H  7989  7998       L1    24  0.35
      P1  H  7997  8008       L1    24  0.70
      P1  H 10752 10763       L1    21  0.78

> <Gold.Chemscore.Hbond.Weighted>
-6.5114

> <Gold.Chemscore.Metal.Weighted>
-0.0000

> <Gold.Chemscore.Lipo.Weighted>
-10.1873

> <Gold.Chemscore.Internal_Hbond.Weighted>
0.0000

> <Gold.Chemscore.DEClash.Weighted>
0.1891

> <Gold.Chemscore.DEInternal.Weighted>
3.1323

> <Gold.Chemscore.Rot.Weighted>
5.0185

> <Gold.Chemscore.Internal.Correction.Weighted>
   9.000000E+99

> <Gold.Protein.RotatedTorsions>
[ 6907 6896 6895 6894 ] final  -56.01 input  -60.11 | X-H torsion
[ 7974 7965 7964 7962 ] final  104.10 input  175.53 | X-H torsion
[ 8008 7997 7996 7995 ] final  -23.02 input   59.86 | X-H torsion
[ 10167 10162 10161 10158 ] final -159.94 input  -65.29 | X-H torsion
[ 10718 10713 10712 10709 ] final   74.15 input   66.30 | X-H torsion
[ 10763 10752 10751 10750 ] final   85.70 input  -60.55 | X-H torsion
[ 11005 11000 10999 10996 ] final  141.95 input  -57.11 | X-H torsion

> <Gold.Protein.ActiveResidues>
 VAL166  LYS551  ARG553  GLY616  TRP617  ASP618  TYR619  PRO620  LYS621  CYS622 
 ASP623  PHE694  ASN695  SER759  ASP760  ASP761  ALA762  ILE779  LEU786  VAL792 
 PHE793  MET794  SER795  GLU796  ALA797  LYS798  CYS799  TRP800  GLU811  SER814 

> <Gold.Protein.RotatedAtoms>
  150.8203  134.7408  159.6766 H   0  0  0  0  0  0  0  0  0  0  0  0  # atno 6907 bound_to 6896
  152.4319  134.5757  159.9943 H   0  0  0  0  0  0  0  0  0  0  0  0  # atno 6908 bound_to 6896
  151.5943  133.3326  159.3070 H   0  0  0  0  0  0  0  0  0  0  0  0  # atno 6909 bound_to 6896
  145.3372  139.2471  143.3629 H   0  0  0  0  0  0  0  0  0  0  0  0  # atno 7974 bound_to 7965
  154.4609  140.1992  156.0247 H   0  0  0  0  0  0  0  0  0  0  0  0  # atno 8008 bound_to 7997
  156.0838  140.3268  155.7699 H   0  0  0  0  0  0  0  0  0  0  0  0  # atno 8009 bound_to 7997
  155.5068  140.0558  157.2921 H   0  0  0  0  0  0  0  0  0  0  0  0  # atno 8010 bound_to 7997
  139.6577  143.9969  152.2205 H   0  0  0  0  0  0  0  0  0  0  0  0  # atno 10167 bound_to 10162
  157.6580  130.9664  150.1170 H   0  0  0  0  0  0  0  0  0  0  0  0  # atno 10718 bound_to 10713
  153.1500  135.4607  154.9622 H   0  0  0  0  0  0  0  0  0  0  0  0  # atno 10763 bound_to 10752
  154.7817  135.3190  154.7977 H   0  0  0  0  0  0  0  0  0  0  0  0  # atno 10764 bound_to 10752
  153.8484  135.6923  153.4849 H   0  0  0  0  0  0  0  0  0  0  0  0  # atno 10765 bound_to 10752
  140.0440  134.9290  157.0895 H   0  0  0  0  0  0  0  0  0  0  0  0  # atno 11005 bound_to 11000
  146.3022  140.3962  142.8700 LP  0  0  0  0  0  0  0  0  0  0  0  0  # atno 17320 bound_to 7965
  144.8818  140.7410  143.5982 LP  0  0  0  0  0  0  0  0  0  0  0  0  # atno 17321 bound_to 7965
  139.9700  144.6500  150.7998 LP  0  0  0  0  0  0  0  0  0  0  0  0  # atno 17342 bound_to 10162
  140.7566  143.3070  151.2938 LP  0  0  0  0  0  0  0  0  0  0  0  0  # atno 17343 bound_to 10162
  156.2052  130.3663  149.8739 LP  0  0  0  0  0  0  0  0  0  0  0  0  # atno 17370 bound_to 10713
  156.6632  130.8790  151.3550 LP  0  0  0  0  0  0  0  0  0  0  0  0  # atno 17371 bound_to 10713
  140.4024  134.2069  155.7163 LP  0  0  0  0  0  0  0  0  0  0  0  0  # atno 17394 bound_to 11000
  141.1897  133.8232  157.0945 LP  0  0  0  0  0  0  0  0  0  0  0  0  # atno 17395 bound_to 11000

$$$$
