AV-unprocessed.smi:83|AV-procd|sdf|802|dock1
  -GOLD-   2262017183D 1   1.00000     0.00000
 Structure written by MMmdl.
 56 59  0  0  0  0  0  0  0  0  1 V2000
  146.1487  135.4942  151.0513 C   0  0  0  0  0  0  0  0  0  0  0  0
  146.3207  135.2772  152.5553 C   0  0  0  0  0  0  0  0  0  0  0  0
  145.6759  135.9769  153.3358 O   0  0  0  0  0  0  0  0  0  0  0  0
  147.1761  134.3225  152.9745 N   0  0  0  0  0  0  0  0  0  0  0  0
  147.9508  133.4721  152.0749 C   0  0  0  0  0  0  0  0  0  0  0  0
  148.7127  132.5027  152.9840 C   0  0  0  0  0  0  0  0  0  0  0  0
  148.8367  133.2455  154.3138 C   0  0  1  0  0  0  0  0  0  0  0  0
  150.1032  134.1367  154.3098 C   0  0  0  0  0  0  0  0  0  0  0  0
  150.4066  134.7578  155.6003 N   0  0  0  0  0  0  0  0  0  0  0  0
  149.8970  134.0868  156.7951 C   0  0  0  0  0  0  0  0  0  0  0  0
  150.7993  136.0648  155.6945 C   0  0  0  0  0  0  0  0  0  0  0  0
  151.2565  136.6765  154.5671 N   0  0  0  0  0  0  0  0  0  0  0  0
  151.6986  137.9356  154.5935 C   0  0  0  0  0  0  0  0  0  0  0  0
  151.7775  138.7676  155.6305 N   0  0  0  0  0  0  0  0  0  0  0  0
  151.3094  138.1805  156.7667 C   0  0  0  0  0  0  0  0  0  0  0  0
  150.7977  136.8537  156.8899 C   0  0  0  0  0  0  0  0  0  0  0  0
  150.4108  136.6418  158.2102 N   0  0  0  0  0  0  0  0  0  0  0  0
  150.6994  137.7522  158.8283 C   0  0  0  0  0  0  0  0  0  0  0  0
  151.2489  138.7294  158.0355 N   0  0  0  0  0  0  0  0  0  0  0  0
  151.6736  140.0496  158.4657 C   0  0  0  0  0  0  0  0  0  0  0  0
  152.7193  139.9850  159.5961 C   0  0  1  0  0  0  0  0  0  0  0  0
  153.9478  139.5247  159.0667 O   0  0  0  0  0  0  0  0  0  0  0  0
  152.9481  141.3551  160.2594 C   0  0  2  0  0  0  0  0  0  0  0  0
  153.4667  141.2858  161.6972 C   0  0  0  0  0  0  0  0  0  0  0  0
  152.9955  142.5931  162.3153 C   0  0  0  0  0  0  0  0  0  0  0  0
  151.9464  143.1146  161.3300 C   0  0  0  0  0  0  0  0  0  0  0  0
  151.7162  142.0388  160.4315 O   0  0  0  0  0  0  0  0  0  0  0  0
  147.5079  134.0164  154.3639 C   0  0  0  0  0  0  0  0  0  0  0  0
  147.1083  135.7051  150.5786 H   0  0  0  0  0  0  0  0  0  0  0  0
  145.4839  136.3362  150.8561 H   0  0  0  0  0  0  0  0  0  0  0  0
  145.7151  134.6114  150.5827 H   0  0  0  0  0  0  0  0  0  0  0  0
  147.3130  132.9401  151.3677 H   0  0  0  0  0  0  0  0  0  0  0  0
  148.6455  134.0926  151.5065 H   0  0  0  0  0  0  0  0  0  0  0  0
  148.1178  131.5997  153.1282 H   0  0  0  0  0  0  0  0  0  0  0  0
  149.6723  132.1975  152.5652 H   0  0  0  0  0  0  0  0  0  0  0  0
  148.9011  132.5397  155.1430 H   0  0  0  0  0  0  0  0  0  0  0  0
  150.9563  133.5061  154.0572 H   0  0  0  0  0  0  0  0  0  0  0  0
  150.0709  134.8559  153.4991 H   0  0  0  0  0  0  0  0  0  0  0  0
  150.6173  134.1475  157.6117 H   0  0  0  0  0  0  0  0  0  0  0  0
  149.7082  133.0306  156.6016 H   0  0  0  0  0  0  0  0  0  0  0  0
  148.9598  134.5390  157.1211 H   0  0  0  0  0  0  0  0  0  0  0  0
  152.0449  138.3300  153.6495 H   0  0  0  0  0  0  0  0  0  0  0  0
  150.5247  137.8863  159.8860 H   0  0  0  0  0  0  0  0  0  0  0  0
  152.0654  140.5948  157.6059 H   0  0  0  0  0  0  0  0  0  0  0  0
  150.7891  140.5930  158.8002 H   0  0  0  0  0  0  0  0  0  0  0  0
  152.3890  139.2707  160.3517 H   0  0  0  0  0  0  0  0  0  0  0  0
  154.1618  138.7016  159.4788 H   0  0  0  0  0  0  0  0  0  0  0  0
  153.6135  141.9710  159.6508 H   0  0  0  0  0  0  0  0  0  0  0  0
  153.0073  140.4482  162.2240 H   0  0  0  0  0  0  0  0  0  0  0  0
  154.5486  141.1600  161.7472 H   0  0  0  0  0  0  0  0  0  0  0  0
  152.5709  142.4235  163.3053 H   0  0  0  0  0  0  0  0  0  0  0  0
  153.8142  143.3060  162.4183 H   0  0  0  0  0  0  0  0  0  0  0  0
  151.0228  143.4190  161.8225 H   0  0  0  0  0  0  0  0  0  0  0  0
  152.3341  143.9694  160.7739 H   0  0  0  0  0  0  0  0  0  0  0  0
  147.5495  134.8939  155.0041 H   0  0  0  0  0  0  0  0  0  0  0  0
  146.7217  133.3735  154.7623 H   0  0  0  0  0  0  0  0  0  0  0  0
  1  2  1  0  0  0  0
  1 29  1  0  0  0  0
  1 30  1  0  0  0  0
  1 31  1  0  0  0  0
  2  3  2  0  0  0  0
  2  4  1  0  0  0  0
  4 28  1  0  0  0  0
  4  5  1  0  0  0  0
  5  6  1  0  0  0  0
  5 32  1  0  0  0  0
  5 33  1  0  0  0  0
  6  7  1  0  0  0  0
  6 34  1  0  0  0  0
  6 35  1  0  0  0  0
  7  8  1  0  0  0  0
  7 28  1  0  0  0  0
  7 36  1  0  0  0  0
  8  9  1  0  0  0  0
  8 37  1  0  0  0  0
  8 38  1  0  0  0  0
  9 10  1  0  0  0  0
  9 11  1  0  0  0  0
 10 39  1  0  0  0  0
 10 40  1  0  0  0  0
 10 41  1  0  0  0  0
 11 16  1  0  0  0  0
 11 12  2  0  0  0  0
 12 13  1  0  0  0  0
 13 14  2  0  0  0  0
 13 42  1  0  0  0  0
 14 15  1  0  0  0  0
 15 19  1  0  0  0  0
 15 16  2  0  0  0  0
 16 17  1  0  0  0  0
 17 18  2  0  0  0  0
 18 19  1  0  0  0  0
 18 43  1  0  0  0  0
 19 20  1  0  0  0  0
 20 21  1  0  0  0  0
 20 44  1  0  0  0  0
 20 45  1  0  0  0  0
 21 22  1  0  0  0  0
 21 23  1  0  0  0  0
 21 46  1  0  0  0  0
 22 47  1  0  0  0  0
 23 27  1  0  0  0  0
 23 24  1  0  0  0  0
 23 48  1  0  0  0  0
 24 25  1  0  0  0  0
 24 49  1  0  0  0  0
 24 50  1  0  0  0  0
 25 26  1  0  0  0  0
 25 51  1  0  0  0  0
 25 52  1  0  0  0  0
 26 27  1  0  0  0  0
 26 53  1  0  0  0  0
 26 54  1  0  0  0  0
 28 55  1  0  0  0  0
 28 56  1  0  0  0  0
M  END
> <s_m_source_file>
AV-unprocessed.smi

> <i_m_source_file_index>
83

> <i_lp_mmshare_version>
43012

> <i_f3d_flags>
0

> <s_epik_input>
W0NIM11DKD1PKU4xW0NIMl1bQ0gyXVtDQEhdKFtDSDJdMSlbQ0gyXU4oW0NIM10pYyhuW2NIXW4yKWMoYzIzKW5bY0hdbjNbQ0gyXVtDQEhdKFtPSF0pW0NAQEhdNFtDSDJdW0NIMl1bQ0gyXU80

> <s_epik_cmdline>
J2VwaWtfcHl0aG9uJywgJy1waCcsICc3LjAnLCAnLXRuJywgJzgnLCAnLW1hJywgJzIwMCcsICctbWV0YWxfYmluZGluZycsICctaW1hZScsICc8aW5maWxlLm1hZT4nLCAnLW9tYWUnLCAnPG91dGZpbGUubWFlPic=

> <r_lp_tautomer_probability>
1

> <r_epik_Ionization_Penalty>
0.00109752

> <r_epik_Ionization_Penalty_Charging>
0

> <r_epik_Ionization_Penalty_Neutral>
0.00109752

> <r_epik_State_Penalty>
0.000634803

> <r_epik_Charging_Adjusted_Penalty>
0.000634803

> <i_epik_Tot_Q>
0

> <i_epik_Tot_abs_Q>
0

> <r_epik_Metal_State_Penalty>
-0

> <b_epik_Metal_Only>
0

> <s_lp_Force_Field>
OPLS_2005

> <r_lp_Energy>
53.2546

> <b_lp_Chiralities_Consistent>
1

> <s_lp_Variant>
AV-unprocessed.smi:83-3

> <Gold.Version>
5.8.1

> <Gold.Id.Protein>
6NUR|6NUR_protein|mol2

> <Gold.PLP.Fitness>
52.6370

> <Gold.PLP.PLP>
-47.5065

> <Gold.PLP.part.hbond>
-3.6916

> <Gold.PLP.part.metal>
0.0000

> <Gold.PLP.part.buried>
-5.3432

> <Gold.PLP.part.nonpolar>
-37.9715

> <Gold.PLP.part.repulsive>
0.2500

> <Gold.PLP.ligand.clash>
0.0000

> <Gold.PLP.ligand.torsion>
0.9259

> <Gold.PLP.Chemscore.Hbond>
2.1075

> <Gold.PLP.Chemscore.CHOScore>
0.0000

> <Gold.PLP.Chemscore.Metal>
0.0000

> <Gold.Chemscore.Hbonds>
donor molecule, donor type, donor heavy atom, donor atom, acceptor molecule, acceptor atom, score
      P1  H  7997  8008       L1    22  0.78
      P1  H 10752 10765       L1    12  0.85

> <Gold.PLP.Chemscore.Internal.Correction>
0.6599

> <Gold.Rescore>
     Score         DG    S(hbond)    S(metal)    S(lipo)     H(rot)  DE(clash)    DE(int)     intcor
     12.08     -13.90       1.41        0.00      89.00       2.62       0.01       1.81       ----

> <Gold.Chemscore.Fitness>
12.0766

> <Gold.Chemscore.DG>
-13.8995

> <Gold.Chemscore.ZeroCoef>
-5.4800

> <Gold.Chemscore.Hbond>
1.4075

> <Gold.Chemscore.Metal>
0.0000

> <Gold.Chemscore.Lipo>
89.0022

> <Gold.Chemscore.Internal_Hbond>
0.0000

> <Gold.Chemscore.DEClash>
0.0139

> <Gold.Chemscore.DEInternal>
1.8090

> <Gold.Chemscore.Rot>
2.6152

> <Gold.Chemscore.Internal.Correction>
   9.000000E+99

> <Gold.Chemscore.Hbonds>
donor molecule, donor type, donor heavy atom, donor atom, acceptor molecule, acceptor atom, score
      P1  H  6896  6908       L1    17  0.04
      P1  H  7997  8008       L1    22  0.72
      P1  H 10752 10765       L1    12  0.05

> <Gold.Chemscore.Hbond.Weighted>
-4.7011

> <Gold.Chemscore.Metal.Weighted>
-0.0000

> <Gold.Chemscore.Lipo.Weighted>
-10.4133

> <Gold.Chemscore.Internal_Hbond.Weighted>
0.0000

> <Gold.Chemscore.DEClash.Weighted>
0.0139

> <Gold.Chemscore.DEInternal.Weighted>
1.8090

> <Gold.Chemscore.Rot.Weighted>
6.6949

> <Gold.Chemscore.Internal.Correction.Weighted>
   9.000000E+99

> <Gold.Protein.RotatedTorsions>
[ 6907 6896 6895 6894 ] final  171.20 input  -60.11 | X-H torsion
[ 7974 7965 7964 7962 ] final -107.63 input  175.53 | X-H torsion
[ 8008 7997 7996 7995 ] final -116.11 input   59.86 | X-H torsion
[ 10167 10162 10161 10158 ] final  -62.25 input  -65.29 | X-H torsion
[ 10718 10713 10712 10709 ] final   64.82 input   66.30 | X-H torsion
[ 10763 10752 10751 10750 ] final  167.09 input  -60.55 | X-H torsion
[ 11005 11000 10999 10996 ] final   77.35 input  -57.11 | X-H torsion

> <Gold.Protein.ActiveResidues>
 VAL166  LYS551  ARG553  GLY616  TRP617  ASP618  TYR619  PRO620  LYS621  CYS622 
 ASP623  PHE694  ASN695  SER759  ASP760  ASP761  ALA762  ILE779  LEU786  VAL792 
 PHE793  MET794  SER795  GLU796  ALA797  LYS798  CYS799  TRP800  GLU811  SER814 

> <Gold.Protein.RotatedAtoms>
  151.8040  133.3373  159.3535 H   0  0  0  0  0  0  0  0  0  0  0  0  # atno 6907 bound_to 6896
  150.7348  134.5726  159.5907 H   0  0  0  0  0  0  0  0  0  0  0  0  # atno 6908 bound_to 6896
  152.3122  134.7484  160.0385 H   0  0  0  0  0  0  0  0  0  0  0  0  # atno 6909 bound_to 6896
  145.2029  140.9064  143.3359 H   0  0  0  0  0  0  0  0  0  0  0  0  # atno 7974 bound_to 7965
  155.0627  140.0393  157.2582 H   0  0  0  0  0  0  0  0  0  0  0  0  # atno 8008 bound_to 7997
  154.7046  140.2680  155.6662 H   0  0  0  0  0  0  0  0  0  0  0  0  # atno 8009 bound_to 7997
  156.2771  140.2733  156.1668 H   0  0  0  0  0  0  0  0  0  0  0  0  # atno 8010 bound_to 7997
  140.5951  143.2349  151.6053 H   0  0  0  0  0  0  0  0  0  0  0  0  # atno 10167 bound_to 10162
  157.6065  130.9181  149.9896 H   0  0  0  0  0  0  0  0  0  0  0  0  # atno 10718 bound_to 10713
  154.3487  135.2753  155.2384 H   0  0  0  0  0  0  0  0  0  0  0  0  # atno 10763 bound_to 10752
  154.4623  135.5904  153.6267 H   0  0  0  0  0  0  0  0  0  0  0  0  # atno 10764 bound_to 10752
  152.9851  135.6068  154.3695 H   0  0  0  0  0  0  0  0  0  0  0  0  # atno 10765 bound_to 10752
  139.9258  134.7675  156.1510 H   0  0  0  0  0  0  0  0  0  0  0  0  # atno 11005 bound_to 11000
  144.9930  139.3671  143.6205 LP  0  0  0  0  0  0  0  0  0  0  0  0  # atno 17320 bound_to 7965
  146.3414  139.9121  142.8779 LP  0  0  0  0  0  0  0  0  0  0  0  0  # atno 17321 bound_to 7965
  139.5253  144.3078  152.1019 LP  0  0  0  0  0  0  0  0  0  0  0  0  # atno 17342 bound_to 10162
  140.2249  144.4428  150.6325 LP  0  0  0  0  0  0  0  0  0  0  0  0  # atno 17343 bound_to 10162
  156.1153  130.3648  149.9979 LP  0  0  0  0  0  0  0  0  0  0  0  0  # atno 17370 bound_to 10713
  156.8069  130.9311  151.3645 LP  0  0  0  0  0  0  0  0  0  0  0  0  # atno 17371 bound_to 10713
  141.0815  133.6752  156.2346 LP  0  0  0  0  0  0  0  0  0  0  0  0  # atno 17394 bound_to 11000
  140.6340  134.5235  157.5562 LP  0  0  0  0  0  0  0  0  0  0  0  0  # atno 17395 bound_to 11000

$$$$
