AV-unprocessed.smi:1757|AV-procd|sdf|7078|dock5
  -GOLD-   22720 8293D 1   1.00000     0.00000
 Structure written by MMmdl.
 39 40  0  0  0  0  0  0  0  0  3 V2000
  147.1153  140.3589  153.6575 C   0  0  0  0  0  0  0  0  0  0  0  0
  146.2204  139.3687  153.0207 N   0  3  2  0  0  0  0  0  0  0  0  0
  145.8463  138.2691  153.9446 C   0  0  0  0  0  0  0  0  0  0  0  0
  144.8167  137.3242  153.2968 C   0  0  0  0  0  0  0  0  0  0  0  0
  145.3100  136.7696  151.9484 C   0  0  2  0  0  0  0  0  0  0  0  0
  146.3859  135.8016  152.1577 N   0  0  0  0  0  0  0  0  0  0  0  0
  146.2186  134.5134  152.4907 C   0  0  0  0  0  0  0  0  0  0  0  0
  145.1122  133.9995  152.6521 O   0  0  0  0  0  0  0  0  0  0  0  0
  147.4061  133.8901  152.5938 N   0  0  0  0  0  0  0  0  0  0  0  0
  147.6898  132.5533  152.9223 C   0  0  0  0  0  0  0  0  0  0  0  0
  146.9968  131.4736  152.4651 C   0  0  0  0  0  0  0  0  0  0  0  0
  147.3346  130.1094  152.8519 C   0  0  0  0  0  0  0  0  0  0  0  0
  146.6504  128.8783  152.2848 C   0  0  0  0  0  0  0  0  0  0  0  0
  145.6310  129.2177  151.4955 F   0  0  0  0  0  0  0  0  0  0  0  0
  147.5168  128.1699  151.5622 F   0  0  0  0  0  0  0  0  0  0  0  0
  146.1853  128.0972  153.2599 F   0  0  0  0  0  0  0  0  0  0  0  0
  148.4175  130.0597  153.7080 C   0  0  0  0  0  0  0  0  0  0  0  0
  149.1380  131.0773  154.2281 N   0  5  0  0  0  0  0  0  0  0  0  0
  148.8142  132.3487  153.8591 C   0  0  0  0  0  0  0  0  0  0  0  0
  149.4349  133.3224  154.2880 O   0  0  0  0  0  0  0  0  0  0  0  0
  145.7536  137.9337  151.0384 C   0  0  0  0  0  0  0  0  0  0  0  0
  146.7654  138.8578  151.7385 C   0  0  0  0  0  0  0  0  0  0  0  0
  148.0680  139.9049  153.9335 H   0  0  0  0  0  0  0  0  0  0  0  0
  146.6569  140.7687  154.5582 H   0  0  0  0  0  0  0  0  0  0  0  0
  147.3152  141.1894  152.9795 H   0  0  0  0  0  0  0  0  0  0  0  0
  146.7405  137.7150  154.2349 H   0  0  0  0  0  0  0  0  0  0  0  0
  145.4254  138.6891  154.8589 H   0  0  0  0  0  0  0  0  0  0  0  0
  144.5767  136.5068  153.9780 H   0  0  0  0  0  0  0  0  0  0  0  0
  143.8848  137.8693  153.1391 H   0  0  0  0  0  0  0  0  0  0  0  0
  144.4782  136.2468  151.4723 H   0  0  0  0  0  0  0  0  0  0  0  0
  147.3315  136.1385  152.0494 H   0  0  0  0  0  0  0  0  0  0  0  0
  148.2232  134.4400  152.3718 H   0  0  0  0  0  0  0  0  0  0  0  0
  146.1520  131.5942  151.8077 H   0  0  0  0  0  0  0  0  0  0  0  0
  148.7596  129.0490  154.0174 H   0  0  0  0  0  0  0  0  0  0  0  0
  146.1750  137.5568  150.1058 H   0  0  0  0  0  0  0  0  0  0  0  0
  144.8769  138.5174  150.7552 H   0  0  0  0  0  0  0  0  0  0  0  0
  147.0030  139.6964  151.0828 H   0  0  0  0  0  0  0  0  0  0  0  0
  147.7009  138.3266  151.9222 H   0  0  0  0  0  0  0  0  0  0  0  0
  145.3663  139.8589  152.7953 H   0  0  0  0  0  0  0  0  0  0  0  0
  1  2  1  0  0  0  0
  1 23  1  0  0  0  0
  1 24  1  0  0  0  0
  1 25  1  0  0  0  0
  2 22  1  0  0  0  0
  2  3  1  0  0  0  0
  2 39  1  0  0  0  0
  3  4  1  0  0  0  0
  3 26  1  0  0  0  0
  3 27  1  0  0  0  0
  4  5  1  0  0  0  0
  4 28  1  0  0  0  0
  4 29  1  0  0  0  0
  5  6  1  0  0  0  0
  5 21  1  0  0  0  0
  5 30  1  0  0  0  0
  6  7  1  0  0  0  0
  6 31  1  0  0  0  0
  7  8  2  0  0  0  0
  7  9  1  0  0  0  0
  9 10  1  0  0  0  0
  9 32  1  0  0  0  0
 10 19  1  0  0  0  0
 10 11  2  0  0  0  0
 11 12  1  0  0  0  0
 11 33  1  0  0  0  0
 12 13  1  0  0  0  0
 12 17  2  0  0  0  0
 13 14  1  0  0  0  0
 13 15  1  0  0  0  0
 13 16  1  0  0  0  0
 17 18  1  0  0  0  0
 17 34  1  0  0  0  0
 18 19  1  0  0  0  0
 19 20  2  0  0  0  0
 21 22  1  0  0  0  0
 21 35  1  0  0  0  0
 21 36  1  0  0  0  0
 22 37  1  0  0  0  0
 22 38  1  0  0  0  0
M  CHG  1   2   1
M  CHG  1  18  -1
M  END
> <s_m_source_file>
AV-unprocessed.smi

> <i_m_source_file_index>
1757

> <i_lp_mmshare_version>
43012

> <i_f3d_flags>
0

> <s_epik_input>
W0NIM11OMVtDSDJdW0NIMl1bQ0hdKFtDSDJdW0NIMl0xKVtOSF1DKD1PKVtOSF1jMltjSF1jKEMoRikoRilGKVtjSF1bbkhdYzI9Tw==

> <s_epik_cmdline>
J2VwaWtfcHl0aG9uJywgJy1waCcsICc3LjAnLCAnLXRuJywgJzgnLCAnLW1hJywgJzIwMCcsICctbWV0YWxfYmluZGluZycsICctaW1hZScsICc8aW5maWxlLm1hZT4nLCAnLW9tYWUnLCAnPG91dGZpbGUubWFlPic=

> <r_lp_tautomer_probability>
1

> <r_epik_Ionization_Penalty>
3.04759

> <r_epik_Ionization_Penalty_Charging>
0.155898

> <r_epik_Ionization_Penalty_Neutral>
2.89169

> <r_epik_State_Penalty>
2.88714

> <r_epik_Charging_Adjusted_Penalty>
3.04304

> <i_epik_Tot_Q>
0

> <i_epik_Tot_abs_Q>
2

> <r_epik_Metal_State_Penalty>
0.445786

> <b_epik_Metal_Only>
1

> <s_lp_Force_Field>
OPLS_2005

> <r_lp_Energy>
26.2534

> <b_lp_Chiralities_Consistent>
1

> <s_lp_Variant>
AV-unprocessed.smi:1757-4

> <Gold.Version>
5.8.1

> <Gold.Id.Protein>
6NUR|6NUR_protein|mol2

> <Gold.PLP.Fitness>
45.7922

> <Gold.PLP.PLP>
-35.5898

> <Gold.PLP.part.hbond>
-3.0000

> <Gold.PLP.part.metal>
0.0000

> <Gold.PLP.part.buried>
2.3302

> <Gold.PLP.part.nonpolar>
-35.9749

> <Gold.PLP.part.repulsive>
0.2804

> <Gold.PLP.ligand.clash>
0.0000

> <Gold.PLP.ligand.torsion>
0.7210

> <Gold.PLP.Chemscore.Hbond>
3.8640

> <Gold.PLP.Chemscore.CHOScore>
0.0000

> <Gold.PLP.Chemscore.Metal>
0.0000

> <Gold.Chemscore.Hbonds>
donor molecule, donor type, donor heavy atom, donor atom, acceptor molecule, acceptor atom, score
      L1  H     2    39       P1 10175  2.00
      L1  H     6    31       P1  7948  1.00
      L1  H     9    32       P1  7948  0.82

> <Gold.PLP.Chemscore.Internal.Correction>
0.0524

> <Gold.Rescore>
     Score         DG    S(hbond)    S(metal)    S(lipo)     H(rot)  DE(clash)    DE(int)     intcor
     16.30     -18.81       2.41        0.00      67.05       1.00       1.86       0.65       ----

> <Gold.Chemscore.Fitness>
16.3010

> <Gold.Chemscore.DG>
-18.8067

> <Gold.Chemscore.ZeroCoef>
-5.4800

> <Gold.Chemscore.Hbond>
2.4077

> <Gold.Chemscore.Metal>
0.0000

> <Gold.Chemscore.Lipo>
67.0511

> <Gold.Chemscore.Internal_Hbond>
0.0000

> <Gold.Chemscore.DEClash>
1.8568

> <Gold.Chemscore.DEInternal>
0.6489

> <Gold.Chemscore.Rot>
1.0000

> <Gold.Chemscore.Internal.Correction>
   9.000000E+99

> <Gold.Chemscore.Hbonds>
donor molecule, donor type, donor heavy atom, donor atom, acceptor molecule, acceptor atom, score
      L1  H     2    39       P1 10175  1.00
      L1  H     6    31       P1  7948  0.99
      L1  H     9    32       P1  7948  0.13

> <Gold.Chemscore.Hbond.Weighted>
-8.0417

> <Gold.Chemscore.Metal.Weighted>
-0.0000

> <Gold.Chemscore.Lipo.Weighted>
-7.8450

> <Gold.Chemscore.Internal_Hbond.Weighted>
0.0000

> <Gold.Chemscore.DEClash.Weighted>
1.8568

> <Gold.Chemscore.DEInternal.Weighted>
0.6489

> <Gold.Chemscore.Rot.Weighted>
2.5600

> <Gold.Chemscore.Internal.Correction.Weighted>
   9.000000E+99

> <Gold.Protein.RotatedTorsions>
[ 6907 6896 6895 6894 ] final    2.14 input  -60.11 | X-H torsion
[ 7974 7965 7964 7962 ] final  -52.48 input  175.53 | X-H torsion
[ 8008 7997 7996 7995 ] final  127.54 input   59.86 | X-H torsion
[ 10167 10162 10161 10158 ] final -146.51 input  -65.29 | X-H torsion
[ 10718 10713 10712 10709 ] final -132.33 input   66.30 | X-H torsion
[ 10763 10752 10751 10750 ] final  158.89 input  -60.55 | X-H torsion
[ 11005 11000 10999 10996 ] final  108.84 input  -57.11 | X-H torsion

> <Gold.Protein.ActiveResidues>
 VAL166  LYS551  ARG553  GLY616  TRP617  ASP618  TYR619  PRO620  LYS621  CYS622 
 ASP623  PHE694  ASN695  SER759  ASP760  ASP761  ALA762  ILE779  LEU786  VAL792 
 PHE793  MET794  SER795  GLU796  ALA797  LYS798  CYS799  TRP800  GLU811  SER814 

> <Gold.Protein.RotatedAtoms>
  151.6040  135.1045  160.0066 H   0  0  0  0  0  0  0  0  0  0  0  0  # atno 6907 bound_to 6896
  152.4243  133.7164  159.6519 H   0  0  0  0  0  0  0  0  0  0  0  0  # atno 6908 bound_to 6896
  150.8131  133.8313  159.3195 H   0  0  0  0  0  0  0  0  0  0  0  0  # atno 6909 bound_to 6896
  145.9075  140.7943  142.9712 H   0  0  0  0  0  0  0  0  0  0  0  0  # atno 7974 bound_to 7965
  156.2893  140.2666  156.2289 H   0  0  0  0  0  0  0  0  0  0  0  0  # atno 8008 bound_to 7997
  155.0092  140.0387  157.2410 H   0  0  0  0  0  0  0  0  0  0  0  0  # atno 8009 bound_to 7997
  154.7533  140.2747  155.6279 H   0  0  0  0  0  0  0  0  0  0  0  0  # atno 8010 bound_to 7997
  139.7707  143.8242  152.2624 H   0  0  0  0  0  0  0  0  0  0  0  0  # atno 10167 bound_to 10162
  156.2335  130.7052  151.0883 H   0  0  0  0  0  0  0  0  0  0  0  0  # atno 10718 bound_to 10713
  154.2231  135.2781  155.2917 H   0  0  0  0  0  0  0  0  0  0  0  0  # atno 10763 bound_to 10752
  154.5685  135.5625  153.7076 H   0  0  0  0  0  0  0  0  0  0  0  0  # atno 10764 bound_to 10752
  153.0037  135.6315  154.2372 H   0  0  0  0  0  0  0  0  0  0  0  0  # atno 10765 bound_to 10752
  139.8851  134.9441  156.6033 H   0  0  0  0  0  0  0  0  0  0  0  0  # atno 11005 bound_to 11000
  144.6740  140.1773  143.7409 LP  0  0  0  0  0  0  0  0  0  0  0  0  # atno 17320 bound_to 7965
  145.8713  139.2274  143.1659 LP  0  0  0  0  0  0  0  0  0  0  0  0  # atno 17321 bound_to 7965
  139.8276  144.7268  150.9492 LP  0  0  0  0  0  0  0  0  0  0  0  0  # atno 17342 bound_to 10162
  140.7814  143.4100  151.1008 LP  0  0  0  0  0  0  0  0  0  0  0  0  # atno 17343 bound_to 10162
  157.7143  131.0718  150.6384 LP  0  0  0  0  0  0  0  0  0  0  0  0  # atno 17370 bound_to 10713
  156.6453  130.4470  149.5738 LP  0  0  0  0  0  0  0  0  0  0  0  0  # atno 17371 bound_to 10713
  140.7867  133.8616  155.8612 LP  0  0  0  0  0  0  0  0  0  0  0  0  # atno 17394 bound_to 11000
  140.9713  134.1527  157.4573 LP  0  0  0  0  0  0  0  0  0  0  0  0  # atno 17395 bound_to 11000

$$$$
