AV-unprocessed.smi:104|AV-procd|sdf|1006|dock8
  -GOLD-   2262018 03D 1   1.00000     0.00000
 Structure written by MMmdl.
 47 49  0  0  0  0  0  0  0  0  1 V2000
  147.6670  134.6942  161.7134 C   0  0  0  0  0  0  0  0  0  0  0  0
  147.5327  136.0172  160.9713 C   0  0  0  0  0  0  0  0  0  0  0  0
  147.5863  137.0953  161.5630 O   0  0  0  0  0  0  0  0  0  0  0  0
  147.3574  135.8493  159.6538 O   0  0  0  0  0  0  0  0  0  0  0  0
  147.1732  136.9800  158.8162 C   0  0  0  0  0  0  0  0  0  0  0  0
  148.4132  137.2192  157.9411 C   0  0  1  0  0  0  0  0  0  0  0  0
  148.8725  136.0024  157.3515 O   0  0  0  0  0  0  0  0  0  0  0  0
  148.8522  136.0956  155.9586 C   0  0  1  0  0  0  0  0  0  0  0  0
  147.5378  135.5066  155.5026 N   0  0  0  0  0  0  0  0  0  0  0  0
  147.1089  134.2176  155.7328 C   0  0  0  0  0  0  0  0  0  0  0  0
  148.1591  132.9585  156.7018 Br  0  0  0  0  0  0  0  0  0  0  0  0
  145.9429  133.8735  155.2687 N   0  0  0  0  0  0  0  0  0  0  0  0
  145.5147  135.0322  154.6399 C   0  0  0  0  0  0  0  0  0  0  0  0
  144.3349  135.3764  153.9334 C   0  0  0  0  0  0  0  0  0  0  0  0
  143.3217  134.5205  153.7436 N   0  0  0  0  0  0  0  0  0  0  0  0
  144.2209  136.6258  153.4297 N   0  0  0  0  0  0  0  0  0  0  0  0
  145.2172  137.4966  153.6065 C   0  0  0  0  0  0  0  0  0  0  0  0
  146.3761  137.3177  154.2433 N   0  0  0  0  0  0  0  0  0  0  0  0
  146.4987  136.0600  154.7630 C   0  0  0  0  0  0  0  0  0  0  0  0
  149.0332  137.5898  155.6646 C   0  0  2  0  0  0  0  0  0  0  0  0
  150.4141  137.9238  155.7749 O   0  0  0  0  0  0  0  0  0  0  0  0
  150.9644  138.8279  154.9466 C   0  0  0  0  0  0  0  0  0  0  0  0
  152.4791  138.8961  155.0880 C   0  0  0  0  0  0  0  0  0  0  0  0
  150.3597  139.5392  154.1443 O   0  0  0  0  0  0  0  0  0  0  0  0
  148.2232  138.2210  156.7942 C   0  0  2  0  0  0  0  0  0  0  0  0
  148.6751  139.5272  157.1311 O   0  0  0  0  0  0  0  0  0  0  0  0
  148.6280  140.5116  156.2163 C   0  0  0  0  0  0  0  0  0  0  0  0
  149.2706  141.7989  156.7152 C   0  0  0  0  0  0  0  0  0  0  0  0
  148.1397  140.4307  155.0890 O   0  0  0  0  0  0  0  0  0  0  0  0
  146.9468  133.9689  161.3338 H   0  0  0  0  0  0  0  0  0  0  0  0
  147.4867  134.8328  162.7795 H   0  0  0  0  0  0  0  0  0  0  0  0
  148.6700  134.2883  161.5821 H   0  0  0  0  0  0  0  0  0  0  0  0
  146.3025  136.8143  158.1806 H   0  0  0  0  0  0  0  0  0  0  0  0
  146.9709  137.8646  159.4217 H   0  0  0  0  0  0  0  0  0  0  0  0
  149.2274  137.5596  158.5819 H   0  0  0  0  0  0  0  0  0  0  0  0
  149.6003  135.4522  155.4939 H   0  0  0  0  0  0  0  0  0  0  0  0
  143.3796  133.5821  154.1120 H   0  0  0  0  0  0  0  0  0  0  0  0
  142.5041  134.8145  153.2293 H   0  0  0  0  0  0  0  0  0  0  0  0
  145.0650  138.4767  153.1787 H   0  0  0  0  0  0  0  0  0  0  0  0
  148.6740  137.8640  154.6749 H   0  0  0  0  0  0  0  0  0  0  0  0
  152.7500  139.2428  156.0854 H   0  0  0  0  0  0  0  0  0  0  0  0
  152.9024  139.5842  154.3559 H   0  0  0  0  0  0  0  0  0  0  0  0
  152.9195  137.9115  154.9315 H   0  0  0  0  0  0  0  0  0  0  0  0
  147.1692  138.2516  156.5204 H   0  0  0  0  0  0  0  0  0  0  0  0
  148.7409  142.1720  157.5917 H   0  0  0  0  0  0  0  0  0  0  0  0
  149.2426  142.5663  155.9414 H   0  0  0  0  0  0  0  0  0  0  0  0
  150.3111  141.6214  156.9875 H   0  0  0  0  0  0  0  0  0  0  0  0
  1  2  1  0  0  0  0
  1 30  1  0  0  0  0
  1 31  1  0  0  0  0
  1 32  1  0  0  0  0
  2  3  2  0  0  0  0
  2  4  1  0  0  0  0
  4  5  1  0  0  0  0
  5  6  1  0  0  0  0
  5 33  1  0  0  0  0
  5 34  1  0  0  0  0
  6 25  1  0  0  0  0
  6  7  1  0  0  0  0
  6 35  1  0  0  0  0
  7  8  1  0  0  0  0
  8  9  1  0  0  0  0
  8 20  1  0  0  0  0
  8 36  1  0  0  0  0
  9 19  1  0  0  0  0
  9 10  1  0  0  0  0
 10 11  1  0  0  0  0
 10 12  2  0  0  0  0
 12 13  1  0  0  0  0
 13 19  2  0  0  0  0
 13 14  1  0  0  0  0
 14 15  1  0  0  0  0
 14 16  2  0  0  0  0
 15 37  1  0  0  0  0
 15 38  1  0  0  0  0
 16 17  1  0  0  0  0
 17 18  2  0  0  0  0
 17 39  1  0  0  0  0
 18 19  1  0  0  0  0
 20 21  1  0  0  0  0
 20 25  1  0  0  0  0
 20 40  1  0  0  0  0
 21 22  1  0  0  0  0
 22 23  1  0  0  0  0
 22 24  2  0  0  0  0
 23 41  1  0  0  0  0
 23 42  1  0  0  0  0
 23 43  1  0  0  0  0
 25 26  1  0  0  0  0
 25 44  1  0  0  0  0
 26 27  1  0  0  0  0
 27 28  1  0  0  0  0
 27 29  2  0  0  0  0
 28 45  1  0  0  0  0
 28 46  1  0  0  0  0
 28 47  1  0  0  0  0
M  END
> <s_m_source_file>
AV-unprocessed.smi

> <i_m_source_file_index>
104

> <i_lp_mmshare_version>
43012

> <i_f3d_flags>
0

> <s_epik_input>
W0NIM11DKD1PKU9bQ0gyXVtDQEBIXTFPW0NASF0oW0NAQEhdKE9DKD1PKVtDSDNdKVtDQEhdMU9DKD1PKVtDSDNdKW4oYyhCciluMiljKGMyMyluW2NIXW5jM1tOSDJd

> <s_epik_cmdline>
J2VwaWtfcHl0aG9uJywgJy1waCcsICc3LjAnLCAnLXRuJywgJzgnLCAnLW1hJywgJzIwMCcsICctbWV0YWxfYmluZGluZycsICctaW1hZScsICc8aW5maWxlLm1hZT4nLCAnLW9tYWUnLCAnPG91dGZpbGUubWFlPic=

> <r_lp_tautomer_probability>
1

> <r_epik_Ionization_Penalty>
7.36622e-05

> <r_epik_Ionization_Penalty_Charging>
0

> <r_epik_Ionization_Penalty_Neutral>
7.36622e-05

> <r_epik_State_Penalty>
-0

> <r_epik_Charging_Adjusted_Penalty>
0

> <i_epik_Tot_Q>
0

> <i_epik_Tot_abs_Q>
0

> <r_epik_Metal_State_Penalty>
-0

> <b_epik_Metal_Only>
0

> <s_epik_Chemistry_Notes>
This compound has an ester and may undergo hydrolysis at high or low pH. This compound contains an acetal/aminal-like group ( X-CH(R)-Y where X, Y are N, S, or O) that may be acid/base labile, releasing an aldehyde.

> <s_lp_Force_Field>
OPLS_2005

> <r_lp_Energy>
17.7308

> <b_lp_Chiralities_Consistent>
1

> <s_lp_Variant>
AV-unprocessed.smi:104-14

> <Gold.Version>
5.8.1

> <Gold.Id.Protein>
6NUR|6NUR_protein|mol2

> <Gold.PLP.Fitness>
34.3003

> <Gold.PLP.PLP>
-22.0753

> <Gold.PLP.part.hbond>
-4.0000

> <Gold.PLP.part.metal>
0.0000

> <Gold.PLP.part.buried>
-4.7364

> <Gold.PLP.part.nonpolar>
-13.9296

> <Gold.PLP.part.repulsive>
0.8336

> <Gold.PLP.ligand.clash>
0.0000

> <Gold.PLP.ligand.torsion>
1.1274

> <Gold.PLP.Chemscore.Hbond>
3.7913

> <Gold.PLP.Chemscore.CHOScore>
1.0000

> <Gold.PLP.Chemscore.Metal>
0.0000

> <Gold.Chemscore.Hbonds>
donor molecule, donor type, donor heavy atom, donor atom, acceptor molecule, acceptor atom, score
      L1  H    15    37       P1 10957  0.91
      P1  H  6931  6943       L1     3  1.00
      P1  H  6934  6947       L1     3  0.76
      P1  H  7989  7998       L1    24  1.00
      L1  C    17    39       P1 10175  1.00

> <Gold.PLP.Chemscore.Internal.Correction>
0.1060

> <Gold.Rescore>
     Score         DG    S(hbond)    S(metal)    S(lipo)     H(rot)  DE(clash)    DE(int)     intcor
      4.46      -6.63       2.68        0.00      27.57       4.31       0.05       2.12       ----

> <Gold.Chemscore.Fitness>
4.4643

> <Gold.Chemscore.DG>
-6.6323

> <Gold.Chemscore.ZeroCoef>
-5.4800

> <Gold.Chemscore.Hbond>
2.6802

> <Gold.Chemscore.Metal>
0.0000

> <Gold.Chemscore.Lipo>
27.5745

> <Gold.Chemscore.Internal_Hbond>
0.0000

> <Gold.Chemscore.DEClash>
0.0515

> <Gold.Chemscore.DEInternal>
2.1165

> <Gold.Chemscore.Rot>
4.3070

> <Gold.Chemscore.Internal.Correction>
   9.000000E+99

> <Gold.Chemscore.Hbonds>
donor molecule, donor type, donor heavy atom, donor atom, acceptor molecule, acceptor atom, score
      L1  H    15    37       P1 10957  0.86
      P1  H  6931  6943       L1     3  0.95
      P1  H  6934  6947       L1     3  0.72
      P1  H  7989  7998       L1    24  0.59

> <Gold.Chemscore.Hbond.Weighted>
-8.9520

> <Gold.Chemscore.Metal.Weighted>
-0.0000

> <Gold.Chemscore.Lipo.Weighted>
-3.2262

> <Gold.Chemscore.Internal_Hbond.Weighted>
0.0000

> <Gold.Chemscore.DEClash.Weighted>
0.0515

> <Gold.Chemscore.DEInternal.Weighted>
2.1165

> <Gold.Chemscore.Rot.Weighted>
11.0259

> <Gold.Chemscore.Internal.Correction.Weighted>
   9.000000E+99

> <Gold.Protein.RotatedTorsions>
[ 6907 6896 6895 6894 ] final -155.16 input  -60.11 | X-H torsion
[ 7974 7965 7964 7962 ] final   65.73 input  175.53 | X-H torsion
[ 8008 7997 7996 7995 ] final  -65.52 input   59.86 | X-H torsion
[ 10167 10162 10161 10158 ] final -135.77 input  -65.29 | X-H torsion
[ 10718 10713 10712 10709 ] final  110.77 input   66.30 | X-H torsion
[ 10763 10752 10751 10750 ] final  -29.13 input  -60.55 | X-H torsion
[ 11005 11000 10999 10996 ] final   47.95 input  -57.11 | X-H torsion

> <Gold.Protein.ActiveResidues>
 VAL166  LYS551  ARG553  GLY616  TRP617  ASP618  TYR619  PRO620  LYS621  CYS622 
 ASP623  PHE694  ASN695  SER759  ASP760  ASP761  ALA762  ILE779  LEU786  VAL792 
 PHE793  MET794  SER795  GLU796  ALA797  LYS798  CYS799  TRP800  GLU811  SER814 

> <Gold.Protein.RotatedAtoms>
  151.2683  133.4268  159.2619 H   0  0  0  0  0  0  0  0  0  0  0  0  # atno 6907 bound_to 6896
  151.0468  134.9646  159.8201 H   0  0  0  0  0  0  0  0  0  0  0  0  # atno 6908 bound_to 6896
  152.5375  134.2639  159.8998 H   0  0  0  0  0  0  0  0  0  0  0  0  # atno 6909 bound_to 6896
  145.8350  139.3161  143.0965 H   0  0  0  0  0  0  0  0  0  0  0  0  # atno 7974 bound_to 7965
  154.4677  140.0931  156.7062 H   0  0  0  0  0  0  0  0  0  0  0  0  # atno 8008 bound_to 7997
  155.4813  140.3467  155.4322 H   0  0  0  0  0  0  0  0  0  0  0  0  # atno 8009 bound_to 7997
  156.0984  140.1416  156.9488 H   0  0  0  0  0  0  0  0  0  0  0  0  # atno 8010 bound_to 7997
  139.8745  143.6915  152.2635 H   0  0  0  0  0  0  0  0  0  0  0  0  # atno 10167 bound_to 10162
  157.6478  131.0939  150.6651 H   0  0  0  0  0  0  0  0  0  0  0  0  # atno 10718 bound_to 10713
  153.7596  135.6920  153.4928 H   0  0  0  0  0  0  0  0  0  0  0  0  # atno 10763 bound_to 10752
  153.1947  135.4458  155.0192 H   0  0  0  0  0  0  0  0  0  0  0  0  # atno 10764 bound_to 10752
  154.8158  135.3398  154.7112 H   0  0  0  0  0  0  0  0  0  0  0  0  # atno 10765 bound_to 10752
  140.1234  134.4800  155.8579 H   0  0  0  0  0  0  0  0  0  0  0  0  # atno 11005 bound_to 11000
  145.9529  140.8895  143.0250 LP  0  0  0  0  0  0  0  0  0  0  0  0  # atno 17320 bound_to 7965
  144.6737  140.1705  143.7414 LP  0  0  0  0  0  0  0  0  0  0  0  0  # atno 17321 bound_to 7965
  139.7253  144.7594  151.0890 LP  0  0  0  0  0  0  0  0  0  0  0  0  # atno 17342 bound_to 10162
  140.7755  143.5156  150.9598 LP  0  0  0  0  0  0  0  0  0  0  0  0  # atno 17343 bound_to 10162
  156.6966  130.4611  149.5584 LP  0  0  0  0  0  0  0  0  0  0  0  0  # atno 17370 bound_to 10713
  156.1824  130.6507  151.0967 LP  0  0  0  0  0  0  0  0  0  0  0  0  # atno 17371 bound_to 10713
  141.2156  133.6769  156.6932 LP  0  0  0  0  0  0  0  0  0  0  0  0  # atno 17394 bound_to 11000
  140.2935  134.8221  157.4037 LP  0  0  0  0  0  0  0  0  0  0  0  0  # atno 17395 bound_to 11000

$$$$
