AV-unprocessed.smi:833|AV-procd|sdf|3883|dock9
  -GOLD-   22720 1343D 1   1.00000     0.00000
 Structure written by MMmdl.
 40 41  0  0  0  0  0  0  0  0  2 V2000
  153.1163  137.4852  162.4980 C   0  0  0  0  0  0  0  0  0  0  0  0
  154.1907  137.0607  161.4884 C   0  0  1  0  0  0  0  0  0  0  0  0
  153.6400  136.0304  160.6936 O   0  0  0  0  0  0  0  0  0  0  0  0
  154.6118  138.2264  160.5723 C   0  0  0  0  0  0  0  0  0  0  0  0
  153.4670  139.0264  160.1479 N   0  0  0  0  0  0  0  0  0  0  0  0
  153.1841  139.3521  158.8790 C   0  0  0  0  0  0  0  0  0  0  0  0
  153.8678  139.0045  157.9161 O   0  0  0  0  0  0  0  0  0  0  0  0
  152.0570  140.0784  158.7999 N   0  0  0  0  0  0  0  0  0  0  0  0
  151.4243  140.5698  157.6240 C   0  0  0  0  0  0  0  0  0  0  0  0
  151.3601  139.7793  156.4479 C   0  0  0  0  0  0  0  0  0  0  0  0
  150.7966  140.3115  155.2729 C   0  0  0  0  0  0  0  0  0  0  0  0
  150.3191  141.6331  155.2867 C   0  0  0  0  0  0  0  0  0  0  0  0
  150.4049  142.3634  156.4177 N   0  3  0  0  0  0  0  0  0  0  0  0
  150.9231  141.9034  157.5841 C   0  0  0  0  0  0  0  0  0  0  0  0
  150.9356  142.7808  158.6926 N   0  0  0  0  0  0  0  0  0  0  0  0
  152.1669  143.0062  159.4410 C   0  0  0  0  0  0  0  0  0  0  0  0
  151.8913  144.2404  160.2951 C   0  0  0  0  0  0  0  0  0  0  0  0
  150.9927  145.0738  159.3866 C   0  0  0  0  0  0  0  0  0  0  0  0
  150.1783  144.0267  158.6191 C   0  0  0  0  0  0  0  0  0  0  0  0
  153.4901  138.2661  163.1608 H   0  0  0  0  0  0  0  0  0  0  0  0
  152.8087  136.6456  163.1224 H   0  0  0  0  0  0  0  0  0  0  0  0
  152.2280  137.8717  161.9965 H   0  0  0  0  0  0  0  0  0  0  0  0
  155.0490  136.6674  162.0345 H   0  0  0  0  0  0  0  0  0  0  0  0
  154.3023  135.7299  160.0905 H   0  0  0  0  0  0  0  0  0  0  0  0
  155.3365  138.8705  161.0721 H   0  0  0  0  0  0  0  0  0  0  0  0
  155.1159  137.8397  159.6848 H   0  0  0  0  0  0  0  0  0  0  0  0
  152.8502  139.3550  160.8763 H   0  0  0  0  0  0  0  0  0  0  0  0
  151.5425  140.2022  159.6597 H   0  0  0  0  0  0  0  0  0  0  0  0
  151.7581  138.7760  156.4234 H   0  0  0  0  0  0  0  0  0  0  0  0
  150.7444  139.7182  154.3716 H   0  0  0  0  0  0  0  0  0  0  0  0
  149.8783  142.1273  154.4330 H   0  0  0  0  0  0  0  0  0  0  0  0
  152.4265  142.1412  160.0518 H   0  0  0  0  0  0  0  0  0  0  0  0
  152.9952  143.2098  158.7611 H   0  0  0  0  0  0  0  0  0  0  0  0
  151.3483  143.9570  161.1980 H   0  0  0  0  0  0  0  0  0  0  0  0
  152.8005  144.7625  160.5946 H   0  0  0  0  0  0  0  0  0  0  0  0
  150.3675  145.7783  159.9358 H   0  0  0  0  0  0  0  0  0  0  0  0
  151.6071  145.6444  158.6890 H   0  0  0  0  0  0  0  0  0  0  0  0
  149.9998  144.3407  157.5897 H   0  0  0  0  0  0  0  0  0  0  0  0
  149.2120  143.8793  159.1019 H   0  0  0  0  0  0  0  0  0  0  0  0
  150.0505  143.3197  156.3952 H   0  0  0  0  0  0  0  0  0  0  0  0
  1  2  1  0  0  0  0
  1 20  1  0  0  0  0
  1 21  1  0  0  0  0
  1 22  1  0  0  0  0
  2  3  1  0  0  0  0
  2  4  1  0  0  0  0
  2 23  1  0  0  0  0
  3 24  1  0  0  0  0
  4  5  1  0  0  0  0
  4 25  1  0  0  0  0
  4 26  1  0  0  0  0
  5  6  1  0  0  0  0
  5 27  1  0  0  0  0
  6  7  2  0  0  0  0
  6  8  1  0  0  0  0
  8  9  1  0  0  0  0
  8 28  1  0  0  0  0
  9 14  1  0  0  0  0
  9 10  2  0  0  0  0
 10 11  1  0  0  0  0
 10 29  1  0  0  0  0
 11 12  2  0  0  0  0
 11 30  1  0  0  0  0
 12 13  1  0  0  0  0
 12 31  1  0  0  0  0
 13 14  2  0  0  0  0
 13 40  1  0  0  0  0
 14 15  1  0  0  0  0
 15 19  1  0  0  0  0
 15 16  1  0  0  0  0
 16 17  1  0  0  0  0
 16 32  1  0  0  0  0
 16 33  1  0  0  0  0
 17 18  1  0  0  0  0
 17 34  1  0  0  0  0
 17 35  1  0  0  0  0
 18 19  1  0  0  0  0
 18 36  1  0  0  0  0
 18 37  1  0  0  0  0
 19 38  1  0  0  0  0
 19 39  1  0  0  0  0
M  CHG  1  13   1
M  END
> <s_m_source_file>
AV-unprocessed.smi

> <i_m_source_file_index>
833

> <i_lp_mmshare_version>
43012

> <i_f3d_flags>
0

> <s_epik_input>
W0NIM11bQ0BIXShbT0hdKVtDSDJdW05IXUMoPU8pW05IXWMxW2NIXVtjSF1bY0hdbmMxTjJbQ0gyXVtDSDJdW0NIMl1bQ0gyXTI=

> <s_epik_cmdline>
J2VwaWtfcHl0aG9uJywgJy1waCcsICc3LjAnLCAnLXRuJywgJzgnLCAnLW1hJywgJzIwMCcsICctbWV0YWxfYmluZGluZycsICctaW1hZScsICc8aW5maWxlLm1hZT4nLCAnLW9tYWUnLCAnPG91dGZpbGUubWFlPic=

> <r_lp_tautomer_probability>
0.999994

> <r_epik_Ionization_Penalty>
1.11387

> <r_epik_Ionization_Penalty_Charging>
1.11385

> <r_epik_Ionization_Penalty_Neutral>
1.95796e-05

> <r_epik_State_Penalty>
1.17209

> <r_epik_Charging_Adjusted_Penalty>
2.28594

> <i_epik_Tot_Q>
1

> <i_epik_Tot_abs_Q>
1

> <r_epik_Metal_State_Penalty>
1.25763

> <b_epik_Metal_Only>
0

> <s_lp_Force_Field>
OPLS_2005

> <r_lp_Energy>
38.2358

> <b_lp_Chiralities_Consistent>
1

> <s_lp_Variant>
AV-unprocessed.smi:833-4

> <Gold.Version>
5.8.1

> <Gold.Id.Protein>
6NUR|6NUR_protein|mol2

> <Gold.PLP.Fitness>
45.0259

> <Gold.PLP.PLP>
-34.0979

> <Gold.PLP.part.hbond>
-2.8365

> <Gold.PLP.part.metal>
0.0000

> <Gold.PLP.part.buried>
-3.8224

> <Gold.PLP.part.nonpolar>
-27.0244

> <Gold.PLP.part.repulsive>
0.2934

> <Gold.PLP.ligand.clash>
0.0277

> <Gold.PLP.ligand.torsion>
0.7137

> <Gold.PLP.Chemscore.Hbond>
4.0000

> <Gold.PLP.Chemscore.CHOScore>
0.0000

> <Gold.PLP.Chemscore.Metal>
0.0000

> <Gold.Chemscore.Hbonds>
donor molecule, donor type, donor heavy atom, donor atom, acceptor molecule, acceptor atom, score
      L1  H    13    40       P1  8028  2.00
      P1  H  6896  6908       L1     3  0.90
      P1  H  7997  8008       L1     7  1.00

> <Gold.PLP.Chemscore.Internal.Correction>
0.3832

> <Gold.Rescore>
     Score         DG    S(hbond)    S(metal)    S(lipo)     H(rot)  DE(clash)    DE(int)     intcor
     15.79     -17.87       2.52        0.00      79.07       2.06       0.04       2.05       ----

> <Gold.Chemscore.Fitness>
15.7892

> <Gold.Chemscore.DG>
-17.8748

> <Gold.Chemscore.ZeroCoef>
-5.4800

> <Gold.Chemscore.Hbond>
2.5230

> <Gold.Chemscore.Metal>
0.0000

> <Gold.Chemscore.Lipo>
79.0694

> <Gold.Chemscore.Internal_Hbond>
0.0000

> <Gold.Chemscore.DEClash>
0.0368

> <Gold.Chemscore.DEInternal>
2.0487

> <Gold.Chemscore.Rot>
2.0637

> <Gold.Chemscore.Internal.Correction>
   9.000000E+99

> <Gold.Chemscore.Hbonds>
donor molecule, donor type, donor heavy atom, donor atom, acceptor molecule, acceptor atom, score
      L1  H    13    40       P1  8028  0.96
      P1  H  6896  6908       L1     3  0.18
      P1  H  7997  8008       L1     7  0.94

> <Gold.Chemscore.Hbond.Weighted>
-8.4268

> <Gold.Chemscore.Metal.Weighted>
-0.0000

> <Gold.Chemscore.Lipo.Weighted>
-9.2511

> <Gold.Chemscore.Internal_Hbond.Weighted>
0.0000

> <Gold.Chemscore.DEClash.Weighted>
0.0368

> <Gold.Chemscore.DEInternal.Weighted>
2.0487

> <Gold.Chemscore.Rot.Weighted>
5.2832

> <Gold.Chemscore.Internal.Correction.Weighted>
   9.000000E+99

> <Gold.Protein.RotatedTorsions>
[ 6907 6896 6895 6894 ] final  -82.86 input  -60.11 | X-H torsion
[ 7974 7965 7964 7962 ] final -171.98 input  175.53 | X-H torsion
[ 8008 7997 7996 7995 ] final  -80.80 input   59.86 | X-H torsion
[ 10167 10162 10161 10158 ] final   55.03 input  -65.29 | X-H torsion
[ 10718 10713 10712 10709 ] final -177.54 input   66.30 | X-H torsion
[ 10763 10752 10751 10750 ] final -166.43 input  -60.55 | X-H torsion
[ 11005 11000 10999 10996 ] final  -26.14 input  -57.11 | X-H torsion

> <Gold.Protein.ActiveResidues>
 VAL166  LYS551  ARG553  GLY616  TRP617  ASP618  TYR619  PRO620  LYS621  CYS622 
 ASP623  PHE694  ASN695  SER759  ASP760  ASP761  ALA762  ILE779  LEU786  VAL792 
 PHE793  MET794  SER795  GLU796  ALA797  LYS798  CYS799  TRP800  GLU811  SER814 

> <Gold.Protein.RotatedAtoms>
  150.6892  134.3600  159.4945 H   0  0  0  0  0  0  0  0  0  0  0  0  # atno 6907 bound_to 6896
  152.1430  134.9045  160.0562 H   0  0  0  0  0  0  0  0  0  0  0  0  # atno 6908 bound_to 6896
  152.0172  133.3849  159.4280 H   0  0  0  0  0  0  0  0  0  0  0  0  # atno 6909 bound_to 6896
  144.7151  140.1841  143.6355 H   0  0  0  0  0  0  0  0  0  0  0  0  # atno 7974 bound_to 7965
  154.5919  140.0657  156.9251 H   0  0  0  0  0  0  0  0  0  0  0  0  # atno 8008 bound_to 7997
  155.2280  140.3335  155.4288 H   0  0  0  0  0  0  0  0  0  0  0  0  # atno 8009 bound_to 7997
  156.2262  140.1820  156.7342 H   0  0  0  0  0  0  0  0  0  0  0  0  # atno 8010 bound_to 7997
  140.2237  144.3761  150.6440 H   0  0  0  0  0  0  0  0  0  0  0  0  # atno 10167 bound_to 10162
  156.8310  130.9653  151.3106 H   0  0  0  0  0  0  0  0  0  0  0  0  # atno 10718 bound_to 10713
  154.6833  135.2958  154.9582 H   0  0  0  0  0  0  0  0  0  0  0  0  # atno 10763 bound_to 10752
  154.0570  135.6636  153.4811 H   0  0  0  0  0  0  0  0  0  0  0  0  # atno 10764 bound_to 10752
  153.0562  135.5143  154.7887 H   0  0  0  0  0  0  0  0  0  0  0  0  # atno 10765 bound_to 10752
  140.9002  133.7529  156.0534 H   0  0  0  0  0  0  0  0  0  0  0  0  # atno 11005 bound_to 11000
  145.8829  139.2333  143.1594 LP  0  0  0  0  0  0  0  0  0  0  0  0  # atno 17320 bound_to 7965
  145.9977  140.8547  143.0034 LP  0  0  0  0  0  0  0  0  0  0  0  0  # atno 17321 bound_to 7965
  140.6236  143.2179  151.6643 LP  0  0  0  0  0  0  0  0  0  0  0  0  # atno 17342 bound_to 10162
  139.5135  144.3442  152.0712 LP  0  0  0  0  0  0  0  0  0  0  0  0  # atno 17343 bound_to 10162
  157.6407  130.8803  149.9442 LP  0  0  0  0  0  0  0  0  0  0  0  0  # atno 17370 bound_to 10713
  156.0934  130.3661  150.0351 LP  0  0  0  0  0  0  0  0  0  0  0  0  # atno 17371 bound_to 10713
  140.8239  134.3257  157.5372 LP  0  0  0  0  0  0  0  0  0  0  0  0  # atno 17394 bound_to 11000
  139.8741  134.9325  156.3556 LP  0  0  0  0  0  0  0  0  0  0  0  0  # atno 17395 bound_to 11000

$$$$
