AV-unprocessed.smi:699|AV-procd|sdf|3400|dock10
  -GOLD-   22720 0383D 1   1.00000     0.00000
 Structure written by MMmdl.
 34 35  0  0  0  0  0  0  0  0  1 V2000
  149.4455  137.4393  154.1088 N   0  0  0  0  0  0  0  0  0  0  0  0
  149.2896  138.7607  154.2206 C   0  0  0  0  0  0  0  0  0  0  0  0
  150.2286  139.5404  154.0692 O   0  0  0  0  0  0  0  0  0  0  0  0
  147.8682  139.2721  154.5414 C   0  0  1  0  0  0  0  0  0  0  0  0
  147.8279  140.8074  154.5652 C   0  0  0  0  0  0  0  0  0  0  0  0
  147.5395  141.2437  153.1253 C   0  0  0  0  0  0  0  0  0  0  0  0
  146.7824  140.0798  152.4717 C   0  0  0  0  0  0  0  0  0  0  0  0
  146.7893  138.9195  153.4841 C   0  0  1  0  0  0  0  0  0  0  0  0
  146.9837  137.6319  152.8148 N   0  0  0  0  0  0  0  0  0  0  0  0
  146.0052  136.7638  152.5199 C   0  0  0  0  0  0  0  0  0  0  0  0
  144.8203  136.9689  152.7816 O   0  0  0  0  0  0  0  0  0  0  0  0
  146.4960  135.6713  151.9089 N   0  0  0  0  0  0  0  0  0  0  0  0
  145.8071  134.5239  151.4274 C   0  0  0  0  0  0  0  0  0  0  0  0
  146.5870  133.4348  150.9862 C   0  0  0  0  0  0  0  0  0  0  0  0
  145.9359  132.2781  150.5131 C   0  0  0  0  0  0  0  0  0  0  0  0
  144.5934  132.1507  150.4643 N   0  0  0  0  0  0  0  0  0  0  0  0
  143.8475  133.1887  150.8975 C   0  0  0  0  0  0  0  0  0  0  0  0
  144.3978  134.3892  151.3899 C   0  0  0  0  0  0  0  0  0  0  0  0
  150.3567  137.0589  153.8981 H   0  0  0  0  0  0  0  0  0  0  0  0
  148.6536  136.8255  154.2330 H   0  0  0  0  0  0  0  0  0  0  0  0
  147.5736  138.8770  155.5152 H   0  0  0  0  0  0  0  0  0  0  0  0
  147.0141  141.1336  155.2143 H   0  0  0  0  0  0  0  0  0  0  0  0
  148.7430  141.2582  154.9524 H   0  0  0  0  0  0  0  0  0  0  0  0
  146.9719  142.1739  153.0912 H   0  0  0  0  0  0  0  0  0  0  0  0
  148.4762  141.4169  152.5942 H   0  0  0  0  0  0  0  0  0  0  0  0
  145.7604  140.3634  152.2188 H   0  0  0  0  0  0  0  0  0  0  0  0
  147.2778  139.8026  151.5402 H   0  0  0  0  0  0  0  0  0  0  0  0
  145.8183  138.9113  153.9836 H   0  0  0  0  0  0  0  0  0  0  0  0
  147.9316  137.3857  152.5696 H   0  0  0  0  0  0  0  0  0  0  0  0
  147.4881  135.6828  151.7230 H   0  0  0  0  0  0  0  0  0  0  0  0
  147.6662  133.4811  151.0040 H   0  0  0  0  0  0  0  0  0  0  0  0
  146.5099  131.4318  150.1659 H   0  0  0  0  0  0  0  0  0  0  0  0
  142.7765  133.0569  150.8564 H   0  0  0  0  0  0  0  0  0  0  0  0
  143.7308  135.1646  151.7320 H   0  0  0  0  0  0  0  0  0  0  0  0
  1  2  1  0  0  0  0
  1 19  1  0  0  0  0
  1 20  1  0  0  0  0
  2  3  2  0  0  0  0
  2  4  1  0  0  0  0
  4  8  1  0  0  0  0
  4  5  1  0  0  0  0
  4 21  1  0  0  0  0
  5  6  1  0  0  0  0
  5 22  1  0  0  0  0
  5 23  1  0  0  0  0
  6  7  1  0  0  0  0
  6 24  1  0  0  0  0
  6 25  1  0  0  0  0
  7  8  1  0  0  0  0
  7 26  1  0  0  0  0
  7 27  1  0  0  0  0
  8  9  1  0  0  0  0
  8 28  1  0  0  0  0
  9 10  1  0  0  0  0
  9 29  1  0  0  0  0
 10 11  2  0  0  0  0
 10 12  1  0  0  0  0
 12 13  1  0  0  0  0
 12 30  1  0  0  0  0
 13 18  1  0  0  0  0
 13 14  2  0  0  0  0
 14 15  1  0  0  0  0
 14 31  1  0  0  0  0
 15 16  2  0  0  0  0
 15 32  1  0  0  0  0
 16 17  1  0  0  0  0
 17 18  2  0  0  0  0
 17 33  1  0  0  0  0
 18 34  1  0  0  0  0
M  END
> <s_m_source_file>
AV-unprocessed.smi

> <i_m_source_file_index>
699

> <i_lp_mmshare_version>
43012

> <i_f3d_flags>
0

> <s_epik_input>
W05IMl1DKD1PKVtDQEBIXTFbQ0gyXVtDSDJdW0NIMl1bQ0BIXTFbTkhdQyg9TylbTkhdYzJbY0hdW2NIXW5bY0hdW2NIXTI=

> <s_epik_cmdline>
J2VwaWtfcHl0aG9uJywgJy1waCcsICc3LjAnLCAnLXRuJywgJzgnLCAnLW1hJywgJzIwMCcsICctbWV0YWxfYmluZGluZycsICctaW1hZScsICc8aW5maWxlLm1hZT4nLCAnLW9tYWUnLCAnPG91dGZpbGUubWFlPic=

> <r_epik_Ionization_Penalty>
0.113907

> <r_epik_Ionization_Penalty_Charging>
0

> <r_epik_Ionization_Penalty_Neutral>
0.113907

> <r_epik_State_Penalty>
0.103543

> <r_epik_Charging_Adjusted_Penalty>
0.103543

> <i_epik_Tot_Q>
0

> <i_epik_Tot_abs_Q>
0

> <r_epik_Metal_State_Penalty>
0.0867106

> <b_epik_Metal_Only>
0

> <s_lp_Force_Field>
OPLS_2005

> <r_lp_Energy>
19.4222

> <b_lp_Chiralities_Consistent>
1

> <s_lp_Variant>
AV-unprocessed.smi:699-2

> <Gold.Version>
5.8.1

> <Gold.Id.Protein>
6NUR|6NUR_protein|mol2

> <Gold.PLP.Fitness>
40.7084

> <Gold.PLP.PLP>
-26.5160

> <Gold.PLP.part.hbond>
-3.8636

> <Gold.PLP.part.metal>
0.0000

> <Gold.PLP.part.buried>
-2.3368

> <Gold.PLP.part.nonpolar>
-21.4120

> <Gold.PLP.part.repulsive>
1.1598

> <Gold.PLP.ligand.clash>
0.0000

> <Gold.PLP.ligand.torsion>
0.2984

> <Gold.PLP.Chemscore.Hbond>
2.9440

> <Gold.PLP.Chemscore.CHOScore>
1.9799

> <Gold.PLP.Chemscore.Metal>
0.0000

> <Gold.Chemscore.Hbonds>
donor molecule, donor type, donor heavy atom, donor atom, acceptor molecule, acceptor atom, score
      L1  H     9    29       P1  7948  0.94
      L1  H    12    30       P1  7948  1.00
      P1  H  7989  7998       L1     3  1.00
      L1  C    15    32       P1 10747  1.00
      L1  C    17    33       P1 10186  0.86

> <Gold.PLP.Chemscore.Internal.Correction>
0.0176

> <Gold.Rescore>
     Score         DG    S(hbond)    S(metal)    S(lipo)     H(rot)  DE(clash)    DE(int)     intcor
     15.07     -18.34       2.75        0.00      64.12       1.49       0.45       2.81       ----

> <Gold.Chemscore.Fitness>
15.0744

> <Gold.Chemscore.DG>
-18.3425

> <Gold.Chemscore.ZeroCoef>
-5.4800

> <Gold.Chemscore.Hbond>
2.7464

> <Gold.Chemscore.Metal>
0.0000

> <Gold.Chemscore.Lipo>
64.1186

> <Gold.Chemscore.Internal_Hbond>
0.0000

> <Gold.Chemscore.DEClash>
0.4543

> <Gold.Chemscore.DEInternal>
2.8138

> <Gold.Chemscore.Rot>
1.4892

> <Gold.Chemscore.Internal.Correction>
   9.000000E+99

> <Gold.Chemscore.Hbonds>
donor molecule, donor type, donor heavy atom, donor atom, acceptor molecule, acceptor atom, score
      L1  H     9    29       P1  7948  0.91
      L1  H    12    30       P1  7948  0.92
      P1  H  7989  7998       L1     3  0.93

> <Gold.Chemscore.Hbond.Weighted>
-9.1729

> <Gold.Chemscore.Metal.Weighted>
-0.0000

> <Gold.Chemscore.Lipo.Weighted>
-7.5019

> <Gold.Chemscore.Internal_Hbond.Weighted>
0.0000

> <Gold.Chemscore.DEClash.Weighted>
0.4543

> <Gold.Chemscore.DEInternal.Weighted>
2.8138

> <Gold.Chemscore.Rot.Weighted>
3.8123

> <Gold.Chemscore.Internal.Correction.Weighted>
   9.000000E+99

> <Gold.Protein.RotatedTorsions>
[ 6907 6896 6895 6894 ] final -132.07 input  -60.11 | X-H torsion
[ 7974 7965 7964 7962 ] final  102.67 input  175.53 | X-H torsion
[ 8008 7997 7996 7995 ] final   -9.52 input   59.86 | X-H torsion
[ 10167 10162 10161 10158 ] final    0.33 input  -65.29 | X-H torsion
[ 10718 10713 10712 10709 ] final  100.07 input   66.30 | X-H torsion
[ 10763 10752 10751 10750 ] final  -44.15 input  -60.55 | X-H torsion
[ 11005 11000 10999 10996 ] final  147.42 input  -57.11 | X-H torsion

> <Gold.Protein.ActiveResidues>
 VAL166  LYS551  ARG553  GLY616  TRP617  ASP618  TYR619  PRO620  LYS621  CYS622 
 ASP623  PHE694  ASN695  SER759  ASP760  ASP761  ALA762  ILE779  LEU786  VAL792 
 PHE793  MET794  SER795  GLU796  ALA797  LYS798  CYS799  TRP800  GLU811  SER814 

> <Gold.Protein.RotatedAtoms>
  150.9582  133.6474  159.2759 H   0  0  0  0  0  0  0  0  0  0  0  0  # atno 6907 bound_to 6896
  151.3806  135.0938  159.9504 H   0  0  0  0  0  0  0  0  0  0  0  0  # atno 6908 bound_to 6896
  152.5137  133.9117  159.7546 H   0  0  0  0  0  0  0  0  0  0  0  0  # atno 6909 bound_to 6896
  145.3561  139.2428  143.3532 H   0  0  0  0  0  0  0  0  0  0  0  0  # atno 7974 bound_to 7965
  154.5639  140.2353  155.8293 H   0  0  0  0  0  0  0  0  0  0  0  0  # atno 8008 bound_to 7997
  156.2052  140.3041  155.9571 H   0  0  0  0  0  0  0  0  0  0  0  0  # atno 8009 bound_to 7997
  155.2837  140.0423  157.3008 H   0  0  0  0  0  0  0  0  0  0  0  0  # atno 8010 bound_to 7997
  140.6733  143.6986  150.7970 H   0  0  0  0  0  0  0  0  0  0  0  0  # atno 10167 bound_to 10162
  157.6862  131.0688  150.5045 H   0  0  0  0  0  0  0  0  0  0  0  0  # atno 10718 bound_to 10713
  154.0074  135.6686  153.4763 H   0  0  0  0  0  0  0  0  0  0  0  0  # atno 10763 bound_to 10752
  153.0636  135.5014  154.8145 H   0  0  0  0  0  0  0  0  0  0  0  0  # atno 10764 bound_to 10752
  154.7016  135.3080  154.9296 H   0  0  0  0  0  0  0  0  0  0  0  0  # atno 10765 bound_to 10752
  140.0874  134.9061  157.1597 H   0  0  0  0  0  0  0  0  0  0  0  0  # atno 11005 bound_to 11000
  146.2947  140.4186  142.8726 LP  0  0  0  0  0  0  0  0  0  0  0  0  # atno 17320 bound_to 7965
  144.8681  140.7234  143.6064 LP  0  0  0  0  0  0  0  0  0  0  0  0  # atno 17321 bound_to 7965
  140.0675  143.5094  152.2597 LP  0  0  0  0  0  0  0  0  0  0  0  0  # atno 17342 bound_to 10162
  139.6013  144.7583  151.3166 LP  0  0  0  0  0  0  0  0  0  0  0  0  # atno 17343 bound_to 10162
  156.5365  130.4197  149.6175 LP  0  0  0  0  0  0  0  0  0  0  0  0  # atno 17370 bound_to 10713
  156.3023  130.7183  151.2058 LP  0  0  0  0  0  0  0  0  0  0  0  0  # atno 17371 bound_to 10713
  140.3400  134.2714  155.7213 LP  0  0  0  0  0  0  0  0  0  0  0  0  # atno 17394 bound_to 11000
  141.2067  133.7826  157.0162 LP  0  0  0  0  0  0  0  0  0  0  0  0  # atno 17395 bound_to 11000

$$$$
