AV-unprocessed.smi:2355|AV-procd|sdf|9392|dock3
  -GOLD-   2272013 23D 1   1.00000     0.00000
 Structure written by MMmdl.
 49 50  0  0  0  0  0  0  0  0  2 V2000
  144.4580  132.6109  149.7539 C   0  0  0  0  0  0  0  0  0  0  0  0
  145.4209  132.1809  150.8402 C   0  0  0  0  0  0  0  0  0  0  0  0
  145.4532  130.8466  151.2883 C   0  0  0  0  0  0  0  0  0  0  0  0
  146.3678  130.5084  152.3048 C   0  0  0  0  0  0  0  0  0  0  0  0
  146.4568  129.0924  152.8336 C   0  0  0  0  0  0  0  0  0  0  0  0
  147.2073  131.4037  152.8677 N   0  0  0  0  0  0  0  0  0  0  0  0
  147.1864  132.6914  152.4424 C   0  0  0  0  0  0  0  0  0  0  0  0
  148.0262  133.7077  152.9709 N   0  0  0  0  0  0  0  0  0  0  0  0
  148.6314  133.7384  154.1709 C   0  0  0  0  0  0  0  0  0  0  0  0
  148.5891  132.8403  155.0126 O   0  0  0  0  0  0  0  0  0  0  0  0
  149.2872  134.8941  154.3594 N   0  0  0  0  0  0  0  0  0  0  0  0
  150.0361  135.2670  155.5621 C   0  0  1  0  0  0  0  0  0  0  0  0
  151.0656  134.1697  155.8795 C   0  0  0  0  0  0  0  0  0  0  0  0
  150.6611  136.6905  155.4433 C   0  0  1  0  0  0  0  0  0  0  0  0
  149.6243  137.7261  154.9405 C   0  0  0  0  0  0  0  0  0  0  0  0
  151.3268  137.0754  156.7318 N   0  3  0  0  0  0  0  0  0  0  0  0
  150.4307  136.9326  157.9089 C   0  0  0  0  0  0  0  0  0  0  0  0
  151.0967  137.5086  159.1686 C   0  0  0  0  0  0  0  0  0  0  0  0
  152.3288  136.8395  159.3978 O   0  0  0  0  0  0  0  0  0  0  0  0
  153.2372  137.0298  158.3220 C   0  0  0  0  0  0  0  0  0  0  0  0
  152.6444  136.4510  157.0254 C   0  0  0  0  0  0  0  0  0  0  0  0
  146.3000  133.1136  151.4267 C   0  0  0  0  0  0  0  0  0  0  0  0
  144.0722  131.7499  149.2077 H   0  0  0  0  0  0  0  0  0  0  0  0
  144.9545  133.2698  149.0410 H   0  0  0  0  0  0  0  0  0  0  0  0
  143.6151  133.1476  150.1895 H   0  0  0  0  0  0  0  0  0  0  0  0
  144.7945  130.1024  150.8646 H   0  0  0  0  0  0  0  0  0  0  0  0
  145.8569  128.4081  152.2334 H   0  0  0  0  0  0  0  0  0  0  0  0
  146.0972  129.0500  153.8618 H   0  0  0  0  0  0  0  0  0  0  0  0
  147.4895  128.7428  152.8152 H   0  0  0  0  0  0  0  0  0  0  0  0
  148.1618  134.5112  152.3752 H   0  0  0  0  0  0  0  0  0  0  0  0
  149.2680  135.5738  153.6127 H   0  0  0  0  0  0  0  0  0  0  0  0
  149.3463  135.2571  156.4062 H   0  0  0  0  0  0  0  0  0  0  0  0
  151.6598  134.4300  156.7558 H   0  0  0  0  0  0  0  0  0  0  0  0
  151.7498  133.9922  155.0499 H   0  0  0  0  0  0  0  0  0  0  0  0
  150.5680  133.2229  156.0938 H   0  0  0  0  0  0  0  0  0  0  0  0
  151.4408  136.6538  154.6806 H   0  0  0  0  0  0  0  0  0  0  0  0
  149.1795  137.4212  153.9943 H   0  0  0  0  0  0  0  0  0  0  0  0
  150.0813  138.6969  154.7489 H   0  0  0  0  0  0  0  0  0  0  0  0
  148.8109  137.8688  155.6525 H   0  0  0  0  0  0  0  0  0  0  0  0
  149.4855  137.4473  157.7424 H   0  0  0  0  0  0  0  0  0  0  0  0
  150.1940  135.8788  158.0630 H   0  0  0  0  0  0  0  0  0  0  0  0
  151.2609  138.5828  159.0683 H   0  0  0  0  0  0  0  0  0  0  0  0
  150.4506  137.3637  160.0345 H   0  0  0  0  0  0  0  0  0  0  0  0
  153.4632  138.0911  158.2049 H   0  0  0  0  0  0  0  0  0  0  0  0
  154.1761  136.5305  158.5607 H   0  0  0  0  0  0  0  0  0  0  0  0
  152.5305  135.3694  157.1127 H   0  0  0  0  0  0  0  0  0  0  0  0
  153.3557  136.6461  156.2234 H   0  0  0  0  0  0  0  0  0  0  0  0
  146.2910  134.1431  151.0987 H   0  0  0  0  0  0  0  0  0  0  0  0
  151.5182  138.0640  156.6444 H   0  0  0  0  0  0  0  0  0  0  0  0
  1  2  1  0  0  0  0
  1 23  1  0  0  0  0
  1 24  1  0  0  0  0
  1 25  1  0  0  0  0
  2 22  1  0  0  0  0
  2  3  2  0  0  0  0
  3  4  1  0  0  0  0
  3 26  1  0  0  0  0
  4  5  1  0  0  0  0
  4  6  2  0  0  0  0
  5 27  1  0  0  0  0
  5 28  1  0  0  0  0
  5 29  1  0  0  0  0
  6  7  1  0  0  0  0
  7  8  1  0  0  0  0
  7 22  2  0  0  0  0
  8  9  1  0  0  0  0
  8 30  1  0  0  0  0
  9 10  2  0  0  0  0
  9 11  1  0  0  0  0
 11 12  1  0  0  0  0
 11 31  1  0  0  0  0
 12 13  1  0  0  0  0
 12 14  1  0  0  0  0
 12 32  1  0  0  0  0
 13 33  1  0  0  0  0
 13 34  1  0  0  0  0
 13 35  1  0  0  0  0
 14 15  1  0  0  0  0
 14 16  1  0  0  0  0
 14 36  1  0  0  0  0
 15 37  1  0  0  0  0
 15 38  1  0  0  0  0
 15 39  1  0  0  0  0
 16 21  1  0  0  0  0
 16 17  1  0  0  0  0
 16 49  1  0  0  0  0
 17 18  1  0  0  0  0
 17 40  1  0  0  0  0
 17 41  1  0  0  0  0
 18 19  1  0  0  0  0
 18 42  1  0  0  0  0
 18 43  1  0  0  0  0
 19 20  1  0  0  0  0
 20 21  1  0  0  0  0
 20 44  1  0  0  0  0
 20 45  1  0  0  0  0
 21 46  1  0  0  0  0
 21 47  1  0  0  0  0
 22 48  1  0  0  0  0
M  CHG  1  16   1
M  END
> <s_m_source_file>
AV-unprocessed.smi

> <i_m_source_file_index>
2355

> <i_lp_mmshare_version>
43012

> <i_f3d_flags>
0

> <s_epik_input>
W0NIM11jMVtjSF1jKFtDSDNdKW5jKFtjSF0xKVtOSF1DKD1PKVtOSF1bQ0BIXShbQ0gzXSlbQ0BIXShbQ0gzXSlOMltDSDJdW0NIMl1PW0NIMl1bQ0gyXTI=

> <s_epik_cmdline>
J2VwaWtfcHl0aG9uJywgJy1waCcsICc3LjAnLCAnLXRuJywgJzgnLCAnLW1hJywgJzIwMCcsICctbWV0YWxfYmluZGluZycsICctaW1hZScsICc8aW5maWxlLm1hZT4nLCAnLW9tYWUnLCAnPG91dGZpbGUubWFlPic=

> <r_epik_Ionization_Penalty>
0.602711

> <r_epik_Ionization_Penalty_Charging>
0.602531

> <r_epik_Ionization_Penalty_Neutral>
0.000180055

> <r_epik_State_Penalty>
0.617039

> <r_epik_Charging_Adjusted_Penalty>
1.21957

> <i_epik_Tot_Q>
1

> <i_epik_Tot_abs_Q>
1

> <r_epik_Metal_State_Penalty>
0.617075

> <b_epik_Metal_Only>
0

> <s_lp_Force_Field>
OPLS_2005

> <r_lp_Energy>
30.3549

> <b_lp_Chiralities_Consistent>
1

> <s_lp_Variant>
AV-unprocessed.smi:2355-8

> <Gold.Version>
5.8.1

> <Gold.Id.Protein>
6NUR|6NUR_protein|mol2

> <Gold.PLP.Fitness>
42.8557

> <Gold.PLP.PLP>
-34.5585

> <Gold.PLP.part.hbond>
-3.0000

> <Gold.PLP.part.metal>
0.0000

> <Gold.PLP.part.buried>
-6.7509

> <Gold.PLP.part.nonpolar>
-25.1132

> <Gold.PLP.part.repulsive>
0.2270

> <Gold.PLP.ligand.clash>
0.0000

> <Gold.PLP.ligand.torsion>
0.4205

> <Gold.PLP.Chemscore.Hbond>
3.0000

> <Gold.PLP.Chemscore.CHOScore>
0.0000

> <Gold.PLP.Chemscore.Metal>
0.0000

> <Gold.Chemscore.Hbonds>
donor molecule, donor type, donor heavy atom, donor atom, acceptor molecule, acceptor atom, score
      L1  H     8    30       P1  7948  0.95
      L1  H    11    31       P1  7948  1.00
      P1  H  6896  6909       L1    19  0.76

> <Gold.PLP.Chemscore.Internal.Correction>
0.1382

> <Gold.Rescore>
     Score         DG    S(hbond)    S(metal)    S(lipo)     H(rot)  DE(clash)    DE(int)     intcor
     15.18     -18.94       2.20        0.00      83.77       1.45       0.00       3.76       ----

> <Gold.Chemscore.Fitness>
15.1792

> <Gold.Chemscore.DG>
-18.9389

> <Gold.Chemscore.ZeroCoef>
-5.4800

> <Gold.Chemscore.Hbond>
2.2036

> <Gold.Chemscore.Metal>
0.0000

> <Gold.Chemscore.Lipo>
83.7724

> <Gold.Chemscore.Internal_Hbond>
0.0000

> <Gold.Chemscore.DEClash>
0.0000

> <Gold.Chemscore.DEInternal>
3.7597

> <Gold.Chemscore.Rot>
1.4462

> <Gold.Chemscore.Internal.Correction>
   9.000000E+99

> <Gold.Chemscore.Hbonds>
donor molecule, donor type, donor heavy atom, donor atom, acceptor molecule, acceptor atom, score
      L1  H     8    30       P1  7948  0.21
      L1  H    11    31       P1  7948  0.49
      P1  H  6896  6909       L1    19  0.11

> <Gold.Chemscore.Hbond.Weighted>
-7.3599

> <Gold.Chemscore.Metal.Weighted>
-0.0000

> <Gold.Chemscore.Lipo.Weighted>
-9.8014

> <Gold.Chemscore.Internal_Hbond.Weighted>
0.0000

> <Gold.Chemscore.DEClash.Weighted>
0.0000

> <Gold.Chemscore.DEInternal.Weighted>
3.7597

> <Gold.Chemscore.Rot.Weighted>
3.7023

> <Gold.Chemscore.Internal.Correction.Weighted>
   9.000000E+99

> <Gold.Protein.RotatedTorsions>
[ 6907 6896 6895 6894 ] final  115.80 input  -60.11 | X-H torsion
[ 7974 7965 7964 7962 ] final   27.28 input  175.53 | X-H torsion
[ 8008 7997 7996 7995 ] final  -14.18 input   59.86 | X-H torsion
[ 10167 10162 10161 10158 ] final   -4.56 input  -65.29 | X-H torsion
[ 10718 10713 10712 10709 ] final   25.85 input   66.30 | X-H torsion
[ 10763 10752 10751 10750 ] final  -25.49 input  -60.55 | X-H torsion
[ 11005 11000 10999 10996 ] final  -39.15 input  -57.11 | X-H torsion

> <Gold.Protein.ActiveResidues>
 VAL166  LYS551  ARG553  GLY616  TRP617  ASP618  TYR619  PRO620  LYS621  CYS622 
 ASP623  PHE694  ASN695  SER759  ASP760  ASP761  ALA762  ILE779  LEU786  VAL792 
 PHE793  MET794  SER795  GLU796  ALA797  LYS798  CYS799  TRP800  GLU811  SER814 

> <Gold.Protein.RotatedAtoms>
  152.4718  133.8048  159.6971 H   0  0  0  0  0  0  0  0  0  0  0  0  # atno 6907 bound_to 6896
  150.8712  133.7493  159.2967 H   0  0  0  0  0  0  0  0  0  0  0  0  # atno 6908 bound_to 6896
  151.5028  135.1065  159.9885 H   0  0  0  0  0  0  0  0  0  0  0  0  # atno 6909 bound_to 6896
  146.1793  139.7213  142.8912 H   0  0  0  0  0  0  0  0  0  0  0  0  # atno 7974 bound_to 7965
  154.5231  140.2230  155.8940 H   0  0  0  0  0  0  0  0  0  0  0  0  # atno 8008 bound_to 7997
  156.1683  140.3127  155.8893 H   0  0  0  0  0  0  0  0  0  0  0  0  # atno 8009 bound_to 7997
  155.3610  140.0461  157.3037 H   0  0  0  0  0  0  0  0  0  0  0  0  # atno 8010 bound_to 7997
  140.6932  143.6409  150.8436 H   0  0  0  0  0  0  0  0  0  0  0  0  # atno 10167 bound_to 10162
  157.1989  130.6880  149.6180 H   0  0  0  0  0  0  0  0  0  0  0  0  # atno 10718 bound_to 10713
  153.7006  135.6956  153.5064 H   0  0  0  0  0  0  0  0  0  0  0  0  # atno 10763 bound_to 10752
  153.2345  135.4326  155.0631 H   0  0  0  0  0  0  0  0  0  0  0  0  # atno 10764 bound_to 10752
  154.8345  135.3492  154.6545 H   0  0  0  0  0  0  0  0  0  0  0  0  # atno 10765 bound_to 10752
  141.0081  133.6922  156.2148 H   0  0  0  0  0  0  0  0  0  0  0  0  # atno 11005 bound_to 11000
  145.4123  141.0398  143.3010 LP  0  0  0  0  0  0  0  0  0  0  0  0  # atno 17320 bound_to 7965
  144.8287  139.5665  143.6953 LP  0  0  0  0  0  0  0  0  0  0  0  0  # atno 17321 bound_to 7965
  140.0124  143.5628  152.2833 LP  0  0  0  0  0  0  0  0  0  0  0  0  # atno 17342 bound_to 10162
  139.6357  144.7649  151.2443 LP  0  0  0  0  0  0  0  0  0  0  0  0  # atno 17343 bound_to 10162
  155.9703  130.4589  150.6018 LP  0  0  0  0  0  0  0  0  0  0  0  0  # atno 17370 bound_to 10713
  157.3787  131.0777  151.1496 LP  0  0  0  0  0  0  0  0  0  0  0  0  # atno 17371 bound_to 10713
  140.6780  134.4798  157.5588 LP  0  0  0  0  0  0  0  0  0  0  0  0  # atno 17394 bound_to 11000
  139.9074  134.8418  156.1653 LP  0  0  0  0  0  0  0  0  0  0  0  0  # atno 17395 bound_to 11000

$$$$
