AV-unprocessed.smi:2329|AV-procd|sdf|9303|dock3
  -GOLD-   2272012523D 1   1.00000     0.00000
 Structure written by MMmdl.
 45 48  0  0  0  0  0  0  0  0  1 V2000
  141.8552  134.5706  152.9127 C   0  0  0  0  0  0  0  0  0  0  0  0
  143.2505  134.2715  152.4061 C   0  0  0  0  0  0  0  0  0  0  0  0
  143.4808  133.2299  151.4861 C   0  0  0  0  0  0  0  0  0  0  0  0
  144.8010  133.0049  151.0564 C   0  0  0  0  0  0  0  0  0  0  0  0
  145.8290  133.8241  151.5612 C   0  0  0  0  0  0  0  0  0  0  0  0
  145.5125  134.8487  152.4811 C   0  0  0  0  0  0  0  0  0  0  0  0
  146.6184  135.6191  152.9259 N   0  0  0  0  0  0  0  0  0  0  0  0
  146.6826  136.4627  153.9755 C   0  0  0  0  0  0  0  0  0  0  0  0
  145.7639  136.6750  154.7646 O   0  0  0  0  0  0  0  0  0  0  0  0
  147.8646  137.0919  154.0972 N   0  0  0  0  0  0  0  0  0  0  0  0
  148.2568  138.0681  155.1264 C   0  0  1  0  0  0  0  0  0  0  0  0
  149.7691  138.1687  155.3611 C   0  0  1  0  0  0  0  0  0  0  0  0
  150.9465  137.2971  155.1065 C   0  0  0  0  0  0  0  0  0  0  0  0
  151.9036  138.4038  154.5910 C   0  0  0  0  0  0  0  0  0  0  0  0
  151.0853  139.5879  154.4158 O   0  0  0  0  0  0  0  0  0  0  0  0
  149.7908  139.0806  154.1528 C   0  0  2  0  0  0  0  0  0  0  0  0
  148.3855  139.5497  154.6001 C   0  0  0  0  0  0  0  0  0  0  0  0
  147.4212  140.0043  153.4986 C   0  0  0  0  0  0  0  0  0  0  0  0
  147.2552  141.5147  153.6306 C   0  0  0  0  0  0  0  0  0  0  0  0
  147.3489  141.7563  155.1302 C   0  0  0  0  0  0  0  0  0  0  0  0
  148.3314  140.6953  155.6322 C   0  0  0  0  0  0  0  0  0  0  0  0
  144.2362  135.0578  152.8896 N   0  0  0  0  0  0  0  0  0  0  0  0
  141.1185  133.9067  152.4600 H   0  0  0  0  0  0  0  0  0  0  0  0
  141.5777  135.5981  152.6758 H   0  0  0  0  0  0  0  0  0  0  0  0
  141.8092  134.4425  153.9944 H   0  0  0  0  0  0  0  0  0  0  0  0
  142.6703  132.6183  151.1180 H   0  0  0  0  0  0  0  0  0  0  0  0
  145.0224  132.2173  150.3515 H   0  0  0  0  0  0  0  0  0  0  0  0
  146.8487  133.6656  151.2408 H   0  0  0  0  0  0  0  0  0  0  0  0
  147.4527  135.5474  152.3626 H   0  0  0  0  0  0  0  0  0  0  0  0
  148.5567  136.8951  153.3886 H   0  0  0  0  0  0  0  0  0  0  0  0
  147.6739  137.9928  156.0456 H   0  0  0  0  0  0  0  0  0  0  0  0
  149.9295  138.7164  156.2955 H   0  0  0  0  0  0  0  0  0  0  0  0
  151.3148  136.8064  156.0078 H   0  0  0  0  0  0  0  0  0  0  0  0
  150.7487  136.5440  154.3430 H   0  0  0  0  0  0  0  0  0  0  0  0
  152.7046  138.6137  155.3003 H   0  0  0  0  0  0  0  0  0  0  0  0
  152.3578  138.1128  153.6430 H   0  0  0  0  0  0  0  0  0  0  0  0
  149.7744  138.5559  153.1922 H   0  0  0  0  0  0  0  0  0  0  0  0
  147.7681  139.7340  152.5009 H   0  0  0  0  0  0  0  0  0  0  0  0
  146.4497  139.5269  153.6343 H   0  0  0  0  0  0  0  0  0  0  0  0
  148.0777  142.0209  153.1235 H   0  0  0  0  0  0  0  0  0  0  0  0
  146.3208  141.8768  153.2008 H   0  0  0  0  0  0  0  0  0  0  0  0
  147.6641  142.7715  155.3736 H   0  0  0  0  0  0  0  0  0  0  0  0
  146.3715  141.5940  155.5865 H   0  0  0  0  0  0  0  0  0  0  0  0
  148.0378  140.3437  156.6217 H   0  0  0  0  0  0  0  0  0  0  0  0
  149.3170  141.1489  155.7453 H   0  0  0  0  0  0  0  0  0  0  0  0
  1  2  1  0  0  0  0
  1 23  1  0  0  0  0
  1 24  1  0  0  0  0
  1 25  1  0  0  0  0
  2 22  1  0  0  0  0
  2  3  2  0  0  0  0
  3  4  1  0  0  0  0
  3 26  1  0  0  0  0
  4  5  2  0  0  0  0
  4 27  1  0  0  0  0
  5  6  1  0  0  0  0
  5 28  1  0  0  0  0
  6  7  1  0  0  0  0
  6 22  2  0  0  0  0
  7  8  1  0  0  0  0
  7 29  1  0  0  0  0
  8  9  2  0  0  0  0
  8 10  1  0  0  0  0
 10 11  1  0  0  0  0
 10 30  1  0  0  0  0
 11 17  1  0  0  0  0
 11 12  1  0  0  0  0
 11 31  1  0  0  0  0
 12 16  1  0  0  0  0
 12 13  1  0  0  0  0
 12 32  1  0  0  0  0
 13 14  1  0  0  0  0
 13 33  1  0  0  0  0
 13 34  1  0  0  0  0
 14 15  1  0  0  0  0
 14 35  1  0  0  0  0
 14 36  1  0  0  0  0
 15 16  1  0  0  0  0
 16 17  1  0  0  0  0
 16 37  1  0  0  0  0
 17 21  1  0  0  0  0
 17 18  1  0  0  0  0
 18 19  1  0  0  0  0
 18 38  1  0  0  0  0
 18 39  1  0  0  0  0
 19 20  1  0  0  0  0
 19 40  1  0  0  0  0
 19 41  1  0  0  0  0
 20 21  1  0  0  0  0
 20 42  1  0  0  0  0
 20 43  1  0  0  0  0
 21 44  1  0  0  0  0
 21 45  1  0  0  0  0
M  END
> <s_m_source_file>
AV-unprocessed.smi

> <i_m_source_file_index>
2329

> <i_lp_mmshare_version>
43012

> <i_f3d_flags>
0

> <s_epik_input>
W0NIM11jMVtjSF1bY0hdW2NIXWMobjEpW05IXUMoPU8pW05IXVtDQEBIXTJbQ0BASF0oW0NIMl1bQ0gyXU8zKVtDQEhdM0MyNFtDSDJdW0NIMl1bQ0gyXVtDSDJdNA==

> <s_epik_cmdline>
J2VwaWtfcHl0aG9uJywgJy1waCcsICc3LjAnLCAnLXRuJywgJzgnLCAnLW1hJywgJzIwMCcsICctbWV0YWxfYmluZGluZycsICctaW1hZScsICc8aW5maWxlLm1hZT4nLCAnLW9tYWUnLCAnPG91dGZpbGUubWFlPic=

> <r_lp_tautomer_probability>
1

> <r_epik_Ionization_Penalty>
8.97002e-05

> <r_epik_Ionization_Penalty_Charging>
0

> <r_epik_Ionization_Penalty_Neutral>
8.97002e-05

> <r_epik_State_Penalty>
-0

> <r_epik_Charging_Adjusted_Penalty>
0

> <i_epik_Tot_Q>
0

> <i_epik_Tot_abs_Q>
0

> <r_epik_Metal_State_Penalty>
-0

> <b_epik_Metal_Only>
0

> <s_lp_Force_Field>
OPLS_2005

> <r_lp_Energy>
90.5086

> <b_lp_Chiralities_Consistent>
1

> <s_lp_Variant>
AV-unprocessed.smi:2329-2

> <Gold.Version>
5.8.1

> <Gold.Id.Protein>
6NUR|6NUR_protein|mol2

> <Gold.PLP.Fitness>
42.7409

> <Gold.PLP.PLP>
-34.0272

> <Gold.PLP.part.hbond>
-3.0000

> <Gold.PLP.part.metal>
0.0000

> <Gold.PLP.part.buried>
-4.2639

> <Gold.PLP.part.nonpolar>
-26.5481

> <Gold.PLP.part.repulsive>
0.2314

> <Gold.PLP.ligand.clash>
0.0000

> <Gold.PLP.ligand.torsion>
0.2777

> <Gold.PLP.Chemscore.Hbond>
3.0000

> <Gold.PLP.Chemscore.CHOScore>
0.0000

> <Gold.PLP.Chemscore.Metal>
0.0000

> <Gold.Chemscore.Hbonds>
donor molecule, donor type, donor heavy atom, donor atom, acceptor molecule, acceptor atom, score
      L1  H     7    29       P1  7948  1.00
      L1  H    10    30       P1  7948  1.00
      P1  H  7989  7998       L1    15  1.00

> <Gold.PLP.Chemscore.Internal.Correction>
0.2692

> <Gold.Rescore>
     Score         DG    S(hbond)    S(metal)    S(lipo)     H(rot)  DE(clash)    DE(int)     intcor
     21.02     -22.62       2.90        0.00      85.68       1.00       0.08       1.52       ----

> <Gold.Chemscore.Fitness>
21.0183

> <Gold.Chemscore.DG>
-22.6215

> <Gold.Chemscore.ZeroCoef>
-5.4800

> <Gold.Chemscore.Hbond>
2.8972

> <Gold.Chemscore.Metal>
0.0000

> <Gold.Chemscore.Lipo>
85.6819

> <Gold.Chemscore.Internal_Hbond>
0.0000

> <Gold.Chemscore.DEClash>
0.0848

> <Gold.Chemscore.DEInternal>
1.5183

> <Gold.Chemscore.Rot>
1.0000

> <Gold.Chemscore.Internal.Correction>
   9.000000E+99

> <Gold.Chemscore.Hbonds>
donor molecule, donor type, donor heavy atom, donor atom, acceptor molecule, acceptor atom, score
      L1  H     7    29       P1  7948  0.94
      L1  H    10    30       P1  7948  0.94
      P1  H  7989  7998       L1    15  0.93

> <Gold.Chemscore.Hbond.Weighted>
-9.6767

> <Gold.Chemscore.Metal.Weighted>
-0.0000

> <Gold.Chemscore.Lipo.Weighted>
-10.0248

> <Gold.Chemscore.Internal_Hbond.Weighted>
0.0000

> <Gold.Chemscore.DEClash.Weighted>
0.0848

> <Gold.Chemscore.DEInternal.Weighted>
1.5183

> <Gold.Chemscore.Rot.Weighted>
2.5600

> <Gold.Chemscore.Internal.Correction.Weighted>
   9.000000E+99

> <Gold.Protein.RotatedTorsions>
[ 6907 6896 6895 6894 ] final  -56.45 input  -60.11 | X-H torsion
[ 7974 7965 7964 7962 ] final   67.67 input  175.53 | X-H torsion
[ 8008 7997 7996 7995 ] final  -48.48 input   59.86 | X-H torsion
[ 10167 10162 10161 10158 ] final  -42.62 input  -65.29 | X-H torsion
[ 10718 10713 10712 10709 ] final  -20.05 input   66.30 | X-H torsion
[ 10763 10752 10751 10750 ] final  -24.49 input  -60.55 | X-H torsion
[ 11005 11000 10999 10996 ] final -117.93 input  -57.11 | X-H torsion

> <Gold.Protein.ActiveResidues>
 VAL166  LYS551  ARG553  GLY616  TRP617  ASP618  TYR619  PRO620  LYS621  CYS622 
 ASP623  PHE694  ASN695  SER759  ASP760  ASP761  ALA762  ILE779  LEU786  VAL792 
 PHE793  MET794  SER795  GLU796  ALA797  LYS798  CYS799  TRP800  GLU811  SER814 

> <Gold.Protein.RotatedAtoms>
  150.8167  134.7352  159.6735 H   0  0  0  0  0  0  0  0  0  0  0  0  # atno 6907 bound_to 6896
  152.4285  134.5820  159.9960 H   0  0  0  0  0  0  0  0  0  0  0  0  # atno 6908 bound_to 6896
  151.6015  133.3318  159.3084 H   0  0  0  0  0  0  0  0  0  0  0  0  # atno 6909 bound_to 6896
  145.8118  139.3037  143.1094 H   0  0  0  0  0  0  0  0  0  0  0  0  # atno 7974 bound_to 7965
  154.4029  140.1320  156.4345 H   0  0  0  0  0  0  0  0  0  0  0  0  # atno 8008 bound_to 7997
  155.7518  140.3488  155.5134 H   0  0  0  0  0  0  0  0  0  0  0  0  # atno 8009 bound_to 7997
  155.8942  140.1008  157.1387 H   0  0  0  0  0  0  0  0  0  0  0  0  # atno 8010 bound_to 7997
  140.6963  143.3028  151.3235 H   0  0  0  0  0  0  0  0  0  0  0  0  # atno 10167 bound_to 10162
  156.5372  130.4669  149.6517 H   0  0  0  0  0  0  0  0  0  0  0  0  # atno 10718 bound_to 10713
  153.6846  135.6965  153.5108 H   0  0  0  0  0  0  0  0  0  0  0  0  # atno 10763 bound_to 10752
  153.2459  135.4291  155.0746 H   0  0  0  0  0  0  0  0  0  0  0  0  # atno 10764 bound_to 10752
  154.8390  135.3519  154.6389 H   0  0  0  0  0  0  0  0  0  0  0  0  # atno 10765 bound_to 10752
  141.0320  133.9966  157.3128 H   0  0  0  0  0  0  0  0  0  0  0  0  # atno 11005 bound_to 11000
  145.9769  140.8715  143.0134 LP  0  0  0  0  0  0  0  0  0  0  0  0  # atno 17320 bound_to 7965
  144.6756  140.2024  143.7385 LP  0  0  0  0  0  0  0  0  0  0  0  0  # atno 17321 bound_to 7965
  139.6422  144.0518  152.2563 LP  0  0  0  0  0  0  0  0  0  0  0  0  # atno 17342 bound_to 10162
  140.0027  144.6281  150.7716 LP  0  0  0  0  0  0  0  0  0  0  0  0  # atno 17343 bound_to 10162
  156.3005  130.7174  151.2045 LP  0  0  0  0  0  0  0  0  0  0  0  0  # atno 17370 bound_to 10713
  157.7411  131.0507  150.5116 LP  0  0  0  0  0  0  0  0  0  0  0  0  # atno 17371 bound_to 10713
  139.9215  135.0200  156.8080 LP  0  0  0  0  0  0  0  0  0  0  0  0  # atno 17394 bound_to 11000
  140.6389  133.9837  155.7698 LP  0  0  0  0  0  0  0  0  0  0  0  0  # atno 17395 bound_to 11000

$$$$
