AV-unprocessed.smi:1259|AV-procd|sdf|5292|dock8
  -GOLD-   22720 4413D 1   1.00000     0.00000
 Structure written by MMmdl.
 34 35  0  0  0  0  0  0  0  0  1 V2000
  153.5875  141.7083  160.8826 C   0  0  0  0  0  0  0  0  0  0  0  0
  152.8052  142.3218  159.7591 C   0  0  0  0  0  0  0  0  0  0  0  0
  151.6812  141.7771  159.0725 C   0  0  0  0  0  0  0  0  0  0  0  0
  151.3816  142.7541  158.1627 C   0  0  0  0  0  0  0  0  0  0  0  0
  150.3894  142.7823  157.2337 N   0  0  0  0  0  0  0  0  0  0  0  0
  149.7255  141.7524  156.6806 C   0  0  0  0  0  0  0  0  0  0  0  0
  149.9078  140.5631  156.9413 O   0  0  0  0  0  0  0  0  0  0  0  0
  148.8209  142.1849  155.7901 N   0  0  0  0  0  0  0  0  0  0  0  0
  147.9393  141.3338  154.9974 C   0  0  1  0  0  0  0  0  0  0  0  0
  147.0074  142.2289  154.1689 C   0  0  0  0  0  0  0  0  0  0  0  0
  148.6859  140.3568  154.1042 C   0  0  0  0  0  0  0  0  0  0  0  0
  148.1023  139.0033  153.7746 C   0  0  0  0  0  0  0  0  0  0  0  0
  149.3203  139.1049  154.6635 C   0  0  0  0  0  0  0  0  0  0  0  0
  152.2743  143.7922  158.3145 N   0  0  0  0  0  0  0  0  0  0  0  0
  152.3636  145.0464  157.5925 C   0  0  0  0  0  0  0  0  0  0  0  0
  153.1520  143.5207  159.3043 N   0  0  0  0  0  0  0  0  0  0  0  0
  153.2241  140.7071  161.1152 H   0  0  0  0  0  0  0  0  0  0  0  0
  153.5082  142.3088  161.7891 H   0  0  0  0  0  0  0  0  0  0  0  0
  154.6442  141.6263  160.6270 H   0  0  0  0  0  0  0  0  0  0  0  0
  151.1927  140.8287  159.2380 H   0  0  0  0  0  0  0  0  0  0  0  0
  150.1272  143.7029  156.9135 H   0  0  0  0  0  0  0  0  0  0  0  0
  148.7399  143.1803  155.6424 H   0  0  0  0  0  0  0  0  0  0  0  0
  147.3108  140.7566  155.6782 H   0  0  0  0  0  0  0  0  0  0  0  0
  146.2936  141.6323  153.6000 H   0  0  0  0  0  0  0  0  0  0  0  0
  147.5684  142.8395  153.4606 H   0  0  0  0  0  0  0  0  0  0  0  0
  146.4347  142.9007  154.8092 H   0  0  0  0  0  0  0  0  0  0  0  0
  149.2267  140.8396  153.2919 H   0  0  0  0  0  0  0  0  0  0  0  0
  147.1607  138.7281  154.2451 H   0  0  0  0  0  0  0  0  0  0  0  0
  148.2465  138.6274  152.7637 H   0  0  0  0  0  0  0  0  0  0  0  0
  150.2772  138.7987  154.2458 H   0  0  0  0  0  0  0  0  0  0  0  0
  149.1852  138.8938  155.7224 H   0  0  0  0  0  0  0  0  0  0  0  0
  151.5950  145.7302  157.9531 H   0  0  0  0  0  0  0  0  0  0  0  0
  152.2159  144.8719  156.5266 H   0  0  0  0  0  0  0  0  0  0  0  0
  153.3437  145.5023  157.7392 H   0  0  0  0  0  0  0  0  0  0  0  0
  1  2  1  0  0  0  0
  1 17  1  0  0  0  0
  1 18  1  0  0  0  0
  1 19  1  0  0  0  0
  2 16  2  0  0  0  0
  2  3  1  0  0  0  0
  3  4  2  0  0  0  0
  3 20  1  0  0  0  0
  4  5  1  0  0  0  0
  4 14  1  0  0  0  0
  5  6  1  0  0  0  0
  5 21  1  0  0  0  0
  6  7  2  0  0  0  0
  6  8  1  0  0  0  0
  8  9  1  0  0  0  0
  8 22  1  0  0  0  0
  9 10  1  0  0  0  0
  9 11  1  0  0  0  0
  9 23  1  0  0  0  0
 10 24  1  0  0  0  0
 10 25  1  0  0  0  0
 10 26  1  0  0  0  0
 11 13  1  0  0  0  0
 11 12  1  0  0  0  0
 11 27  1  0  0  0  0
 12 13  1  0  0  0  0
 12 28  1  0  0  0  0
 12 29  1  0  0  0  0
 13 30  1  0  0  0  0
 13 31  1  0  0  0  0
 14 15  1  0  0  0  0
 14 16  1  0  0  0  0
 15 32  1  0  0  0  0
 15 33  1  0  0  0  0
 15 34  1  0  0  0  0
M  END
> <s_m_source_file>
AV-unprocessed.smi

> <i_m_source_file_index>
1259

> <i_lp_mmshare_version>
43012

> <i_f3d_flags>
0

> <s_epik_input>
W0NIM11jMVtjSF1jKG4objEpW0NIM10pW05IXUMoPU8pW05IXVtDQEhdKFtDSDNdKVtDSF0yW0NIMl1bQ0gyXTI=

> <s_epik_cmdline>
J2VwaWtfcHl0aG9uJywgJy1waCcsICc3LjAnLCAnLXRuJywgJzgnLCAnLW1hJywgJzIwMCcsICctbWV0YWxfYmluZGluZycsICctaW1hZScsICc8aW5maWxlLm1hZT4nLCAnLW9tYWUnLCAnPG91dGZpbGUubWFlPic=

> <r_lp_tautomer_probability>
1

> <r_epik_Ionization_Penalty>
0.000100032

> <r_epik_Ionization_Penalty_Charging>
0

> <r_epik_Ionization_Penalty_Neutral>
0.000100032

> <r_epik_State_Penalty>
-0

> <r_epik_Charging_Adjusted_Penalty>
0

> <i_epik_Tot_Q>
0

> <i_epik_Tot_abs_Q>
0

> <r_epik_Metal_State_Penalty>
-0

> <b_epik_Metal_Only>
0

> <s_lp_Force_Field>
OPLS_2005

> <r_lp_Energy>
14.2964

> <b_lp_Chiralities_Consistent>
1

> <s_lp_Variant>
AV-unprocessed.smi:1259-2

> <Gold.Version>
5.8.1

> <Gold.Id.Protein>
6NUR|6NUR_protein|mol2

> <Gold.PLP.Fitness>
40.5627

> <Gold.PLP.PLP>
-35.0767

> <Gold.PLP.part.hbond>
-2.0000

> <Gold.PLP.part.metal>
0.0000

> <Gold.PLP.part.buried>
-4.2561

> <Gold.PLP.part.nonpolar>
-29.3362

> <Gold.PLP.part.repulsive>
0.1467

> <Gold.PLP.ligand.clash>
0.0000

> <Gold.PLP.ligand.torsion>
0.6553

> <Gold.PLP.Chemscore.Hbond>
1.9120

> <Gold.PLP.Chemscore.CHOScore>
0.0000

> <Gold.PLP.Chemscore.Metal>
0.0000

> <Gold.Chemscore.Hbonds>
donor molecule, donor type, donor heavy atom, donor atom, acceptor molecule, acceptor atom, score
      L1  H     5    21       P1  8028  0.90
      L1  H     8    22       P1  8028  1.00

> <Gold.PLP.Chemscore.Internal.Correction>
1.0607

> <Gold.Rescore>
     Score         DG    S(hbond)    S(metal)    S(lipo)     H(rot)  DE(clash)    DE(int)     intcor
     13.40     -17.76       1.93        0.00      75.98       1.20       1.46       2.89       ----

> <Gold.Chemscore.Fitness>
13.4038

> <Gold.Chemscore.DG>
-17.7611

> <Gold.Chemscore.ZeroCoef>
-5.4800

> <Gold.Chemscore.Hbond>
1.9345

> <Gold.Chemscore.Metal>
0.0000

> <Gold.Chemscore.Lipo>
75.9786

> <Gold.Chemscore.Internal_Hbond>
0.0000

> <Gold.Chemscore.DEClash>
1.4629

> <Gold.Chemscore.DEInternal>
2.8944

> <Gold.Chemscore.Rot>
1.1990

> <Gold.Chemscore.Internal.Correction>
   9.000000E+99

> <Gold.Chemscore.Hbonds>
donor molecule, donor type, donor heavy atom, donor atom, acceptor molecule, acceptor atom, score
      L1  H     5    21       P1  8028  0.82
      L1  H     8    22       P1  8028  0.94

> <Gold.Chemscore.Hbond.Weighted>
-6.4611

> <Gold.Chemscore.Metal.Weighted>
-0.0000

> <Gold.Chemscore.Lipo.Weighted>
-8.8895

> <Gold.Chemscore.Internal_Hbond.Weighted>
0.0000

> <Gold.Chemscore.DEClash.Weighted>
1.4629

> <Gold.Chemscore.DEInternal.Weighted>
2.8944

> <Gold.Chemscore.Rot.Weighted>
3.0695

> <Gold.Chemscore.Internal.Correction.Weighted>
   9.000000E+99

> <Gold.Protein.RotatedTorsions>
[ 6907 6896 6895 6894 ] final -173.55 input  -60.11 | X-H torsion
[ 7974 7965 7964 7962 ] final  134.70 input  175.53 | X-H torsion
[ 8008 7997 7996 7995 ] final  109.45 input   59.86 | X-H torsion
[ 10167 10162 10161 10158 ] final -128.57 input  -65.29 | X-H torsion
[ 10718 10713 10712 10709 ] final -107.63 input   66.30 | X-H torsion
[ 10763 10752 10751 10750 ] final -106.06 input  -60.55 | X-H torsion
[ 11005 11000 10999 10996 ] final   49.24 input  -57.11 | X-H torsion

> <Gold.Protein.ActiveResidues>
 VAL166  LYS551  ARG553  GLY616  TRP617  ASP618  TYR619  PRO620  LYS621  CYS622 
 ASP623  PHE694  ASN695  SER759  ASP760  ASP761  ALA762  ILE779  LEU786  VAL792 
 PHE793  MET794  SER795  GLU796  ALA797  LYS798  CYS799  TRP800  GLU811  SER814 

> <Gold.Protein.RotatedAtoms>
  151.5579  133.3407  159.2965 H   0  0  0  0  0  0  0  0  0  0  0  0  # atno 6907 bound_to 6896
  150.8440  134.7745  159.6966 H   0  0  0  0  0  0  0  0  0  0  0  0  # atno 6908 bound_to 6896
  152.4501  134.5418  159.9893 H   0  0  0  0  0  0  0  0  0  0  0  0  # atno 6909 bound_to 6896
  144.9737  139.4578  143.5420 H   0  0  0  0  0  0  0  0  0  0  0  0  # atno 7974 bound_to 7965
  156.1980  140.3057  155.9466 H   0  0  0  0  0  0  0  0  0  0  0  0  # atno 8008 bound_to 7997
  155.3021  140.0447  157.3047 H   0  0  0  0  0  0  0  0  0  0  0  0  # atno 8009 bound_to 7997
  154.5534  140.2298  155.8458 H   0  0  0  0  0  0  0  0  0  0  0  0  # atno 8010 bound_to 7997
  139.9489  143.6078  152.2481 H   0  0  0  0  0  0  0  0  0  0  0  0  # atno 10167 bound_to 10162
  156.0446  130.5672  150.7848 H   0  0  0  0  0  0  0  0  0  0  0  0  # atno 10718 bound_to 10713
  154.7988  135.4726  154.0225 H   0  0  0  0  0  0  0  0  0  0  0  0  # atno 10763 bound_to 10752
  153.1747  135.6831  153.8567 H   0  0  0  0  0  0  0  0  0  0  0  0  # atno 10764 bound_to 10752
  153.8137  135.3213  155.3381 H   0  0  0  0  0  0  0  0  0  0  0  0  # atno 10765 bound_to 10752
  140.1120  134.4942  155.8669 H   0  0  0  0  0  0  0  0  0  0  0  0  # atno 11005 bound_to 11000
  146.3389  139.8965  142.8801 LP  0  0  0  0  0  0  0  0  0  0  0  0  # atno 17320 bound_to 7965
  145.2522  141.0048  143.3874 LP  0  0  0  0  0  0  0  0  0  0  0  0  # atno 17321 bound_to 7965
  139.6644  144.7662  151.1901 LP  0  0  0  0  0  0  0  0  0  0  0  0  # atno 17342 bound_to 10162
  140.7589  143.5960  150.8748 LP  0  0  0  0  0  0  0  0  0  0  0  0  # atno 17343 bound_to 10162
  157.5305  131.0936  150.9961 LP  0  0  0  0  0  0  0  0  0  0  0  0  # atno 17370 bound_to 10713
  157.0268  130.5695  149.5338 LP  0  0  0  0  0  0  0  0  0  0  0  0  # atno 17371 bound_to 10713
  141.2132  133.6730  156.6724 LP  0  0  0  0  0  0  0  0  0  0  0  0  # atno 17394 bound_to 11000
  140.3078  134.8111  157.4151 LP  0  0  0  0  0  0  0  0  0  0  0  0  # atno 17395 bound_to 11000

$$$$
