AV-unprocessed.smi:1272|AV-procd|sdf|5334|dock3
  -GOLD-   22720 4463D 1   1.00000     0.00000
 Structure written by MMmdl.
 45 47  0  0  0  0  0  0  0  0  1 V2000
  154.9913  140.7080  160.6132 C   0  0  0  0  0  0  0  0  0  0  0  0
  153.5782  141.1857  160.9707 C   0  0  0  0  0  0  0  0  0  0  0  0
  152.8565  141.6379  159.7839 N   0  0  0  0  0  0  0  0  0  0  0  0
  152.6790  140.9452  158.6344 C   0  0  0  0  0  0  0  0  0  0  0  0
  153.0980  139.8115  158.4004 O   0  0  0  0  0  0  0  0  0  0  0  0
  151.9724  141.7223  157.7799 N   0  0  0  0  0  0  0  0  0  0  0  0
  151.5621  141.3701  156.4215 C   0  0  0  0  0  0  0  0  0  0  0  0
  151.3957  139.8468  156.2511 C   0  0  2  0  0  0  0  0  0  0  0  0
  152.6705  139.2933  155.9921 O   0  0  0  0  0  0  0  0  0  0  0  0
  150.4986  139.5119  155.0419 C   0  0  0  0  0  0  0  0  0  0  0  0
  149.1268  140.0199  155.1109 N   0  0  0  0  0  0  0  0  0  0  0  0
  149.0278  141.4380  154.7690 C   0  0  0  0  0  0  0  0  0  0  0  0
  147.5738  141.9398  154.8170 C   0  0  0  0  0  0  0  0  0  0  0  0
  146.7644  141.1508  153.9517 O   0  0  0  0  0  0  0  0  0  0  0  0
  146.7966  139.7666  154.2828 C   0  0  0  0  0  0  0  0  0  0  0  0
  148.2479  139.2597  154.2281 C   0  0  0  0  0  0  0  0  0  0  0  0
  151.7121  142.9573  158.3911 C   0  0  0  0  0  0  0  0  0  0  0  0
  151.0442  144.1014  157.9203 C   0  0  0  0  0  0  0  0  0  0  0  0
  150.9601  145.2082  158.7972 C   0  0  0  0  0  0  0  0  0  0  0  0
  151.5316  145.1526  160.0950 C   0  0  0  0  0  0  0  0  0  0  0  0
  152.2003  143.9893  160.5428 C   0  0  0  0  0  0  0  0  0  0  0  0
  152.2685  142.9039  159.6520 C   0  0  0  0  0  0  0  0  0  0  0  0
  155.5299  140.3902  161.5060 H   0  0  0  0  0  0  0  0  0  0  0  0
  155.5690  141.5036  160.1417 H   0  0  0  0  0  0  0  0  0  0  0  0
  154.9594  139.8627  159.9252 H   0  0  0  0  0  0  0  0  0  0  0  0
  153.0267  140.3797  161.4572 H   0  0  0  0  0  0  0  0  0  0  0  0
  153.6304  141.9968  161.6971 H   0  0  0  0  0  0  0  0  0  0  0  0
  150.6090  141.8649  156.2279 H   0  0  0  0  0  0  0  0  0  0  0  0
  152.2548  141.7788  155.6847 H   0  0  0  0  0  0  0  0  0  0  0  0
  150.9872  139.4168  157.1649 H   0  0  0  0  0  0  0  0  0  0  0  0
  153.3252  139.9038  156.2961 H   0  0  0  0  0  0  0  0  0  0  0  0
  150.9686  139.8898  154.1326 H   0  0  0  0  0  0  0  0  0  0  0  0
  150.4747  138.4267  154.9306 H   0  0  0  0  0  0  0  0  0  0  0  0
  149.6201  142.0399  155.4563 H   0  0  0  0  0  0  0  0  0  0  0  0
  149.4356  141.6082  153.7714 H   0  0  0  0  0  0  0  0  0  0  0  0
  147.1831  141.8924  155.8346 H   0  0  0  0  0  0  0  0  0  0  0  0
  147.5217  142.9820  154.5022 H   0  0  0  0  0  0  0  0  0  0  0  0
  146.3697  139.6118  155.2749 H   0  0  0  0  0  0  0  0  0  0  0  0
  146.1753  139.2162  153.5764 H   0  0  0  0  0  0  0  0  0  0  0  0
  148.6117  139.3214  153.2011 H   0  0  0  0  0  0  0  0  0  0  0  0
  148.2697  138.2046  154.5029 H   0  0  0  0  0  0  0  0  0  0  0  0
  150.6162  144.1408  156.9296 H   0  0  0  0  0  0  0  0  0  0  0  0
  150.4569  146.1073  158.4736 H   0  0  0  0  0  0  0  0  0  0  0  0
  151.4573  146.0097  160.7479 H   0  0  0  0  0  0  0  0  0  0  0  0
  152.6416  143.9434  161.5274 H   0  0  0  0  0  0  0  0  0  0  0  0
  1  2  1  0  0  0  0
  1 23  1  0  0  0  0
  1 24  1  0  0  0  0
  1 25  1  0  0  0  0
  2  3  1  0  0  0  0
  2 26  1  0  0  0  0
  2 27  1  0  0  0  0
  3 22  1  0  0  0  0
  3  4  1  0  0  0  0
  4  5  2  0  0  0  0
  4  6  1  0  0  0  0
  6  7  1  0  0  0  0
  6 17  1  0  0  0  0
  7  8  1  0  0  0  0
  7 28  1  0  0  0  0
  7 29  1  0  0  0  0
  8  9  1  0  0  0  0
  8 10  1  0  0  0  0
  8 30  1  0  0  0  0
  9 31  1  0  0  0  0
 10 11  1  0  0  0  0
 10 32  1  0  0  0  0
 10 33  1  0  0  0  0
 11 16  1  0  0  0  0
 11 12  1  0  0  0  0
 12 13  1  0  0  0  0
 12 34  1  0  0  0  0
 12 35  1  0  0  0  0
 13 14  1  0  0  0  0
 13 36  1  0  0  0  0
 13 37  1  0  0  0  0
 14 15  1  0  0  0  0
 15 16  1  0  0  0  0
 15 38  1  0  0  0  0
 15 39  1  0  0  0  0
 16 40  1  0  0  0  0
 16 41  1  0  0  0  0
 17 22  2  0  0  0  0
 17 18  1  0  0  0  0
 18 19  2  0  0  0  0
 18 42  1  0  0  0  0
 19 20  1  0  0  0  0
 19 43  1  0  0  0  0
 20 21  2  0  0  0  0
 20 44  1  0  0  0  0
 21 22  1  0  0  0  0
 21 45  1  0  0  0  0
M  END
> <s_m_source_file>
AV-unprocessed.smi

> <i_m_source_file_index>
1272

> <i_lp_mmshare_version>
43012

> <i_f3d_flags>
0

> <s_epik_input>
W2NIXTFbY0hdW2NIXVtjSF1jKGMxMiluKFtDSDJdW0NIM10pYyg9TyluMltDSDJdW0NASF0oW09IXSlbQ0gyXU4zW0NIMl1bQ0gyXU9bQ0gyXVtDSDJdMw==

> <s_epik_cmdline>
J2VwaWtfcHl0aG9uJywgJy1waCcsICc3LjAnLCAnLXRuJywgJzgnLCAnLW1hJywgJzIwMCcsICctbWV0YWxfYmluZGluZycsICctaW1hZScsICc8aW5maWxlLm1hZT4nLCAnLW9tYWUnLCAnPG91dGZpbGUubWFlPic=

> <r_epik_Ionization_Penalty>
0.214359

> <r_epik_Ionization_Penalty_Charging>
2.31431e-09

> <r_epik_Ionization_Penalty_Neutral>
0.214359

> <r_epik_State_Penalty>
0.204533

> <r_epik_Charging_Adjusted_Penalty>
0.204533

> <i_epik_Tot_Q>
0

> <i_epik_Tot_abs_Q>
0

> <r_epik_Metal_State_Penalty>
0.204533

> <b_epik_Metal_Only>
0

> <s_lp_Force_Field>
OPLS_2005

> <r_lp_Energy>
61.4886

> <b_lp_Chiralities_Consistent>
1

> <s_lp_Variant>
AV-unprocessed.smi:1272-1

> <Gold.Version>
5.8.1

> <Gold.Id.Protein>
6NUR|6NUR_protein|mol2

> <Gold.PLP.Fitness>
48.1812

> <Gold.PLP.PLP>
-47.0178

> <Gold.PLP.part.hbond>
-2.0000

> <Gold.PLP.part.metal>
0.0000

> <Gold.PLP.part.buried>
-4.7938

> <Gold.PLP.part.nonpolar>
-40.8580

> <Gold.PLP.part.repulsive>
0.2460

> <Gold.PLP.ligand.clash>
0.2923

> <Gold.PLP.ligand.torsion>
0.8199

> <Gold.PLP.Chemscore.Hbond>
1.0000

> <Gold.PLP.Chemscore.CHOScore>
0.0000

> <Gold.PLP.Chemscore.Metal>
0.0000

> <Gold.Chemscore.Hbonds>
donor molecule, donor type, donor heavy atom, donor atom, acceptor molecule, acceptor atom, score
      P1  H  7997  8008       L1     5  0.96

> <Gold.PLP.Chemscore.Internal.Correction>
0.0955

> <Gold.Rescore>
     Score         DG    S(hbond)    S(metal)    S(lipo)     H(rot)  DE(clash)    DE(int)     intcor
     14.23     -17.02       0.64        0.00     127.18       2.14       0.37       2.41       ----

> <Gold.Chemscore.Fitness>
14.2320

> <Gold.Chemscore.DG>
-17.0191

> <Gold.Chemscore.ZeroCoef>
-5.4800

> <Gold.Chemscore.Hbond>
0.6388

> <Gold.Chemscore.Metal>
0.0000

> <Gold.Chemscore.Lipo>
127.1825

> <Gold.Chemscore.Internal_Hbond>
0.0000

> <Gold.Chemscore.DEClash>
0.3748

> <Gold.Chemscore.DEInternal>
2.4123

> <Gold.Chemscore.Rot>
2.1386

> <Gold.Chemscore.Internal.Correction>
   9.000000E+99

> <Gold.Chemscore.Hbonds>
donor molecule, donor type, donor heavy atom, donor atom, acceptor molecule, acceptor atom, score
      P1  H  7997  8008       L1     5  0.45

> <Gold.Chemscore.Hbond.Weighted>
-2.1336

> <Gold.Chemscore.Metal.Weighted>
-0.0000

> <Gold.Chemscore.Lipo.Weighted>
-14.8804

> <Gold.Chemscore.Internal_Hbond.Weighted>
0.0000

> <Gold.Chemscore.DEClash.Weighted>
0.3748

> <Gold.Chemscore.DEInternal.Weighted>
2.4123

> <Gold.Chemscore.Rot.Weighted>
5.4749

> <Gold.Chemscore.Internal.Correction.Weighted>
   9.000000E+99

> <Gold.Protein.RotatedTorsions>
[ 6907 6896 6895 6894 ] final  154.54 input  -60.11 | X-H torsion
[ 7974 7965 7964 7962 ] final   16.63 input  175.53 | X-H torsion
[ 8008 7997 7996 7995 ] final  -81.06 input   59.86 | X-H torsion
[ 10167 10162 10161 10158 ] final -129.75 input  -65.29 | X-H torsion
[ 10718 10713 10712 10709 ] final -132.36 input   66.30 | X-H torsion
[ 10763 10752 10751 10750 ] final -129.00 input  -60.55 | X-H torsion
[ 11005 11000 10999 10996 ] final   43.72 input  -57.11 | X-H torsion

> <Gold.Protein.ActiveResidues>
 VAL166  LYS551  ARG553  GLY616  TRP617  ASP618  TYR619  PRO620  LYS621  CYS622 
 ASP623  PHE694  ASN695  SER759  ASP760  ASP761  ALA762  ILE779  LEU786  VAL792 
 PHE793  MET794  SER795  GLU796  ALA797  LYS798  CYS799  TRP800  GLU811  SER814 

> <Gold.Protein.RotatedAtoms>
  152.0570  133.4045  159.4401 H   0  0  0  0  0  0  0  0  0  0  0  0  # atno 6907 bound_to 6896
  150.6867  134.3243  159.4809 H   0  0  0  0  0  0  0  0  0  0  0  0  # atno 6908 bound_to 6896
  152.1060  134.9308  160.0619 H   0  0  0  0  0  0  0  0  0  0  0  0  # atno 6909 bound_to 6896
  146.2244  139.8720  142.8586 H   0  0  0  0  0  0  0  0  0  0  0  0  # atno 7974 bound_to 7965
  154.5945  140.0653  156.9285 H   0  0  0  0  0  0  0  0  0  0  0  0  # atno 8008 bound_to 7997
  155.2237  140.3332  155.4294 H   0  0  0  0  0  0  0  0  0  0  0  0  # atno 8009 bound_to 7997
  156.2278  140.1827  156.7303 H   0  0  0  0  0  0  0  0  0  0  0  0  # atno 8010 bound_to 7997
  139.9365  143.6211  152.2515 H   0  0  0  0  0  0  0  0  0  0  0  0  # atno 10167 bound_to 10162
  156.2338  130.7054  151.0886 H   0  0  0  0  0  0  0  0  0  0  0  0  # atno 10718 bound_to 10713
  154.8757  135.3910  154.3849 H   0  0  0  0  0  0  0  0  0  0  0  0  # atno 10763 bound_to 10752
  153.4591  135.7029  153.6066 H   0  0  0  0  0  0  0  0  0  0  0  0  # atno 10764 bound_to 10752
  153.4572  135.3820  155.2286 H   0  0  0  0  0  0  0  0  0  0  0  0  # atno 10765 bound_to 10752
  140.1619  134.4331  155.8312 H   0  0  0  0  0  0  0  0  0  0  0  0  # atno 11005 bound_to 11000
  145.2598  141.0073  143.3833 LP  0  0  0  0  0  0  0  0  0  0  0  0  # atno 17320 bound_to 7965
  144.9307  139.4302  143.6496 LP  0  0  0  0  0  0  0  0  0  0  0  0  # atno 17321 bound_to 7965
  139.6739  144.7659  151.1732 LP  0  0  0  0  0  0  0  0  0  0  0  0  # atno 17342 bound_to 10162
  140.7623  143.5824  150.8881 LP  0  0  0  0  0  0  0  0  0  0  0  0  # atno 17343 bound_to 10162
  157.7145  131.0717  150.6378 LP  0  0  0  0  0  0  0  0  0  0  0  0  # atno 17370 bound_to 10713
  156.6448  130.4468  149.5740 LP  0  0  0  0  0  0  0  0  0  0  0  0  # atno 17371 bound_to 10713
  141.2210  133.6917  156.7609 LP  0  0  0  0  0  0  0  0  0  0  0  0  # atno 17394 bound_to 11000
  140.2480  134.8563  157.3639 LP  0  0  0  0  0  0  0  0  0  0  0  0  # atno 17395 bound_to 11000

$$$$
