AV-unprocessed.smi:692|AV-procd|sdf|3370|dock3
  -GOLD-   22720 0343D 1   1.00000     0.00000
 Structure written by MMmdl.
 36 37  0  0  0  0  0  0  0  0  2 V2000
  151.0681  144.5023  159.6936 C   0  0  0  0  0  0  0  0  0  0  0  0
  151.8931  143.8603  160.8144 C   0  0  0  0  0  0  0  0  0  0  0  0
  152.4469  142.5250  160.4204 C   0  0  0  0  0  0  0  0  0  0  0  0
  153.2178  141.6932  161.1902 C   0  0  0  0  0  0  0  0  0  0  0  0
  153.6381  140.2347  160.3385 S   0  0  0  0  0  0  0  0  0  0  0  0
  152.7424  140.8119  158.9314 C   0  0  0  0  0  0  0  0  0  0  0  0
  152.6076  140.1409  157.7761 N   0  5  0  0  0  0  0  0  0  0  0  0
  151.3742  139.8613  157.2967 C   0  0  0  0  0  0  0  0  0  0  0  0
  150.9688  138.7589  156.9211 O   0  0  0  0  0  0  0  0  0  0  0  0
  150.5590  140.9249  157.2534 N   0  0  0  0  0  0  0  0  0  0  0  0
  149.1749  140.9272  156.7878 C   0  0  2  0  0  0  0  0  0  0  0  0
  149.0360  141.8569  155.5813 C   0  0  0  0  0  0  0  0  0  0  0  0
  147.5966  141.8378  155.0538 C   0  0  0  0  0  0  0  0  0  0  0  0
  146.5349  141.9937  156.1532 C   0  0  0  0  0  0  0  0  0  0  0  0
  145.4003  142.3371  155.8190 O   0  0  0  0  0  0  0  0  0  0  0  0
  146.8638  141.7216  157.4394 N   0  0  0  0  0  0  0  0  0  0  0  0
  145.8581  141.8292  158.4977 C   0  0  0  0  0  0  0  0  0  0  0  0
  148.2171  141.3827  157.9060 C   0  0  0  0  0  0  0  0  0  0  0  0
  152.1839  142.0075  159.1493 N   0  0  0  0  0  0  0  0  0  0  0  0
  150.6748  145.4699  160.0057 H   0  0  0  0  0  0  0  0  0  0  0  0
  150.2229  143.8713  159.4174 H   0  0  0  0  0  0  0  0  0  0  0  0
  151.6736  144.6612  158.8006 H   0  0  0  0  0  0  0  0  0  0  0  0
  152.7052  144.5325  161.0935 H   0  0  0  0  0  0  0  0  0  0  0  0
  151.2708  143.7587  161.7039 H   0  0  0  0  0  0  0  0  0  0  0  0
  153.5613  141.8468  162.2018 H   0  0  0  0  0  0  0  0  0  0  0  0
  150.9347  141.8065  157.5703 H   0  0  0  0  0  0  0  0  0  0  0  0
  148.9040  139.9177  156.4711 H   0  0  0  0  0  0  0  0  0  0  0  0
  149.3157  142.8750  155.8565 H   0  0  0  0  0  0  0  0  0  0  0  0
  149.7193  141.5503  154.7883 H   0  0  0  0  0  0  0  0  0  0  0  0
  147.4651  142.6225  154.3079 H   0  0  0  0  0  0  0  0  0  0  0  0
  147.4080  140.8914  154.5458 H   0  0  0  0  0  0  0  0  0  0  0  0
  145.0673  141.0927  158.3486 H   0  0  0  0  0  0  0  0  0  0  0  0
  145.4047  142.8217  158.5025 H   0  0  0  0  0  0  0  0  0  0  0  0
  146.2833  141.6626  159.4884 H   0  0  0  0  0  0  0  0  0  0  0  0
  148.1596  140.6040  158.6682 H   0  0  0  0  0  0  0  0  0  0  0  0
  148.6225  142.2684  158.3978 H   0  0  0  0  0  0  0  0  0  0  0  0
  1  2  1  0  0  0  0
  1 20  1  0  0  0  0
  1 21  1  0  0  0  0
  1 22  1  0  0  0  0
  2  3  1  0  0  0  0
  2 23  1  0  0  0  0
  2 24  1  0  0  0  0
  3 19  1  0  0  0  0
  3  4  2  0  0  0  0
  4  5  1  0  0  0  0
  4 25  1  0  0  0  0
  5  6  1  0  0  0  0
  6  7  1  0  0  0  0
  6 19  2  0  0  0  0
  7  8  1  0  0  0  0
  8  9  2  0  0  0  0
  8 10  1  0  0  0  0
 10 11  1  0  0  0  0
 10 26  1  0  0  0  0
 11 18  1  0  0  0  0
 11 12  1  0  0  0  0
 11 27  1  0  0  0  0
 12 13  1  0  0  0  0
 12 28  1  0  0  0  0
 12 29  1  0  0  0  0
 13 14  1  0  0  0  0
 13 30  1  0  0  0  0
 13 31  1  0  0  0  0
 14 15  2  0  0  0  0
 14 16  1  0  0  0  0
 16 17  1  0  0  0  0
 16 18  1  0  0  0  0
 17 32  1  0  0  0  0
 17 33  1  0  0  0  0
 17 34  1  0  0  0  0
 18 35  1  0  0  0  0
 18 36  1  0  0  0  0
M  CHG  1   7  -1
M  END
> <s_m_source_file>
AV-unprocessed.smi

> <i_m_source_file_index>
692

> <i_lp_mmshare_version>
43012

> <i_f3d_flags>
0

> <s_epik_input>
W0NIM11bQ0gyXWMxW2NIXXNjKG4xKVtOSF1DKD1PKVtOSF1bQ0BASF0yW0NIMl1bQ0gyXUMoPU8pTihbQ0gzXSlbQ0gyXTI=

> <s_epik_cmdline>
J2VwaWtfcHl0aG9uJywgJy1waCcsICc3LjAnLCAnLXRuJywgJzgnLCAnLW1hJywgJzIwMCcsICctbWV0YWxfYmluZGluZycsICctaW1hZScsICc8aW5maWxlLm1hZT4nLCAnLW9tYWUnLCAnPG91dGZpbGUubWFlPic=

> <r_lp_tautomer_probability>
1

> <r_epik_Ionization_Penalty>
7.06728

> <r_epik_Ionization_Penalty_Charging>
5.78908

> <r_epik_Ionization_Penalty_Neutral>
1.2782

> <r_epik_State_Penalty>
5.78905

> <r_epik_Charging_Adjusted_Penalty>
11.5781

> <i_epik_Tot_Q>
-1

> <i_epik_Tot_abs_Q>
1

> <r_epik_Metal_State_Penalty>
1.76044

> <b_epik_Metal_Only>
1

> <s_lp_Force_Field>
OPLS_2005

> <r_lp_Energy>
4.23382

> <b_lp_Chiralities_Consistent>
1

> <s_lp_Variant>
AV-unprocessed.smi:692-3

> <Gold.Version>
5.8.1

> <Gold.Id.Protein>
6NUR|6NUR_protein|mol2

> <Gold.PLP.Fitness>
41.0561

> <Gold.PLP.PLP>
-37.0069

> <Gold.PLP.part.hbond>
-1.0000

> <Gold.PLP.part.metal>
0.0000

> <Gold.PLP.part.buried>
-5.0314

> <Gold.PLP.part.nonpolar>
-31.3648

> <Gold.PLP.part.repulsive>
0.2432

> <Gold.PLP.ligand.clash>
0.0000

> <Gold.PLP.ligand.torsion>
0.9596

> <Gold.PLP.Chemscore.Hbond>
1.9840

> <Gold.PLP.Chemscore.CHOScore>
0.0000

> <Gold.PLP.Chemscore.Metal>
0.0000

> <Gold.Chemscore.Hbonds>
donor molecule, donor type, donor heavy atom, donor atom, acceptor molecule, acceptor atom, score
      P1  H  7997  8010       L1     7  1.51

> <Gold.PLP.Chemscore.Internal.Correction>
0.0165

> <Gold.Rescore>
     Score         DG    S(hbond)    S(metal)    S(lipo)     H(rot)  DE(clash)    DE(int)     intcor
     12.17     -14.80       0.84        0.00      82.50       1.23       0.10       2.54       ----

> <Gold.Chemscore.Fitness>
12.1678

> <Gold.Chemscore.DG>
-14.8044

> <Gold.Chemscore.ZeroCoef>
-5.4800

> <Gold.Chemscore.Hbond>
0.8408

> <Gold.Chemscore.Metal>
0.0000

> <Gold.Chemscore.Lipo>
82.4996

> <Gold.Chemscore.Internal_Hbond>
0.0000

> <Gold.Chemscore.DEClash>
0.1006

> <Gold.Chemscore.DEInternal>
2.5361

> <Gold.Chemscore.Rot>
1.2251

> <Gold.Chemscore.Internal.Correction>
   9.000000E+99

> <Gold.Chemscore.Hbonds>
donor molecule, donor type, donor heavy atom, donor atom, acceptor molecule, acceptor atom, score
      P1  H  7997  8010       L1     7  0.32

> <Gold.Chemscore.Hbond.Weighted>
-2.8082

> <Gold.Chemscore.Metal.Weighted>
-0.0000

> <Gold.Chemscore.Lipo.Weighted>
-9.6525

> <Gold.Chemscore.Internal_Hbond.Weighted>
0.0000

> <Gold.Chemscore.DEClash.Weighted>
0.1006

> <Gold.Chemscore.DEInternal.Weighted>
2.5361

> <Gold.Chemscore.Rot.Weighted>
3.1362

> <Gold.Chemscore.Internal.Correction.Weighted>
   9.000000E+99

> <Gold.Protein.RotatedTorsions>
[ 6907 6896 6895 6894 ] final  -68.07 input  -60.11 | X-H torsion
[ 7974 7965 7964 7962 ] final   51.93 input  175.53 | X-H torsion
[ 8008 7997 7996 7995 ] final   35.92 input   59.86 | X-H torsion
[ 10167 10162 10161 10158 ] final  -98.49 input  -65.29 | X-H torsion
[ 10718 10713 10712 10709 ] final  -65.68 input   66.30 | X-H torsion
[ 10763 10752 10751 10750 ] final  132.56 input  -60.55 | X-H torsion
[ 11005 11000 10999 10996 ] final   59.48 input  -57.11 | X-H torsion

> <Gold.Protein.ActiveResidues>
 VAL166  LYS551  ARG553  GLY616  TRP617  ASP618  TYR619  PRO620  LYS621  CYS622 
 ASP623  PHE694  ASN695  SER759  ASP760  ASP761  ALA762  ILE779  LEU786  VAL792 
 PHE793  MET794  SER795  GLU796  ALA797  LYS798  CYS799  TRP800  GLU811  SER814 

> <Gold.Protein.RotatedAtoms>
  150.7376  134.5792  159.5929 H   0  0  0  0  0  0  0  0  0  0  0  0  # atno 6907 bound_to 6896
  152.3210  134.7377  160.0322 H   0  0  0  0  0  0  0  0  0  0  0  0  # atno 6908 bound_to 6896
  151.7893  133.3322  159.3531 H   0  0  0  0  0  0  0  0  0  0  0  0  # atno 6909 bound_to 6896
  145.9864  139.4294  143.0100 H   0  0  0  0  0  0  0  0  0  0  0  0  # atno 7974 bound_to 7965
  155.1789  140.3298  155.4378 H   0  0  0  0  0  0  0  0  0  0  0  0  # atno 8008 bound_to 7997
  156.2483  140.1930  156.6839 H   0  0  0  0  0  0  0  0  0  0  0  0  # atno 8009 bound_to 7997
  154.6285  140.0586  156.9689 H   0  0  0  0  0  0  0  0  0  0  0  0  # atno 8010 bound_to 7997
  140.2724  143.3335  152.0521 H   0  0  0  0  0  0  0  0  0  0  0  0  # atno 10167 bound_to 10162
  156.0655  130.4251  150.1599 H   0  0  0  0  0  0  0  0  0  0  0  0  # atno 10718 bound_to 10713
  153.7928  135.3153  155.3380 H   0  0  0  0  0  0  0  0  0  0  0  0  # atno 10763 bound_to 10752
  154.8119  135.4661  154.0542 H   0  0  0  0  0  0  0  0  0  0  0  0  # atno 10764 bound_to 10752
  153.1866  135.6902  153.8494 H   0  0  0  0  0  0  0  0  0  0  0  0  # atno 10765 bound_to 10752
  140.0301  134.6024  155.9518 H   0  0  0  0  0  0  0  0  0  0  0  0  # atno 11005 bound_to 11000
  145.7694  140.9902  143.1157 LP  0  0  0  0  0  0  0  0  0  0  0  0  # atno 17320 bound_to 7965
  144.6876  139.9429  143.7475 LP  0  0  0  0  0  0  0  0  0  0  0  0  # atno 17321 bound_to 7965
  139.4985  144.6647  151.6383 LP  0  0  0  0  0  0  0  0  0  0  0  0  # atno 17342 bound_to 10162
  140.5879  143.9832  150.6306 LP  0  0  0  0  0  0  0  0  0  0  0  0  # atno 17343 bound_to 10162
  156.9660  130.9820  151.3469 LP  0  0  0  0  0  0  0  0  0  0  0  0  # atno 17370 bound_to 10713
  157.5694  130.8300  149.8371 LP  0  0  0  0  0  0  0  0  0  0  0  0  # atno 17371 bound_to 10713
  141.1826  133.6549  156.5083 LP  0  0  0  0  0  0  0  0  0  0  0  0  # atno 17394 bound_to 11000
  140.4240  134.7162  157.4905 LP  0  0  0  0  0  0  0  0  0  0  0  0  # atno 17395 bound_to 11000

$$$$
