AV-unprocessed.smi:634|AV-procd|sdf|3138|dock10
  -GOLD-   22720 0 63D 1   1.00000     0.00000
 Structure written by MMmdl.
 32 33  0  0  0  0  0  0  0  0  2 V2000
  146.2178  131.2347  152.1384 C   0  0  0  0  0  0  0  0  0  0  0  0
  147.1344  132.0551  152.9793 C   0  0  0  0  0  0  0  0  0  0  0  0
  147.9153  133.1442  152.7131 C   0  0  0  0  0  0  0  0  0  0  0  0
  148.5286  133.4139  153.9656 C   0  0  0  0  0  0  0  0  0  0  0  0
  149.4396  134.4937  154.1072 N   0  0  0  0  0  0  0  0  0  0  0  0
  150.3806  134.6847  155.0492 C   0  0  0  0  0  0  0  0  0  0  0  0
  150.5184  133.8714  155.9689 O   0  0  0  0  0  0  0  0  0  0  0  0
  151.0935  135.8272  154.8388 N   0  5  0  0  0  0  0  0  0  0  0  0
  151.1851  137.0108  155.7135 C   0  0  2  0  0  0  0  0  0  0  0  0
  152.0926  136.6167  156.8976 C   0  0  0  0  0  0  0  0  0  0  0  0
  149.7942  137.4454  156.2514 C   0  0  0  0  0  0  0  0  0  0  0  0
  149.8938  138.8605  156.8431 C   0  0  0  0  0  0  0  0  0  0  0  0
  151.2082  139.7168  155.8909 S   0  0  0  0  0  0  0  0  0  0  0  0
  150.5940  140.6591  154.9426 O   0  0  0  0  0  0  0  0  0  0  0  0
  152.2564  140.1649  156.8217 O   0  0  0  0  0  0  0  0  0  0  0  0
  151.7853  138.2310  154.9770 C   0  0  0  0  0  0  0  0  0  0  0  0
  148.1523  132.5658  154.9117 N   0  0  0  0  0  0  0  0  0  0  0  0
  147.2570  131.6915  154.2847 O   0  0  0  0  0  0  0  0  0  0  0  0
  146.3682  131.4451  151.0795 H   0  0  0  0  0  0  0  0  0  0  0  0
  145.1769  131.4482  152.3817 H   0  0  0  0  0  0  0  0  0  0  0  0
  146.3925  130.1708  152.2987 H   0  0  0  0  0  0  0  0  0  0  0  0
  148.0308  133.6623  151.7726 H   0  0  0  0  0  0  0  0  0  0  0  0
  149.3853  135.2068  153.3955 H   0  0  0  0  0  0  0  0  0  0  0  0
  152.2353  137.4405  157.5968 H   0  0  0  0  0  0  0  0  0  0  0  0
  153.0824  136.3114  156.5554 H   0  0  0  0  0  0  0  0  0  0  0  0
  151.6712  135.7833  157.4614 H   0  0  0  0  0  0  0  0  0  0  0  0
  149.0685  137.4874  155.4397 H   0  0  0  0  0  0  0  0  0  0  0  0
  149.3964  136.7377  156.9796 H   0  0  0  0  0  0  0  0  0  0  0  0
  148.9572  139.4127  156.7661 H   0  0  0  0  0  0  0  0  0  0  0  0
  150.1922  138.8343  157.8918 H   0  0  0  0  0  0  0  0  0  0  0  0
  152.8744  138.2170  154.9346 H   0  0  0  0  0  0  0  0  0  0  0  0
  151.4137  138.3246  153.9573 H   0  0  0  0  0  0  0  0  0  0  0  0
  1  2  1  0  0  0  0
  1 19  1  0  0  0  0
  1 20  1  0  0  0  0
  1 21  1  0  0  0  0
  2 18  1  0  0  0  0
  2  3  2  0  0  0  0
  3  4  1  0  0  0  0
  3 22  1  0  0  0  0
  4  5  1  0  0  0  0
  4 17  2  0  0  0  0
  5  6  1  0  0  0  0
  5 23  1  0  0  0  0
  6  7  2  0  0  0  0
  6  8  1  0  0  0  0
  8  9  1  0  0  0  0
  9 16  1  0  0  0  0
  9 10  1  0  0  0  0
  9 11  1  0  0  0  0
 10 24  1  0  0  0  0
 10 25  1  0  0  0  0
 10 26  1  0  0  0  0
 11 12  1  0  0  0  0
 11 27  1  0  0  0  0
 11 28  1  0  0  0  0
 12 13  1  0  0  0  0
 12 29  1  0  0  0  0
 12 30  1  0  0  0  0
 13 14  2  0  0  0  0
 13 15  2  0  0  0  0
 13 16  1  0  0  0  0
 16 31  1  0  0  0  0
 16 32  1  0  0  0  0
 17 18  1  0  0  0  0
M  CHG  1   8  -1
M  END
> <s_m_source_file>
AV-unprocessed.smi

> <i_m_source_file_index>
634

> <i_lp_mmshare_version>
43012

> <i_f3d_flags>
0

> <s_epik_input>
W0NIM11jMVtjSF1jKG5vMSlbTkhdQyg9TylbTkhdW0NAQF0yKFtDSDNdKVtDSDJdW0NIMl1TKD1PKSg9TylbQ0gyXTI=

> <s_epik_cmdline>
J2VwaWtfcHl0aG9uJywgJy1waCcsICc3LjAnLCAnLXRuJywgJzgnLCAnLW1hJywgJzIwMCcsICctbWV0YWxfYmluZGluZycsICctaW1hZScsICc8aW5maWxlLm1hZT4nLCAnLW9tYWUnLCAnPG91dGZpbGUubWFlPic=

> <r_lp_tautomer_probability>
1

> <r_epik_Ionization_Penalty>
6.62388

> <r_epik_Ionization_Penalty_Charging>
6.62387

> <r_epik_Ionization_Penalty_Neutral>
5.45748e-06

> <r_epik_State_Penalty>
6.65157

> <r_epik_Charging_Adjusted_Penalty>
13.2754

> <i_epik_Tot_Q>
-1

> <i_epik_Tot_abs_Q>
1

> <r_epik_Metal_State_Penalty>
2.59195

> <b_epik_Metal_Only>
1

> <s_lp_Force_Field>
OPLS_2005

> <r_lp_Energy>
8.10378

> <b_lp_Chiralities_Consistent>
1

> <s_lp_Variant>
AV-unprocessed.smi:634-6

> <Gold.Version>
5.8.1

> <Gold.Id.Protein>
6NUR|6NUR_protein|mol2

> <Gold.PLP.Fitness>
35.7164

> <Gold.PLP.PLP>
-23.5384

> <Gold.PLP.part.hbond>
-4.0000

> <Gold.PLP.part.metal>
0.0000

> <Gold.PLP.part.buried>
-2.8125

> <Gold.PLP.part.nonpolar>
-17.1016

> <Gold.PLP.part.repulsive>
0.3412

> <Gold.PLP.ligand.clash>
0.0000

> <Gold.PLP.ligand.torsion>
0.9535

> <Gold.PLP.Chemscore.Hbond>
4.6940

> <Gold.PLP.Chemscore.CHOScore>
0.0000

> <Gold.PLP.Chemscore.Metal>
0.0000

> <Gold.Chemscore.Hbonds>
donor molecule, donor type, donor heavy atom, donor atom, acceptor molecule, acceptor atom, score
      L1  H     5    23       P1  7948  0.75
      P1  H  7989  7998       L1    14  0.93
      P1  H  7997  8009       L1    15  0.80
      P1  H 10752 10764       L1     8  2.00

> <Gold.PLP.Chemscore.Internal.Correction>
0.0031

> <Gold.Rescore>
     Score         DG    S(hbond)    S(metal)    S(lipo)     H(rot)  DE(clash)    DE(int)     intcor
     13.34     -15.68       2.38        0.00      41.04       1.00       0.07       2.26       ----

> <Gold.Chemscore.Fitness>
13.3427

> <Gold.Chemscore.DG>
-15.6768

> <Gold.Chemscore.ZeroCoef>
-5.4800

> <Gold.Chemscore.Hbond>
2.3817

> <Gold.Chemscore.Metal>
0.0000

> <Gold.Chemscore.Lipo>
41.0428

> <Gold.Chemscore.Internal_Hbond>
0.0000

> <Gold.Chemscore.DEClash>
0.0722

> <Gold.Chemscore.DEInternal>
2.2620

> <Gold.Chemscore.Rot>
1.0000

> <Gold.Chemscore.Internal.Correction>
   9.000000E+99

> <Gold.Chemscore.Hbonds>
donor molecule, donor type, donor heavy atom, donor atom, acceptor molecule, acceptor atom, score
      L1  H     5    23       P1  7948  0.09
      P1  H  7989  7998       L1    14  0.70
      P1  H  7997  8009       L1    15  0.76
      P1  H 10752 10764       L1     8  0.28

> <Gold.Chemscore.Hbond.Weighted>
-7.9548

> <Gold.Chemscore.Metal.Weighted>
-0.0000

> <Gold.Chemscore.Lipo.Weighted>
-4.8020

> <Gold.Chemscore.Internal_Hbond.Weighted>
0.0000

> <Gold.Chemscore.DEClash.Weighted>
0.0722

> <Gold.Chemscore.DEInternal.Weighted>
2.2620

> <Gold.Chemscore.Rot.Weighted>
2.5600

> <Gold.Chemscore.Internal.Correction.Weighted>
   9.000000E+99

> <Gold.Protein.RotatedTorsions>
[ 6907 6896 6895 6894 ] final  124.37 input  -60.11 | X-H torsion
[ 7974 7965 7964 7962 ] final   43.54 input  175.53 | X-H torsion
[ 8008 7997 7996 7995 ] final -167.54 input   59.86 | X-H torsion
[ 10167 10162 10161 10158 ] final  -35.31 input  -65.29 | X-H torsion
[ 10718 10713 10712 10709 ] final  -99.54 input   66.30 | X-H torsion
[ 10763 10752 10751 10750 ] final  -75.02 input  -60.55 | X-H torsion
[ 11005 11000 10999 10996 ] final  -14.33 input  -57.11 | X-H torsion

> <Gold.Protein.ActiveResidues>
 VAL166  LYS551  ARG553  GLY616  TRP617  ASP618  TYR619  PRO620  LYS621  CYS622 
 ASP623  PHE694  ASN695  SER759  ASP760  ASP761  ALA762  ILE779  LEU786  VAL792 
 PHE793  MET794  SER795  GLU796  ALA797  LYS798  CYS799  TRP800  GLU811  SER814 

> <Gold.Protein.RotatedAtoms>
  152.4084  133.6924  159.6375 H   0  0  0  0  0  0  0  0  0  0  0  0  # atno 6907 bound_to 6896
  150.7966  133.8668  159.3256 H   0  0  0  0  0  0  0  0  0  0  0  0  # atno 6908 bound_to 6896
  151.6417  135.1014  160.0194 H   0  0  0  0  0  0  0  0  0  0  0  0  # atno 6909 bound_to 6896
  146.0646  139.5175  142.9636 H   0  0  0  0  0  0  0  0  0  0  0  0  # atno 7974 bound_to 7965
  155.8791  140.1006  157.1497 H   0  0  0  0  0  0  0  0  0  0  0  0  # atno 8008 bound_to 7997
  154.4003  140.1332  156.4237 H   0  0  0  0  0  0  0  0  0  0  0  0  # atno 8009 bound_to 7997
  155.7663  140.3462  155.5226 H   0  0  0  0  0  0  0  0  0  0  0  0  # atno 8010 bound_to 7997
  140.7168  143.3486  151.2203 H   0  0  0  0  0  0  0  0  0  0  0  0  # atno 10167 bound_to 10162
  156.0137  130.5287  150.6686 H   0  0  0  0  0  0  0  0  0  0  0  0  # atno 10718 bound_to 10713
  154.4809  135.5845  153.6389 H   0  0  0  0  0  0  0  0  0  0  0  0  # atno 10763 bound_to 10752
  152.9847  135.6089  154.3247 H   0  0  0  0  0  0  0  0  0  0  0  0  # atno 10764 bound_to 10752
  154.3138  135.2844  155.2532 H   0  0  0  0  0  0  0  0  0  0  0  0  # atno 10765 bound_to 10752
  140.7853  133.8330  155.9330 H   0  0  0  0  0  0  0  0  0  0  0  0  # atno 11005 bound_to 11000
  145.6499  141.0265  143.1766 LP  0  0  0  0  0  0  0  0  0  0  0  0  # atno 17320 bound_to 7965
  144.7195  139.8079  143.7387 LP  0  0  0  0  0  0  0  0  0  0  0  0  # atno 17321 bound_to 7965
  139.7012  143.9530  152.2906 LP  0  0  0  0  0  0  0  0  0  0  0  0  # atno 17342 bound_to 10162
  139.9224  144.6791  150.8447 LP  0  0  0  0  0  0  0  0  0  0  0  0  # atno 17343 bound_to 10162
  157.4413  131.0861  151.0940 LP  0  0  0  0  0  0  0  0  0  0  0  0  # atno 17370 bound_to 10713
  157.1483  130.6173  149.5575 LP  0  0  0  0  0  0  0  0  0  0  0  0  # atno 17371 bound_to 10713
  140.9442  134.1862  157.4775 LP  0  0  0  0  0  0  0  0  0  0  0  0  # atno 17394 bound_to 11000
  139.8737  134.9884  156.5410 LP  0  0  0  0  0  0  0  0  0  0  0  0  # atno 17395 bound_to 11000

$$$$
