AV-unprocessed.smi:626|AV-procd|sdf|3111|dock7
  -GOLD-   22720 0 33D 1   1.00000     0.00000
 Structure written by MMmdl.
 34 36  0  0  0  0  0  0  0  0  1 V2000
  146.1584  142.6941  157.2116 C   0  0  0  0  0  0  0  0  0  0  0  0
  146.2973  143.5497  158.3800 N   0  0  0  0  0  0  0  0  0  0  0  0
  145.9938  143.1737  159.6312 C   0  0  0  0  0  0  0  0  0  0  0  0
  145.5584  142.0573  159.9141 O   0  0  0  0  0  0  0  0  0  0  0  0
  146.2125  144.2139  160.7324 C   0  0  0  0  0  0  0  0  0  0  0  0
  147.6038  144.7588  160.6786 C   0  0  0  0  0  0  0  0  0  0  0  0
  147.8611  146.0283  160.9704 N   0  0  0  0  0  0  0  0  0  0  0  0
  149.2524  146.1182  160.8223 O   0  0  0  0  0  0  0  0  0  0  0  0
  149.6676  144.8915  160.4223 C   0  0  0  0  0  0  0  0  0  0  0  0
  151.1430  144.6538  160.2812 C   0  0  2  0  0  0  0  0  0  0  0  0
  151.8471  145.4921  159.1900 C   0  0  0  0  0  0  0  0  0  0  0  0
  152.6132  144.4221  158.3880 C   0  0  2  0  0  0  0  0  0  0  0  0
  151.6136  143.5988  157.5528 C   0  0  0  0  0  0  0  0  0  0  0  0
  150.9167  142.7274  158.6151 C   0  0  0  0  0  0  0  0  0  0  0  0
  151.5679  143.2086  159.9278 C   0  0  1  0  0  0  0  0  0  0  0  0
  153.0083  143.4272  159.4740 C   0  0  0  0  0  0  0  0  0  0  0  0
  148.6841  143.9942  160.3600 N   0  0  0  0  0  0  0  0  0  0  0  0
  146.3796  143.2613  156.3073 H   0  0  0  0  0  0  0  0  0  0  0  0
  145.1427  142.3047  157.1290 H   0  0  0  0  0  0  0  0  0  0  0  0
  146.8509  141.8532  157.2652 H   0  0  0  0  0  0  0  0  0  0  0  0
  146.6511  144.4836  158.2297 H   0  0  0  0  0  0  0  0  0  0  0  0
  145.4946  145.0306  160.6402 H   0  0  0  0  0  0  0  0  0  0  0  0
  146.0386  143.7493  161.7037 H   0  0  0  0  0  0  0  0  0  0  0  0
  151.5951  144.9106  161.2409 H   0  0  0  0  0  0  0  0  0  0  0  0
  151.1613  146.0528  158.5540 H   0  0  0  0  0  0  0  0  0  0  0  0
  152.5322  146.2101  159.6427 H   0  0  0  0  0  0  0  0  0  0  0  0
  153.4425  144.8239  157.8051 H   0  0  0  0  0  0  0  0  0  0  0  0
  150.9109  144.2315  157.0092 H   0  0  0  0  0  0  0  0  0  0  0  0
  152.1332  142.9738  156.8254 H   0  0  0  0  0  0  0  0  0  0  0  0
  149.8323  142.8284  158.6034 H   0  0  0  0  0  0  0  0  0  0  0  0
  151.1425  141.6739  158.4445 H   0  0  0  0  0  0  0  0  0  0  0  0
  151.4471  142.5055  160.7526 H   0  0  0  0  0  0  0  0  0  0  0  0
  153.4828  142.5251  159.0833 H   0  0  0  0  0  0  0  0  0  0  0  0
  153.6469  143.8605  160.2458 H   0  0  0  0  0  0  0  0  0  0  0  0
  1  2  1  0  0  0  0
  1 18  1  0  0  0  0
  1 19  1  0  0  0  0
  1 20  1  0  0  0  0
  2  3  1  0  0  0  0
  2 21  1  0  0  0  0
  3  4  2  0  0  0  0
  3  5  1  0  0  0  0
  5  6  1  0  0  0  0
  5 22  1  0  0  0  0
  5 23  1  0  0  0  0
  6 17  1  0  0  0  0
  6  7  2  0  0  0  0
  7  8  1  0  0  0  0
  8  9  1  0  0  0  0
  9 10  1  0  0  0  0
  9 17  2  0  0  0  0
 10 15  1  0  0  0  0
 10 11  1  0  0  0  0
 10 24  1  0  0  0  0
 11 12  1  0  0  0  0
 11 25  1  0  0  0  0
 11 26  1  0  0  0  0
 12 16  1  0  0  0  0
 12 13  1  0  0  0  0
 12 27  1  0  0  0  0
 13 14  1  0  0  0  0
 13 28  1  0  0  0  0
 13 29  1  0  0  0  0
 14 15  1  0  0  0  0
 14 30  1  0  0  0  0
 14 31  1  0  0  0  0
 15 16  1  0  0  0  0
 15 32  1  0  0  0  0
 16 33  1  0  0  0  0
 16 34  1  0  0  0  0
M  END
> <s_m_source_file>
AV-unprocessed.smi

> <i_m_source_file_index>
626

> <i_lp_mmshare_version>
43012

> <i_f3d_flags>
0

> <s_epik_input>
W0NIM11bTkhdQyg9TylbQ0gyXWMxbm9jKG4xKVtDQEhdKFtDSDJdW0NAQEhdMjMpW0NAQEhdKFtDSDJdMylbQ0gyXVtDSDJdMg==

> <s_epik_cmdline>
J2VwaWtfcHl0aG9uJywgJy1waCcsICc3LjAnLCAnLXRuJywgJzgnLCAnLW1hJywgJzIwMCcsICctbWV0YWxfYmluZGluZycsICctaW1hZScsICc8aW5maWxlLm1hZT4nLCAnLW9tYWUnLCAnPG91dGZpbGUubWFlPic=

> <r_lp_tautomer_probability>
1

> <r_epik_Ionization_Penalty>
1.02916e-07

> <r_epik_Ionization_Penalty_Charging>
0

> <r_epik_Ionization_Penalty_Neutral>
1.02916e-07

> <r_epik_State_Penalty>
-0

> <r_epik_Charging_Adjusted_Penalty>
0

> <i_epik_Tot_Q>
0

> <i_epik_Tot_abs_Q>
0

> <r_epik_Metal_State_Penalty>
-0

> <b_epik_Metal_Only>
0

> <s_lp_Force_Field>
OPLS_2005

> <r_lp_Energy>
49.4755

> <b_lp_Chiralities_Consistent>
1

> <s_lp_Variant>
AV-unprocessed.smi:626-3

> <Gold.Version>
5.8.1

> <Gold.Id.Protein>
6NUR|6NUR_protein|mol2

> <Gold.PLP.Fitness>
45.0595

> <Gold.PLP.PLP>
-37.5097

> <Gold.PLP.part.hbond>
-5.3901

> <Gold.PLP.part.metal>
0.0000

> <Gold.PLP.part.buried>
-5.4528

> <Gold.PLP.part.nonpolar>
-29.9000

> <Gold.PLP.part.repulsive>
2.9436

> <Gold.PLP.ligand.clash>
0.0000

> <Gold.PLP.ligand.torsion>
0.4304

> <Gold.PLP.Chemscore.Hbond>
2.7760

> <Gold.PLP.Chemscore.CHOScore>
0.0000

> <Gold.PLP.Chemscore.Metal>
0.0000

> <Gold.Chemscore.Hbonds>
donor molecule, donor type, donor heavy atom, donor atom, acceptor molecule, acceptor atom, score
      L1  H     2    21       P1  8029  0.80
      P1  H  6933  6944       L1    17  0.80
      P1  H  6934  6946       L1     4  1.00

> <Gold.PLP.Chemscore.Internal.Correction>
0.0826

> <Gold.Rescore>
     Score         DG    S(hbond)    S(metal)    S(lipo)     H(rot)  DE(clash)    DE(int)     intcor
     14.53     -17.90       1.82        0.00      89.41       1.61       3.02       0.35       ----

> <Gold.Chemscore.Fitness>
14.5303

> <Gold.Chemscore.DG>
-17.9048

> <Gold.Chemscore.ZeroCoef>
-5.4800

> <Gold.Chemscore.Hbond>
1.8236

> <Gold.Chemscore.Metal>
0.0000

> <Gold.Chemscore.Lipo>
89.4055

> <Gold.Chemscore.Internal_Hbond>
0.0000

> <Gold.Chemscore.DEClash>
3.0250

> <Gold.Chemscore.DEInternal>
0.3495

> <Gold.Chemscore.Rot>
1.6119

> <Gold.Chemscore.Internal.Correction>
   9.000000E+99

> <Gold.Chemscore.Hbonds>
donor molecule, donor type, donor heavy atom, donor atom, acceptor molecule, acceptor atom, score
      L1  H     2    21       P1  8029  0.57
      P1  H  6933  6944       L1    17  0.43
      P1  H  6934  6946       L1     4  0.87

> <Gold.Chemscore.Hbond.Weighted>
-6.0909

> <Gold.Chemscore.Metal.Weighted>
-0.0000

> <Gold.Chemscore.Lipo.Weighted>
-10.4604

> <Gold.Chemscore.Internal_Hbond.Weighted>
0.0000

> <Gold.Chemscore.DEClash.Weighted>
3.0250

> <Gold.Chemscore.DEInternal.Weighted>
0.3495

> <Gold.Chemscore.Rot.Weighted>
4.1266

> <Gold.Chemscore.Internal.Correction.Weighted>
   9.000000E+99

> <Gold.Protein.RotatedTorsions>
[ 6907 6896 6895 6894 ] final  141.01 input  -60.11 | X-H torsion
[ 7974 7965 7964 7962 ] final  -69.11 input  175.53 | X-H torsion
[ 8008 7997 7996 7995 ] final  -36.75 input   59.86 | X-H torsion
[ 10167 10162 10161 10158 ] final    7.72 input  -65.29 | X-H torsion
[ 10718 10713 10712 10709 ] final  120.17 input   66.30 | X-H torsion
[ 10763 10752 10751 10750 ] final  174.43 input  -60.55 | X-H torsion
[ 11005 11000 10999 10996 ] final   -8.70 input  -57.11 | X-H torsion

> <Gold.Protein.ActiveResidues>
 VAL166  LYS551  ARG553  GLY616  TRP617  ASP618  TYR619  PRO620  LYS621  CYS622 
 ASP623  PHE694  ASN695  SER759  ASP760  ASP761  ALA762  ILE779  LEU786  VAL792 
 PHE793  MET794  SER795  GLU796  ALA797  LYS798  CYS799  TRP800  GLU811  SER814 

> <Gold.Protein.RotatedAtoms>
  152.2362  133.5098  159.5243 H   0  0  0  0  0  0  0  0  0  0  0  0  # atno 6907 bound_to 6896
  150.7051  134.1150  159.4023 H   0  0  0  0  0  0  0  0  0  0  0  0  # atno 6908 bound_to 6896
  151.9071  135.0354  160.0562 H   0  0  0  0  0  0  0  0  0  0  0  0  # atno 6909 bound_to 6896
  145.7079  140.9090  143.0696 H   0  0  0  0  0  0  0  0  0  0  0  0  # atno 7974 bound_to 7965
  154.4067  140.1622  156.2425 H   0  0  0  0  0  0  0  0  0  0  0  0  # atno 8008 bound_to 7997
  155.9189  140.3422  155.6134 H   0  0  0  0  0  0  0  0  0  0  0  0  # atno 8009 bound_to 7997
  155.7246  140.0773  157.2306 H   0  0  0  0  0  0  0  0  0  0  0  0  # atno 8010 bound_to 7997
  140.6355  143.7895  150.7354 H   0  0  0  0  0  0  0  0  0  0  0  0  # atno 10167 bound_to 10162
  157.5909  131.1064  150.7999 H   0  0  0  0  0  0  0  0  0  0  0  0  # atno 10718 bound_to 10713
  154.4538  135.2765  155.1762 H   0  0  0  0  0  0  0  0  0  0  0  0  # atno 10763 bound_to 10752
  154.3578  135.6136  153.5679 H   0  0  0  0  0  0  0  0  0  0  0  0  # atno 10764 bound_to 10752
  152.9849  135.5827  154.4888 H   0  0  0  0  0  0  0  0  0  0  0  0  # atno 10765 bound_to 10752
  140.7262  133.8787  155.8858 H   0  0  0  0  0  0  0  0  0  0  0  0  # atno 11005 bound_to 11000
  144.6950  139.9036  143.7460 LP  0  0  0  0  0  0  0  0  0  0  0  0  # atno 17320 bound_to 7965
  146.0739  139.3727  143.0506 LP  0  0  0  0  0  0  0  0  0  0  0  0  # atno 17321 bound_to 7965
  140.1515  143.4353  152.2128 LP  0  0  0  0  0  0  0  0  0  0  0  0  # atno 17342 bound_to 10162
  139.5566  144.7377  151.4276 LP  0  0  0  0  0  0  0  0  0  0  0  0  # atno 17343 bound_to 10162
  156.8421  130.5051  149.5320 LP  0  0  0  0  0  0  0  0  0  0  0  0  # atno 17370 bound_to 10713
  156.0964  130.5936  150.9821 LP  0  0  0  0  0  0  0  0  0  0  0  0  # atno 17371 bound_to 10713
  140.9960  134.1214  157.4363 LP  0  0  0  0  0  0  0  0  0  0  0  0  # atno 17394 bound_to 11000
  139.8836  135.0054  156.6315 LP  0  0  0  0  0  0  0  0  0  0  0  0  # atno 17395 bound_to 11000

$$$$
