AV-unprocessed.smi:2692|AV-procd|sdf|10394|dock4
  -GOLD-   2272014433D 1   1.00000     0.00000
 Structure written by MMmdl.
 21 21  0  0  0  0  0  0  0  0  4 V2000
  146.0080  140.6502  154.3307 N   0  3  0  0  0  0  0  0  0  0  0  0
  147.0134  141.5604  153.7565 C   0  0  0  0  0  0  0  0  0  0  0  0
  148.2054  141.7491  154.7061 C   0  0  0  0  0  0  0  0  0  0  0  0
  149.1994  140.6074  154.6130 C   0  0  0  0  0  0  0  0  0  0  0  0
  148.9315  139.4791  153.8066 C   0  0  0  0  0  0  0  0  0  0  0  0
  149.8312  138.4732  153.7329 N   0  3  0  0  0  0  0  0  0  0  0  0
  151.0031  138.4881  154.4043 C   0  0  0  0  0  0  0  0  0  0  0  0
  151.3250  139.5879  155.2245 C   0  0  0  0  0  0  0  0  0  0  0  0
  152.5053  139.6176  155.9056 O   0  5  0  0  0  0  0  0  0  0  0  0
  150.4133  140.6577  155.3330 C   0  0  0  0  0  0  0  0  0  0  0  0
  145.2496  140.5291  153.6744 H   0  0  0  0  0  0  0  0  0  0  0  0
  145.6479  141.0427  155.1890 H   0  0  0  0  0  0  0  0  0  0  0  0
  147.3492  141.1543  152.8017 H   0  0  0  0  0  0  0  0  0  0  0  0
  146.5355  142.5185  153.5490 H   0  0  0  0  0  0  0  0  0  0  0  0
  148.7244  142.6809  154.4769 H   0  0  0  0  0  0  0  0  0  0  0  0
  147.8547  141.8360  155.7356 H   0  0  0  0  0  0  0  0  0  0  0  0
  148.0324  139.3492  153.2220 H   0  0  0  0  0  0  0  0  0  0  0  0
  151.6416  137.6278  154.2656 H   0  0  0  0  0  0  0  0  0  0  0  0
  149.6185  137.6669  153.1455 H   0  0  0  0  0  0  0  0  0  0  0  0
  150.6450  141.5072  155.9592 H   0  0  0  0  0  0  0  0  0  0  0  0
  146.4322  139.7540  154.5227 H   0  0  0  0  0  0  0  0  0  0  0  0
  1  2  1  0  0  0  0
  1 11  1  0  0  0  0
  1 12  1  0  0  0  0
  1 21  1  0  0  0  0
  2  3  1  0  0  0  0
  2 13  1  0  0  0  0
  2 14  1  0  0  0  0
  3 15  1  0  0  0  0
  3 16  1  0  0  0  0
  3  4  1  0  0  0  0
  4  5  1  0  0  0  0
  4 10  2  0  0  0  0
  5  6  2  0  0  0  0
  5 17  1  0  0  0  0
  6  7  1  0  0  0  0
  6 19  1  0  0  0  0
  7  8  2  0  0  0  0
  7 18  1  0  0  0  0
  8  9  1  0  0  0  0
  8 10  1  0  0  0  0
 10 20  1  0  0  0  0
M  CHG  1   1   1
M  CHG  1   6   1
M  CHG  1   9  -1
M  END
> <s_m_source_file>
AV-unprocessed.smi

> <i_m_source_file_index>
2692

> <i_lp_mmshare_version>
43012

> <i_f3d_flags>
0

> <s_epik_input>
W05IMl1bQ0gyXVtDSDJdYzFbY0hdbltjSF1jKFtPSF0pW2NIXTE=

> <s_epik_cmdline>
J2VwaWtfcHl0aG9uJywgJy1waCcsICc3LjAnLCAnLXRuJywgJzgnLCAnLW1hJywgJzIwMCcsICctbWV0YWxfYmluZGluZycsICctaW1hZScsICc8aW5maWxlLm1hZT4nLCAnLW9tYWUnLCAnPG91dGZpbGUubWFlPic=

> <r_lp_tautomer_probability>
0.56342

> <r_epik_Ionization_Penalty>
0.0470523

> <r_epik_Ionization_Penalty_Charging>
0.0470523

> <r_epik_Ionization_Penalty_Neutral>
0

> <r_epik_State_Penalty>
0.376149

> <r_epik_Charging_Adjusted_Penalty>
0.423201

> <i_epik_Tot_Q>
1

> <i_epik_Tot_abs_Q>
3

> <r_epik_Metal_State_Penalty>
2.7829

> <b_epik_Metal_Only>
0

> <s_lp_Force_Field>
OPLS_2005

> <r_lp_Energy>
5.09983

> <b_lp_Chiralities_Consistent>
1

> <s_lp_Variant>
AV-unprocessed.smi:2692-1

> <Gold.Version>
5.8.1

> <Gold.Id.Protein>
6NUR|6NUR_protein|mol2

> <Gold.PLP.Fitness>
40.0793

> <Gold.PLP.PLP>
-22.3372

> <Gold.PLP.part.hbond>
-4.0000

> <Gold.PLP.part.metal>
0.0000

> <Gold.PLP.part.buried>
1.3728

> <Gold.PLP.part.nonpolar>
-19.4169

> <Gold.PLP.part.repulsive>
0.0678

> <Gold.PLP.ligand.clash>
0.0000

> <Gold.PLP.ligand.torsion>
0.1290

> <Gold.PLP.Chemscore.Hbond>
6.0000

> <Gold.PLP.Chemscore.CHOScore>
0.0000

> <Gold.PLP.Chemscore.Metal>
0.0000

> <Gold.Chemscore.Hbonds>
donor molecule, donor type, donor heavy atom, donor atom, acceptor molecule, acceptor atom, score
      L1  H     1    11       P1 10175  2.00
      L1  H     6    19       P1  7948  2.00
      P1  H  7997  8009       L1     9  2.00

> <Gold.PLP.Chemscore.Internal.Correction>
0.0002

> <Gold.Rescore>
     Score         DG    S(hbond)    S(metal)    S(lipo)     H(rot)  DE(clash)    DE(int)     intcor
     16.55     -17.28       2.83        0.00      49.94       1.36       0.59       0.14       ----

> <Gold.Chemscore.Fitness>
16.5460

> <Gold.Chemscore.DG>
-17.2839

> <Gold.Chemscore.ZeroCoef>
-5.4800

> <Gold.Chemscore.Hbond>
2.8307

> <Gold.Chemscore.Metal>
0.0000

> <Gold.Chemscore.Lipo>
49.9382

> <Gold.Chemscore.Internal_Hbond>
0.0000

> <Gold.Chemscore.DEClash>
0.5935

> <Gold.Chemscore.DEInternal>
0.1444

> <Gold.Chemscore.Rot>
1.3646

> <Gold.Chemscore.Internal.Correction>
   9.000000E+99

> <Gold.Chemscore.Hbonds>
donor molecule, donor type, donor heavy atom, donor atom, acceptor molecule, acceptor atom, score
      L1  H     1    11       P1 10175  0.97
      L1  H     6    19       P1  7948  0.75
      P1  H  7997  8009       L1     9  0.99

> <Gold.Chemscore.Hbond.Weighted>
-9.4545

> <Gold.Chemscore.Metal.Weighted>
-0.0000

> <Gold.Chemscore.Lipo.Weighted>
-5.8428

> <Gold.Chemscore.Internal_Hbond.Weighted>
0.0000

> <Gold.Chemscore.DEClash.Weighted>
0.5935

> <Gold.Chemscore.DEInternal.Weighted>
0.1444

> <Gold.Chemscore.Rot.Weighted>
3.4934

> <Gold.Chemscore.Internal.Correction.Weighted>
   9.000000E+99

> <Gold.Protein.RotatedTorsions>
[ 6907 6896 6895 6894 ] final   -2.25 input  -60.11 | X-H torsion
[ 7974 7965 7964 7962 ] final -112.68 input  175.53 | X-H torsion
[ 8008 7997 7996 7995 ] final -155.14 input   59.86 | X-H torsion
[ 10167 10162 10161 10158 ] final  -72.47 input  -65.29 | X-H torsion
[ 10718 10713 10712 10709 ] final   -3.27 input   66.30 | X-H torsion
[ 10763 10752 10751 10750 ] final  -92.42 input  -60.55 | X-H torsion
[ 11005 11000 10999 10996 ] final -135.70 input  -57.11 | X-H torsion

> <Gold.Protein.ActiveResidues>
 VAL166  LYS551  ARG553  GLY616  TRP617  ASP618  TYR619  PRO620  LYS621  CYS622 
 ASP623  PHE694  ASN695  SER759  ASP760  ASP761  ALA762  ILE779  LEU786  VAL792 
 PHE793  MET794  SER795  GLU796  ALA797  LYS798  CYS799  TRP800  GLU811  SER814 

> <Gold.Protein.RotatedAtoms>
  151.5330  135.1068  159.9906 H   0  0  0  0  0  0  0  0  0  0  0  0  # atno 6907 bound_to 6896
  152.4570  133.7739  159.6824 H   0  0  0  0  0  0  0  0  0  0  0  0  # atno 6908 bound_to 6896
  150.8517  133.7711  159.3048 H   0  0  0  0  0  0  0  0  0  0  0  0  # atno 6909 bound_to 6896
  145.1411  140.8778  143.3702 H   0  0  0  0  0  0  0  0  0  0  0  0  # atno 7974 bound_to 7965
  155.6972  140.0762  157.2424 H   0  0  0  0  0  0  0  0  0  0  0  0  # atno 8008 bound_to 7997
  154.4079  140.1654  156.2204 H   0  0  0  0  0  0  0  0  0  0  0  0  # atno 8009 bound_to 7997
  155.9399  140.3385  155.6322 H   0  0  0  0  0  0  0  0  0  0  0  0  # atno 8010 bound_to 7997
  140.5190  143.2334  151.7463 H   0  0  0  0  0  0  0  0  0  0  0  0  # atno 10167 bound_to 10162
  156.7785  130.5323  149.5755 H   0  0  0  0  0  0  0  0  0  0  0  0  # atno 10718 bound_to 10713
  154.6859  135.5231  153.8326 H   0  0  0  0  0  0  0  0  0  0  0  0  # atno 10763 bound_to 10752
  153.0597  135.6564  154.0501 H   0  0  0  0  0  0  0  0  0  0  0  0  # atno 10764 bound_to 10752
  154.0381  135.2979  155.3338 H   0  0  0  0  0  0  0  0  0  0  0  0  # atno 10765 bound_to 10752
  140.8874  134.1855  157.4551 H   0  0  0  0  0  0  0  0  0  0  0  0  # atno 11005 bound_to 11000
  145.0531  139.3165  143.5918 LP  0  0  0  0  0  0  0  0  0  0  0  0  # atno 17320 bound_to 7965
  146.3505  139.9947  142.8682 LP  0  0  0  0  0  0  0  0  0  0  0  0  # atno 17321 bound_to 7965
  139.4917  144.4283  151.9901 LP  0  0  0  0  0  0  0  0  0  0  0  0  # atno 17342 bound_to 10162
  140.3378  144.3239  150.5973 LP  0  0  0  0  0  0  0  0  0  0  0  0  # atno 17343 bound_to 10162
  156.1233  130.6125  151.0226 LP  0  0  0  0  0  0  0  0  0  0  0  0  # atno 17370 bound_to 10713
  157.6658  131.0872  150.7732 LP  0  0  0  0  0  0  0  0  0  0  0  0  # atno 17371 bound_to 10713
  139.8726  134.9843  156.5236 LP  0  0  0  0  0  0  0  0  0  0  0  0  # atno 17394 bound_to 11000
  140.8389  133.8221  155.9055 LP  0  0  0  0  0  0  0  0  0  0  0  0  # atno 17395 bound_to 11000

$$$$
