AV-unprocessed.smi:2143|AV-procd|sdf|8722|dock1
  -GOLD-   2272011493D 1   1.00000     0.00000
 Structure written by MMmdl.
 44 45  0  0  0  0  0  0  0  0  1 V2000
  151.7094  145.8350  160.1792 C   0  0  0  0  0  0  0  0  0  0  0  0
  151.8656  144.3066  160.2725 C   0  0  2  0  0  0  0  0  0  0  0  0
  152.5075  143.9300  161.6242 C   0  0  0  0  0  0  0  0  0  0  0  0
  152.6752  142.4130  161.7833 C   0  0  0  0  0  0  0  0  0  0  0  0
  153.4892  141.8246  160.6217 C   0  0  0  0  0  0  0  0  0  0  0  0
  152.8744  142.1746  159.2542 C   0  0  1  0  0  0  0  0  0  0  0  0
  151.6154  141.4474  159.0753 N   0  0  0  0  0  0  0  0  0  0  0  0
  151.3109  140.6224  158.0618 C   0  0  0  0  0  0  0  0  0  0  0  0
  152.0765  140.3824  157.1273 O   0  0  0  0  0  0  0  0  0  0  0  0
  149.9092  139.9996  158.1099 C   0  0  0  0  0  0  0  0  0  0  0  0
  149.0166  140.4980  157.0557 N   0  0  0  0  0  0  0  0  0  0  0  0
  149.4036  140.4075  155.7313 C   0  0  0  0  0  0  0  0  0  0  0  0
  148.6379  140.8283  154.7011 C   0  0  0  0  0  0  0  0  0  0  0  0
  147.3256  141.4189  154.9348 C   0  0  0  0  0  0  0  0  0  0  0  0
  146.5933  141.8041  154.0228 O   0  0  0  0  0  0  0  0  0  0  0  0
  146.9580  141.5069  156.2994 N   0  0  0  0  0  0  0  0  0  0  0  0
  145.6680  142.0666  156.6461 C   0  0  0  0  0  0  0  0  0  0  0  0
  147.7589  141.0550  157.3713 C   0  0  0  0  0  0  0  0  0  0  0  0
  147.3818  141.1355  158.5433 O   0  0  0  0  0  0  0  0  0  0  0  0
  152.6806  143.7064  159.0925 C   0  0  1  0  0  0  0  0  0  0  0  0
  152.0942  144.0587  157.7103 C   0  0  0  0  0  0  0  0  0  0  0  0
  152.6791  146.3308  160.1240 H   0  0  0  0  0  0  0  0  0  0  0  0
  151.1860  146.2280  161.0511 H   0  0  0  0  0  0  0  0  0  0  0  0
  151.1300  146.1301  159.3048 H   0  0  0  0  0  0  0  0  0  0  0  0
  150.8630  143.8775  160.2499 H   0  0  0  0  0  0  0  0  0  0  0  0
  153.4821  144.4119  161.7146 H   0  0  0  0  0  0  0  0  0  0  0  0
  151.9001  144.3121  162.4454 H   0  0  0  0  0  0  0  0  0  0  0  0
  153.1695  142.1923  162.7299 H   0  0  0  0  0  0  0  0  0  0  0  0
  151.6949  141.9377  161.8311 H   0  0  0  0  0  0  0  0  0  0  0  0
  154.5074  142.2136  160.6669 H   0  0  0  0  0  0  0  0  0  0  0  0
  153.5737  140.7428  160.7330 H   0  0  0  0  0  0  0  0  0  0  0  0
  153.5880  141.8474  158.4958 H   0  0  0  0  0  0  0  0  0  0  0  0
  150.9152  141.5857  159.7895 H   0  0  0  0  0  0  0  0  0  0  0  0
  149.9887  138.9125  158.0515 H   0  0  0  0  0  0  0  0  0  0  0  0
  149.4779  140.2103  159.0895 H   0  0  0  0  0  0  0  0  0  0  0  0
  150.3667  139.9730  155.5052 H   0  0  0  0  0  0  0  0  0  0  0  0
  149.0001  140.7238  153.6889 H   0  0  0  0  0  0  0  0  0  0  0  0
  145.8285  142.8203  157.4196 H   0  0  0  0  0  0  0  0  0  0  0  0
  145.0528  141.2433  157.0128 H   0  0  0  0  0  0  0  0  0  0  0  0
  145.1995  142.5404  155.7842 H   0  0  0  0  0  0  0  0  0  0  0  0
  153.6763  144.1519  159.1285 H   0  0  0  0  0  0  0  0  0  0  0  0
  151.0456  143.7707  157.6318 H   0  0  0  0  0  0  0  0  0  0  0  0
  152.6387  143.5490  156.9147 H   0  0  0  0  0  0  0  0  0  0  0  0
  152.1616  145.1266  157.5051 H   0  0  0  0  0  0  0  0  0  0  0  0
  1  2  1  0  0  0  0
  1 22  1  0  0  0  0
  1 23  1  0  0  0  0
  1 24  1  0  0  0  0
  2 20  1  0  0  0  0
  2  3  1  0  0  0  0
  2 25  1  0  0  0  0
  3  4  1  0  0  0  0
  3 26  1  0  0  0  0
  3 27  1  0  0  0  0
  4  5  1  0  0  0  0
  4 28  1  0  0  0  0
  4 29  1  0  0  0  0
  5  6  1  0  0  0  0
  5 30  1  0  0  0  0
  5 31  1  0  0  0  0
  6  7  1  0  0  0  0
  6 20  1  0  0  0  0
  6 32  1  0  0  0  0
  7  8  1  0  0  0  0
  7 33  1  0  0  0  0
  8  9  2  0  0  0  0
  8 10  1  0  0  0  0
 10 11  1  0  0  0  0
 10 34  1  0  0  0  0
 10 35  1  0  0  0  0
 11 18  1  0  0  0  0
 11 12  1  0  0  0  0
 12 13  2  0  0  0  0
 12 36  1  0  0  0  0
 13 14  1  0  0  0  0
 13 37  1  0  0  0  0
 14 15  2  0  0  0  0
 14 16  1  0  0  0  0
 16 17  1  0  0  0  0
 16 18  1  0  0  0  0
 17 38  1  0  0  0  0
 17 39  1  0  0  0  0
 17 40  1  0  0  0  0
 18 19  2  0  0  0  0
 20 21  1  0  0  0  0
 20 41  1  0  0  0  0
 21 42  1  0  0  0  0
 21 43  1  0  0  0  0
 21 44  1  0  0  0  0
M  END
> <s_m_source_file>
AV-unprocessed.smi

> <i_m_source_file_index>
2143

> <i_lp_mmshare_version>
43012

> <i_f3d_flags>
0

> <s_epik_input>
W0NIM11bQ0BASF0xW0NIMl1bQ0gyXVtDSDJdW0NASF0oW0NASF0xW0NIM10pW05IXUMoPU8pW0NIMl1uMltjSF1bY0hdYyg9TyluKFtDSDNdKWMyPU8=

> <s_epik_cmdline>
J2VwaWtfcHl0aG9uJywgJy1waCcsICc3LjAnLCAnLXRuJywgJzgnLCAnLW1hJywgJzIwMCcsICctbWV0YWxfYmluZGluZycsICctaW1hZScsICc8aW5maWxlLm1hZT4nLCAnLW9tYWUnLCAnPG91dGZpbGUubWFlPic=

> <r_lp_tautomer_probability>
1

> <r_epik_Ionization_Penalty>
3.18445e-08

> <r_epik_Ionization_Penalty_Charging>
1.27977e-08

> <r_epik_Ionization_Penalty_Neutral>
1.90469e-08

> <r_epik_State_Penalty>
-0

> <r_epik_Charging_Adjusted_Penalty>
1.27977e-08

> <i_epik_Tot_Q>
0

> <i_epik_Tot_abs_Q>
0

> <r_epik_Metal_State_Penalty>
-0

> <b_epik_Metal_Only>
0

> <s_lp_Force_Field>
OPLS_2005

> <r_lp_Energy>
19.1403

> <b_lp_Chiralities_Consistent>
1

> <s_lp_Variant>
AV-unprocessed.smi:2143-1

> <Gold.Version>
5.8.1

> <Gold.Id.Protein>
6NUR|6NUR_protein|mol2

> <Gold.PLP.Fitness>
47.9253

> <Gold.PLP.PLP>
-46.5826

> <Gold.PLP.part.hbond>
-1.8778

> <Gold.PLP.part.metal>
0.0000

> <Gold.PLP.part.buried>
-4.1863

> <Gold.PLP.part.nonpolar>
-40.7858

> <Gold.PLP.part.repulsive>
0.3401

> <Gold.PLP.ligand.clash>
0.0000

> <Gold.PLP.ligand.torsion>
0.1281

> <Gold.PLP.Chemscore.Hbond>
0.5291

> <Gold.PLP.Chemscore.CHOScore>
0.0000

> <Gold.PLP.Chemscore.Metal>
0.0000

> <Gold.Chemscore.Hbonds>
donor molecule, donor type, donor heavy atom, donor atom, acceptor molecule, acceptor atom, score
      P1  H  6934  6946       L1    19  0.09
      P1  H  7997  8010       L1     9  0.17

> <Gold.PLP.Chemscore.Internal.Correction>
0.0117

> <Gold.Rescore>
     Score         DG    S(hbond)    S(metal)    S(lipo)     H(rot)  DE(clash)    DE(int)     intcor
     17.32     -17.70       0.96        0.00     110.19       1.51       0.05       0.34       ----

> <Gold.Chemscore.Fitness>
17.3174

> <Gold.Chemscore.DG>
-17.7044

> <Gold.Chemscore.ZeroCoef>
-5.4800

> <Gold.Chemscore.Hbond>
0.9597

> <Gold.Chemscore.Metal>
0.0000

> <Gold.Chemscore.Lipo>
110.1917

> <Gold.Chemscore.Internal_Hbond>
0.0000

> <Gold.Chemscore.DEClash>
0.0455

> <Gold.Chemscore.DEInternal>
0.3414

> <Gold.Chemscore.Rot>
1.5131

> <Gold.Chemscore.Internal.Correction>
   9.000000E+99

> <Gold.Chemscore.Hbonds>
donor molecule, donor type, donor heavy atom, donor atom, acceptor molecule, acceptor atom, score
      P1  H  6934  6946       L1    19  0.10
      P1  H  7997  8010       L1     9  0.18

> <Gold.Chemscore.Hbond.Weighted>
-3.2054

> <Gold.Chemscore.Metal.Weighted>
-0.0000

> <Gold.Chemscore.Lipo.Weighted>
-12.8924

> <Gold.Chemscore.Internal_Hbond.Weighted>
0.0000

> <Gold.Chemscore.DEClash.Weighted>
0.0455

> <Gold.Chemscore.DEInternal.Weighted>
0.3414

> <Gold.Chemscore.Rot.Weighted>
3.8734

> <Gold.Chemscore.Internal.Correction.Weighted>
   9.000000E+99

> <Gold.Protein.RotatedTorsions>
[ 6907 6896 6895 6894 ] final  -57.93 input  -60.11 | X-H torsion
[ 7974 7965 7964 7962 ] final   44.38 input  175.53 | X-H torsion
[ 8008 7997 7996 7995 ] final   65.92 input   59.86 | X-H torsion
[ 10167 10162 10161 10158 ] final  175.74 input  -65.29 | X-H torsion
[ 10718 10713 10712 10709 ] final   24.86 input   66.30 | X-H torsion
[ 10763 10752 10751 10750 ] final  -68.15 input  -60.55 | X-H torsion
[ 11005 11000 10999 10996 ] final  135.28 input  -57.11 | X-H torsion

> <Gold.Protein.ActiveResidues>
 VAL166  LYS551  ARG553  GLY616  TRP617  ASP618  TYR619  PRO620  LYS621  CYS622 
 ASP623  PHE694  ASN695  SER759  ASP760  ASP761  ALA762  ILE779  LEU786  VAL792 
 PHE793  MET794  SER795  GLU796  ALA797  LYS798  CYS799  TRP800  GLU811  SER814 

> <Gold.Protein.RotatedAtoms>
  150.8047  134.7164  159.6632 H   0  0  0  0  0  0  0  0  0  0  0  0  # atno 6907 bound_to 6896
  152.4166  134.6027  160.0014 H   0  0  0  0  0  0  0  0  0  0  0  0  # atno 6908 bound_to 6896
  151.6255  133.3299  159.3133 H   0  0  0  0  0  0  0  0  0  0  0  0  # atno 6909 bound_to 6896
  146.0574  139.5081  142.9680 H   0  0  0  0  0  0  0  0  0  0  0  0  # atno 7974 bound_to 7965
  155.6693  140.3497  155.4812 H   0  0  0  0  0  0  0  0  0  0  0  0  # atno 8008 bound_to 7997
  155.9702  140.1154  157.0842 H   0  0  0  0  0  0  0  0  0  0  0  0  # atno 8009 bound_to 7997
  154.4164  140.1158  156.5282 H   0  0  0  0  0  0  0  0  0  0  0  0  # atno 8010 bound_to 7997
  139.5188  144.2997  152.0390 H   0  0  0  0  0  0  0  0  0  0  0  0  # atno 10167 bound_to 10162
  157.1856  130.6822  149.6130 H   0  0  0  0  0  0  0  0  0  0  0  0  # atno 10718 bound_to 10713
  154.3849  135.6066  153.5811 H   0  0  0  0  0  0  0  0  0  0  0  0  # atno 10763 bound_to 10752
  152.9788  135.5869  154.4366 H   0  0  0  0  0  0  0  0  0  0  0  0  # atno 10764 bound_to 10752
  154.4141  135.2844  155.1995 H   0  0  0  0  0  0  0  0  0  0  0  0  # atno 10765 bound_to 10752
  139.9969  134.9493  156.9985 H   0  0  0  0  0  0  0  0  0  0  0  0  # atno 11005 bound_to 11000
  145.6620  141.0238  143.1704 LP  0  0  0  0  0  0  0  0  0  0  0  0  # atno 17320 bound_to 7965
  144.7155  139.8211  143.7400 LP  0  0  0  0  0  0  0  0  0  0  0  0  # atno 17321 bound_to 7965
  140.2445  144.4235  150.6246 LP  0  0  0  0  0  0  0  0  0  0  0  0  # atno 17342 bound_to 10162
  140.6268  143.2182  151.6580 LP  0  0  0  0  0  0  0  0  0  0  0  0  # atno 17343 bound_to 10162
  155.9718  130.4632  150.6173 LP  0  0  0  0  0  0  0  0  0  0  0  0  # atno 17370 bound_to 10713
  157.3910  131.0795  151.1393 LP  0  0  0  0  0  0  0  0  0  0  0  0  # atno 17371 bound_to 10713
  140.4800  134.1299  155.7215 LP  0  0  0  0  0  0  0  0  0  0  0  0  # atno 17394 bound_to 11000
  141.1612  133.8790  157.1843 LP  0  0  0  0  0  0  0  0  0  0  0  0  # atno 17395 bound_to 11000

$$$$
