AV-unprocessed.smi:1452|AV-procd|sdf|5903|dock1
  -GOLD-   22720 5593D 1   1.00000     0.00000
 Structure written by MMmdl.
 40 42  0  0  0  0  0  0  0  0  2 V2000
  150.7871  140.1706  156.1748 O   0  0  0  0  0  0  0  0  0  0  0  0
  150.1198  141.1554  155.8627 C   0  0  0  0  0  0  0  0  0  0  0  0
  150.2780  142.3351  156.5003 N   0  0  0  0  0  0  0  0  0  0  0  0
  151.1408  142.7267  157.5669 C   0  0  0  0  0  0  0  0  0  0  0  0
  151.5478  144.0794  157.5222 C   0  0  0  0  0  0  0  0  0  0  0  0
  152.4044  144.5827  158.5203 C   0  0  0  0  0  0  0  0  0  0  0  0
  152.8353  143.7187  159.5422 C   0  0  0  0  0  0  0  0  0  0  0  0
  152.3861  142.3862  159.5156 C   0  0  0  0  0  0  0  0  0  0  0  0
  151.5658  141.9022  158.5588 N   0  0  0  0  0  0  0  0  0  0  0  0
  149.2020  141.1267  154.8829 N   0  0  0  0  0  0  0  0  0  0  0  0
  148.8577  139.9639  154.0720 C   0  0  2  0  0  0  0  0  0  0  0  0
  147.8366  140.2889  152.9671 C   0  0  0  0  0  0  0  0  0  0  0  0
  146.9026  139.0645  152.9000 C   0  0  0  0  0  0  0  0  0  0  0  0
  147.4716  138.0868  153.8468 N   0  3  2  0  0  0  0  0  0  0  0  0
  146.5497  137.0731  154.4038 C   0  0  0  0  0  0  0  0  0  0  0  0
  147.3443  136.1001  155.2975 C   0  0  0  0  0  0  0  0  0  0  0  0
  148.1605  136.8473  156.3718 C   0  0  0  0  0  0  0  0  0  0  0  0
  149.0299  137.9525  155.7417 C   0  0  0  0  0  0  0  0  0  0  0  0
  148.1485  138.8778  154.8855 C   0  0  1  0  0  0  0  0  0  0  0  0
  149.6925  143.0786  156.1481 H   0  0  0  0  0  0  0  0  0  0  0  0
  151.2081  144.7319  156.7306 H   0  0  0  0  0  0  0  0  0  0  0  0
  152.7242  145.6142  158.5013 H   0  0  0  0  0  0  0  0  0  0  0  0
  153.4919  144.0683  160.3253 H   0  0  0  0  0  0  0  0  0  0  0  0
  152.6923  141.6898  160.2821 H   0  0  0  0  0  0  0  0  0  0  0  0
  148.7008  141.9831  154.6906 H   0  0  0  0  0  0  0  0  0  0  0  0
  149.7502  139.5449  153.6022 H   0  0  0  0  0  0  0  0  0  0  0  0
  147.2568  141.1814  153.2078 H   0  0  0  0  0  0  0  0  0  0  0  0
  148.3353  140.4710  152.0144 H   0  0  0  0  0  0  0  0  0  0  0  0
  145.8953  139.3460  153.2113 H   0  0  0  0  0  0  0  0  0  0  0  0
  146.8417  138.6410  151.8972 H   0  0  0  0  0  0  0  0  0  0  0  0
  145.7612  137.5623  154.9778 H   0  0  0  0  0  0  0  0  0  0  0  0
  146.0679  136.5295  153.5903 H   0  0  0  0  0  0  0  0  0  0  0  0
  146.6673  135.3885  155.7705 H   0  0  0  0  0  0  0  0  0  0  0  0
  148.0222  135.5128  154.6767 H   0  0  0  0  0  0  0  0  0  0  0  0
  147.4799  137.2921  157.0988 H   0  0  0  0  0  0  0  0  0  0  0  0
  148.7863  136.1456  156.9240 H   0  0  0  0  0  0  0  0  0  0  0  0
  149.5298  138.5215  156.5257 H   0  0  0  0  0  0  0  0  0  0  0  0
  149.8140  137.5058  155.1290 H   0  0  0  0  0  0  0  0  0  0  0  0
  147.3888  139.3432  155.5182 H   0  0  0  0  0  0  0  0  0  0  0  0
  148.1978  137.5929  153.3479 H   0  0  0  0  0  0  0  0  0  0  0  0
  1  2  2  0  0  0  0
  2  3  1  0  0  0  0
  2 10  1  0  0  0  0
  3  4  1  0  0  0  0
  3 20  1  0  0  0  0
  4  9  1  0  0  0  0
  4  5  2  0  0  0  0
  5  6  1  0  0  0  0
  5 21  1  0  0  0  0
  6  7  2  0  0  0  0
  6 22  1  0  0  0  0
  7  8  1  0  0  0  0
  7 23  1  0  0  0  0
  8  9  2  0  0  0  0
  8 24  1  0  0  0  0
 10 11  1  0  0  0  0
 10 25  1  0  0  0  0
 11 19  1  0  0  0  0
 11 12  1  0  0  0  0
 11 26  1  0  0  0  0
 12 13  1  0  0  0  0
 12 27  1  0  0  0  0
 12 28  1  0  0  0  0
 13 14  1  0  0  0  0
 13 29  1  0  0  0  0
 13 30  1  0  0  0  0
 14 19  1  0  0  0  0
 14 15  1  0  0  0  0
 14 40  1  0  0  0  0
 15 16  1  0  0  0  0
 15 31  1  0  0  0  0
 15 32  1  0  0  0  0
 16 17  1  0  0  0  0
 16 33  1  0  0  0  0
 16 34  1  0  0  0  0
 17 18  1  0  0  0  0
 17 35  1  0  0  0  0
 17 36  1  0  0  0  0
 18 19  1  0  0  0  0
 18 37  1  0  0  0  0
 18 38  1  0  0  0  0
 19 39  1  0  0  0  0
M  CHG  1  14   1
M  END
> <s_m_source_file>
AV-unprocessed.smi

> <i_m_source_file_index>
1452

> <i_lp_mmshare_version>
43012

> <i_f3d_flags>
0

> <s_epik_input>
W0NIMl0xW0NIMl1bQ0gyXVtDSDJdW0NASF0oTjEyKVtDQEBIXShbQ0gyXVtDSDJdMilbTkhdQyg9TylbTkhdYzNbY0hdW2NIXVtjSF1bY0hdbjM=

> <s_epik_cmdline>
J2VwaWtfcHl0aG9uJywgJy1waCcsICc3LjAnLCAnLXRuJywgJzgnLCAnLW1hJywgJzIwMCcsICctbWV0YWxfYmluZGluZycsICctaW1hZScsICc8aW5maWxlLm1hZT4nLCAnLW9tYWUnLCAnPG91dGZpbGUubWFlPic=

> <r_epik_Ionization_Penalty>
0.00100813

> <r_epik_Ionization_Penalty_Charging>
0.000974069

> <r_epik_Ionization_Penalty_Neutral>
3.40643e-05

> <r_epik_State_Penalty>
0.000633842

> <r_epik_Charging_Adjusted_Penalty>
0.00160791

> <i_epik_Tot_Q>
1

> <i_epik_Tot_abs_Q>
1

> <r_epik_Metal_State_Penalty>
-0

> <b_epik_Metal_Only>
0

> <s_lp_Force_Field>
OPLS_2005

> <r_lp_Energy>
38.1413

> <b_lp_Chiralities_Consistent>
1

> <s_lp_Variant>
AV-unprocessed.smi:1452-1

> <Gold.Version>
5.8.1

> <Gold.Id.Protein>
6NUR|6NUR_protein|mol2

> <Gold.PLP.Fitness>
40.6232

> <Gold.PLP.PLP>
-32.1071

> <Gold.PLP.part.hbond>
-2.0000

> <Gold.PLP.part.metal>
0.0000

> <Gold.PLP.part.buried>
1.1708

> <Gold.PLP.part.nonpolar>
-31.0740

> <Gold.PLP.part.repulsive>
0.2609

> <Gold.PLP.ligand.clash>
0.0000

> <Gold.PLP.ligand.torsion>
0.2469

> <Gold.PLP.Chemscore.Hbond>
3.0000

> <Gold.PLP.Chemscore.CHOScore>
0.0000

> <Gold.PLP.Chemscore.Metal>
0.0000

> <Gold.Chemscore.Hbonds>
donor molecule, donor type, donor heavy atom, donor atom, acceptor molecule, acceptor atom, score
      L1  H     3    20       P1  8028  1.00
      L1  H    14    40       P1  7948  1.43

> <Gold.PLP.Chemscore.Internal.Correction>
0.0099

> <Gold.Rescore>
     Score         DG    S(hbond)    S(metal)    S(lipo)     H(rot)  DE(clash)    DE(int)     intcor
     15.30     -18.52       1.75        0.00      83.45       1.00       1.52       1.70       ----

> <Gold.Chemscore.Fitness>
15.3013

> <Gold.Chemscore.DG>
-18.5244

> <Gold.Chemscore.ZeroCoef>
-5.4800

> <Gold.Chemscore.Hbond>
1.7488

> <Gold.Chemscore.Metal>
0.0000

> <Gold.Chemscore.Lipo>
83.4483

> <Gold.Chemscore.Internal_Hbond>
0.0000

> <Gold.Chemscore.DEClash>
1.5204

> <Gold.Chemscore.DEInternal>
1.7027

> <Gold.Chemscore.Rot>
1.0000

> <Gold.Chemscore.Internal.Correction>
   9.000000E+99

> <Gold.Chemscore.Hbonds>
donor molecule, donor type, donor heavy atom, donor atom, acceptor molecule, acceptor atom, score
      L1  H     3    20       P1  8028  1.00
      L1  H    14    40       P1  7948  0.69

> <Gold.Chemscore.Hbond.Weighted>
-5.8409

> <Gold.Chemscore.Metal.Weighted>
-0.0000

> <Gold.Chemscore.Lipo.Weighted>
-9.7634

> <Gold.Chemscore.Internal_Hbond.Weighted>
0.0000

> <Gold.Chemscore.DEClash.Weighted>
1.5204

> <Gold.Chemscore.DEInternal.Weighted>
1.7027

> <Gold.Chemscore.Rot.Weighted>
2.5600

> <Gold.Chemscore.Internal.Correction.Weighted>
   9.000000E+99

> <Gold.Protein.RotatedTorsions>
[ 6907 6896 6895 6894 ] final  -55.75 input  -60.11 | X-H torsion
[ 7974 7965 7964 7962 ] final  179.13 input  175.53 | X-H torsion
[ 8008 7997 7996 7995 ] final  -14.36 input   59.86 | X-H torsion
[ 10167 10162 10161 10158 ] final   13.19 input  -65.29 | X-H torsion
[ 10718 10713 10712 10709 ] final -129.01 input   66.30 | X-H torsion
[ 10763 10752 10751 10750 ] final -177.70 input  -60.55 | X-H torsion
[ 11005 11000 10999 10996 ] final   34.08 input  -57.11 | X-H torsion

> <Gold.Protein.ActiveResidues>
 VAL166  LYS551  ARG553  GLY616  TRP617  ASP618  TYR619  PRO620  LYS621  CYS622 
 ASP623  PHE694  ASN695  SER759  ASP760  ASP761  ALA762  ILE779  LEU786  VAL792 
 PHE793  MET794  SER795  GLU796  ALA797  LYS798  CYS799  TRP800  GLU811  SER814 

> <Gold.Protein.RotatedAtoms>
  150.8225  134.7440  159.6784 H   0  0  0  0  0  0  0  0  0  0  0  0  # atno 6907 bound_to 6896
  152.4339  134.5720  159.9934 H   0  0  0  0  0  0  0  0  0  0  0  0  # atno 6908 bound_to 6896
  151.5901  133.3330  159.3062 H   0  0  0  0  0  0  0  0  0  0  0  0  # atno 6909 bound_to 6896
  144.7148  140.0502  143.6435 H   0  0  0  0  0  0  0  0  0  0  0  0  # atno 7974 bound_to 7965
  154.5216  140.2225  155.8965 H   0  0  0  0  0  0  0  0  0  0  0  0  # atno 8008 bound_to 7997
  156.1668  140.3130  155.8868 H   0  0  0  0  0  0  0  0  0  0  0  0  # atno 8009 bound_to 7997
  155.3639  140.0462  157.3037 H   0  0  0  0  0  0  0  0  0  0  0  0  # atno 8010 bound_to 7997
  140.6019  143.8587  150.6974 H   0  0  0  0  0  0  0  0  0  0  0  0  # atno 10167 bound_to 10162
  156.2006  130.6855  151.0534 H   0  0  0  0  0  0  0  0  0  0  0  0  # atno 10718 bound_to 10713
  154.5568  135.2817  155.0957 H   0  0  0  0  0  0  0  0  0  0  0  0  # atno 10763 bound_to 10752
  154.2381  135.6362  153.5201 H   0  0  0  0  0  0  0  0  0  0  0  0  # atno 10764 bound_to 10752
  153.0018  135.5553  154.6151 H   0  0  0  0  0  0  0  0  0  0  0  0  # atno 10765 bound_to 10752
  140.2565  134.3242  155.7872 H   0  0  0  0  0  0  0  0  0  0  0  0  # atno 11005 bound_to 11000
  145.9950  139.3045  143.0962 LP  0  0  0  0  0  0  0  0  0  0  0  0  # atno 17320 bound_to 7965
  145.8859  140.9334  143.0577 LP  0  0  0  0  0  0  0  0  0  0  0  0  # atno 17321 bound_to 7965
  140.2135  143.3865  152.1699 LP  0  0  0  0  0  0  0  0  0  0  0  0  # atno 17342 bound_to 10162
  139.5297  144.7145  151.5100 LP  0  0  0  0  0  0  0  0  0  0  0  0  # atno 17343 bound_to 10162
  157.6983  131.0785  150.6899 LP  0  0  0  0  0  0  0  0  0  0  0  0  # atno 17370 bound_to 10713
  156.6957  130.4608  149.5587 LP  0  0  0  0  0  0  0  0  0  0  0  0  # atno 17371 bound_to 10713
  141.2195  133.7384  156.9119 LP  0  0  0  0  0  0  0  0  0  0  0  0  # atno 17394 bound_to 11000
  140.1507  134.9232  157.2588 LP  0  0  0  0  0  0  0  0  0  0  0  0  # atno 17395 bound_to 11000

$$$$
