#       Name:                AV-unprocessed.smi:3063
#       Creating user name   scv26
#       Creation time:       Fri Mar 27 17:09:17 2020


#       File generated by GOLD software.
#

@<TRIPOS>MOLECULE
AV-unprocessed.smi:3063
    49    50     1
SMALL
NO_CHARGES


@<TRIPOS>ATOM
      1 ****        -2.2634   2.0737   1.7780 C.3            1 S1                 0.0000
      2 ****        -2.4992   0.6819   1.1874 C.2            1 S1                 0.0000
      3 ****        -2.4451  -0.2868   1.9454 O.2            1 S1                 0.0000
      4 ****        -2.7384   0.5573  -0.1406 N.am           1 S1                 0.0000
      5 ****        -2.8497  -0.7606  -0.7836 C.3            1 S1                 0.0000
      6 ****        -1.4732  -1.2682  -1.2619 C.3            1 S1                 0.0000
      7 ****        -0.7870  -0.3192  -2.2679 C.3            1 S1                 0.0000
      8 ****        -0.4858   0.9905  -1.6575 N.am           1 S1                 0.0000
      9 ****         0.6342   1.2789  -0.9438 C.2            1 S1                 0.0000
     10 ****         0.8377   2.3726  -0.4154 O.2            1 S1                 0.0000
     11 ****         1.5235   0.2734  -0.8665 N.am           1 S1                 0.0000
     12 ****         2.8431   0.3383  -0.2407 C.3            1 S1                 0.0000
     13 ****         3.7419  -0.7465  -0.8549 C.3            1 S1                 0.0000
     14 ****         2.7512   0.2610   1.3019 C.3            1 S1                 0.0000
     15 ****         2.2297  -1.0024   1.7949 N.pl3          1 S1                 0.0000
     16 ****         0.9179  -1.3390   2.0467 C.2            1 S1                 0.0000
     17 ****         0.9048  -2.6273   2.4972 C.2            1 S1                 0.0000
     18 ****         2.2785  -2.9980   2.4936 C.2            1 S1                 0.0000
     19 ****         3.0697  -2.0220   2.0774 N.2            1 S1                 0.0000
     20 ****        -1.5504   1.9899  -1.8625 C.3            1 S1                 0.0000
     21 ****        -2.8526   1.6920  -1.0733 C.3            1 S1                 0.0000
     22 ****        -1.5039   2.6152   1.2139 H              1 S1                 0.0000
     23 ****        -1.9170   1.9983   2.8094 H              1 S1                 0.0000
     24 ****        -3.1867   2.6534   1.7763 H              1 S1                 0.0000
     25 ****        -3.2969  -1.4898  -0.1063 H              1 S1                 0.0000
     26 ****        -3.5321  -0.7132  -1.6330 H              1 S1                 0.0000
     27 ****        -0.8216  -1.4343  -0.4035 H              1 S1                 0.0000
     28 ****        -1.6031  -2.2444  -1.7299 H              1 S1                 0.0000
     29 ****         0.1118  -0.7864  -2.6723 H              1 S1                 0.0000
     30 ****        -1.4382  -0.1872  -3.1330 H              1 S1                 0.0000
     31 ****         1.2810  -0.5981  -1.3151 H              1 S1                 0.0000
     32 ****         3.2872   1.3022  -0.4953 H              1 S1                 0.0000
     33 ****         4.7308  -0.7416  -0.3957 H              1 S1                 0.0000
     34 ****         3.8760  -0.5826  -1.9244 H              1 S1                 0.0000
     35 ****         3.3191  -1.7434  -0.7267 H              1 S1                 0.0000
     36 ****         3.7390   0.4189   1.7374 H              1 S1                 0.0000
     37 ****         2.1225   1.0641   1.6884 H              1 S1                 0.0000
     38 ****         0.1155  -0.6376   1.8821 H              1 S1                 0.0000
     39 ****         0.0455  -3.2133   2.7872 H              1 S1                 0.0000
     40 ****         2.7211  -3.9401   2.7808 H              1 S1                 0.0000
     41 ****        -1.2119   2.9950  -1.6071 H              1 S1                 0.0000
     42 ****        -1.7787   2.0506  -2.9274 H              1 S1                 0.0000
     43 ****        -3.6494   1.4790  -1.7869 H              1 S1                 0.0000
     44 ****        -3.1955   2.5979  -0.5738 H              1 S1                 0.0000
     45 ****        -2.2515  -0.1512   2.9171 LP             1 S1                 0.0000
     46 ****        -2.5948  -1.2093   1.5894 LP             1 S1                 0.0000
     47 ****         0.1600   3.1029  -0.5007 LP             1 S1                 0.0000
     48 ****         1.6806   2.5302   0.0990 LP             1 S1                 0.0000
     49 ****         4.0658  -2.0362   1.9914 LP             1 S1                 0.0000
@<TRIPOS>BOND
    1    1    2 1     
    2    1   22 1     
    3    1   23 1     
    4    1   24 1     
    5    2    3 2     
    6    2    4 am    
    7    4   21 1     
    8    4    5 1     
    9    5    6 1     
   10    5   25 1     
   11    5   26 1     
   12    6    7 1     
   13    6   27 1     
   14    6   28 1     
   15    7    8 1     
   16    7   29 1     
   17    7   30 1     
   18    8    9 am    
   19    8   20 1     
   20    9   10 2     
   21    9   11 am    
   22   11   12 1     
   23   11   31 1     
   24   12   13 1     
   25   12   14 1     
   26   12   32 1     
   27   13   33 1     
   28   13   34 1     
   29   13   35 1     
   30   14   15 1     
   31   14   36 1     
   32   14   37 1     
   33   15   19 1     
   34   15   16 1     
   35   16   17 2     
   36   16   38 1     
   37   17   18 1     
   38   17   39 1     
   39   18   19 2     
   40   18   40 1     
   41   20   21 1     
   42   20   41 1     
   43   20   42 1     
   44   21   43 1     
   45   21   44 1     
   46    3   45 1     
   47    3   46 1     
   48   10   47 1     
   49   10   48 1     
   50   19   49 1     
@<TRIPOS>SUBSTRUCTURE
      1 S1             1
@<TRIPOS>SET
LONE_PAIRS      STATIC     ATOMS    <user>   **** ""
5 45 46 47 48 49
DONOR_HYDROGENS      STATIC     ATOMS    <user>   **** ""
1 31
ATOM$BLUE        STATIC     ATOMS    COLORGROUP SYSTEM
5 45 46 47 48 49
ATOM$RED        STATIC     ATOMS    COLORGROUP SYSTEM
1 31
