AV-unprocessed.smi:3|AV-procd|sdf|31|dock10
  -GOLD-   2262015143D 1   1.00000     0.00000
 Structure written by MMmdl.
 33 35  0  0  0  0  0  0  0  0  1 V2000
  152.5636  139.9507  158.5718 C   0  0  0  0  0  0  0  0  0  0  0  0
  151.7019  140.9663  157.9841 N   0  0  0  0  0  0  0  0  0  0  0  0
  150.7503  140.5710  156.9483 C   0  0  0  0  0  0  0  0  0  0  0  0
  151.4403  139.8957  155.7652 C   0  0  1  0  0  0  0  0  0  0  0  0
  152.1364  138.5394  155.9570 C   0  0  0  0  0  0  0  0  0  0  0  0
  151.6760  138.1434  154.5507 C   0  0  1  0  0  0  0  0  0  0  0  0
  151.2539  136.8116  154.3614 O   0  0  0  0  0  0  0  0  0  0  0  0
  150.5854  139.2110  154.6899 C   0  0  0  0  0  0  0  0  0  0  0  0
  151.4970  142.1993  158.6409 C   0  0  0  0  0  0  0  0  0  0  0  0
  150.6700  143.0902  158.0371 N   0  0  0  0  0  0  0  0  0  0  0  0
  150.4601  144.2812  158.6515 C   0  0  0  0  0  0  0  0  0  0  0  0
  150.9767  144.7142  159.8267 N   0  0  0  0  0  0  0  0  0  0  0  0
  151.8036  143.8317  160.4604 C   0  0  0  0  0  0  0  0  0  0  0  0
  152.4214  143.9942  161.6257 N   0  0  0  0  0  0  0  0  0  0  0  0
  153.0988  142.8576  161.8538 C   0  0  0  0  0  0  0  0  0  0  0  0
  152.9389  141.8755  160.8035 C   0  0  0  0  0  0  0  0  0  0  0  0
  152.0823  142.5651  159.8880 C   0  0  0  0  0  0  0  0  0  0  0  0
  152.1292  140.5814  155.2675 H   0  0  0  0  0  0  0  0  0  0  0  0
  152.4112  138.4137  153.7908 H   0  0  0  0  0  0  0  0  0  0  0  0
  153.3815  140.4007  159.1349 H   0  0  0  0  0  0  0  0  0  0  0  0
  153.0059  139.3358  157.7877 H   0  0  0  0  0  0  0  0  0  0  0  0
  151.9943  139.2943  159.2297 H   0  0  0  0  0  0  0  0  0  0  0  0
  149.9727  139.9264  157.3584 H   0  0  0  0  0  0  0  0  0  0  0  0
  150.2296  141.4662  156.6075 H   0  0  0  0  0  0  0  0  0  0  0  0
  153.2176  138.6046  156.0828 H   0  0  0  0  0  0  0  0  0  0  0  0
  151.6799  137.9327  156.7413 H   0  0  0  0  0  0  0  0  0  0  0  0
  150.9758  136.7347  153.4613 H   0  0  0  0  0  0  0  0  0  0  0  0
  149.6476  138.8121  155.0809 H   0  0  0  0  0  0  0  0  0  0  0  0
  150.4203  139.8129  153.7957 H   0  0  0  0  0  0  0  0  0  0  0  0
  149.7993  144.9670  158.1422 H   0  0  0  0  0  0  0  0  0  0  0  0
  153.6892  142.7270  162.7522 H   0  0  0  0  0  0  0  0  0  0  0  0
  153.3633  140.8821  160.7482 H   0  0  0  0  0  0  0  0  0  0  0  0
  150.7295  145.6308  160.1711 H   0  0  0  0  0  0  0  0  0  0  0  0
  1  2  1  0  0  0  0
  1 20  1  0  0  0  0
  1 21  1  0  0  0  0
  1 22  1  0  0  0  0
  2  3  1  0  0  0  0
  2  9  1  0  0  0  0
  3  4  1  0  0  0  0
  3 23  1  0  0  0  0
  3 24  1  0  0  0  0
  4 18  1  0  0  0  0
  4  8  1  0  0  0  0
  4  5  1  0  0  0  0
  5  6  1  0  0  0  0
  5 25  1  0  0  0  0
  5 26  1  0  0  0  0
  6 19  1  0  0  0  0
  6  7  1  0  0  0  0
  6  8  1  0  0  0  0
  7 27  1  0  0  0  0
  8 28  1  0  0  0  0
  8 29  1  0  0  0  0
  9 17  2  0  0  0  0
  9 10  1  0  0  0  0
 10 11  2  0  0  0  0
 11 12  1  0  0  0  0
 11 30  1  0  0  0  0
 12 13  1  0  0  0  0
 12 33  1  0  0  0  0
 13 17  1  0  0  0  0
 13 14  2  0  0  0  0
 14 15  1  0  0  0  0
 15 16  2  0  0  0  0
 15 31  1  0  0  0  0
 16 17  1  0  0  0  0
 16 32  1  0  0  0  0
M  END
> <s_m_source_file>
AV-unprocessed.smi

> <i_m_source_file_index>
3

> <i_lp_mmshare_version>
43012

> <i_f3d_flags>
0

> <s_epik_input>
W25IXTFbY0hdW2NIXWMoYzEyKWMobltjSF1uMilOKFtDSDNdKVtDSDJdW0NASF0zW0NIMl1bQ0BASF0oW09IXSlbQ0gyXTM=

> <s_epik_cmdline>
J2VwaWtfcHl0aG9uJywgJy1waCcsICc3LjAnLCAnLXRuJywgJzgnLCAnLW1hJywgJzIwMCcsICctbWV0YWxfYmluZGluZycsICctaW1hZScsICc8aW5maWxlLm1hZT4nLCAnLW9tYWUnLCAnPG91dGZpbGUubWFlPic=

> <r_lp_tautomer_probability>
1.75997e-05

> <r_epik_Ionization_Penalty>
5.52529

> <r_epik_Ionization_Penalty_Charging>
0

> <r_epik_Ionization_Penalty_Neutral>
5.52529

> <r_epik_State_Penalty>
8.99615

> <r_epik_Charging_Adjusted_Penalty>
8.99615

> <i_epik_Tot_Q>
0

> <i_epik_Tot_abs_Q>
0

> <r_epik_Metal_State_Penalty>
6.01519

> <b_epik_Metal_Only>
1

> <s_lp_Force_Field>
OPLS_2005

> <r_lp_Energy>
25.1021

> <b_lp_Chiralities_Consistent>
1

> <s_lp_Variant>
AV-unprocessed.smi:3-5

> <Gold.Version>
5.8.1

> <Gold.Id.Protein>
6NUR|6NUR_protein|mol2

> <Gold.PLP.Fitness>
46.2238

> <Gold.PLP.PLP>
-37.4476

> <Gold.PLP.part.hbond>
-2.0000

> <Gold.PLP.part.metal>
0.0000

> <Gold.PLP.part.buried>
-5.1781

> <Gold.PLP.part.nonpolar>
-30.1740

> <Gold.PLP.part.repulsive>
0.4533

> <Gold.PLP.ligand.clash>
0.9650

> <Gold.PLP.ligand.torsion>
0.2559

> <Gold.PLP.Chemscore.Hbond>
1.9920

> <Gold.PLP.Chemscore.CHOScore>
1.0000

> <Gold.PLP.Chemscore.Metal>
0.0000

> <Gold.Chemscore.Hbonds>
donor molecule, donor type, donor heavy atom, donor atom, acceptor molecule, acceptor atom, score
      L1  H     7    27       P1  7949  0.80
      P1  H 10752 10763       L1     7  0.58
      L1  C    11    30       P1  8028  0.14
      L1  C    11    30       P1  8029  0.90

> <Gold.PLP.Chemscore.Internal.Correction>
1.2770

> <Gold.Rescore>
     Score         DG    S(hbond)    S(metal)    S(lipo)     H(rot)  DE(clash)    DE(int)     intcor
     10.76     -13.12       1.07        0.00      74.91       1.84       0.21       2.15       ----

> <Gold.Chemscore.Fitness>
10.7607

> <Gold.Chemscore.DG>
-13.1229

> <Gold.Chemscore.ZeroCoef>
-5.4800

> <Gold.Chemscore.Hbond>
1.0742

> <Gold.Chemscore.Metal>
0.0000

> <Gold.Chemscore.Lipo>
74.9119

> <Gold.Chemscore.Internal_Hbond>
0.0000

> <Gold.Chemscore.DEClash>
0.2125

> <Gold.Chemscore.DEInternal>
2.1497

> <Gold.Chemscore.Rot>
1.8396

> <Gold.Chemscore.Internal.Correction>
   9.000000E+99

> <Gold.Chemscore.Hbonds>
donor molecule, donor type, donor heavy atom, donor atom, acceptor molecule, acceptor atom, score
      L1  H     7    27       P1  7949  0.19
      P1  H 10752 10763       L1     7  0.03

> <Gold.Chemscore.Hbond.Weighted>
-3.5877

> <Gold.Chemscore.Metal.Weighted>
-0.0000

> <Gold.Chemscore.Lipo.Weighted>
-8.7647

> <Gold.Chemscore.Internal_Hbond.Weighted>
0.0000

> <Gold.Chemscore.DEClash.Weighted>
0.2125

> <Gold.Chemscore.DEInternal.Weighted>
2.1497

> <Gold.Chemscore.Rot.Weighted>
4.7095

> <Gold.Chemscore.Internal.Correction.Weighted>
   9.000000E+99

> <Gold.Protein.RotatedTorsions>
[ 6907 6896 6895 6894 ] final -179.13 input  -60.11 | X-H torsion
[ 7974 7965 7964 7962 ] final -102.48 input  175.53 | X-H torsion
[ 8008 7997 7996 7995 ] final  132.56 input   59.86 | X-H torsion
[ 10167 10162 10161 10158 ] final  -76.03 input  -65.29 | X-H torsion
[ 10718 10713 10712 10709 ] final  171.57 input   66.30 | X-H torsion
[ 10763 10752 10751 10750 ] final   26.33 input  -60.55 | X-H torsion
[ 11005 11000 10999 10996 ] final  -11.30 input  -57.11 | X-H torsion

> <Gold.Protein.ActiveResidues>
 VAL166  LYS551  ARG553  GLY616  TRP617  ASP618  TYR619  PRO620  LYS621  CYS622 
 ASP623  PHE694  ASN695  SER759  ASP760  ASP761  ALA762  ILE779  LEU786  VAL792 
 PHE793  MET794  SER795  GLU796  ALA797  LYS798  CYS799  TRP800  GLU811  SER814 

> <Gold.Protein.RotatedAtoms>
  151.6485  133.3322  159.3146 H   0  0  0  0  0  0  0  0  0  0  0  0  # atno 6907 bound_to 6896
  150.7972  134.7044  159.6578 H   0  0  0  0  0  0  0  0  0  0  0  0  # atno 6908 bound_to 6896
  152.4061  134.6209  160.0102 H   0  0  0  0  0  0  0  0  0  0  0  0  # atno 6909 bound_to 6896
  145.2681  140.9290  143.3002 H   0  0  0  0  0  0  0  0  0  0  0  0  # atno 7974 bound_to 7965
  156.2984  140.2543  156.3109 H   0  0  0  0  0  0  0  0  0  0  0  0  # atno 8008 bound_to 7997
  154.9327  140.0398  157.2075 H   0  0  0  0  0  0  0  0  0  0  0  0  # atno 8009 bound_to 7997
  154.8202  140.2859  155.5796 H   0  0  0  0  0  0  0  0  0  0  0  0  # atno 8010 bound_to 7997
  140.4891  143.2384  151.7935 H   0  0  0  0  0  0  0  0  0  0  0  0  # atno 10167 bound_to 10162
  156.9916  131.0149  151.2855 H   0  0  0  0  0  0  0  0  0  0  0  0  # atno 10718 bound_to 10713
  153.0630  135.6563  154.0419 H   0  0  0  0  0  0  0  0  0  0  0  0  # atno 10763 bound_to 10752
  154.0082  135.2931  155.3397 H   0  0  0  0  0  0  0  0  0  0  0  0  # atno 10764 bound_to 10752
  154.6976  135.5257  153.8549 H   0  0  0  0  0  0  0  0  0  0  0  0  # atno 10765 bound_to 10752
  140.7538  133.8571  155.9067 H   0  0  0  0  0  0  0  0  0  0  0  0  # atno 11005 bound_to 11000
  144.9359  139.4245  143.6472 LP  0  0  0  0  0  0  0  0  0  0  0  0  # atno 17320 bound_to 7965
  146.3255  139.8294  142.8911 LP  0  0  0  0  0  0  0  0  0  0  0  0  # atno 17321 bound_to 7965
  139.4848  144.4672  151.9469 LP  0  0  0  0  0  0  0  0  0  0  0  0  # atno 17342 bound_to 10162
  140.3759  144.2797  150.5914 LP  0  0  0  0  0  0  0  0  0  0  0  0  # atno 17343 bound_to 10162
  157.5455  130.8148  149.8080 LP  0  0  0  0  0  0  0  0  0  0  0  0  # atno 17370 bound_to 10713
  156.0205  130.3797  150.1977 LP  0  0  0  0  0  0  0  0  0  0  0  0  # atno 17371 bound_to 10713
  140.9726  134.1510  157.4563 LP  0  0  0  0  0  0  0  0  0  0  0  0  # atno 17394 bound_to 11000
  139.8783  134.9984  156.5897 LP  0  0  0  0  0  0  0  0  0  0  0  0  # atno 17395 bound_to 11000

$$$$
