#       Name:                AV-unprocessed.smi:227
#       Creating user name   scv26
#       Creation time:       Thu Mar 26 20:22:34 2020


#       File generated by GOLD software.
#

@<TRIPOS>MOLECULE
AV-unprocessed.smi:227
    64    68     1
SMALL
NO_CHARGES


@<TRIPOS>ATOM
      1 ****        -2.7353  -2.8839  -0.6782 O.3            1 S1                 0.0000
      2 ****        -3.1644  -1.5392  -0.7389 C.3            1 S1                 0.0000
      3 ****        -2.7052  -0.8568  -2.0508 C.3            1 S1                 0.0000
      4 ****        -1.1636  -0.7540  -2.1601 C.3            1 S1                 0.0000
      5 ****        -0.5552  -0.0971  -1.0163 N.pl3          1 S1                 0.0000
      6 ****        -0.5507   1.2535  -0.7566 C.2            1 S1                 0.0000
      7 ****         0.0556   1.6051   0.3437 N.2            1 S1                 0.0000
      8 ****         0.5154   0.4075   0.8801 C.ar           1 S1                 0.0000
      9 ****         1.2490   0.0560   2.0495 C.ar           1 S1                 0.0000
     10 ****         1.6877   0.9655   2.9576 N.3            1 S1                 0.0000
     11 ****         2.6398   0.6299   4.0021 C.3            1 S1                 0.0000
     12 ****         2.5587   1.8736   4.9075 C.3            1 S1                 0.0000
     13 ****         2.2934   2.9878   3.8758 C.3            1 S1                 0.0000
     14 ****         2.3523   2.1966   2.5559 C.3            1 S1                 0.0000
     15 ****         3.8335   1.8049   2.3066 C.3            1 S1                 0.0000
     16 ****         4.2641   1.5687   0.8420 C.3            1 S1                 0.0000
     17 ****         3.6415   0.4599   0.2312 O.3            1 S1                 0.0000
     18 ****         3.9981   0.6125   3.2692 C.3            1 S1                 0.0000
     19 ****         1.4873  -1.2652   2.2635 N.ar           1 S1                 0.0000
     20 ****         1.0727  -2.1788   1.3817 C.ar           1 S1                 0.0000
     21 ****         0.4010  -1.9952   0.2442 N.ar           1 S1                 0.0000
     22 ****         0.1358  -0.6743   0.0350 C.ar           1 S1                 0.0000
     23 ****        -3.3257  -1.5207  -3.3062 C.3            1 S1                 0.0000
     24 ****        -3.0585  -0.7932  -4.6124 C.3            1 S1                 0.0000
     25 ****        -4.1292  -1.3758  -5.5274 C.3            1 S1                 0.0000
     26 ****        -5.2477  -1.6382  -4.6882 O.3            1 S1                 0.0000
     27 ****        -4.8578  -1.5605  -3.3203 C.3            1 S1                 0.0000
     28 ****        -2.9846  -3.2421   0.1600 H              1 S1                 0.0000
     29 ****        -4.2501  -1.5161  -0.6480 H              1 S1                 0.0000
     30 ****        -2.7819  -1.0097   0.1336 H              1 S1                 0.0000
     31 ****        -3.0849   0.1652  -2.0105 H              1 S1                 0.0000
     32 ****        -0.7231  -1.7455  -2.2708 H              1 S1                 0.0000
     33 ****        -0.8783  -0.1914  -3.0489 H              1 S1                 0.0000
     34 ****        -1.0206   1.9733  -1.4109 H              1 S1                 0.0000
     35 ****         2.4242  -0.2948   4.5389 H              1 S1                 0.0000
     36 ****         1.7267   1.7956   5.6084 H              1 S1                 0.0000
     37 ****         3.4731   2.0337   5.4799 H              1 S1                 0.0000
     38 ****         1.3004   3.4148   4.0233 H              1 S1                 0.0000
     39 ****         3.0174   3.8018   3.9274 H              1 S1                 0.0000
     40 ****         1.8981   2.7379   1.7276 H              1 S1                 0.0000
     41 ****         4.4677   2.6202   2.6581 H              1 S1                 0.0000
     42 ****         4.0529   2.4564   0.2452 H              1 S1                 0.0000
     43 ****         5.3421   1.4116   0.7992 H              1 S1                 0.0000
     44 ****         3.9631   0.3829  -0.6541 H              1 S1                 0.0000
     45 ****         4.8445   0.7301   3.9466 H              1 S1                 0.0000
     46 ****         4.1333  -0.3259   2.7308 H              1 S1                 0.0000
     47 ****         1.3138  -3.2035   1.6224 H              1 S1                 0.0000
     48 ****        -2.9517  -2.5415  -3.4025 H              1 S1                 0.0000
     49 ****        -3.2130   0.2801  -4.4920 H              1 S1                 0.0000
     50 ****        -2.0517  -0.9532  -4.9989 H              1 S1                 0.0000
     51 ****        -4.3905  -0.7052  -6.3461 H              1 S1                 0.0000
     52 ****        -3.7890  -2.3188  -5.9570 H              1 S1                 0.0000
     53 ****        -5.2571  -2.4009  -2.7522 H              1 S1                 0.0000
     54 ****        -5.2733  -0.6429  -2.9016 H              1 S1                 0.0000
     55 ****        -1.7414  -2.9254  -0.7802 LP             1 S1                 0.0000
     56 ****        -3.1678  -3.4090  -1.4111 LP             1 S1                 0.0000
     57 ****         0.1648   2.5265   0.7166 LP             1 S1                 0.0000
     58 ****         0.7284   1.0323   3.2319 LP             1 S1                 0.0000
     59 ****         2.6507   0.5944   0.2191 LP             1 S1                 0.0000
     60 ****         3.8587  -0.3719   0.7420 LP             1 S1                 0.0000
     61 ****         1.9761  -1.5549   3.0864 LP             1 S1                 0.0000
     62 ****         0.1273  -2.7311  -0.3751 LP             1 S1                 0.0000
     63 ****        -5.5990  -2.5544  -4.8811 LP             1 S1                 0.0000
     64 ****        -5.9626  -0.9624  -4.8679 LP             1 S1                 0.0000
@<TRIPOS>BOND
    1    1    2 1     
    2    1   28 1     
    3    2    3 1     
    4    2   29 1     
    5    2   30 1     
    6    3    4 1     
    7    3   23 1     
    8    3   31 1     
    9    4    5 1     
   10    4   32 1     
   11    4   33 1     
   12    5   22 1     
   13    5    6 1     
   14    6    7 2     
   15    6   34 1     
   16    7    8 1     
   17    8   22 ar    
   18    8    9 ar    
   19    9   10 1     
   20    9   19 ar    
   21   10   14 1     
   22   10   11 1     
   23   11   18 1     
   24   11   12 1     
   25   11   35 1     
   26   12   13 1     
   27   12   36 1     
   28   12   37 1     
   29   13   14 1     
   30   13   38 1     
   31   13   39 1     
   32   14   15 1     
   33   14   40 1     
   34   15   16 1     
   35   15   18 1     
   36   15   41 1     
   37   16   17 1     
   38   16   42 1     
   39   16   43 1     
   40   17   44 1     
   41   18   45 1     
   42   18   46 1     
   43   19   20 ar    
   44   20   21 ar    
   45   20   47 1     
   46   21   22 ar    
   47   23   27 1     
   48   23   24 1     
   49   23   48 1     
   50   24   25 1     
   51   24   49 1     
   52   24   50 1     
   53   25   26 1     
   54   25   51 1     
   55   25   52 1     
   56   26   27 1     
   57   27   53 1     
   58   27   54 1     
   59    1   55 1     
   60    1   56 1     
   61    7   57 1     
   62   10   58 1     
   63   17   59 1     
   64   17   60 1     
   65   19   61 1     
   66   21   62 1     
   67   26   63 1     
   68   26   64 1     
@<TRIPOS>SUBSTRUCTURE
      1 S1             1
@<TRIPOS>SET
LONE_PAIRS      STATIC     ATOMS    <user>   **** ""
10 55 56 57 58 59 60 61 62 63 64
DONOR_HYDROGENS      STATIC     ATOMS    <user>   **** ""
2 28 44
ATOM$BLUE        STATIC     ATOMS    COLORGROUP SYSTEM
10 55 56 57 58 59 60 61 62 63 64
ATOM$RED        STATIC     ATOMS    COLORGROUP SYSTEM
2 28 44
