AV-unprocessed.smi:2114|AV-procd|sdf|8618|dock6
  -GOLD-   2272011363D 1   1.00000     0.00000
 Structure written by MMmdl.
 47 48  0  0  0  0  0  0  0  0  1 V2000
  157.4655  145.8787  169.4026 C   0  0  0  0  0  0  0  0  0  0  0  0
  156.7469  144.6609  169.3172 O   0  0  0  0  0  0  0  0  0  0  0  0
  156.0020  144.5513  168.1147 C   0  0  0  0  0  0  0  0  0  0  0  0
  155.9564  143.0799  167.6753 C   0  0  1  0  0  0  0  0  0  0  0  0
  155.2148  142.2083  168.7019 C   0  0  0  0  0  0  0  0  0  0  0  0
  155.3109  142.9835  166.3691 N   0  0  0  0  0  0  0  0  0  0  0  0
  155.6424  142.1174  165.3978 C   0  0  0  0  0  0  0  0  0  0  0  0
  156.5149  141.2572  165.5194 O   0  0  0  0  0  0  0  0  0  0  0  0
  154.8240  142.2109  164.1431 C   0  0  0  0  0  0  0  0  0  0  0  0
  153.8256  143.1976  164.0077 C   0  0  0  0  0  0  0  0  0  0  0  0
  153.0624  143.2435  162.8253 C   0  0  0  0  0  0  0  0  0  0  0  0
  153.3097  142.2937  161.8062 C   0  0  0  0  0  0  0  0  0  0  0  0
  152.5582  142.3246  160.6120 N   0  0  0  0  0  0  0  0  0  0  0  0
  152.7105  141.2113  159.6783 C   0  0  0  0  0  0  0  0  0  0  0  0
  151.6173  141.2642  158.5952 C   0  0  2  0  0  0  0  0  0  0  0  0
  151.8124  140.1826  157.5277 C   0  0  0  0  0  0  0  0  0  0  0  0
  151.6550  142.5371  157.9559 O   0  0  0  0  0  0  0  0  0  0  0  0
  151.3949  143.6079  158.8594 C   0  0  2  0  0  0  0  0  0  0  0  0
  151.3631  144.9137  158.0591 C   0  0  0  0  0  0  0  0  0  0  0  0
  152.4810  143.6245  159.9515 C   0  0  0  0  0  0  0  0  0  0  0  0
  154.2565  141.3335  161.9464 N   0  0  0  0  0  0  0  0  0  0  0  0
  154.9868  141.2944  163.0807 C   0  0  0  0  0  0  0  0  0  0  0  0
  158.0208  145.9111  170.3400 H   0  0  0  0  0  0  0  0  0  0  0  0
  156.7921  146.7364  169.3804 H   0  0  0  0  0  0  0  0  0  0  0  0
  158.1806  145.9730  168.5844 H   0  0  0  0  0  0  0  0  0  0  0  0
  154.9886  144.9203  168.2822 H   0  0  0  0  0  0  0  0  0  0  0  0
  156.4490  145.1689  167.3334 H   0  0  0  0  0  0  0  0  0  0  0  0
  156.9838  142.7198  167.5945 H   0  0  0  0  0  0  0  0  0  0  0  0
  155.6908  142.2670  169.6810 H   0  0  0  0  0  0  0  0  0  0  0  0
  155.2120  141.1595  168.4036 H   0  0  0  0  0  0  0  0  0  0  0  0
  154.1776  142.5249  168.8167 H   0  0  0  0  0  0  0  0  0  0  0  0
  154.5653  143.6389  166.1840 H   0  0  0  0  0  0  0  0  0  0  0  0
  153.6422  143.9153  164.7942 H   0  0  0  0  0  0  0  0  0  0  0  0
  152.2907  143.9916  162.7210 H   0  0  0  0  0  0  0  0  0  0  0  0
  153.6990  141.2604  159.2188 H   0  0  0  0  0  0  0  0  0  0  0  0
  152.6449  140.2626  160.2128 H   0  0  0  0  0  0  0  0  0  0  0  0
  150.6374  141.1243  159.0550 H   0  0  0  0  0  0  0  0  0  0  0  0
  151.7819  139.1861  157.9689 H   0  0  0  0  0  0  0  0  0  0  0  0
  152.7716  140.2960  157.0219 H   0  0  0  0  0  0  0  0  0  0  0  0
  151.0286  140.2352  156.7720 H   0  0  0  0  0  0  0  0  0  0  0  0
  150.4154  143.4595  159.3180 H   0  0  0  0  0  0  0  0  0  0  0  0
  151.1512  145.7655  158.7059 H   0  0  0  0  0  0  0  0  0  0  0  0
  150.5907  144.8798  157.2905 H   0  0  0  0  0  0  0  0  0  0  0  0
  152.3174  145.0970  157.5647 H   0  0  0  0  0  0  0  0  0  0  0  0
  152.2628  144.4224  160.6598 H   0  0  0  0  0  0  0  0  0  0  0  0
  153.4529  143.8497  159.5106 H   0  0  0  0  0  0  0  0  0  0  0  0
  155.7176  140.5007  163.1340 H   0  0  0  0  0  0  0  0  0  0  0  0
  1  2  1  0  0  0  0
  1 23  1  0  0  0  0
  1 24  1  0  0  0  0
  1 25  1  0  0  0  0
  2  3  1  0  0  0  0
  3  4  1  0  0  0  0
  3 26  1  0  0  0  0
  3 27  1  0  0  0  0
  4  5  1  0  0  0  0
  4  6  1  0  0  0  0
  4 28  1  0  0  0  0
  5 29  1  0  0  0  0
  5 30  1  0  0  0  0
  5 31  1  0  0  0  0
  6  7  1  0  0  0  0
  6 32  1  0  0  0  0
  7  8  2  0  0  0  0
  7  9  1  0  0  0  0
  9 22  1  0  0  0  0
  9 10  2  0  0  0  0
 10 11  1  0  0  0  0
 10 33  1  0  0  0  0
 11 12  2  0  0  0  0
 11 34  1  0  0  0  0
 12 13  1  0  0  0  0
 12 21  1  0  0  0  0
 13 20  1  0  0  0  0
 13 14  1  0  0  0  0
 14 15  1  0  0  0  0
 14 35  1  0  0  0  0
 14 36  1  0  0  0  0
 15 16  1  0  0  0  0
 15 17  1  0  0  0  0
 15 37  1  0  0  0  0
 16 38  1  0  0  0  0
 16 39  1  0  0  0  0
 16 40  1  0  0  0  0
 17 18  1  0  0  0  0
 18 19  1  0  0  0  0
 18 20  1  0  0  0  0
 18 41  1  0  0  0  0
 19 42  1  0  0  0  0
 19 43  1  0  0  0  0
 19 44  1  0  0  0  0
 20 45  1  0  0  0  0
 20 46  1  0  0  0  0
 21 22  2  0  0  0  0
 22 47  1  0  0  0  0
M  END
> <s_m_source_file>
AV-unprocessed.smi

> <i_m_source_file_index>
2114

> <i_lp_mmshare_version>
43012

> <i_f3d_flags>
0

> <s_epik_input>
W0NIM11PW0NIMl1bQ0BIXShbQ0gzXSlbTkhdQyg9TyljMVtjSF1bY0hdYyhuW2NIXTEpTjJbQ0gyXVtDQEBIXShbQ0gzXSlPW0NAQEhdKFtDSDNdKVtDSDJdMg==

> <s_epik_cmdline>
J2VwaWtfcHl0aG9uJywgJy1waCcsICc3LjAnLCAnLXRuJywgJzgnLCAnLW1hJywgJzIwMCcsICctbWV0YWxfYmluZGluZycsICctaW1hZScsICc8aW5maWxlLm1hZT4nLCAnLW9tYWUnLCAnPG91dGZpbGUubWFlPic=

> <r_lp_tautomer_probability>
1

> <r_epik_Ionization_Penalty>
1.92915e-05

> <r_epik_Ionization_Penalty_Charging>
0

> <r_epik_Ionization_Penalty_Neutral>
1.92915e-05

> <r_epik_State_Penalty>
-0

> <r_epik_Charging_Adjusted_Penalty>
0

> <i_epik_Tot_Q>
0

> <i_epik_Tot_abs_Q>
0

> <r_epik_Metal_State_Penalty>
-0

> <b_epik_Metal_Only>
0

> <s_lp_Force_Field>
OPLS_2005

> <r_lp_Energy>
18.3403

> <b_lp_Chiralities_Consistent>
1

> <s_lp_Variant>
AV-unprocessed.smi:2114-2

> <Gold.Version>
5.8.1

> <Gold.Id.Protein>
6NUR|6NUR_protein|mol2

> <Gold.PLP.Fitness>
44.2433

> <Gold.PLP.PLP>
-45.4074

> <Gold.PLP.part.hbond>
-0.7895

> <Gold.PLP.part.metal>
0.0000

> <Gold.PLP.part.buried>
-2.0730

> <Gold.PLP.part.nonpolar>
-40.8111

> <Gold.PLP.part.repulsive>
0.3059

> <Gold.PLP.ligand.clash>
0.0000

> <Gold.PLP.ligand.torsion>
0.7540

> <Gold.PLP.Chemscore.Hbond>
0.0000

> <Gold.PLP.Chemscore.CHOScore>
0.0000

> <Gold.PLP.Chemscore.Metal>
0.0000

> <Gold.PLP.Chemscore.Internal.Correction>
0.3438

> <Gold.Rescore>
     Score         DG    S(hbond)    S(metal)    S(lipo)     H(rot)  DE(clash)    DE(int)     intcor
     14.82     -15.69       0.00        0.00     120.62       1.52       0.20       0.68       ----

> <Gold.Chemscore.Fitness>
14.8218

> <Gold.Chemscore.DG>
-15.6944

> <Gold.Chemscore.ZeroCoef>
-5.4800

> <Gold.Chemscore.Hbond>
0.0000

> <Gold.Chemscore.Metal>
0.0000

> <Gold.Chemscore.Lipo>
120.6187

> <Gold.Chemscore.Internal_Hbond>
0.0000

> <Gold.Chemscore.DEClash>
0.1956

> <Gold.Chemscore.DEInternal>
0.6770

> <Gold.Chemscore.Rot>
1.5226

> <Gold.Chemscore.Internal.Correction>
   9.000000E+99

> <Gold.Chemscore.Hbond.Weighted>
-0.0000

> <Gold.Chemscore.Metal.Weighted>
-0.0000

> <Gold.Chemscore.Lipo.Weighted>
-14.1124

> <Gold.Chemscore.Internal_Hbond.Weighted>
0.0000

> <Gold.Chemscore.DEClash.Weighted>
0.1956

> <Gold.Chemscore.DEInternal.Weighted>
0.6770

> <Gold.Chemscore.Rot.Weighted>
3.8980

> <Gold.Chemscore.Internal.Correction.Weighted>
   9.000000E+99

> <Gold.Protein.RotatedTorsions>
[ 6907 6896 6895 6894 ] final  -35.98 input  -60.11 | X-H torsion
[ 7974 7965 7964 7962 ] final   77.12 input  175.53 | X-H torsion
[ 8008 7997 7996 7995 ] final  -75.55 input   59.86 | X-H torsion
[ 10167 10162 10161 10158 ] final   42.06 input  -65.29 | X-H torsion
[ 10718 10713 10712 10709 ] final  153.38 input   66.30 | X-H torsion
[ 10763 10752 10751 10750 ] final -172.52 input  -60.55 | X-H torsion
[ 11005 11000 10999 10996 ] final   62.11 input  -57.11 | X-H torsion

> <Gold.Protein.ActiveResidues>
 VAL166  LYS551  ARG553  GLY616  TRP617  ASP618  TYR619  PRO620  LYS621  CYS622 
 ASP623  PHE694  ASN695  SER759  ASP760  ASP761  ALA762  ILE779  LEU786  VAL792 
 PHE793  MET794  SER795  GLU796  ALA797  LYS798  CYS799  TRP800  GLU811  SER814 

> <Gold.Protein.RotatedAtoms>
  151.0329  134.9552  159.8120 H   0  0  0  0  0  0  0  0  0  0  0  0  # atno 6907 bound_to 6896
  152.5349  134.2756  159.8998 H   0  0  0  0  0  0  0  0  0  0  0  0  # atno 6908 bound_to 6896
  151.2766  133.4187  159.2658 H   0  0  0  0  0  0  0  0  0  0  0  0  # atno 6909 bound_to 6896
  145.6940  139.2561  143.1743 H   0  0  0  0  0  0  0  0  0  0  0  0  # atno 7974 bound_to 7965
  154.5426  140.0742  156.8536 H   0  0  0  0  0  0  0  0  0  0  0  0  # atno 8008 bound_to 7997
  155.3150  140.3392  155.4224 H   0  0  0  0  0  0  0  0  0  0  0  0  # atno 8009 bound_to 7997
  156.1889  140.1679  156.8117 H   0  0  0  0  0  0  0  0  0  0  0  0  # atno 8010 bound_to 7997
  140.3582  144.2263  150.6140 H   0  0  0  0  0  0  0  0  0  0  0  0  # atno 10167 bound_to 10162
  157.2455  131.0768  151.1764 H   0  0  0  0  0  0  0  0  0  0  0  0  # atno 10718 bound_to 10713
  154.6183  135.2872  155.0355 H   0  0  0  0  0  0  0  0  0  0  0  0  # atno 10763 bound_to 10752
  154.1559  135.6496  153.4978 H   0  0  0  0  0  0  0  0  0  0  0  0  # atno 10764 bound_to 10752
  153.0225  135.5366  154.6963 H   0  0  0  0  0  0  0  0  0  0  0  0  # atno 10765 bound_to 10752
  140.0114  134.6290  155.9774 H   0  0  0  0  0  0  0  0  0  0  0  0  # atno 11005 bound_to 11000
  146.0856  140.7714  142.9620 LP  0  0  0  0  0  0  0  0  0  0  0  0  # atno 17320 bound_to 7965
  144.6988  140.3557  143.7173 LP  0  0  0  0  0  0  0  0  0  0  0  0  # atno 17321 bound_to 7965
  140.5153  143.2280  151.8473 LP  0  0  0  0  0  0  0  0  0  0  0  0  # atno 17342 bound_to 10162
  139.4817  144.4901  151.9195 LP  0  0  0  0  0  0  0  0  0  0  0  0  # atno 17343 bound_to 10162
  157.3333  130.6996  149.6337 LP  0  0  0  0  0  0  0  0  0  0  0  0  # atno 17370 bound_to 10713
  155.9668  130.4301  150.4861 LP  0  0  0  0  0  0  0  0  0  0  0  0  # atno 17371 bound_to 10713
  141.1714  133.6537  156.4664 LP  0  0  0  0  0  0  0  0  0  0  0  0  # atno 17394 bound_to 11000
  140.4547  134.6896  157.5057 LP  0  0  0  0  0  0  0  0  0  0  0  0  # atno 17395 bound_to 11000

$$$$
