#       Name:                AV-unprocessed.smi:1747
#       Creating user name   scv26
#       Creation time:       Fri Mar 27 08:25:24 2020


#       File generated by GOLD software.
#

@<TRIPOS>MOLECULE
AV-unprocessed.smi:1747
    45    46     1
SMALL
NO_CHARGES


@<TRIPOS>ATOM
      1 ****        -4.7964   0.0695  -0.8987 C.3            1 S1                 0.0000
      2 ****        -4.3178   1.1168   0.1094 C.2            1 S1                 0.0000
      3 ****        -5.0509   2.0805   0.3315 O.2            1 S1                 0.0000
      4 ****        -3.1170   0.9545   0.7156 N.am           1 S1                 0.0000
      5 ****        -2.1810  -0.1547   0.4726 C.3            1 S1                 0.0000
      6 ****        -0.8743   0.4115  -0.1174 C.3            1 S1                 0.0000
      7 ****        -0.3083   1.3921   0.8295 N.am           1 S1                 0.0000
      8 ****         0.8641   1.2814   1.5048 C.2            1 S1                 0.0000
      9 ****         1.2537   2.1118   2.3270 O.2            1 S1                 0.0000
     10 ****         1.5869   0.1930   1.1997 N.am           1 S1                 0.0000
     11 ****         2.8994  -0.1235   1.7491 C.3            1 S1                 0.0000
     12 ****         3.4575  -1.4383   1.1749 C.3            1 S1                 0.0000
     13 ****         3.4960  -1.4693  -0.3266 C.2            1 S1                 0.0000
     14 ****         4.5495  -1.1091  -1.1292 C.2            1 S1                 0.0000
     15 ****         4.1626  -1.2669  -2.8207 S.3            1 S1                 0.0000
     16 ****         2.5570  -1.8260  -2.3697 C.2            1 S1                 0.0000
     17 ****         1.5128  -2.1980  -3.3654 C.3            1 S1                 0.0000
     18 ****         2.3695  -1.8782  -1.0490 N.2            1 S1                 0.0000
     19 ****        -1.2438   2.5030   1.0630 C.3            1 S1                 0.0000
     20 ****        -2.5563   1.9440   1.6484 C.3            1 S1                 0.0000
     21 ****        -4.0980  -0.0119  -1.7320 H              1 S1                 0.0000
     22 ****        -5.7690   0.3461  -1.3071 H              1 S1                 0.0000
     23 ****        -4.9007  -0.9067  -0.4240 H              1 S1                 0.0000
     24 ****        -1.9772  -0.6615   1.4173 H              1 S1                 0.0000
     25 ****        -2.5736  -0.9214  -0.1930 H              1 S1                 0.0000
     26 ****        -0.2042  -0.4125  -0.3615 H              1 S1                 0.0000
     27 ****        -1.0770   0.9102  -1.0665 H              1 S1                 0.0000
     28 ****         1.2132  -0.4489   0.5152 H              1 S1                 0.0000
     29 ****         3.5828   0.6947   1.5165 H              1 S1                 0.0000
     30 ****         2.8374  -0.1880   2.8362 H              1 S1                 0.0000
     31 ****         4.4584  -1.6031   1.5749 H              1 S1                 0.0000
     32 ****         2.8563  -2.2704   1.5437 H              1 S1                 0.0000
     33 ****         5.5246  -0.7550  -0.8289 H              1 S1                 0.0000
     34 ****         0.6282  -2.5934  -2.8652 H              1 S1                 0.0000
     35 ****         1.8990  -2.9578  -4.0449 H              1 S1                 0.0000
     36 ****         1.2237  -1.3217  -3.9455 H              1 S1                 0.0000
     37 ****        -0.8412   3.2617   1.7353 H              1 S1                 0.0000
     38 ****        -1.4384   3.0142   0.1189 H              1 S1                 0.0000
     39 ****        -3.2408   2.7682   1.8531 H              1 S1                 0.0000
     40 ****        -2.3676   1.4646   2.6100 H              1 S1                 0.0000
     41 ****        -5.9285   2.1605  -0.1411 LP             1 S1                 0.0000
     42 ****        -4.7688   2.7833   0.9845 LP             1 S1                 0.0000
     43 ****         0.6966   2.9181   2.5257 LP             1 S1                 0.0000
     44 ****         2.1271   1.9796   2.7957 LP             1 S1                 0.0000
     45 ****         1.5161  -2.1773  -0.6221 LP             1 S1                 0.0000
@<TRIPOS>BOND
    1    1    2 1     
    2    1   21 1     
    3    1   22 1     
    4    1   23 1     
    5    2    3 2     
    6    2    4 am    
    7    4   20 1     
    8    4    5 1     
    9    5    6 1     
   10    5   24 1     
   11    5   25 1     
   12    6    7 1     
   13    6   26 1     
   14    6   27 1     
   15    7    8 am    
   16    7   19 1     
   17    8    9 2     
   18    8   10 am    
   19   10   11 1     
   20   10   28 1     
   21   11   12 1     
   22   11   29 1     
   23   11   30 1     
   24   12   13 1     
   25   12   31 1     
   26   12   32 1     
   27   13   18 1     
   28   13   14 2     
   29   14   15 1     
   30   14   33 1     
   31   15   16 1     
   32   16   17 1     
   33   16   18 2     
   34   17   34 1     
   35   17   35 1     
   36   17   36 1     
   37   19   20 1     
   38   19   37 1     
   39   19   38 1     
   40   20   39 1     
   41   20   40 1     
   42    3   41 1     
   43    3   42 1     
   44    9   43 1     
   45    9   44 1     
   46   18   45 1     
@<TRIPOS>SUBSTRUCTURE
      1 S1             1
@<TRIPOS>SET
LONE_PAIRS      STATIC     ATOMS    <user>   **** ""
5 41 42 43 44 45
DONOR_HYDROGENS      STATIC     ATOMS    <user>   **** ""
1 28
ATOM$BLUE        STATIC     ATOMS    COLORGROUP SYSTEM
5 41 42 43 44 45
ATOM$RED        STATIC     ATOMS    COLORGROUP SYSTEM
1 28
