AV-unprocessed.smi:2062|AV-procd|sdf|8398|dock3
  -GOLD-   2272011 83D 1   1.00000     0.00000
 Structure written by MMmdl.
 43 44  0  0  0  0  0  0  0  0  2 V2000
  145.3635  131.2300  150.8435 C   0  0  0  0  0  0  0  0  0  0  0  0
  144.1452  132.1278  150.5696 C   0  0  0  0  0  0  0  0  0  0  0  0
  144.2620  132.7813  149.1844 C   0  0  0  0  0  0  0  0  0  0  0  0
  143.9612  133.2040  151.6624 C   0  0  0  0  0  0  0  0  0  0  0  0
  143.2752  134.4311  151.1719 N   0  3  1  0  0  0  0  0  0  0  0  0
  142.3950  135.0613  152.1855 C   0  0  0  0  0  0  0  0  0  0  0  0
  143.2150  135.8659  153.2092 C   0  0  0  0  0  0  0  0  0  0  0  0
  143.9981  136.8357  152.5263 O   0  0  0  0  0  0  0  0  0  0  0  0
  144.9400  136.2539  151.6299 C   0  0  2  0  0  0  0  0  0  0  0  0
  145.7799  137.3775  150.9967 C   0  0  0  0  0  0  0  0  0  0  0  0
  146.9227  137.7366  151.8301 N   0  0  0  0  0  0  0  0  0  0  0  0
  147.0080  138.8352  152.5937 C   0  0  0  0  0  0  0  0  0  0  0  0
  146.1114  139.6750  152.6768 O   0  0  0  0  0  0  0  0  0  0  0  0
  148.1845  138.8858  153.2423 N   0  0  0  0  0  0  0  0  0  0  0  0
  148.6507  139.8829  154.1388 C   0  0  0  0  0  0  0  0  0  0  0  0
  148.0014  141.0222  154.4054 N   0  0  0  0  0  0  0  0  0  0  0  0
  148.6921  141.8163  155.3244 C   0  0  0  0  0  0  0  0  0  0  0  0
  149.8735  141.2618  155.7501 C   0  0  0  0  0  0  0  0  0  0  0  0
  150.1670  139.7109  155.0104 S   0  0  0  0  0  0  0  0  0  0  0  0
  144.1679  135.4497  150.5601 C   0  0  0  0  0  0  0  0  0  0  0  0
  146.2858  131.8107  150.8804 H   0  0  0  0  0  0  0  0  0  0  0  0
  145.4779  130.4771  150.0629 H   0  0  0  0  0  0  0  0  0  0  0  0
  145.2649  130.6997  151.7907 H   0  0  0  0  0  0  0  0  0  0  0  0
  143.2617  131.4916  150.5385 H   0  0  0  0  0  0  0  0  0  0  0  0
  145.1347  133.4322  149.1235 H   0  0  0  0  0  0  0  0  0  0  0  0
  143.3816  133.3834  148.9576 H   0  0  0  0  0  0  0  0  0  0  0  0
  144.3537  132.0289  148.4004 H   0  0  0  0  0  0  0  0  0  0  0  0
  143.3744  132.7656  152.4709 H   0  0  0  0  0  0  0  0  0  0  0  0
  144.9239  133.4647  152.1017 H   0  0  0  0  0  0  0  0  0  0  0  0
  141.7055  135.7326  151.6716 H   0  0  0  0  0  0  0  0  0  0  0  0
  141.7777  134.3124  152.6825 H   0  0  0  0  0  0  0  0  0  0  0  0
  142.5483  136.3795  153.9021 H   0  0  0  0  0  0  0  0  0  0  0  0
  143.8540  135.2158  153.8086 H   0  0  0  0  0  0  0  0  0  0  0  0
  145.6085  135.5927  152.1830 H   0  0  0  0  0  0  0  0  0  0  0  0
  146.1752  137.0427  150.0374 H   0  0  0  0  0  0  0  0  0  0  0  0
  145.1613  138.2515  150.7853 H   0  0  0  0  0  0  0  0  0  0  0  0
  147.7091  137.1036  151.8198 H   0  0  0  0  0  0  0  0  0  0  0  0
  148.8245  138.1240  153.0727 H   0  0  0  0  0  0  0  0  0  0  0  0
  148.2689  142.7645  155.6219 H   0  0  0  0  0  0  0  0  0  0  0  0
  150.5857  141.6699  156.4515 H   0  0  0  0  0  0  0  0  0  0  0  0
  144.8564  134.9942  149.8500 H   0  0  0  0  0  0  0  0  0  0  0  0
  143.5468  136.1318  149.9778 H   0  0  0  0  0  0  0  0  0  0  0  0
  142.6602  134.1086  150.4381 H   0  0  0  0  0  0  0  0  0  0  0  0
  1  2  1  0  0  0  0
  1 21  1  0  0  0  0
  1 22  1  0  0  0  0
  1 23  1  0  0  0  0
  2  3  1  0  0  0  0
  2  4  1  0  0  0  0
  2 24  1  0  0  0  0
  3 25  1  0  0  0  0
  3 26  1  0  0  0  0
  3 27  1  0  0  0  0
  4  5  1  0  0  0  0
  4 28  1  0  0  0  0
  4 29  1  0  0  0  0
  5 20  1  0  0  0  0
  5  6  1  0  0  0  0
  5 43  1  0  0  0  0
  6  7  1  0  0  0  0
  6 30  1  0  0  0  0
  6 31  1  0  0  0  0
  7  8  1  0  0  0  0
  7 32  1  0  0  0  0
  7 33  1  0  0  0  0
  8  9  1  0  0  0  0
  9 10  1  0  0  0  0
  9 20  1  0  0  0  0
  9 34  1  0  0  0  0
 10 11  1  0  0  0  0
 10 35  1  0  0  0  0
 10 36  1  0  0  0  0
 11 12  1  0  0  0  0
 11 37  1  0  0  0  0
 12 13  2  0  0  0  0
 12 14  1  0  0  0  0
 14 15  1  0  0  0  0
 14 38  1  0  0  0  0
 15 19  1  0  0  0  0
 15 16  2  0  0  0  0
 16 17  1  0  0  0  0
 17 18  2  0  0  0  0
 17 39  1  0  0  0  0
 18 19  1  0  0  0  0
 18 40  1  0  0  0  0
 20 41  1  0  0  0  0
 20 42  1  0  0  0  0
M  CHG  1   5   1
M  END
> <s_m_source_file>
AV-unprocessed.smi

> <i_m_source_file_index>
2062

> <i_lp_mmshare_version>
43012

> <i_f3d_flags>
0

> <s_epik_input>
W0NIM11bQ0hdKFtDSDNdKVtDSDJdTjFbQ0gyXVtDSDJdT1tDQEhdKFtDSDJdMSlbQ0gyXVtOSF1DKD1PKVtOSF1jMm5bY0hdW2NIXXMy

> <s_epik_cmdline>
J2VwaWtfcHl0aG9uJywgJy1waCcsICc3LjAnLCAnLXRuJywgJzgnLCAnLW1hJywgJzIwMCcsICctbWV0YWxfYmluZGluZycsICctaW1hZScsICc8aW5maWxlLm1hZT4nLCAnLW9tYWUnLCAnPG91dGZpbGUubWFlPic=

> <r_lp_tautomer_probability>
0.999

> <r_epik_Ionization_Penalty>
0.0985527

> <r_epik_Ionization_Penalty_Charging>
0.098413

> <r_epik_Ionization_Penalty_Neutral>
0.000139681

> <r_epik_State_Penalty>
0.0884988

> <r_epik_Charging_Adjusted_Penalty>
0.186912

> <i_epik_Tot_Q>
1

> <i_epik_Tot_abs_Q>
1

> <r_epik_Metal_State_Penalty>
0.141792

> <b_epik_Metal_Only>
0

> <s_lp_Force_Field>
OPLS_2005

> <r_lp_Energy>
18.2091

> <b_lp_Chiralities_Consistent>
1

> <s_lp_Variant>
AV-unprocessed.smi:2062-3

> <Gold.Version>
5.8.1

> <Gold.Id.Protein>
6NUR|6NUR_protein|mol2

> <Gold.PLP.Fitness>
45.8860

> <Gold.PLP.PLP>
-34.6173

> <Gold.PLP.part.hbond>
-3.5035

> <Gold.PLP.part.metal>
0.0000

> <Gold.PLP.part.buried>
-0.2037

> <Gold.PLP.part.nonpolar>
-33.7694

> <Gold.PLP.part.repulsive>
2.4024

> <Gold.PLP.ligand.clash>
0.0000

> <Gold.PLP.ligand.torsion>
1.1428

> <Gold.PLP.Chemscore.Hbond>
3.4823

> <Gold.PLP.Chemscore.CHOScore>
1.0000

> <Gold.PLP.Chemscore.Metal>
0.0000

> <Gold.Chemscore.Hbonds>
donor molecule, donor type, donor heavy atom, donor atom, acceptor molecule, acceptor atom, score
      L1  H     5    43       P1 10186  1.76
      L1  H    11    37       P1  7948  0.91
      L1  H    14    38       P1  7948  0.42
      L1  C    17    39       P1  8028  1.00

> <Gold.PLP.Chemscore.Internal.Correction>
0.1076

> <Gold.Rescore>
     Score         DG    S(hbond)    S(metal)    S(lipo)     H(rot)  DE(clash)    DE(int)     intcor
     12.15     -18.92       2.15        0.00      91.99       1.76       3.66       3.12       ----

> <Gold.Chemscore.Fitness>
12.1451

> <Gold.Chemscore.DG>
-18.9217

> <Gold.Chemscore.ZeroCoef>
-5.4800

> <Gold.Chemscore.Hbond>
2.1509

> <Gold.Chemscore.Metal>
0.0000

> <Gold.Chemscore.Lipo>
91.9919

> <Gold.Chemscore.Internal_Hbond>
0.0000

> <Gold.Chemscore.DEClash>
3.6573

> <Gold.Chemscore.DEInternal>
3.1193

> <Gold.Chemscore.Rot>
1.7599

> <Gold.Chemscore.Internal.Correction>
   9.000000E+99

> <Gold.Chemscore.Hbonds>
donor molecule, donor type, donor heavy atom, donor atom, acceptor molecule, acceptor atom, score
      L1  H     5    43       P1 10186  0.74
      L1  H    11    37       P1  7948  0.87
      L1  H    14    38       P1  7948  0.41

> <Gold.Chemscore.Hbond.Weighted>
-7.1840

> <Gold.Chemscore.Metal.Weighted>
-0.0000

> <Gold.Chemscore.Lipo.Weighted>
-10.7631

> <Gold.Chemscore.Internal_Hbond.Weighted>
0.0000

> <Gold.Chemscore.DEClash.Weighted>
3.6573

> <Gold.Chemscore.DEInternal.Weighted>
3.1193

> <Gold.Chemscore.Rot.Weighted>
4.5054

> <Gold.Chemscore.Internal.Correction.Weighted>
   9.000000E+99

> <Gold.Protein.RotatedTorsions>
[ 6907 6896 6895 6894 ] final  165.83 input  -60.11 | X-H torsion
[ 7974 7965 7964 7962 ] final  -29.70 input  175.53 | X-H torsion
[ 8008 7997 7996 7995 ] final -145.82 input   59.86 | X-H torsion
[ 10167 10162 10161 10158 ] final   48.51 input  -65.29 | X-H torsion
[ 10718 10713 10712 10709 ] final -157.79 input   66.30 | X-H torsion
[ 10763 10752 10751 10750 ] final  -85.83 input  -60.55 | X-H torsion
[ 11005 11000 10999 10996 ] final   15.07 input  -57.11 | X-H torsion

> <Gold.Protein.ActiveResidues>
 VAL166  LYS551  ARG553  GLY616  TRP617  ASP618  TYR619  PRO620  LYS621  CYS622 
 ASP623  PHE694  ASN695  SER759  ASP760  ASP761  ALA762  ILE779  LEU786  VAL792 
 PHE793  MET794  SER795  GLU796  ALA797  LYS798  CYS799  TRP800  GLU811  SER814 

> <Gold.Protein.RotatedAtoms>
  151.8884  133.3510  159.3789 H   0  0  0  0  0  0  0  0  0  0  0  0  # atno 6907 bound_to 6896
  150.7109  134.4948  159.5542 H   0  0  0  0  0  0  0  0  0  0  0  0  # atno 6908 bound_to 6896
  152.2514  134.8129  160.0496 H   0  0  0  0  0  0  0  0  0  0  0  0  # atno 6909 bound_to 6896
  146.1197  140.5446  142.8741 H   0  0  0  0  0  0  0  0  0  0  0  0  # atno 7974 bound_to 7965
  155.5494  140.0615  157.2853 H   0  0  0  0  0  0  0  0  0  0  0  0  # atno 8008 bound_to 7997
  154.4426  140.1905  156.0715 H   0  0  0  0  0  0  0  0  0  0  0  0  # atno 8009 bound_to 7997
  156.0527  140.3282  155.7374 H   0  0  0  0  0  0  0  0  0  0  0  0  # atno 8010 bound_to 7997
  140.2926  144.3028  150.6237 H   0  0  0  0  0  0  0  0  0  0  0  0  # atno 10167 bound_to 10162
  156.5451  130.8580  151.2761 H   0  0  0  0  0  0  0  0  0  0  0  0  # atno 10718 bound_to 10713
  154.6155  135.5471  153.7519 H   0  0  0  0  0  0  0  0  0  0  0  0  # atno 10763 bound_to 10752
  153.0214  135.6400  154.1516 H   0  0  0  0  0  0  0  0  0  0  0  0  # atno 10764 bound_to 10752
  154.1452  135.2906  155.3130 H   0  0  0  0  0  0  0  0  0  0  0  0  # atno 10765 bound_to 10752
  140.4624  134.1114  155.7718 H   0  0  0  0  0  0  0  0  0  0  0  0  # atno 11005 bound_to 11000
  144.7586  140.5367  143.6751 LP  0  0  0  0  0  0  0  0  0  0  0  0  # atno 17320 bound_to 7965
  145.5491  139.1476  143.3404 LP  0  0  0  0  0  0  0  0  0  0  0  0  # atno 17321 bound_to 7965
  140.5720  143.2180  151.7583 LP  0  0  0  0  0  0  0  0  0  0  0  0  # atno 17342 bound_to 10162
  139.4934  144.4204  151.9984 LP  0  0  0  0  0  0  0  0  0  0  0  0  # atno 17343 bound_to 10162
  157.7398  130.9838  150.2337 LP  0  0  0  0  0  0  0  0  0  0  0  0  # atno 17370 bound_to 10713
  156.2936  130.3749  149.7818 LP  0  0  0  0  0  0  0  0  0  0  0  0  # atno 17371 bound_to 10713
  141.1615  133.8784  157.1834 LP  0  0  0  0  0  0  0  0  0  0  0  0  # atno 17394 bound_to 11000
  139.9937  135.0055  157.0033 LP  0  0  0  0  0  0  0  0  0  0  0  0  # atno 17395 bound_to 11000

$$$$
