#       Name:                AV-unprocessed.smi:819
#       Creating user name   scv26
#       Creation time:       Fri Mar 27 01:27:54 2020


#       File generated by GOLD software.
#

@<TRIPOS>MOLECULE
AV-unprocessed.smi:819
    45    46     1
SMALL
NO_CHARGES


@<TRIPOS>ATOM
      1 ****        -1.5308  -1.8509  -2.8147 C.3            1 S1                 0.0000
      2 ****        -0.9797  -1.2871  -1.4944 C.3            1 S1                 0.0000
      3 ****         0.4613  -1.5331  -1.4592 N.am           1 S1                 0.0000
      4 ****         1.2283  -1.4758  -0.3598 C.2            1 S1                 0.0000
      5 ****         0.7860  -1.2152   0.7586 O.2            1 S1                 0.0000
      6 ****         2.5154  -1.7265  -0.6559 N.am           1 S1                 0.0000
      7 ****         3.6490  -1.7703   0.2026 C.ar           1 S1                 0.0000
      8 ****         3.5987  -1.7200   1.6178 C.ar           1 S1                 0.0000
      9 ****         4.8037  -1.7820   2.3439 C.ar           1 S1                 0.0000
     10 ****         6.0137  -1.8962   1.6331 C.ar           1 S1                 0.0000
     11 ****         6.0775  -1.9518   0.2865 N.ar           1 S1                 0.0000
     12 ****         4.9184  -1.8906  -0.4029 C.ar           1 S1                 0.0000
     13 ****        -1.2681   0.2217  -1.4484 C.2            1 S1                 0.0000
     14 ****        -0.6464   1.0010  -2.1727 O.2            1 S1                 0.0000
     15 ****        -2.2191   0.6151  -0.5884 N.am           1 S1                 0.0000
     16 ****        -2.6312   1.9975  -0.3629 C.3            1 S1                 0.0000
     17 ****        -1.6530   2.7292   0.5782 C.3            1 S1                 0.0000
     18 ****        -2.3860   2.8773   1.9114 C.3            1 S1                 0.0000
     19 ****        -3.8538   3.0010   1.5156 C.3            1 S1                 0.0000
     20 ****        -4.0087   2.0510   0.3264 C.3            1 S1                 0.0000
     21 ****        -2.6063  -1.6886  -2.8966 H              1 S1                 0.0000
     22 ****        -1.3603  -2.9258  -2.8791 H              1 S1                 0.0000
     23 ****        -1.0580  -1.3901  -3.6837 H              1 S1                 0.0000
     24 ****        -1.4613  -1.7920  -0.6543 H              1 S1                 0.0000
     25 ****         0.9061  -1.7444  -2.3402 H              1 S1                 0.0000
     26 ****         2.7154  -1.8844  -1.6328 H              1 S1                 0.0000
     27 ****         2.6737  -1.6436   2.1658 H              1 S1                 0.0000
     28 ****         4.7999  -1.7450   3.4233 H              1 S1                 0.0000
     29 ****         6.9545  -1.9477   2.1607 H              1 S1                 0.0000
     30 ****         5.0093  -1.9389  -1.4784 H              1 S1                 0.0000
     31 ****        -2.6751  -0.0931  -0.0315 H              1 S1                 0.0000
     32 ****        -2.6809   2.5235  -1.3182 H              1 S1                 0.0000
     33 ****        -0.6943   2.2212   0.6938 H              1 S1                 0.0000
     34 ****        -1.4412   3.7198   0.1733 H              1 S1                 0.0000
     35 ****        -2.2408   1.9785   2.5126 H              1 S1                 0.0000
     36 ****        -2.0330   3.7294   2.4928 H              1 S1                 0.0000
     37 ****        -4.5320   2.7617   2.3352 H              1 S1                 0.0000
     38 ****        -4.0622   4.0237   1.1983 H              1 S1                 0.0000
     39 ****        -4.7961   2.3782  -0.3534 H              1 S1                 0.0000
     40 ****        -4.2940   1.0648   0.6963 H              1 S1                 0.0000
     41 ****        -0.1897  -1.0333   0.8805 LP             1 S1                 0.0000
     42 ****         1.4024  -1.1854   1.5456 LP             1 S1                 0.0000
     43 ****         6.9551  -2.0357  -0.1856 LP             1 S1                 0.0000
     44 ****         0.0528   0.6532  -2.7974 LP             1 S1                 0.0000
     45 ****        -0.8410   1.9811  -2.1357 LP             1 S1                 0.0000
@<TRIPOS>BOND
    1    1    2 1     
    2    1   21 1     
    3    1   22 1     
    4    1   23 1     
    5    2    3 1     
    6    2   13 1     
    7    2   24 1     
    8    3    4 am    
    9    3   25 1     
   10    4    5 2     
   11    4    6 am    
   12    6    7 1     
   13    6   26 1     
   14    7   12 ar    
   15    7    8 ar    
   16    8    9 ar    
   17    8   27 1     
   18    9   10 ar    
   19    9   28 1     
   20   10   11 ar    
   21   10   29 1     
   22   11   12 ar    
   23   12   30 1     
   24   13   14 2     
   25   13   15 am    
   26   15   16 1     
   27   15   31 1     
   28   16   20 1     
   29   16   17 1     
   30   16   32 1     
   31   17   18 1     
   32   17   33 1     
   33   17   34 1     
   34   18   19 1     
   35   18   35 1     
   36   18   36 1     
   37   19   20 1     
   38   19   37 1     
   39   19   38 1     
   40   20   39 1     
   41   20   40 1     
   42    5   41 1     
   43    5   42 1     
   44   11   43 1     
   45   14   44 1     
   46   14   45 1     
@<TRIPOS>SUBSTRUCTURE
      1 S1             1
@<TRIPOS>SET
LONE_PAIRS      STATIC     ATOMS    <user>   **** ""
5 41 42 43 44 45
DONOR_HYDROGENS      STATIC     ATOMS    <user>   **** ""
3 25 26 31
ATOM$BLUE        STATIC     ATOMS    COLORGROUP SYSTEM
5 41 42 43 44 45
ATOM$RED        STATIC     ATOMS    COLORGROUP SYSTEM
3 25 26 31
