AV-unprocessed.smi:2083|AV-procd|sdf|8511|dock10
  -GOLD-   2272011223D 1   1.00000     0.00000
 Structure written by MMmdl.
 44 45  0  0  0  0  0  0  0  0  3 V2000
  147.3675  135.2022  162.8728 C   0  0  0  0  0  0  0  0  0  0  0  0
  147.7179  135.5845  161.4758 C   0  0  0  0  0  0  0  0  0  0  0  0
  147.4669  135.0069  160.2632 C   0  0  0  0  0  0  0  0  0  0  0  0
  148.0866  135.8992  159.3479 C   0  0  0  0  0  0  0  0  0  0  0  0
  148.0462  135.6452  157.9515 N   0  0  0  0  0  0  0  0  0  0  0  0
  148.9194  134.9575  157.1930 C   0  0  0  0  0  0  0  0  0  0  0  0
  149.9194  134.4392  157.7042 O   0  0  0  0  0  0  0  0  0  0  0  0
  148.5502  134.9315  155.8833 N   0  5  0  0  0  0  0  0  0  0  0  0
  149.4747  134.7575  154.7643 C   0  0  0  0  0  0  0  0  0  0  0  0
  148.9919  133.5975  153.8349 C   0  0  1  0  0  0  0  0  0  0  0  0
  148.7941  132.2553  154.5792 C   0  0  0  0  0  0  0  0  0  0  0  0
  147.7820  133.8987  152.9951 N   0  3  1  0  0  0  0  0  0  0  0  0
  147.5005  132.9894  151.8443 C   0  0  0  0  0  0  0  0  0  0  0  0
  146.4793  133.6257  150.8891 C   0  0  0  0  0  0  0  0  0  0  0  0
  145.1893  134.0012  151.6334 C   0  0  0  0  0  0  0  0  0  0  0  0
  145.4829  134.8897  152.8575 C   0  0  2  0  0  0  0  0  0  0  0  0
  145.8585  136.3310  152.4704 C   0  0  0  0  0  0  0  0  0  0  0  0
  146.5464  134.2329  153.7615 C   0  0  0  0  0  0  0  0  0  0  0  0
  148.6649  136.9283  159.9494 N   0  0  0  0  0  0  0  0  0  0  0  0
  148.4323  136.7314  161.3158 O   0  0  0  0  0  0  0  0  0  0  0  0
  146.6181  134.4106  162.8838 H   0  0  0  0  0  0  0  0  0  0  0  0
  146.9649  136.0556  163.4187 H   0  0  0  0  0  0  0  0  0  0  0  0
  148.2472  134.8423  163.4062 H   0  0  0  0  0  0  0  0  0  0  0  0
  146.9261  134.0936  160.0642 H   0  0  0  0  0  0  0  0  0  0  0  0
  147.2572  136.0385  157.4607 H   0  0  0  0  0  0  0  0  0  0  0  0
  149.5794  135.6658  154.1697 H   0  0  0  0  0  0  0  0  0  0  0  0
  150.4771  134.5258  155.1254 H   0  0  0  0  0  0  0  0  0  0  0  0
  149.7950  133.4121  153.1193 H   0  0  0  0  0  0  0  0  0  0  0  0
  149.7216  131.8932  155.0266 H   0  0  0  0  0  0  0  0  0  0  0  0
  148.4616  131.4799  153.8883 H   0  0  0  0  0  0  0  0  0  0  0  0
  148.0529  132.3182  155.3770 H   0  0  0  0  0  0  0  0  0  0  0  0
  148.4142  132.7750  151.2913 H   0  0  0  0  0  0  0  0  0  0  0  0
  147.1143  132.0334  152.2012 H   0  0  0  0  0  0  0  0  0  0  0  0
  146.9127  134.5102  150.4210 H   0  0  0  0  0  0  0  0  0  0  0  0
  146.2500  132.9334  150.0784 H   0  0  0  0  0  0  0  0  0  0  0  0
  144.4921  134.4977  150.9576 H   0  0  0  0  0  0  0  0  0  0  0  0
  144.6937  133.0878  151.9652 H   0  0  0  0  0  0  0  0  0  0  0  0
  144.5608  134.9591  153.4361 H   0  0  0  0  0  0  0  0  0  0  0  0
  146.7965  136.3737  151.9165 H   0  0  0  0  0  0  0  0  0  0  0  0
  145.9720  136.9556  153.3570 H   0  0  0  0  0  0  0  0  0  0  0  0
  145.0854  136.7841  151.8492 H   0  0  0  0  0  0  0  0  0  0  0  0
  146.1330  133.3255  154.2037 H   0  0  0  0  0  0  0  0  0  0  0  0
  146.7835  134.9027  154.5890 H   0  0  0  0  0  0  0  0  0  0  0  0
  148.0305  134.7743  152.5585 H   0  0  0  0  0  0  0  0  0  0  0  0
  1  2  1  0  0  0  0
  1 21  1  0  0  0  0
  1 22  1  0  0  0  0
  1 23  1  0  0  0  0
  2 20  1  0  0  0  0
  2  3  2  0  0  0  0
  3  4  1  0  0  0  0
  3 24  1  0  0  0  0
  4  5  1  0  0  0  0
  4 19  2  0  0  0  0
  5  6  1  0  0  0  0
  5 25  1  0  0  0  0
  6  7  2  0  0  0  0
  6  8  1  0  0  0  0
  8  9  1  0  0  0  0
  9 10  1  0  0  0  0
  9 26  1  0  0  0  0
  9 27  1  0  0  0  0
 10 11  1  0  0  0  0
 10 12  1  0  0  0  0
 10 28  1  0  0  0  0
 11 29  1  0  0  0  0
 11 30  1  0  0  0  0
 11 31  1  0  0  0  0
 12 18  1  0  0  0  0
 12 13  1  0  0  0  0
 12 44  1  0  0  0  0
 13 14  1  0  0  0  0
 13 32  1  0  0  0  0
 13 33  1  0  0  0  0
 14 15  1  0  0  0  0
 14 34  1  0  0  0  0
 14 35  1  0  0  0  0
 15 16  1  0  0  0  0
 15 36  1  0  0  0  0
 15 37  1  0  0  0  0
 16 17  1  0  0  0  0
 16 18  1  0  0  0  0
 16 38  1  0  0  0  0
 17 39  1  0  0  0  0
 17 40  1  0  0  0  0
 17 41  1  0  0  0  0
 18 42  1  0  0  0  0
 18 43  1  0  0  0  0
 19 20  1  0  0  0  0
M  CHG  1   8  -1
M  CHG  1  12   1
M  END
> <s_m_source_file>
AV-unprocessed.smi

> <i_m_source_file_index>
2083

> <i_lp_mmshare_version>
43012

> <i_f3d_flags>
0

> <s_epik_input>
W0NIM11jMVtjSF1jKG5vMSlbTkhdQyg9TylbTkhdW0NIMl1bQ0BIXShbQ0gzXSlOMltDSDJdW0NIMl1bQ0gyXVtDQEBIXShbQ0gzXSlbQ0gyXTI=

> <s_epik_cmdline>
J2VwaWtfcHl0aG9uJywgJy1waCcsICc3LjAnLCAnLXRuJywgJzgnLCAnLW1hJywgJzIwMCcsICctbWV0YWxfYmluZGluZycsICctaW1hZScsICc8aW5maWxlLm1hZT4nLCAnLW9tYWUnLCAnPG91dGZpbGUubWFlPic=

> <r_epik_Ionization_Penalty>
6.76934

> <r_epik_Ionization_Penalty_Charging>
6.76934

> <r_epik_Ionization_Penalty_Neutral>
5.77849e-06

> <r_epik_State_Penalty>
6.79457

> <r_epik_Charging_Adjusted_Penalty>
13.5639

> <i_epik_Tot_Q>
0

> <i_epik_Tot_abs_Q>
2

> <r_epik_Metal_State_Penalty>
2.72837

> <b_epik_Metal_Only>
1

> <s_lp_Force_Field>
OPLS_2005

> <r_lp_Energy>
23.3528

> <b_lp_Chiralities_Consistent>
1

> <s_lp_Variant>
AV-unprocessed.smi:2083-22

> <Gold.Version>
5.8.1

> <Gold.Id.Protein>
6NUR|6NUR_protein|mol2

> <Gold.PLP.Fitness>
40.9607

> <Gold.PLP.PLP>
-31.0259

> <Gold.PLP.part.hbond>
-4.2812

> <Gold.PLP.part.metal>
0.0000

> <Gold.PLP.part.buried>
-1.9487

> <Gold.PLP.part.nonpolar>
-24.6674

> <Gold.PLP.part.repulsive>
0.0765

> <Gold.PLP.ligand.clash>
0.0000

> <Gold.PLP.ligand.torsion>
1.0527

> <Gold.PLP.Chemscore.Hbond>
3.9440

> <Gold.PLP.Chemscore.CHOScore>
0.0000

> <Gold.PLP.Chemscore.Metal>
0.0000

> <Gold.Chemscore.Hbonds>
donor molecule, donor type, donor heavy atom, donor atom, acceptor molecule, acceptor atom, score
      L1  H    12    44       P1  7948  2.00
      P1  H  6896  6908       L1     7  0.96
      P1  H  6931  6943       L1    20  0.95

> <Gold.PLP.Chemscore.Internal.Correction>
0.2082

> <Gold.Rescore>
     Score         DG    S(hbond)    S(metal)    S(lipo)     H(rot)  DE(clash)    DE(int)     intcor
     15.96     -18.04       2.61        0.00      65.99       1.52       0.03       2.05       ----

> <Gold.Chemscore.Fitness>
15.9642

> <Gold.Chemscore.DG>
-18.0444

> <Gold.Chemscore.ZeroCoef>
-5.4800

> <Gold.Chemscore.Hbond>
2.6144

> <Gold.Chemscore.Metal>
0.0000

> <Gold.Chemscore.Lipo>
65.9894

> <Gold.Chemscore.Internal_Hbond>
0.0000

> <Gold.Chemscore.DEClash>
0.0329

> <Gold.Chemscore.DEInternal>
2.0473

> <Gold.Chemscore.Rot>
1.5190

> <Gold.Chemscore.Internal.Correction>
   9.000000E+99

> <Gold.Chemscore.Hbonds>
donor molecule, donor type, donor heavy atom, donor atom, acceptor molecule, acceptor atom, score
      L1  H    12    44       P1  7948  0.70
      P1  H  6896  6908       L1     7  0.92
      P1  H  6931  6943       L1    20  0.22

> <Gold.Chemscore.Hbond.Weighted>
-8.7322

> <Gold.Chemscore.Metal.Weighted>
-0.0000

> <Gold.Chemscore.Lipo.Weighted>
-7.7208

> <Gold.Chemscore.Internal_Hbond.Weighted>
0.0000

> <Gold.Chemscore.DEClash.Weighted>
0.0329

> <Gold.Chemscore.DEInternal.Weighted>
2.0473

> <Gold.Chemscore.Rot.Weighted>
3.8886

> <Gold.Chemscore.Internal.Correction.Weighted>
   9.000000E+99

> <Gold.Protein.RotatedTorsions>
[ 6907 6896 6895 6894 ] final  138.50 input  -60.11 | X-H torsion
[ 7974 7965 7964 7962 ] final -156.60 input  175.53 | X-H torsion
[ 8008 7997 7996 7995 ] final  -39.21 input   59.86 | X-H torsion
[ 10167 10162 10161 10158 ] final -103.27 input  -65.29 | X-H torsion
[ 10718 10713 10712 10709 ] final   37.28 input   66.30 | X-H torsion
[ 10763 10752 10751 10750 ] final   43.13 input  -60.55 | X-H torsion
[ 11005 11000 10999 10996 ] final -117.79 input  -57.11 | X-H torsion

> <Gold.Protein.ActiveResidues>
 VAL166  LYS551  ARG553  GLY616  TRP617  ASP618  TYR619  PRO620  LYS621  CYS622 
 ASP623  PHE694  ASN695  SER759  ASP760  ASP761  ALA762  ILE779  LEU786  VAL792 
 PHE793  MET794  SER795  GLU796  ALA797  LYS798  CYS799  TRP800  GLU811  SER814 

> <Gold.Protein.RotatedAtoms>
  152.2659  133.5339  159.5409 H   0  0  0  0  0  0  0  0  0  0  0  0  # atno 6907 bound_to 6896
  150.7141  134.0765  159.3892 H   0  0  0  0  0  0  0  0  0  0  0  0  # atno 6908 bound_to 6896
  151.8681  135.0499  160.0527 H   0  0  0  0  0  0  0  0  0  0  0  0  # atno 6909 bound_to 6896
  144.7585  140.4086  143.5994 H   0  0  0  0  0  0  0  0  0  0  0  0  # atno 7974 bound_to 7965
  154.4026  140.1557  156.2827 H   0  0  0  0  0  0  0  0  0  0  0  0  # atno 8008 bound_to 7997
  155.8855  140.3441  155.5896 H   0  0  0  0  0  0  0  0  0  0  0  0  # atno 8009 bound_to 7997
  155.7618  140.0818  157.2142 H   0  0  0  0  0  0  0  0  0  0  0  0  # atno 8010 bound_to 7997
  140.2217  143.3671  152.0963 H   0  0  0  0  0  0  0  0  0  0  0  0  # atno 10167 bound_to 10162
  157.3450  130.7568  149.6938 H   0  0  0  0  0  0  0  0  0  0  0  0  # atno 10718 bound_to 10713
  152.9867  135.6111  154.3061 H   0  0  0  0  0  0  0  0  0  0  0  0  # atno 10763 bound_to 10752
  154.2779  135.2778  155.2711 H   0  0  0  0  0  0  0  0  0  0  0  0  # atno 10764 bound_to 10752
  154.5064  135.5853  153.6627 H   0  0  0  0  0  0  0  0  0  0  0  0  # atno 10765 bound_to 10752
  141.0330  133.9952  157.3113 H   0  0  0  0  0  0  0  0  0  0  0  0  # atno 11005 bound_to 11000
  145.6697  139.1597  143.2762 LP  0  0  0  0  0  0  0  0  0  0  0  0  # atno 17320 bound_to 7965
  146.1623  140.6769  142.9271 LP  0  0  0  0  0  0  0  0  0  0  0  0  # atno 17321 bound_to 7965
  139.5142  144.6943  151.5672 LP  0  0  0  0  0  0  0  0  0  0  0  0  # atno 17342 bound_to 10162
  140.6250  143.9186  150.6557 LP  0  0  0  0  0  0  0  0  0  0  0  0  # atno 17343 bound_to 10162
  155.9713  130.4157  150.4193 LP  0  0  0  0  0  0  0  0  0  0  0  0  # atno 17370 bound_to 10713
  157.2247  131.0490  151.2527 LP  0  0  0  0  0  0  0  0  0  0  0  0  # atno 17371 bound_to 10713
  139.9221  135.0201  156.8102 LP  0  0  0  0  0  0  0  0  0  0  0  0  # atno 17394 bound_to 11000
  140.6372  133.9851  155.7690 LP  0  0  0  0  0  0  0  0  0  0  0  0  # atno 17395 bound_to 11000

$$$$
