AV-unprocessed.smi:2301|AV-procd|sdf|9235|dock1
  -GOLD-   2272012453D 1   1.00000     0.00000
 Structure written by MMmdl.
 37 38  0  0  0  0  0  0  0  0  1 V2000
  153.1339  141.2376  160.6268 C   0  0  0  0  0  0  0  0  0  0  0  0
  152.4367  142.3903  159.9358 C   0  0  0  0  0  0  0  0  0  0  0  0
  152.6122  143.7154  160.3805 C   0  0  0  0  0  0  0  0  0  0  0  0
  151.9371  144.7399  159.6933 C   0  0  0  0  0  0  0  0  0  0  0  0
  151.1207  144.3999  158.5974 C   0  0  0  0  0  0  0  0  0  0  0  0
  151.0004  143.0450  158.2136 C   0  0  0  0  0  0  0  0  0  0  0  0
  150.1579  142.8085  157.0946 N   0  0  0  0  0  0  0  0  0  0  0  0
  149.9742  141.6596  156.4198 C   0  0  0  0  0  0  0  0  0  0  0  0
  150.5168  140.5853  156.6807 O   0  0  0  0  0  0  0  0  0  0  0  0
  149.1150  141.8267  155.4034 N   0  0  0  0  0  0  0  0  0  0  0  0
  148.7111  140.7884  154.4595 C   0  0  1  0  0  0  0  0  0  0  0  0
  148.0738  139.6140  155.2243 C   0  0  0  0  0  0  0  0  0  0  0  0
  147.5820  138.5147  154.2660 C   0  0  0  0  0  0  0  0  0  0  0  0
  146.6221  139.0623  153.1930 C   0  0  1  0  0  0  0  0  0  0  0  0
  145.3896  139.4265  153.7834 O   0  0  0  0  0  0  0  0  0  0  0  0
  147.2305  140.2679  152.4521 C   0  0  0  0  0  0  0  0  0  0  0  0
  147.7274  141.3580  153.4176 C   0  0  0  0  0  0  0  0  0  0  0  0
  151.6554  142.0641  158.8838 N   0  0  0  0  0  0  0  0  0  0  0  0
  149.5960  140.4132  153.9415 H   0  0  0  0  0  0  0  0  0  0  0  0
  146.4068  138.2734  152.4715 H   0  0  0  0  0  0  0  0  0  0  0  0
  153.6093  141.5614  161.5531 H   0  0  0  0  0  0  0  0  0  0  0  0
  153.9022  140.8176  159.9770 H   0  0  0  0  0  0  0  0  0  0  0  0
  152.4200  140.4498  160.8698 H   0  0  0  0  0  0  0  0  0  0  0  0
  153.2466  143.9436  161.2245 H   0  0  0  0  0  0  0  0  0  0  0  0
  152.0434  145.7698  160.0004 H   0  0  0  0  0  0  0  0  0  0  0  0
  150.5955  145.1750  158.0584 H   0  0  0  0  0  0  0  0  0  0  0  0
  149.6438  143.6108  156.7620 H   0  0  0  0  0  0  0  0  0  0  0  0
  148.7175  142.7441  155.2635 H   0  0  0  0  0  0  0  0  0  0  0  0
  148.7948  139.1905  155.9245 H   0  0  0  0  0  0  0  0  0  0  0  0
  147.2372  139.9734  155.8251 H   0  0  0  0  0  0  0  0  0  0  0  0
  148.4453  138.0658  153.7730 H   0  0  0  0  0  0  0  0  0  0  0  0
  147.1036  137.7119  154.8285 H   0  0  0  0  0  0  0  0  0  0  0  0
  144.8444  139.8231  153.1209 H   0  0  0  0  0  0  0  0  0  0  0  0
  148.0708  139.9247  151.8473 H   0  0  0  0  0  0  0  0  0  0  0  0
  146.5062  140.6881  151.7533 H   0  0  0  0  0  0  0  0  0  0  0  0
  146.8743  141.8115  153.9241 H   0  0  0  0  0  0  0  0  0  0  0  0
  148.2043  142.1562  152.8476 H   0  0  0  0  0  0  0  0  0  0  0  0
  1  2  1  0  0  0  0
  1 21  1  0  0  0  0
  1 22  1  0  0  0  0
  1 23  1  0  0  0  0
  2 18  1  0  0  0  0
  2  3  2  0  0  0  0
  3  4  1  0  0  0  0
  3 24  1  0  0  0  0
  4  5  2  0  0  0  0
  4 25  1  0  0  0  0
  5  6  1  0  0  0  0
  5 26  1  0  0  0  0
  6  7  1  0  0  0  0
  6 18  2  0  0  0  0
  7  8  1  0  0  0  0
  7 27  1  0  0  0  0
  8  9  2  0  0  0  0
  8 10  1  0  0  0  0
 10 11  1  0  0  0  0
 10 28  1  0  0  0  0
 11 19  1  0  0  0  0
 11 17  1  0  0  0  0
 11 12  1  0  0  0  0
 12 13  1  0  0  0  0
 12 29  1  0  0  0  0
 12 30  1  0  0  0  0
 13 14  1  0  0  0  0
 13 31  1  0  0  0  0
 13 32  1  0  0  0  0
 14 20  1  0  0  0  0
 14 15  1  0  0  0  0
 14 16  1  0  0  0  0
 15 33  1  0  0  0  0
 16 17  1  0  0  0  0
 16 34  1  0  0  0  0
 16 35  1  0  0  0  0
 17 36  1  0  0  0  0
 17 37  1  0  0  0  0
M  END
> <s_m_source_file>
AV-unprocessed.smi

> <i_m_source_file_index>
2301

> <i_lp_mmshare_version>
43012

> <i_f3d_flags>
0

> <s_epik_input>
W0NIM11jMVtjSF1bY0hdW2NIXWMobjEpW05IXUMoPU8pW05IXVtDQEhdMltDSDJdW0NIMl1bQ0BIXShbT0hdKVtDSDJdW0NIMl0y

> <s_epik_cmdline>
J2VwaWtfcHl0aG9uJywgJy1waCcsICc3LjAnLCAnLXRuJywgJzgnLCAnLW1hJywgJzIwMCcsICctbWV0YWxfYmluZGluZycsICctaW1hZScsICc8aW5maWxlLm1hZT4nLCAnLW9tYWUnLCAnPG91dGZpbGUubWFlPic=

> <r_lp_tautomer_probability>
1

> <r_epik_Ionization_Penalty>
9.15533e-05

> <r_epik_Ionization_Penalty_Charging>
0

> <r_epik_Ionization_Penalty_Neutral>
9.15533e-05

> <r_epik_State_Penalty>
-0

> <r_epik_Charging_Adjusted_Penalty>
0

> <i_epik_Tot_Q>
0

> <i_epik_Tot_abs_Q>
0

> <r_epik_Metal_State_Penalty>
-0

> <b_epik_Metal_Only>
0

> <s_lp_Force_Field>
OPLS_2005

> <r_lp_Energy>
13.5369

> <b_lp_Chiralities_Consistent>
1

> <s_lp_Variant>
AV-unprocessed.smi:2301-2

> <Gold.Version>
5.8.1

> <Gold.Id.Protein>
6NUR|6NUR_protein|mol2

> <Gold.PLP.Fitness>
45.4372

> <Gold.PLP.PLP>
-36.7068

> <Gold.PLP.part.hbond>
-3.0000

> <Gold.PLP.part.metal>
0.0000

> <Gold.PLP.part.buried>
-4.1718

> <Gold.PLP.part.nonpolar>
-29.9311

> <Gold.PLP.part.repulsive>
0.1901

> <Gold.PLP.ligand.clash>
0.0000

> <Gold.PLP.ligand.torsion>
0.0161

> <Gold.PLP.Chemscore.Hbond>
2.9199

> <Gold.PLP.Chemscore.CHOScore>
0.0000

> <Gold.PLP.Chemscore.Metal>
0.0000

> <Gold.Chemscore.Hbonds>
donor molecule, donor type, donor heavy atom, donor atom, acceptor molecule, acceptor atom, score
      L1  H     7    27       P1  8028  1.00
      L1  H    10    28       P1  8028  0.94
      L1  H    15    33       P1 10175  0.88

> <Gold.PLP.Chemscore.Internal.Correction>
0.0030

> <Gold.Rescore>
     Score         DG    S(hbond)    S(metal)    S(lipo)     H(rot)  DE(clash)    DE(int)     intcor
     19.75     -21.25       2.77        0.00      87.11       1.44       0.18       1.32       ----

> <Gold.Chemscore.Fitness>
19.7508

> <Gold.Chemscore.DG>
-21.2495

> <Gold.Chemscore.ZeroCoef>
-5.4800

> <Gold.Chemscore.Hbond>
2.7739

> <Gold.Chemscore.Metal>
0.0000

> <Gold.Chemscore.Lipo>
87.1083

> <Gold.Chemscore.Internal_Hbond>
0.0000

> <Gold.Chemscore.DEClash>
0.1770

> <Gold.Chemscore.DEInternal>
1.3216

> <Gold.Chemscore.Rot>
1.4402

> <Gold.Chemscore.Internal.Correction>
   9.000000E+99

> <Gold.Chemscore.Hbonds>
donor molecule, donor type, donor heavy atom, donor atom, acceptor molecule, acceptor atom, score
      L1  H     7    27       P1  8028  0.99
      L1  H    10    28       P1  8028  0.87
      L1  H    15    33       P1 10175  0.85

> <Gold.Chemscore.Hbond.Weighted>
-9.2647

> <Gold.Chemscore.Metal.Weighted>
-0.0000

> <Gold.Chemscore.Lipo.Weighted>
-10.1917

> <Gold.Chemscore.Internal_Hbond.Weighted>
0.0000

> <Gold.Chemscore.DEClash.Weighted>
0.1770

> <Gold.Chemscore.DEInternal.Weighted>
1.3216

> <Gold.Chemscore.Rot.Weighted>
3.6869

> <Gold.Chemscore.Internal.Correction.Weighted>
   9.000000E+99

> <Gold.Protein.RotatedTorsions>
[ 6907 6896 6895 6894 ] final  -58.60 input  -60.11 | X-H torsion
[ 7974 7965 7964 7962 ] final  -35.28 input  175.53 | X-H torsion
[ 8008 7997 7996 7995 ] final   53.00 input   59.86 | X-H torsion
[ 10167 10162 10161 10158 ] final   82.59 input  -65.29 | X-H torsion
[ 10718 10713 10712 10709 ] final  -79.12 input   66.30 | X-H torsion
[ 10763 10752 10751 10750 ] final -125.63 input  -60.55 | X-H torsion
[ 11005 11000 10999 10996 ] final  172.37 input  -57.11 | X-H torsion

> <Gold.Protein.ActiveResidues>
 VAL166  LYS551  ARG553  GLY616  TRP617  ASP618  TYR619  PRO620  LYS621  CYS622 
 ASP623  PHE694  ASN695  SER759  ASP760  ASP761  ALA762  ILE779  LEU786  VAL792 
 PHE793  MET794  SER795  GLU796  ALA797  LYS798  CYS799  TRP800  GLU811  SER814 

> <Gold.Protein.RotatedAtoms>
  150.7994  134.7077  159.6585 H   0  0  0  0  0  0  0  0  0  0  0  0  # atno 6907 bound_to 6896
  152.4110  134.6121  160.0038 H   0  0  0  0  0  0  0  0  0  0  0  0  # atno 6908 bound_to 6896
  151.6365  133.3291  159.3156 H   0  0  0  0  0  0  0  0  0  0  0  0  # atno 6909 bound_to 6896
  146.0759  140.6140  142.8930 H   0  0  0  0  0  0  0  0  0  0  0  0  # atno 7974 bound_to 7965
  155.4611  140.3462  155.4313 H   0  0  0  0  0  0  0  0  0  0  0  0  # atno 8008 bound_to 7997
  156.1160  140.1474  156.9301 H   0  0  0  0  0  0  0  0  0  0  0  0  # atno 8009 bound_to 7997
  154.4789  140.0876  156.7310 H   0  0  0  0  0  0  0  0  0  0  0  0  # atno 8010 bound_to 7997
  139.9272  144.6175  150.8380 H   0  0  0  0  0  0  0  0  0  0  0  0  # atno 10167 bound_to 10162
  156.0100  130.4537  150.3601 H   0  0  0  0  0  0  0  0  0  0  0  0  # atno 10718 bound_to 10713
  154.8738  135.4023  154.3299 H   0  0  0  0  0  0  0  0  0  0  0  0  # atno 10763 bound_to 10752
  153.4114  135.7021  153.6362 H   0  0  0  0  0  0  0  0  0  0  0  0  # atno 10764 bound_to 10752
  153.5063  135.3717  155.2535 H   0  0  0  0  0  0  0  0  0  0  0  0  # atno 10765 bound_to 10752
  140.3289  134.7374  157.4120 H   0  0  0  0  0  0  0  0  0  0  0  0  # atno 11005 bound_to 11000
  144.7261  140.4530  143.6972 LP  0  0  0  0  0  0  0  0  0  0  0  0  # atno 17320 bound_to 7965
  145.6306  139.1536  143.2971 LP  0  0  0  0  0  0  0  0  0  0  0  0  # atno 17321 bound_to 7965
  140.7647  143.3255  151.2525 LP  0  0  0  0  0  0  0  0  0  0  0  0  # atno 17342 bound_to 10162
  139.6812  143.9852  152.2809 LP  0  0  0  0  0  0  0  0  0  0  0  0  # atno 17343 bound_to 10162
  157.1690  131.0364  151.2805 LP  0  0  0  0  0  0  0  0  0  0  0  0  # atno 17370 bound_to 10713
  157.4246  130.7456  149.6940 LP  0  0  0  0  0  0  0  0  0  0  0  0  # atno 17371 bound_to 10713
  140.0877  134.5643  155.8475 LP  0  0  0  0  0  0  0  0  0  0  0  0  # atno 17394 bound_to 11000
  141.2068  133.6658  156.6266 LP  0  0  0  0  0  0  0  0  0  0  0  0  # atno 17395 bound_to 11000

$$$$
