AV-unprocessed.smi:511|AV-procd|sdf|2764|dock9
  -GOLD-   2262023233D 1   1.00000     0.00000
 Structure written by MMmdl.
 46 48  0  0  0  0  0  0  0  0  2 V2000
  150.5936  135.8060  154.8533 C   0  0  0  0  0  0  0  0  0  0  0  0
  150.6887  137.1364  154.3756 O   0  0  0  0  0  0  0  0  0  0  0  0
  150.2359  138.0867  155.3242 C   0  0  0  0  0  0  0  0  0  0  0  0
  150.3827  139.4906  154.7252 C   0  0  0  0  0  0  0  0  0  0  0  0
  150.0557  140.5250  155.7026 N   0  0  0  0  0  0  0  0  0  0  0  0
  148.9479  141.3118  155.7754 C   0  0  0  0  0  0  0  0  0  0  0  0
  147.8835  141.1753  154.8846 N   0  0  0  0  0  0  0  0  0  0  0  0
  146.8915  140.1024  154.9239 C   0  0  0  0  0  0  0  0  0  0  0  0
  145.5593  140.5895  155.5245 C   0  0  0  0  0  0  0  0  0  0  0  0
  145.0371  141.7630  154.7844 N   0  3  0  0  0  0  0  0  0  0  0  0
  143.7540  142.2557  155.3286 C   0  0  0  0  0  0  0  0  0  0  0  0
  146.0542  142.8341  154.6622 C   0  0  0  0  0  0  0  0  0  0  0  0
  147.3620  142.2740  154.0771 C   0  0  0  0  0  0  0  0  0  0  0  0
  148.9775  142.2309  156.7447 N   0  0  0  0  0  0  0  0  0  0  0  0
  150.1962  141.9920  157.3609 C   0  0  0  0  0  0  0  0  0  0  0  0
  150.8576  140.9768  156.7512 C   0  0  0  0  0  0  0  0  0  0  0  0
  152.1879  140.5321  157.1850 C   0  0  0  0  0  0  0  0  0  0  0  0
  152.8112  139.6258  156.6370 O   0  0  0  0  0  0  0  0  0  0  0  0
  152.6575  141.2261  158.2504 N   0  0  0  0  0  0  0  0  0  0  0  0
  152.0407  142.2514  158.9145 C   0  0  0  0  0  0  0  0  0  0  0  0
  152.6004  142.7794  159.8748 O   0  0  0  0  0  0  0  0  0  0  0  0
  150.8041  142.6469  158.4674 N   0  0  0  0  0  0  0  0  0  0  0  0
  150.0616  143.7358  159.1054 C   0  0  0  0  0  0  0  0  0  0  0  0
  153.5682  140.9566  158.5932 H   0  0  0  0  0  0  0  0  0  0  0  0
  150.9552  135.1161  154.0908 H   0  0  0  0  0  0  0  0  0  0  0  0
  149.5606  135.5419  155.0831 H   0  0  0  0  0  0  0  0  0  0  0  0
  151.1995  135.6645  155.7492 H   0  0  0  0  0  0  0  0  0  0  0  0
  149.1941  137.8910  155.5822 H   0  0  0  0  0  0  0  0  0  0  0  0
  150.8233  138.0079  156.2405 H   0  0  0  0  0  0  0  0  0  0  0  0
  151.3984  139.6196  154.3608 H   0  0  0  0  0  0  0  0  0  0  0  0
  149.7410  139.6074  153.8523 H   0  0  0  0  0  0  0  0  0  0  0  0
  146.7391  139.7132  153.9166 H   0  0  0  0  0  0  0  0  0  0  0  0
  147.2603  139.2752  155.5299 H   0  0  0  0  0  0  0  0  0  0  0  0
  144.8252  139.7834  155.4991 H   0  0  0  0  0  0  0  0  0  0  0  0
  145.7041  140.8570  156.5727 H   0  0  0  0  0  0  0  0  0  0  0  0
  143.8746  142.6203  156.3496 H   0  0  0  0  0  0  0  0  0  0  0  0
  143.0078  141.4604  155.3350 H   0  0  0  0  0  0  0  0  0  0  0  0
  143.3658  143.0714  154.7177 H   0  0  0  0  0  0  0  0  0  0  0  0
  145.6736  143.6309  154.0222 H   0  0  0  0  0  0  0  0  0  0  0  0
  146.2433  143.2743  155.6429 H   0  0  0  0  0  0  0  0  0  0  0  0
  148.1099  143.0657  154.0139 H   0  0  0  0  0  0  0  0  0  0  0  0
  147.2004  141.9221  153.0571 H   0  0  0  0  0  0  0  0  0  0  0  0
  150.6214  144.2602  159.8804 H   0  0  0  0  0  0  0  0  0  0  0  0
  149.1519  143.3459  159.5626 H   0  0  0  0  0  0  0  0  0  0  0  0
  149.7716  144.4778  158.3605 H   0  0  0  0  0  0  0  0  0  0  0  0
  144.8490  141.4437  153.8448 H   0  0  0  0  0  0  0  0  0  0  0  0
  1  2  1  0  0  0  0
  1 25  1  0  0  0  0
  1 26  1  0  0  0  0
  1 27  1  0  0  0  0
  2  3  1  0  0  0  0
  3  4  1  0  0  0  0
  3 28  1  0  0  0  0
  3 29  1  0  0  0  0
  4  5  1  0  0  0  0
  4 30  1  0  0  0  0
  4 31  1  0  0  0  0
  5 16  1  0  0  0  0
  5  6  1  0  0  0  0
  6  7  1  0  0  0  0
  6 14  2  0  0  0  0
  7 13  1  0  0  0  0
  7  8  1  0  0  0  0
  8  9  1  0  0  0  0
  8 32  1  0  0  0  0
  8 33  1  0  0  0  0
  9 10  1  0  0  0  0
  9 34  1  0  0  0  0
  9 35  1  0  0  0  0
 10 11  1  0  0  0  0
 10 12  1  0  0  0  0
 10 46  1  0  0  0  0
 11 36  1  0  0  0  0
 11 37  1  0  0  0  0
 11 38  1  0  0  0  0
 12 13  1  0  0  0  0
 12 39  1  0  0  0  0
 12 40  1  0  0  0  0
 13 41  1  0  0  0  0
 13 42  1  0  0  0  0
 14 15  1  0  0  0  0
 15 22  1  0  0  0  0
 15 16  2  0  0  0  0
 16 17  1  0  0  0  0
 17 18  2  0  0  0  0
 17 19  1  0  0  0  0
 19 24  1  0  0  0  0
 19 20  1  0  0  0  0
 20 21  2  0  0  0  0
 20 22  1  0  0  0  0
 22 23  1  0  0  0  0
 23 43  1  0  0  0  0
 23 44  1  0  0  0  0
 23 45  1  0  0  0  0
M  CHG  1  10   1
M  END
> <s_m_source_file>
AV-unprocessed.smi

> <i_m_source_file_index>
511

> <i_lp_mmshare_version>
43012

> <i_f3d_flags>
0

> <s_epik_input>
W0NIM11uMWMoPU8pW25IXWMoPU8pYyhjMTIpbihbQ0gyXVtDSDJdT1tDSDNdKWMobjIpTjNbQ0gyXVtDSDJdTihbQ0gzXSlbQ0gyXVtDSDJdMw==

> <s_epik_cmdline>
J2VwaWtfcHl0aG9uJywgJy1waCcsICc3LjAnLCAnLXRuJywgJzgnLCAnLW1hJywgJzIwMCcsICctbWV0YWxfYmluZGluZycsICctaW1hZScsICc8aW5maWxlLm1hZT4nLCAnLW9tYWUnLCAnPG91dGZpbGUubWFlPic=

> <r_epik_Ionization_Penalty>
0.064781

> <r_epik_Ionization_Penalty_Charging>
0.0647789

> <r_epik_Ionization_Penalty_Neutral>
2.1607e-06

> <r_epik_State_Penalty>
0.0564218

> <r_epik_Charging_Adjusted_Penalty>
0.121201

> <i_epik_Tot_Q>
1

> <i_epik_Tot_abs_Q>
1

> <r_epik_Metal_State_Penalty>
0.0833038

> <b_epik_Metal_Only>
0

> <s_lp_Force_Field>
OPLS_2005

> <r_lp_Energy>
49.4722

> <b_lp_Chiralities_Consistent>
1

> <s_lp_Variant>
AV-unprocessed.smi:511-1

> <Gold.Version>
5.8.1

> <Gold.Id.Protein>
6NUR|6NUR_protein|mol2

> <Gold.PLP.Fitness>
37.2391

> <Gold.PLP.PLP>
-30.4891

> <Gold.PLP.part.hbond>
-2.0000

> <Gold.PLP.part.metal>
0.0000

> <Gold.PLP.part.buried>
-5.4838

> <Gold.PLP.part.nonpolar>
-25.1203

> <Gold.PLP.part.repulsive>
3.0002

> <Gold.PLP.ligand.clash>
0.0000

> <Gold.PLP.ligand.torsion>
1.4033

> <Gold.PLP.Chemscore.Hbond>
3.0000

> <Gold.PLP.Chemscore.CHOScore>
0.0000

> <Gold.PLP.Chemscore.Metal>
0.0000

> <Gold.Chemscore.Hbonds>
donor molecule, donor type, donor heavy atom, donor atom, acceptor molecule, acceptor atom, score
      L1  H    10    46       P1 10175  2.00
      P1  H  7997  8009       L1    18  1.00

> <Gold.PLP.Chemscore.Internal.Correction>
0.5566

> <Gold.Rescore>
     Score         DG    S(hbond)    S(metal)    S(lipo)     H(rot)  DE(clash)    DE(int)     intcor
     11.05     -12.82       1.96        0.00      39.74       1.51       0.44       1.33       ----

> <Gold.Chemscore.Fitness>
11.0478

> <Gold.Chemscore.DG>
-12.8235

> <Gold.Chemscore.ZeroCoef>
-5.4800

> <Gold.Chemscore.Hbond>
1.9629

> <Gold.Chemscore.Metal>
0.0000

> <Gold.Chemscore.Lipo>
39.7396

> <Gold.Chemscore.Internal_Hbond>
0.0000

> <Gold.Chemscore.DEClash>
0.4444

> <Gold.Chemscore.DEInternal>
1.3313

> <Gold.Chemscore.Rot>
1.5086

> <Gold.Chemscore.Internal.Correction>
   9.000000E+99

> <Gold.Chemscore.Hbonds>
donor molecule, donor type, donor heavy atom, donor atom, acceptor molecule, acceptor atom, score
      L1  H    10    46       P1 10175  0.23
      P1  H  7997  8009       L1    18  0.65

> <Gold.Chemscore.Hbond.Weighted>
-6.5560

> <Gold.Chemscore.Metal.Weighted>
-0.0000

> <Gold.Chemscore.Lipo.Weighted>
-4.6495

> <Gold.Chemscore.Internal_Hbond.Weighted>
0.0000

> <Gold.Chemscore.DEClash.Weighted>
0.4444

> <Gold.Chemscore.DEInternal.Weighted>
1.3313

> <Gold.Chemscore.Rot.Weighted>
3.8620

> <Gold.Chemscore.Internal.Correction.Weighted>
   9.000000E+99

> <Gold.Protein.RotatedTorsions>
[ 6907 6896 6895 6894 ] final -138.72 input  -60.11 | X-H torsion
[ 7974 7965 7964 7962 ] final   -9.10 input  175.53 | X-H torsion
[ 8008 7997 7996 7995 ] final -167.46 input   59.86 | X-H torsion
[ 10167 10162 10161 10158 ] final  101.90 input  -65.29 | X-H torsion
[ 10718 10713 10712 10709 ] final -142.60 input   66.30 | X-H torsion
[ 10763 10752 10751 10750 ] final   82.74 input  -60.55 | X-H torsion
[ 11005 11000 10999 10996 ] final   87.52 input  -57.11 | X-H torsion

> <Gold.Protein.ActiveResidues>
 VAL166  LYS551  ARG553  GLY616  TRP617  ASP618  TYR619  PRO620  LYS621  CYS622 
 ASP623  PHE694  ASN695  SER759  ASP760  ASP761  ALA762  ILE779  LEU786  VAL792 
 PHE793  MET794  SER795  GLU796  ALA797  LYS798  CYS799  TRP800  GLU811  SER814 

> <Gold.Protein.RotatedAtoms>
  151.0386  133.5726  159.2653 H   0  0  0  0  0  0  0  0  0  0  0  0  # atno 6907 bound_to 6896
  151.2781  135.0704  159.9169 H   0  0  0  0  0  0  0  0  0  0  0  0  # atno 6908 bound_to 6896
  152.5360  134.0105  159.7990 H   0  0  0  0  0  0  0  0  0  0  0  0  # atno 6909 bound_to 6896
  146.2261  140.2566  142.8350 H   0  0  0  0  0  0  0  0  0  0  0  0  # atno 7974 bound_to 7965
  155.8780  140.1004  157.1505 H   0  0  0  0  0  0  0  0  0  0  0  0  # atno 8008 bound_to 7997
  154.4002  140.1334  156.4224 H   0  0  0  0  0  0  0  0  0  0  0  0  # atno 8009 bound_to 7997
  155.7675  140.3461  155.5232 H   0  0  0  0  0  0  0  0  0  0  0  0  # atno 8010 bound_to 7997
  139.7397  144.7014  151.0594 H   0  0  0  0  0  0  0  0  0  0  0  0  # atno 10167 bound_to 10162
  156.3479  130.7672  151.1820 H   0  0  0  0  0  0  0  0  0  0  0  0  # atno 10718 bound_to 10713
  153.1229  135.4717  154.9225 H   0  0  0  0  0  0  0  0  0  0  0  0  # atno 10763 bound_to 10752
  154.7593  135.3127  154.8412 H   0  0  0  0  0  0  0  0  0  0  0  0  # atno 10764 bound_to 10752
  153.8972  135.6878  153.4811 H   0  0  0  0  0  0  0  0  0  0  0  0  # atno 10765 bound_to 10752
  139.8917  134.8428  156.2872 H   0  0  0  0  0  0  0  0  0  0  0  0  # atno 11005 bound_to 11000
  144.9371  140.8038  143.5653 LP  0  0  0  0  0  0  0  0  0  0  0  0  # atno 17320 bound_to 7965
  145.2515  139.2030  143.4940 LP  0  0  0  0  0  0  0  0  0  0  0  0  # atno 17321 bound_to 7965
  140.7784  143.4940  150.9857 LP  0  0  0  0  0  0  0  0  0  0  0  0  # atno 17342 bound_to 10162
  139.8628  143.7292  152.3172 LP  0  0  0  0  0  0  0  0  0  0  0  0  # atno 17343 bound_to 10162
  157.7457  131.0436  150.4751 LP  0  0  0  0  0  0  0  0  0  0  0  0  # atno 17370 bound_to 10713
  156.4942  130.4102  149.6389 LP  0  0  0  0  0  0  0  0  0  0  0  0  # atno 17371 bound_to 10713
  141.0000  133.7157  156.0946 LP  0  0  0  0  0  0  0  0  0  0  0  0  # atno 17394 bound_to 11000
  140.7510  134.4044  157.5541 LP  0  0  0  0  0  0  0  0  0  0  0  0  # atno 17395 bound_to 11000

$$$$
