AV-unprocessed.smi:2586|AV-procd|sdf|10145|dock7
  -GOLD-   2272014153D 1   1.00000     0.00000
 Structure written by MMmdl.
 30 31  0  0  0  0  0  0  0  0  1 V2000
  145.5891  135.3558  154.6088 C   0  0  0  0  0  0  0  0  0  0  0  0
  145.9134  135.3501  153.2237 O   0  0  0  0  0  0  0  0  0  0  0  0
  145.3681  136.4086  152.4283 C   0  0  0  0  0  0  0  0  0  0  0  0
  145.8549  137.7871  152.8914 C   0  0  0  0  0  0  0  0  0  0  0  0
  147.3100  137.8093  153.0058 N   0  0  0  0  0  0  0  0  0  0  0  0
  148.0173  138.6060  153.8189 C   0  0  0  0  0  0  0  0  0  0  0  0
  147.5095  139.4584  154.5477 O   0  0  0  0  0  0  0  0  0  0  0  0
  149.3319  138.3401  153.7284 N   0  0  0  0  0  0  0  0  0  0  0  0
  150.3619  138.9181  154.3991 C   0  0  0  0  0  0  0  0  0  0  0  0
  150.3003  140.0606  155.1504 C   0  0  0  0  0  0  0  0  0  0  0  0
  151.5221  140.4322  155.7342 N   0  0  0  0  0  0  0  0  0  0  0  0
  152.5078  139.6277  155.4646 N   0  0  0  0  0  0  0  0  0  0  0  0
  152.0067  138.3684  154.4817 S   0  0  0  0  0  0  0  0  0  0  0  0
  145.5897  136.0219  150.9538 C   0  0  0  0  0  0  0  0  0  0  0  0
  144.2317  135.3178  150.9610 C   0  0  0  0  0  0  0  0  0  0  0  0
  143.8637  136.1828  152.1681 C   0  0  0  0  0  0  0  0  0  0  0  0
  145.9551  134.4355  155.0631 H   0  0  0  0  0  0  0  0  0  0  0  0
  144.5151  135.4058  154.7843 H   0  0  0  0  0  0  0  0  0  0  0  0
  146.0657  136.1831  155.1331 H   0  0  0  0  0  0  0  0  0  0  0  0
  145.5747  138.5458  152.1600 H   0  0  0  0  0  0  0  0  0  0  0  0
  145.3631  138.0865  153.8176 H   0  0  0  0  0  0  0  0  0  0  0  0
  147.8145  137.1395  152.4439 H   0  0  0  0  0  0  0  0  0  0  0  0
  149.5932  137.6066  153.0861 H   0  0  0  0  0  0  0  0  0  0  0  0
  149.4316  140.6776  155.3269 H   0  0  0  0  0  0  0  0  0  0  0  0
  145.6058  136.8864  150.2880 H   0  0  0  0  0  0  0  0  0  0  0  0
  146.4420  135.3663  150.7719 H   0  0  0  0  0  0  0  0  0  0  0  0
  143.6224  135.4882  150.0728 H   0  0  0  0  0  0  0  0  0  0  0  0
  144.3063  134.2574  151.2065 H   0  0  0  0  0  0  0  0  0  0  0  0
  143.3145  135.6524  152.9453 H   0  0  0  0  0  0  0  0  0  0  0  0
  143.3458  137.0983  151.8775 H   0  0  0  0  0  0  0  0  0  0  0  0
  1  2  1  0  0  0  0
  1 17  1  0  0  0  0
  1 18  1  0  0  0  0
  1 19  1  0  0  0  0
  2  3  1  0  0  0  0
  3 16  1  0  0  0  0
  3  4  1  0  0  0  0
  3 14  1  0  0  0  0
  4  5  1  0  0  0  0
  4 20  1  0  0  0  0
  4 21  1  0  0  0  0
  5  6  1  0  0  0  0
  5 22  1  0  0  0  0
  6  7  2  0  0  0  0
  6  8  1  0  0  0  0
  8  9  1  0  0  0  0
  8 23  1  0  0  0  0
  9 13  1  0  0  0  0
  9 10  2  0  0  0  0
 10 11  1  0  0  0  0
 10 24  1  0  0  0  0
 11 12  2  0  0  0  0
 12 13  1  0  0  0  0
 14 15  1  0  0  0  0
 14 25  1  0  0  0  0
 14 26  1  0  0  0  0
 15 16  1  0  0  0  0
 15 27  1  0  0  0  0
 15 28  1  0  0  0  0
 16 29  1  0  0  0  0
 16 30  1  0  0  0  0
M  END
> <s_m_source_file>
AV-unprocessed.smi

> <i_m_source_file_index>
2586

> <i_lp_mmshare_version>
43012

> <i_f3d_flags>
0

> <s_epik_input>
W0NIMl0xW0NIMl1bQ0gyXUMxKE9bQ0gzXSlbQ0gyXVtOSF1DKD1PKVtOSF1jMltjSF1ubnMy

> <s_epik_cmdline>
J2VwaWtfcHl0aG9uJywgJy1waCcsICc3LjAnLCAnLXRuJywgJzgnLCAnLW1hJywgJzIwMCcsICctbWV0YWxfYmluZGluZycsICctaW1hZScsICc8aW5maWxlLm1hZT4nLCAnLW9tYWUnLCAnPG91dGZpbGUubWFlPic=

> <r_lp_tautomer_probability>
1

> <r_epik_Ionization_Penalty>
2.25632e-05

> <r_epik_Ionization_Penalty_Charging>
0

> <r_epik_Ionization_Penalty_Neutral>
2.25632e-05

> <r_epik_State_Penalty>
-0

> <r_epik_Charging_Adjusted_Penalty>
0

> <i_epik_Tot_Q>
0

> <i_epik_Tot_abs_Q>
0

> <r_epik_Metal_State_Penalty>
-0

> <b_epik_Metal_Only>
0

> <s_lp_Force_Field>
OPLS_2005

> <r_lp_Energy>
14.9091

> <b_lp_Chiralities_Consistent>
1

> <s_lp_Variant>
AV-unprocessed.smi:2586-1

> <Gold.Version>
5.8.1

> <Gold.Id.Protein>
6NUR|6NUR_protein|mol2

> <Gold.PLP.Fitness>
35.2883

> <Gold.PLP.PLP>
-26.9442

> <Gold.PLP.part.hbond>
-5.6196

> <Gold.PLP.part.metal>
0.0000

> <Gold.PLP.part.buried>
-4.0669

> <Gold.PLP.part.nonpolar>
-18.6378

> <Gold.PLP.part.repulsive>
0.3060

> <Gold.PLP.ligand.clash>
0.0000

> <Gold.PLP.ligand.torsion>
0.3753

> <Gold.PLP.Chemscore.Hbond>
2.9440

> <Gold.PLP.Chemscore.CHOScore>
0.0000

> <Gold.PLP.Chemscore.Metal>
0.0000

> <Gold.Chemscore.Hbonds>
donor molecule, donor type, donor heavy atom, donor atom, acceptor molecule, acceptor atom, score
      L1  H     5    22       P1  7948  1.00
      L1  H     8    23       P1  7948  0.94
      P1  H  7997  8010       L1    12  0.99

> <Gold.PLP.Chemscore.Internal.Correction>
0.2627

> <Gold.Rescore>
     Score         DG    S(hbond)    S(metal)    S(lipo)     H(rot)  DE(clash)    DE(int)     intcor
     14.56     -16.15       2.65        0.00      50.91       1.61       0.00       1.59       ----

> <Gold.Chemscore.Fitness>
14.5645

> <Gold.Chemscore.DG>
-16.1536

> <Gold.Chemscore.ZeroCoef>
-5.4800

> <Gold.Chemscore.Hbond>
2.6494

> <Gold.Chemscore.Metal>
0.0000

> <Gold.Chemscore.Lipo>
50.9123

> <Gold.Chemscore.Internal_Hbond>
0.0000

> <Gold.Chemscore.DEClash>
0.0000

> <Gold.Chemscore.DEInternal>
1.5891

> <Gold.Chemscore.Rot>
1.6141

> <Gold.Chemscore.Internal.Correction>
   9.000000E+99

> <Gold.Chemscore.Hbonds>
donor molecule, donor type, donor heavy atom, donor atom, acceptor molecule, acceptor atom, score
      L1  H     5    22       P1  7948  0.96
      L1  H     8    23       P1  7948  0.71
      P1  H  7997  8010       L1    12  0.88

> <Gold.Chemscore.Hbond.Weighted>
-8.8489

> <Gold.Chemscore.Metal.Weighted>
-0.0000

> <Gold.Chemscore.Lipo.Weighted>
-5.9567

> <Gold.Chemscore.Internal_Hbond.Weighted>
0.0000

> <Gold.Chemscore.DEClash.Weighted>
0.0000

> <Gold.Chemscore.DEInternal.Weighted>
1.5891

> <Gold.Chemscore.Rot.Weighted>
4.1320

> <Gold.Chemscore.Internal.Correction.Weighted>
   9.000000E+99

> <Gold.Protein.RotatedTorsions>
[ 6907 6896 6895 6894 ] final   16.21 input  -60.11 | X-H torsion
[ 7974 7965 7964 7962 ] final   29.30 input  175.53 | X-H torsion
[ 8008 7997 7996 7995 ] final   90.96 input   59.86 | X-H torsion
[ 10167 10162 10161 10158 ] final  171.67 input  -65.29 | X-H torsion
[ 10718 10713 10712 10709 ] final   -4.38 input   66.30 | X-H torsion
[ 10763 10752 10751 10750 ] final    9.14 input  -60.55 | X-H torsion
[ 11005 11000 10999 10996 ] final  -53.83 input  -57.11 | X-H torsion

> <Gold.Protein.ActiveResidues>
 VAL166  LYS551  ARG553  GLY616  TRP617  ASP618  TYR619  PRO620  LYS621  CYS622 
 ASP623  PHE694  ASN695  SER759  ASP760  ASP761  ALA762  ILE779  LEU786  VAL792 
 PHE793  MET794  SER795  GLU796  ALA797  LYS798  CYS799  TRP800  GLU811  SER814 

> <Gold.Protein.RotatedAtoms>
  151.8303  135.0623  160.0435 H   0  0  0  0  0  0  0  0  0  0  0  0  # atno 6907 bound_to 6896
  152.2885  133.5534  159.5551 H   0  0  0  0  0  0  0  0  0  0  0  0  # atno 6908 bound_to 6896
  150.7219  134.0379  159.3798 H   0  0  0  0  0  0  0  0  0  0  0  0  # atno 6909 bound_to 6896
  146.1679  139.6940  142.8988 H   0  0  0  0  0  0  0  0  0  0  0  0  # atno 7974 bound_to 7965
  156.0182  140.3343  155.7011 H   0  0  0  0  0  0  0  0  0  0  0  0  # atno 8008 bound_to 7997
  155.6061  140.0660  157.2737 H   0  0  0  0  0  0  0  0  0  0  0  0  # atno 8009 bound_to 7997
  154.4306  140.1802  156.1211 H   0  0  0  0  0  0  0  0  0  0  0  0  # atno 8010 bound_to 7997
  139.5053  144.3459  151.9971 H   0  0  0  0  0  0  0  0  0  0  0  0  # atno 10167 bound_to 10162
  156.7621  130.5273  149.5783 H   0  0  0  0  0  0  0  0  0  0  0  0  # atno 10718 bound_to 10713
  153.2173  135.6877  153.8042 H   0  0  0  0  0  0  0  0  0  0  0  0  # atno 10763 bound_to 10752
  153.7253  135.3261  155.3276 H   0  0  0  0  0  0  0  0  0  0  0  0  # atno 10764 bound_to 10752
  154.8252  135.4623  154.1006 H   0  0  0  0  0  0  0  0  0  0  0  0  # atno 10765 bound_to 10752
  141.0996  133.6620  156.4231 H   0  0  0  0  0  0  0  0  0  0  0  0  # atno 11005 bound_to 11000
  145.4417  141.0423  143.2853 LP  0  0  0  0  0  0  0  0  0  0  0  0  # atno 17320 bound_to 7965
  144.8120  139.5945  143.7025 LP  0  0  0  0  0  0  0  0  0  0  0  0  # atno 17321 bound_to 7965
  140.2897  144.3768  150.6092 LP  0  0  0  0  0  0  0  0  0  0  0  0  # atno 17342 bound_to 10162
  140.5956  143.2167  151.7170 LP  0  0  0  0  0  0  0  0  0  0  0  0  # atno 17343 bound_to 10162
  156.1332  130.6193  151.0364 LP  0  0  0  0  0  0  0  0  0  0  0  0  # atno 17370 bound_to 10713
  157.6730  131.0857  150.7565 LP  0  0  0  0  0  0  0  0  0  0  0  0  # atno 17371 bound_to 10713
  140.5055  134.6444  157.5265 LP  0  0  0  0  0  0  0  0  0  0  0  0  # atno 17394 bound_to 11000
  139.9843  134.7087  155.9803 LP  0  0  0  0  0  0  0  0  0  0  0  0  # atno 17395 bound_to 11000

$$$$
