#       Name:                AV-unprocessed.smi:578
#       Creating user name   scv26
#       Creation time:       Thu Mar 26 23:49:12 2020


#       File generated by GOLD software.
#

@<TRIPOS>MOLECULE
AV-unprocessed.smi:578
    40    41     1
SMALL
NO_CHARGES


@<TRIPOS>ATOM
      1 ****        -2.9308  -1.7815   1.7294 C.3            1 S1                 0.0000
      2 ****        -2.3095  -1.0721   0.5217 C.3            1 S1                 0.0000
      3 ****        -0.7701  -1.0610   0.5853 C.3            1 S1                 0.0000
      4 ****        -0.2292  -0.2950  -0.5298 N.3            1 S1                 0.0000
      5 ****         1.1697  -0.3371  -0.6053 C.ar           1 S1                 0.0000
      6 ****         1.7811  -0.9708  -1.7081 C.ar           1 S1                 0.0000
      7 ****         3.1871  -1.0151  -1.7853 C.ar           1 S1                 0.0000
      8 ****         3.9304  -0.4539  -0.8082 N.pl3          1 S1                 1.0000
      9 ****         3.3972   0.1652   0.2699 C.ar           1 S1                 0.0000
     10 ****         4.3194   0.7541   1.2961 C.2            1 S1                 0.0000
     11 ****         3.8243   1.3262   2.2920 O.co2          1 S1                 0.0000
     12 ****         5.5536   0.6511   1.1174 O.co2          1 S1                -1.0000
     13 ****         1.9905   0.2368   0.3942 C.ar           1 S1                 0.0000
     14 ****        -0.7739   1.0551  -0.5931 C.3            1 S1                 0.0000
     15 ****        -2.3130   1.0023  -0.6346 C.3            1 S1                 0.0000
     16 ****        -2.9386   2.4007  -0.6025 C.3            1 S1                 0.0000
     17 ****        -2.7838   0.2728   0.4970 O.3            1 S1                 0.0000
     18 ****        -2.6047  -2.8204   1.7849 H              1 S1                 0.0000
     19 ****        -4.0192  -1.7781   1.6653 H              1 S1                 0.0000
     20 ****        -2.6507  -1.2921   2.6627 H              1 S1                 0.0000
     21 ****        -2.6363  -1.5823  -0.3862 H              1 S1                 0.0000
     22 ****        -0.4404  -0.6234   1.5287 H              1 S1                 0.0000
     23 ****        -0.3859  -2.0815   0.5505 H              1 S1                 0.0000
     24 ****         1.1806  -1.4185  -2.4868 H              1 S1                 0.0000
     25 ****         3.7362  -1.4785  -2.5916 H              1 S1                 0.0000
     26 ****         1.5445   0.7263   1.2482 H              1 S1                 0.0000
     27 ****        -0.4457   1.6279   0.2755 H              1 S1                 0.0000
     28 ****        -0.3918   1.5639  -1.4792 H              1 S1                 0.0000
     29 ****        -2.6393   0.4973  -1.5456 H              1 S1                 0.0000
     30 ****        -2.6153   2.9949  -1.4577 H              1 S1                 0.0000
     31 ****        -2.6588   2.9385   0.3039 H              1 S1                 0.0000
     32 ****        -4.0268   2.3412  -0.6319 H              1 S1                 0.0000
     33 ****         4.9479  -0.4938  -0.8774 H              1 S1                 0.0000
     34 ****        -0.5436  -0.7556  -1.3598 LP             1 S1                 0.0000
     35 ****         4.4217   1.7255   2.9875 LP             1 S1                 0.0000
     36 ****         2.8311   1.3844   2.3928 LP             1 S1                 0.0000
     37 ****         6.1895   1.0353   1.7867 LP             1 S1                 0.0000
     38 ****         5.9041   0.1846   0.3053 LP             1 S1                 0.0000
     39 ****        -2.4747   0.7363   1.3275 LP             1 S1                 0.0000
     40 ****        -3.7834   0.2591   0.4754 LP             1 S1                 0.0000
@<TRIPOS>BOND
    1    1    2 1     
    2    1   18 1     
    3    1   19 1     
    4    1   20 1     
    5    2   17 1     
    6    2    3 1     
    7    2   21 1     
    8    3    4 1     
    9    3   22 1     
   10    3   23 1     
   11    4    5 1     
   12    4   14 1     
   13    5   13 ar    
   14    5    6 ar    
   15    6    7 ar    
   16    6   24 1     
   17    7    8 ar    
   18    7   25 1     
   19    8    9 ar    
   20    8   33 1     
   21    9   10 1     
   22    9   13 ar    
   23   10   11 ar    
   24   10   12 ar    
   25   13   26 1     
   26   14   15 1     
   27   14   27 1     
   28   14   28 1     
   29   15   16 1     
   30   15   17 1     
   31   15   29 1     
   32   16   30 1     
   33   16   31 1     
   34   16   32 1     
   35    4   34 1     
   36   11   35 1     
   37   11   36 1     
   38   12   37 1     
   39   12   38 1     
   40   17   39 1     
   41   17   40 1     
@<TRIPOS>SUBSTRUCTURE
      1 S1             1
@<TRIPOS>SET
LONE_PAIRS      STATIC     ATOMS    <user>   **** ""
7 34 35 36 37 38 39 40
DONOR_HYDROGENS      STATIC     ATOMS    <user>   **** ""
1 33
ATOM$BLUE        STATIC     ATOMS    COLORGROUP SYSTEM
7 34 35 36 37 38 39 40
ATOM$RED        STATIC     ATOMS    COLORGROUP SYSTEM
1 33
