AV-unprocessed.smi:702|AV-procd|sdf|3425|dock9
  -GOLD-   22720 0413D 1   1.00000     0.00000
 Structure written by MMmdl.
 50 52  0  0  0  0  0  0  0  0  4 V2000
  147.0466  129.0535  154.9747 C   0  0  0  0  0  0  0  0  0  0  0  0
  148.3603  129.4328  154.2601 C   0  0  1  0  0  0  0  0  0  0  0  0
  148.0958  130.6220  153.4414 N   0  5  0  0  0  0  0  0  0  0  0  0
  146.8737  131.1902  153.2543 C   0  0  0  0  0  0  0  0  0  0  0  0
  146.0287  131.4592  154.1148 O   0  0  0  0  0  0  0  0  0  0  0  0
  146.6413  131.4741  151.9605 N   0  0  0  0  0  0  0  0  0  0  0  0
  145.4737  132.0145  151.3571 C   0  0  0  0  0  0  0  0  0  0  0  0
  144.6213  132.7986  152.1654 C   0  0  0  0  0  0  0  0  0  0  0  0
  143.4642  133.3734  151.6017 C   0  0  0  0  0  0  0  0  0  0  0  0
  143.1864  133.1811  150.2943 N   0  3  0  0  0  0  0  0  0  0  0  0
  143.9802  132.4549  149.4782 C   0  0  0  0  0  0  0  0  0  0  0  0
  145.1512  131.8562  149.9854 C   0  0  0  0  0  0  0  0  0  0  0  0
  149.6262  129.6718  155.1945 C   0  0  0  0  0  0  0  0  0  0  0  0
  149.5374  130.9353  156.0461 N   0  3  0  0  0  0  0  0  0  0  0  0
  149.7260  132.2553  155.3683 C   0  0  0  0  0  0  0  0  0  0  0  0
  149.9949  133.3533  156.4073 C   0  0  0  0  0  0  0  0  0  0  0  0
  148.9072  133.4162  157.3195 O   0  0  0  0  0  0  0  0  0  0  0  0
  148.7483  132.1993  158.0360 C   0  0  0  0  0  0  0  0  0  0  0  0
  148.4492  131.0466  157.0632 C   0  0  0  0  0  0  0  0  0  0  0  0
  149.9864  128.4304  156.0653 C   0  0  0  0  0  0  0  0  0  0  0  0
  151.4334  128.6435  156.5265 C   0  0  0  0  0  0  0  0  0  0  0  0
  152.0787  129.5006  155.4318 C   0  0  0  0  0  0  0  0  0  0  0  0
  150.9657  129.7621  154.4059 C   0  0  0  0  0  0  0  0  0  0  0  0
  147.1353  128.1246  155.5352 H   0  0  0  0  0  0  0  0  0  0  0  0
  146.2490  128.8937  154.2478 H   0  0  0  0  0  0  0  0  0  0  0  0
  146.7018  129.8311  155.6553 H   0  0  0  0  0  0  0  0  0  0  0  0
  148.6032  128.5711  153.6371 H   0  0  0  0  0  0  0  0  0  0  0  0
  147.4253  131.3304  151.3411 H   0  0  0  0  0  0  0  0  0  0  0  0
  144.8470  132.9542  153.2105 H   0  0  0  0  0  0  0  0  0  0  0  0
  142.7596  133.9786  152.1529 H   0  0  0  0  0  0  0  0  0  0  0  0
  143.6611  132.3802  148.4490 H   0  0  0  0  0  0  0  0  0  0  0  0
  145.7863  131.2988  149.3138 H   0  0  0  0  0  0  0  0  0  0  0  0
  150.5515  132.2316  154.6597 H   0  0  0  0  0  0  0  0  0  0  0  0
  148.8327  132.5223  154.8019 H   0  0  0  0  0  0  0  0  0  0  0  0
  150.9285  133.1671  156.9408 H   0  0  0  0  0  0  0  0  0  0  0  0
  150.0962  134.3202  155.9141 H   0  0  0  0  0  0  0  0  0  0  0  0
  149.6444  131.9895  158.6223 H   0  0  0  0  0  0  0  0  0  0  0  0
  147.9266  132.3139  158.7436 H   0  0  0  0  0  0  0  0  0  0  0  0
  147.4881  131.2261  156.5840 H   0  0  0  0  0  0  0  0  0  0  0  0
  148.3469  130.1457  157.6618 H   0  0  0  0  0  0  0  0  0  0  0  0
  149.3014  128.2182  156.8850 H   0  0  0  0  0  0  0  0  0  0  0  0
  149.9944  127.5171  155.4683 H   0  0  0  0  0  0  0  0  0  0  0  0
  151.4555  129.1746  157.4788 H   0  0  0  0  0  0  0  0  0  0  0  0
  151.9535  127.6954  156.6670 H   0  0  0  0  0  0  0  0  0  0  0  0
  152.4354  130.4400  155.8558 H   0  0  0  0  0  0  0  0  0  0  0  0
  152.9338  129.0028  154.9732 H   0  0  0  0  0  0  0  0  0  0  0  0
  151.0557  128.9738  153.6576 H   0  0  0  0  0  0  0  0  0  0  0  0
  151.1213  130.6972  153.8699 H   0  0  0  0  0  0  0  0  0  0  0  0
  150.3631  130.8462  156.6197 H   0  0  0  0  0  0  0  0  0  0  0  0
  142.3447  133.6066  149.9054 H   0  0  0  0  0  0  0  0  0  0  0  0
  1  2  1  0  0  0  0
  1 24  1  0  0  0  0
  1 25  1  0  0  0  0
  1 26  1  0  0  0  0
  2  3  1  0  0  0  0
  2 13  1  0  0  0  0
  2 27  1  0  0  0  0
  3  4  1  0  0  0  0
  4  5  2  0  0  0  0
  4  6  1  0  0  0  0
  6  7  1  0  0  0  0
  6 28  1  0  0  0  0
  7 12  1  0  0  0  0
  7  8  2  0  0  0  0
  8  9  1  0  0  0  0
  8 29  1  0  0  0  0
  9 10  2  0  0  0  0
  9 30  1  0  0  0  0
 10 11  1  0  0  0  0
 10 50  1  0  0  0  0
 11 12  2  0  0  0  0
 11 31  1  0  0  0  0
 12 32  1  0  0  0  0
 13 23  1  0  0  0  0
 13 14  1  0  0  0  0
 13 20  1  0  0  0  0
 14 19  1  0  0  0  0
 14 15  1  0  0  0  0
 14 49  1  0  0  0  0
 15 16  1  0  0  0  0
 15 33  1  0  0  0  0
 15 34  1  0  0  0  0
 16 17  1  0  0  0  0
 16 35  1  0  0  0  0
 16 36  1  0  0  0  0
 17 18  1  0  0  0  0
 18 19  1  0  0  0  0
 18 37  1  0  0  0  0
 18 38  1  0  0  0  0
 19 39  1  0  0  0  0
 19 40  1  0  0  0  0
 20 21  1  0  0  0  0
 20 41  1  0  0  0  0
 20 42  1  0  0  0  0
 21 22  1  0  0  0  0
 21 43  1  0  0  0  0
 21 44  1  0  0  0  0
 22 23  1  0  0  0  0
 22 45  1  0  0  0  0
 22 46  1  0  0  0  0
 23 47  1  0  0  0  0
 23 48  1  0  0  0  0
M  CHG  1   3  -1
M  CHG  1  10   1
M  CHG  1  14   1
M  END
> <s_m_source_file>
AV-unprocessed.smi

> <i_m_source_file_index>
702

> <i_lp_mmshare_version>
43012

> <i_f3d_flags>
0

> <s_epik_input>
W0NIMl0xW0NIMl1PW0NIMl1bQ0gyXU4xQzIoW0NIMl1bQ0gyXVtDSDJdW0NIMl0yKVtDQEhdKFtDSDNdKVtOSF1DKD1PKVtOSF1jM1tjSF1bY0hdbltjSF1bY0hdMw==

> <s_epik_cmdline>
J2VwaWtfcHl0aG9uJywgJy1waCcsICc3LjAnLCAnLXRuJywgJzgnLCAnLW1hJywgJzIwMCcsICctbWV0YWxfYmluZGluZycsICctaW1hZScsICc8aW5maWxlLm1hZT4nLCAnLW9tYWUnLCAnPG91dGZpbGUubWFlPic=

> <r_epik_Ionization_Penalty>
8.33674

> <r_epik_Ionization_Penalty_Charging>
8.33674

> <r_epik_Ionization_Penalty_Neutral>
3.60854e-06

> <r_epik_State_Penalty>
8.24268

> <r_epik_Charging_Adjusted_Penalty>
16.5794

> <i_epik_Tot_Q>
1

> <i_epik_Tot_abs_Q>
3

> <r_epik_Metal_State_Penalty>
4.24853

> <b_epik_Metal_Only>
1

> <s_lp_Force_Field>
OPLS_2005

> <r_lp_Energy>
61.2868

> <b_lp_Chiralities_Consistent>
1

> <s_lp_Variant>
AV-unprocessed.smi:702-10

> <Gold.Version>
5.8.1

> <Gold.Id.Protein>
6NUR|6NUR_protein|mol2

> <Gold.PLP.Fitness>
37.6100

> <Gold.PLP.PLP>
-30.0646

> <Gold.PLP.part.hbond>
-2.0000

> <Gold.PLP.part.metal>
0.0000

> <Gold.PLP.part.buried>
-6.4813

> <Gold.PLP.part.nonpolar>
-23.0480

> <Gold.PLP.part.repulsive>
0.2842

> <Gold.PLP.ligand.clash>
0.0519

> <Gold.PLP.ligand.torsion>
0.9303

> <Gold.PLP.Chemscore.Hbond>
3.0000

> <Gold.PLP.Chemscore.CHOScore>
0.0000

> <Gold.PLP.Chemscore.Metal>
0.0000

> <Gold.Chemscore.Hbonds>
donor molecule, donor type, donor heavy atom, donor atom, acceptor molecule, acceptor atom, score
      L1  H     6    28       P1 10747  1.00
      L1  H    10    50       P1 10186  2.00

> <Gold.PLP.Chemscore.Internal.Correction>
0.4580

> <Gold.Rescore>
     Score         DG    S(hbond)    S(metal)    S(lipo)     H(rot)  DE(clash)    DE(int)     intcor
     14.43     -18.49       1.98        0.00      86.40       1.45       0.01       4.06       ----

> <Gold.Chemscore.Fitness>
14.4263

> <Gold.Chemscore.DG>
-18.4912

> <Gold.Chemscore.ZeroCoef>
-5.4800

> <Gold.Chemscore.Hbond>
1.9807

> <Gold.Chemscore.Metal>
0.0000

> <Gold.Chemscore.Lipo>
86.3997

> <Gold.Chemscore.Internal_Hbond>
0.0000

> <Gold.Chemscore.DEClash>
0.0060

> <Gold.Chemscore.DEInternal>
4.0590

> <Gold.Chemscore.Rot>
1.4504

> <Gold.Chemscore.Internal.Correction>
   9.000000E+99

> <Gold.Chemscore.Hbonds>
donor molecule, donor type, donor heavy atom, donor atom, acceptor molecule, acceptor atom, score
      L1  H     6    28       P1 10747  0.99
      L1  H    10    50       P1 10186  0.99

> <Gold.Chemscore.Hbond.Weighted>
-6.6154

> <Gold.Chemscore.Metal.Weighted>
-0.0000

> <Gold.Chemscore.Lipo.Weighted>
-10.1088

> <Gold.Chemscore.Internal_Hbond.Weighted>
0.0000

> <Gold.Chemscore.DEClash.Weighted>
0.0060

> <Gold.Chemscore.DEInternal.Weighted>
4.0590

> <Gold.Chemscore.Rot.Weighted>
3.7129

> <Gold.Chemscore.Internal.Correction.Weighted>
   9.000000E+99

> <Gold.Protein.RotatedTorsions>
[ 6907 6896 6895 6894 ] final -144.68 input  -60.11 | X-H torsion
[ 7974 7965 7964 7962 ] final  165.26 input  175.53 | X-H torsion
[ 8008 7997 7996 7995 ] final  -84.17 input   59.86 | X-H torsion
[ 10167 10162 10161 10158 ] final   49.79 input  -65.29 | X-H torsion
[ 10718 10713 10712 10709 ] final  -39.74 input   66.30 | X-H torsion
[ 10763 10752 10751 10750 ] final   71.75 input  -60.55 | X-H torsion
[ 11005 11000 10999 10996 ] final -163.65 input  -57.11 | X-H torsion

> <Gold.Protein.ActiveResidues>
 VAL166  LYS551  ARG553  GLY616  TRP617  ASP618  TYR619  PRO620  LYS621  CYS622 
 ASP623  PHE694  ASN695  SER759  ASP760  ASP761  ALA762  ILE779  LEU786  VAL792 
 PHE793  MET794  SER795  GLU796  ALA797  LYS798  CYS799  TRP800  GLU811  SER814 

> <Gold.Protein.RotatedAtoms>
  151.1174  133.5128  159.2603 H   0  0  0  0  0  0  0  0  0  0  0  0  # atno 6907 bound_to 6896
  151.1899  135.0397  159.8838 H   0  0  0  0  0  0  0  0  0  0  0  0  # atno 6908 bound_to 6896
  152.5454  134.1016  159.8373 H   0  0  0  0  0  0  0  0  0  0  0  0  # atno 6909 bound_to 6896
  144.7510  139.8445  143.6366 H   0  0  0  0  0  0  0  0  0  0  0  0  # atno 7974 bound_to 7965
  154.6269  140.0608  156.9685 H   0  0  0  0  0  0  0  0  0  0  0  0  # atno 8008 bound_to 7997
  155.1727  140.3292  155.4371 H   0  0  0  0  0  0  0  0  0  0  0  0  # atno 8009 bound_to 7997
  156.2462  140.1911  156.6828 H   0  0  0  0  0  0  0  0  0  0  0  0  # atno 8010 bound_to 7997
  140.2792  144.3176  150.6269 H   0  0  0  0  0  0  0  0  0  0  0  0  # atno 10167 bound_to 10162
  156.2891  130.4226  149.8257 H   0  0  0  0  0  0  0  0  0  0  0  0  # atno 10718 bound_to 10713
  153.0417  135.5125  154.7640 H   0  0  0  0  0  0  0  0  0  0  0  0  # atno 10763 bound_to 10752
  154.6572  135.2933  154.9914 H   0  0  0  0  0  0  0  0  0  0  0  0  # atno 10764 bound_to 10752
  154.0778  135.6668  153.4886 H   0  0  0  0  0  0  0  0  0  0  0  0  # atno 10765 bound_to 10752
  140.5957  134.4999  157.5199 H   0  0  0  0  0  0  0  0  0  0  0  0  # atno 11005 bound_to 11000
  146.1460  139.4529  143.0079 LP  0  0  0  0  0  0  0  0  0  0  0  0  # atno 17320 bound_to 7965
  145.6945  141.0154  143.1537 LP  0  0  0  0  0  0  0  0  0  0  0  0  # atno 17321 bound_to 7965
  140.5826  143.2172  151.7401 LP  0  0  0  0  0  0  0  0  0  0  0  0  # atno 17342 bound_to 10162
  139.4967  144.4058  152.0133 LP  0  0  0  0  0  0  0  0  0  0  0  0  # atno 17343 bound_to 10162
  156.5677  130.8411  151.3347 LP  0  0  0  0  0  0  0  0  0  0  0  0  # atno 17370 bound_to 10713
  157.7337  130.9734  150.1991 LP  0  0  0  0  0  0  0  0  0  0  0  0  # atno 17371 bound_to 10713
  139.9254  134.8066  156.1084 LP  0  0  0  0  0  0  0  0  0  0  0  0  # atno 17394 bound_to 11000
  141.0906  133.6716  156.2531 LP  0  0  0  0  0  0  0  0  0  0  0  0  # atno 17395 bound_to 11000

$$$$
