AV-unprocessed.smi:1258|AV-procd|sdf|5289|dock2
  -GOLD-   22720 4413D 1   1.00000     0.00000
 Structure written by MMmdl.
 33 34  0  0  0  0  0  0  0  0  1 V2000
  153.5457  141.8722  160.9163 C   0  0  0  0  0  0  0  0  0  0  0  0
  153.0712  142.1587  159.4847 C   0  0  2  0  0  0  0  0  0  0  0  0
  152.0459  143.3081  159.4504 C   0  0  0  0  0  0  0  0  0  0  0  0
  151.5706  143.5950  158.0177 C   0  0  0  0  0  0  0  0  0  0  0  0
  150.9931  142.3326  157.3599 C   0  0  0  0  0  0  0  0  0  0  0  0
  152.0094  141.1763  157.3801 C   0  0  2  0  0  0  0  0  0  0  0  0
  151.4045  139.9849  156.7915 N   0  0  0  0  0  0  0  0  0  0  0  0
  151.7890  139.4048  155.6444 C   0  0  0  0  0  0  0  0  0  0  0  0
  152.7267  139.8197  154.9613 O   0  0  0  0  0  0  0  0  0  0  0  0
  150.9804  138.1724  155.2205 C   0  0  0  0  0  0  0  0  0  0  0  0
  150.9365  137.1462  156.2480 N   0  0  0  0  0  0  0  0  0  0  0  0
  150.3983  137.1497  157.4693 C   0  0  0  0  0  0  0  0  0  0  0  0
  150.5881  135.9959  158.0906 N   0  0  0  0  0  0  0  0  0  0  0  0
  151.2954  135.2510  157.1618 N   0  0  0  0  0  0  0  0  0  0  0  0
  151.5047  135.9281  156.0662 N   0  0  0  0  0  0  0  0  0  0  0  0
  152.4888  140.8956  158.8200 C   0  0  0  0  0  0  0  0  0  0  0  0
  152.7184  141.5575  161.5532 H   0  0  0  0  0  0  0  0  0  0  0  0
  153.9939  142.7586  161.3661 H   0  0  0  0  0  0  0  0  0  0  0  0
  154.2961  141.0814  160.9298 H   0  0  0  0  0  0  0  0  0  0  0  0
  153.9431  142.4692  158.9070 H   0  0  0  0  0  0  0  0  0  0  0  0
  151.1870  143.0565  160.0742 H   0  0  0  0  0  0  0  0  0  0  0  0
  152.4829  144.2115  159.8774 H   0  0  0  0  0  0  0  0  0  0  0  0
  150.8202  144.3859  158.0265 H   0  0  0  0  0  0  0  0  0  0  0  0
  152.4055  143.9680  157.4230 H   0  0  0  0  0  0  0  0  0  0  0  0
  150.0834  142.0368  157.8849 H   0  0  0  0  0  0  0  0  0  0  0  0
  150.6999  142.5559  156.3332 H   0  0  0  0  0  0  0  0  0  0  0  0
  152.8682  141.4711  156.7736 H   0  0  0  0  0  0  0  0  0  0  0  0
  150.6256  139.5789  157.2896 H   0  0  0  0  0  0  0  0  0  0  0  0
  149.9574  138.4699  154.9869 H   0  0  0  0  0  0  0  0  0  0  0  0
  151.4106  137.7504  154.3110 H   0  0  0  0  0  0  0  0  0  0  0  0
  149.8738  137.9903  157.8993 H   0  0  0  0  0  0  0  0  0  0  0  0
  153.2430  140.1077  158.8134 H   0  0  0  0  0  0  0  0  0  0  0  0
  151.6569  140.5193  159.4176 H   0  0  0  0  0  0  0  0  0  0  0  0
  1  2  1  0  0  0  0
  1 17  1  0  0  0  0
  1 18  1  0  0  0  0
  1 19  1  0  0  0  0
  2 16  1  0  0  0  0
  2  3  1  0  0  0  0
  2 20  1  0  0  0  0
  3  4  1  0  0  0  0
  3 21  1  0  0  0  0
  3 22  1  0  0  0  0
  4  5  1  0  0  0  0
  4 23  1  0  0  0  0
  4 24  1  0  0  0  0
  5  6  1  0  0  0  0
  5 25  1  0  0  0  0
  5 26  1  0  0  0  0
  6  7  1  0  0  0  0
  6 16  1  0  0  0  0
  6 27  1  0  0  0  0
  7  8  1  0  0  0  0
  7 28  1  0  0  0  0
  8  9  2  0  0  0  0
  8 10  1  0  0  0  0
 10 11  1  0  0  0  0
 10 29  1  0  0  0  0
 10 30  1  0  0  0  0
 11 15  1  0  0  0  0
 11 12  1  0  0  0  0
 12 13  2  0  0  0  0
 12 31  1  0  0  0  0
 13 14  1  0  0  0  0
 14 15  2  0  0  0  0
 16 32  1  0  0  0  0
 16 33  1  0  0  0  0
M  END
> <s_m_source_file>
AV-unprocessed.smi

> <i_m_source_file_index>
1258

> <i_lp_mmshare_version>
43012

> <i_f3d_flags>
0

> <s_epik_input>
W0NIM11bQ0BASF0xW0NIMl1bQ0gyXVtDSDJdW0NASF0oW0NIMl0xKVtOSF1DKD1PKVtDSDJdbjJbY0hdbm5uMg==

> <s_epik_cmdline>
J2VwaWtfcHl0aG9uJywgJy1waCcsICc3LjAnLCAnLXRuJywgJzgnLCAnLW1hJywgJzIwMCcsICctbWV0YWxfYmluZGluZycsICctaW1hZScsICc8aW5maWxlLm1hZT4nLCAnLW9tYWUnLCAnPG91dGZpbGUubWFlPic=

> <r_lp_tautomer_probability>
1

> <r_epik_Ionization_Penalty>
5.03816e-07

> <r_epik_Ionization_Penalty_Charging>
0

> <r_epik_Ionization_Penalty_Neutral>
5.03816e-07

> <r_epik_State_Penalty>
-0

> <r_epik_Charging_Adjusted_Penalty>
0

> <i_epik_Tot_Q>
0

> <i_epik_Tot_abs_Q>
0

> <r_epik_Metal_State_Penalty>
-0

> <b_epik_Metal_Only>
0

> <s_lp_Force_Field>
OPLS_2005

> <r_lp_Energy>
11.1566

> <b_lp_Chiralities_Consistent>
1

> <s_lp_Variant>
AV-unprocessed.smi:1258-3

> <Gold.Version>
5.8.1

> <Gold.Id.Protein>
6NUR|6NUR_protein|mol2

> <Gold.PLP.Fitness>
40.0875

> <Gold.PLP.PLP>
-30.7731

> <Gold.PLP.part.hbond>
-4.9689

> <Gold.PLP.part.metal>
0.0000

> <Gold.PLP.part.buried>
-4.1197

> <Gold.PLP.part.nonpolar>
-22.0581

> <Gold.PLP.part.repulsive>
0.1490

> <Gold.PLP.ligand.clash>
0.0000

> <Gold.PLP.ligand.torsion>
0.0730

> <Gold.PLP.Chemscore.Hbond>
3.1520

> <Gold.PLP.Chemscore.CHOScore>
0.0000

> <Gold.PLP.Chemscore.Metal>
0.0000

> <Gold.Chemscore.Hbonds>
donor molecule, donor type, donor heavy atom, donor atom, acceptor molecule, acceptor atom, score
      P1  H  6896  6907       L1    13  0.62
      P1  H  7989  7998       L1     9  0.46
      P1  H  7997  8010       L1     9  1.00
      P1  H 10752 10765       L1    15  1.00

> <Gold.PLP.Chemscore.Internal.Correction>
0.0045

> <Gold.Rescore>
     Score         DG    S(hbond)    S(metal)    S(lipo)     H(rot)  DE(clash)    DE(int)     intcor
     17.21     -17.25       2.51        0.00      70.87       1.92       0.00       0.04       ----

> <Gold.Chemscore.Fitness>
17.2088

> <Gold.Chemscore.DG>
-17.2495

> <Gold.Chemscore.ZeroCoef>
-5.4800

> <Gold.Chemscore.Hbond>
2.5103

> <Gold.Chemscore.Metal>
0.0000

> <Gold.Chemscore.Lipo>
70.8741

> <Gold.Chemscore.Internal_Hbond>
0.0000

> <Gold.Chemscore.DEClash>
0.0000

> <Gold.Chemscore.DEInternal>
0.0407

> <Gold.Chemscore.Rot>
1.9169

> <Gold.Chemscore.Internal.Correction>
   9.000000E+99

> <Gold.Chemscore.Hbonds>
donor molecule, donor type, donor heavy atom, donor atom, acceptor molecule, acceptor atom, score
      P1  H  6896  6907       L1    13  0.12
      P1  H  7989  7998       L1     9  0.13
      P1  H  7997  8010       L1     9  0.87
      P1  H 10752 10765       L1    15  0.96

> <Gold.Chemscore.Hbond.Weighted>
-8.3845

> <Gold.Chemscore.Metal.Weighted>
-0.0000

> <Gold.Chemscore.Lipo.Weighted>
-8.2923

> <Gold.Chemscore.Internal_Hbond.Weighted>
0.0000

> <Gold.Chemscore.DEClash.Weighted>
0.0000

> <Gold.Chemscore.DEInternal.Weighted>
0.0407

> <Gold.Chemscore.Rot.Weighted>
4.9073

> <Gold.Chemscore.Internal.Correction.Weighted>
   9.000000E+99

> <Gold.Protein.RotatedTorsions>
[ 6907 6896 6895 6894 ] final  -52.29 input  -60.11 | X-H torsion
[ 7974 7965 7964 7962 ] final   93.35 input  175.53 | X-H torsion
[ 8008 7997 7996 7995 ] final   97.91 input   59.86 | X-H torsion
[ 10167 10162 10161 10158 ] final  -66.97 input  -65.29 | X-H torsion
[ 10718 10713 10712 10709 ] final  155.65 input   66.30 | X-H torsion
[ 10763 10752 10751 10750 ] final -159.38 input  -60.55 | X-H torsion
[ 11005 11000 10999 10996 ] final   58.63 input  -57.11 | X-H torsion

> <Gold.Protein.ActiveResidues>
 VAL166  LYS551  ARG553  GLY616  TRP617  ASP618  TYR619  PRO620  LYS621  CYS622 
 ASP623  PHE694  ASN695  SER759  ASP760  ASP761  ALA762  ILE779  LEU786  VAL792 
 PHE793  MET794  SER795  GLU796  ALA797  LYS798  CYS799  TRP800  GLU811  SER814 

> <Gold.Protein.RotatedAtoms>
  150.8532  134.7863  159.7024 H   0  0  0  0  0  0  0  0  0  0  0  0  # atno 6907 bound_to 6896
  152.4591  134.5222  159.9796 H   0  0  0  0  0  0  0  0  0  0  0  0  # atno 6908 bound_to 6896
  151.5339  133.3406  159.2959 H   0  0  0  0  0  0  0  0  0  0  0  0  # atno 6909 bound_to 6896
  145.4801  139.2279  143.2887 H   0  0  0  0  0  0  0  0  0  0  0  0  # atno 7974 bound_to 7965
  156.0950  140.3251  155.7866 H   0  0  0  0  0  0  0  0  0  0  0  0  # atno 8008 bound_to 7997
  155.4933  140.0563  157.2967 H   0  0  0  0  0  0  0  0  0  0  0  0  # atno 8009 bound_to 7997
  154.4661  140.1989  156.0131 H   0  0  0  0  0  0  0  0  0  0  0  0  # atno 8010 bound_to 7997
  140.5617  143.2313  151.6714 H   0  0  0  0  0  0  0  0  0  0  0  0  # atno 10167 bound_to 10162
  157.2154  131.0707  151.1944 H   0  0  0  0  0  0  0  0  0  0  0  0  # atno 10718 bound_to 10713
  154.7480  135.3085  154.8610 H   0  0  0  0  0  0  0  0  0  0  0  0  # atno 10763 bound_to 10752
  153.9406  135.6775  153.4748 H   0  0  0  0  0  0  0  0  0  0  0  0  # atno 10764 bound_to 10752
  153.1076  135.4882  154.8905 H   0  0  0  0  0  0  0  0  0  0  0  0  # atno 10765 bound_to 10752
  140.0363  134.5938  155.9440 H   0  0  0  0  0  0  0  0  0  0  0  0  # atno 11005 bound_to 11000
  146.2346  140.5587  142.8960 LP  0  0  0  0  0  0  0  0  0  0  0  0  # atno 17320 bound_to 7965
  144.7894  140.6001  143.6552 LP  0  0  0  0  0  0  0  0  0  0  0  0  # atno 17321 bound_to 7965
  139.5073  144.3650  152.0526 LP  0  0  0  0  0  0  0  0  0  0  0  0  # atno 17342 bound_to 10162
  140.2777  144.3894  150.6129 LP  0  0  0  0  0  0  0  0  0  0  0  0  # atno 17343 bound_to 10162
  157.3629  130.7141  149.6514 LP  0  0  0  0  0  0  0  0  0  0  0  0  # atno 17370 bound_to 10713
  155.9687  130.4220  150.4497 LP  0  0  0  0  0  0  0  0  0  0  0  0  # atno 17371 bound_to 10713
  141.1859  133.6556  156.5217 LP  0  0  0  0  0  0  0  0  0  0  0  0  # atno 17394 bound_to 11000
  140.4142  134.7245  157.4853 LP  0  0  0  0  0  0  0  0  0  0  0  0  # atno 17395 bound_to 11000

$$$$
