AV-unprocessed.smi:1251|AV-procd|sdf|5262|dock9
  -GOLD-   22720 4373D 1   1.00000     0.00000
 Structure written by MMmdl.
 38 39  0  0  0  0  0  0  0  0  2 V2000
  146.7686  142.1869  154.3638 C   0  0  0  0  0  0  0  0  0  0  0  0
  147.8367  141.1473  154.0080 C   0  0  0  0  0  0  0  0  0  0  0  0
  148.3907  140.4246  155.2437 C   0  0  0  0  0  0  0  0  0  0  0  0
  149.4307  139.4126  154.8962 C   0  0  0  0  0  0  0  0  0  0  0  0
  150.6250  139.7427  154.3982 N   0  0  0  0  0  0  0  0  0  0  0  0
  151.4280  138.6317  154.1855 N   0  0  0  0  0  0  0  0  0  0  0  0
  150.8349  137.4803  154.5310 C   0  0  0  0  0  0  0  0  0  0  0  0
  151.4469  136.2908  154.4097 N   0  5  0  0  0  0  0  0  0  0  0  0
  150.8454  135.1705  154.8707 C   0  0  0  0  0  0  0  0  0  0  0  0
  151.2109  134.4871  155.8299 O   0  0  0  0  0  0  0  0  0  0  0  0
  149.7534  134.8217  154.1758 N   0  0  0  0  0  0  0  0  0  0  0  0
  148.8830  133.6770  154.4422 C   0  0  2  0  0  0  0  0  0  0  0  0
  149.6462  132.3603  154.2257 C   0  0  0  0  0  0  0  0  0  0  0  0
  147.6080  133.7602  153.5781 C   0  0  1  0  0  0  0  0  0  0  0  0
  147.7759  133.2349  152.1409 C   0  0  0  0  0  0  0  0  0  0  0  0
  146.8754  132.0162  152.0893 C   0  0  0  0  0  0  0  0  0  0  0  0
  145.8178  132.3579  153.1277 C   0  0  0  0  0  0  0  0  0  0  0  0
  146.5693  132.9729  154.1612 O   0  0  0  0  0  0  0  0  0  0  0  0
  149.2085  137.6942  155.1781 S   0  0  0  0  0  0  0  0  0  0  0  0
  146.3920  142.6787  153.4667 H   0  0  0  0  0  0  0  0  0  0  0  0
  147.1727  142.9572  155.0211 H   0  0  0  0  0  0  0  0  0  0  0  0
  145.9212  141.7236  154.8699 H   0  0  0  0  0  0  0  0  0  0  0  0
  147.4122  140.4174  153.3177 H   0  0  0  0  0  0  0  0  0  0  0  0
  148.6521  141.6380  153.4753 H   0  0  0  0  0  0  0  0  0  0  0  0
  148.8272  141.1457  155.9351 H   0  0  0  0  0  0  0  0  0  0  0  0
  147.5827  139.9270  155.7816 H   0  0  0  0  0  0  0  0  0  0  0  0
  149.4959  135.4105  153.3972 H   0  0  0  0  0  0  0  0  0  0  0  0
  148.5651  133.7096  155.4857 H   0  0  0  0  0  0  0  0  0  0  0  0
  149.0114  131.5002  154.4385 H   0  0  0  0  0  0  0  0  0  0  0  0
  150.5154  132.2966  154.8810 H   0  0  0  0  0  0  0  0  0  0  0  0
  149.9986  132.2687  153.1978 H   0  0  0  0  0  0  0  0  0  0  0  0
  147.2661  134.7952  153.5338 H   0  0  0  0  0  0  0  0  0  0  0  0
  147.4254  133.9857  151.4318 H   0  0  0  0  0  0  0  0  0  0  0  0
  148.8080  132.9956  151.8813 H   0  0  0  0  0  0  0  0  0  0  0  0
  146.4599  131.8309  151.0987 H   0  0  0  0  0  0  0  0  0  0  0  0
  147.4295  131.1295  152.4005 H   0  0  0  0  0  0  0  0  0  0  0  0
  145.0943  133.0701  152.7280 H   0  0  0  0  0  0  0  0  0  0  0  0
  145.2796  131.4813  153.4886 H   0  0  0  0  0  0  0  0  0  0  0  0
  1  2  1  0  0  0  0
  1 20  1  0  0  0  0
  1 21  1  0  0  0  0
  1 22  1  0  0  0  0
  2  3  1  0  0  0  0
  2 23  1  0  0  0  0
  2 24  1  0  0  0  0
  3  4  1  0  0  0  0
  3 25  1  0  0  0  0
  3 26  1  0  0  0  0
  4 19  1  0  0  0  0
  4  5  2  0  0  0  0
  5  6  1  0  0  0  0
  6  7  2  0  0  0  0
  7  8  1  0  0  0  0
  7 19  1  0  0  0  0
  8  9  1  0  0  0  0
  9 10  2  0  0  0  0
  9 11  1  0  0  0  0
 11 12  1  0  0  0  0
 11 27  1  0  0  0  0
 12 13  1  0  0  0  0
 12 14  1  0  0  0  0
 12 28  1  0  0  0  0
 13 29  1  0  0  0  0
 13 30  1  0  0  0  0
 13 31  1  0  0  0  0
 14 18  1  0  0  0  0
 14 15  1  0  0  0  0
 14 32  1  0  0  0  0
 15 16  1  0  0  0  0
 15 33  1  0  0  0  0
 15 34  1  0  0  0  0
 16 17  1  0  0  0  0
 16 35  1  0  0  0  0
 16 36  1  0  0  0  0
 17 18  1  0  0  0  0
 17 37  1  0  0  0  0
 17 38  1  0  0  0  0
M  CHG  1   8  -1
M  END
> <s_m_source_file>
AV-unprocessed.smi

> <i_m_source_file_index>
1251

> <i_lp_mmshare_version>
43012

> <i_f3d_flags>
0

> <s_epik_input>
W0NIM11bQ0gyXVtDSDJdYzFubmMoczEpW05IXUMoPU8pW05IXVtDQEhdKFtDSDNdKVtDQEBIXTJbQ0gyXVtDSDJdW0NIMl1PMg==

> <s_epik_cmdline>
J2VwaWtfcHl0aG9uJywgJy1waCcsICc3LjAnLCAnLXRuJywgJzgnLCAnLW1hJywgJzIwMCcsICctbWV0YWxfYmluZGluZycsICctaW1hZScsICc8aW5maWxlLm1hZT4nLCAnLW9tYWUnLCAnPG91dGZpbGUubWFlPic=

> <r_lp_tautomer_probability>
1

> <r_epik_Ionization_Penalty>
4.22551

> <r_epik_Ionization_Penalty_Charging>
4.21437

> <r_epik_Ionization_Penalty_Neutral>
0.0111434

> <r_epik_State_Penalty>
4.21389

> <r_epik_Charging_Adjusted_Penalty>
8.42826

> <i_epik_Tot_Q>
-1

> <i_epik_Tot_abs_Q>
1

> <r_epik_Metal_State_Penalty>
0.69377

> <b_epik_Metal_Only>
1

> <s_lp_Force_Field>
OPLS_2005

> <r_lp_Energy>
12.7313

> <b_lp_Chiralities_Consistent>
1

> <s_lp_Variant>
AV-unprocessed.smi:1251-7

> <Gold.Version>
5.8.1

> <Gold.Id.Protein>
6NUR|6NUR_protein|mol2

> <Gold.PLP.Fitness>
39.3812

> <Gold.PLP.PLP>
-29.6664

> <Gold.PLP.part.hbond>
-3.0000

> <Gold.PLP.part.metal>
0.0000

> <Gold.PLP.part.buried>
-3.9799

> <Gold.PLP.part.nonpolar>
-23.2473

> <Gold.PLP.part.repulsive>
0.5460

> <Gold.PLP.ligand.clash>
0.0000

> <Gold.PLP.ligand.torsion>
1.1243

> <Gold.PLP.Chemscore.Hbond>
3.9500

> <Gold.PLP.Chemscore.CHOScore>
0.0000

> <Gold.PLP.Chemscore.Metal>
0.0000

> <Gold.Chemscore.Hbonds>
donor molecule, donor type, donor heavy atom, donor atom, acceptor molecule, acceptor atom, score
      L1  H    11    27       P1  7948  0.70
      P1  H  7989  7998       L1     5  0.80
      P1  H 10752 10763       L1     8  1.50

> <Gold.PLP.Chemscore.Internal.Correction>
0.1135

> <Gold.Rescore>
     Score         DG    S(hbond)    S(metal)    S(lipo)     H(rot)  DE(clash)    DE(int)     intcor
     14.84     -16.42       2.50        0.00      56.04       1.55       0.16       1.43       ----

> <Gold.Chemscore.Fitness>
14.8375

> <Gold.Chemscore.DG>
-16.4247

> <Gold.Chemscore.ZeroCoef>
-5.4800

> <Gold.Chemscore.Hbond>
2.4995

> <Gold.Chemscore.Metal>
0.0000

> <Gold.Chemscore.Lipo>
56.0377

> <Gold.Chemscore.Internal_Hbond>
0.0000

> <Gold.Chemscore.DEClash>
0.1579

> <Gold.Chemscore.DEInternal>
1.4293

> <Gold.Chemscore.Rot>
1.5469

> <Gold.Chemscore.Internal.Correction>
   9.000000E+99

> <Gold.Chemscore.Hbonds>
donor molecule, donor type, donor heavy atom, donor atom, acceptor molecule, acceptor atom, score
      L1  H    11    27       P1  7948  0.07
      P1  H  7989  7998       L1     5  0.12
      P1  H 10752 10763       L1     8  0.09

> <Gold.Chemscore.Hbond.Weighted>
-8.3482

> <Gold.Chemscore.Metal.Weighted>
-0.0000

> <Gold.Chemscore.Lipo.Weighted>
-6.5564

> <Gold.Chemscore.Internal_Hbond.Weighted>
0.0000

> <Gold.Chemscore.DEClash.Weighted>
0.1579

> <Gold.Chemscore.DEInternal.Weighted>
1.4293

> <Gold.Chemscore.Rot.Weighted>
3.9600

> <Gold.Chemscore.Internal.Correction.Weighted>
   9.000000E+99

> <Gold.Protein.RotatedTorsions>
[ 6907 6896 6895 6894 ] final  177.25 input  -60.11 | X-H torsion
[ 7974 7965 7964 7962 ] final  -16.33 input  175.53 | X-H torsion
[ 8008 7997 7996 7995 ] final  -18.78 input   59.86 | X-H torsion
[ 10167 10162 10161 10158 ] final   29.94 input  -65.29 | X-H torsion
[ 10718 10713 10712 10709 ] final    4.88 input   66.30 | X-H torsion
[ 10763 10752 10751 10750 ] final   45.05 input  -60.55 | X-H torsion
[ 11005 11000 10999 10996 ] final  -48.47 input  -57.11 | X-H torsion

> <Gold.Protein.ActiveResidues>
 VAL166  LYS551  ARG553  GLY616  TRP617  ASP618  TYR619  PRO620  LYS621  CYS622 
 ASP623  PHE694  ASN695  SER759  ASP760  ASP761  ALA762  ILE779  LEU786  VAL792 
 PHE793  MET794  SER795  GLU796  ALA797  LYS798  CYS799  TRP800  GLU811  SER814 

> <Gold.Protein.RotatedAtoms>
  151.7070  133.3312  159.3280 H   0  0  0  0  0  0  0  0  0  0  0  0  # atno 6907 bound_to 6896
  150.7711  134.6566  159.6326 H   0  0  0  0  0  0  0  0  0  0  0  0  # atno 6908 bound_to 6896
  152.3735  134.6701  160.0220 H   0  0  0  0  0  0  0  0  0  0  0  0  # atno 6909 bound_to 6896
  146.1992  140.3621  142.8429 H   0  0  0  0  0  0  0  0  0  0  0  0  # atno 7974 bound_to 7965
  154.4882  140.2106  155.9607 H   0  0  0  0  0  0  0  0  0  0  0  0  # atno 8008 bound_to 7997
  156.1267  140.3204  155.8257 H   0  0  0  0  0  0  0  0  0  0  0  0  # atno 8009 bound_to 7997
  155.4370  140.0507  157.3004 H   0  0  0  0  0  0  0  0  0  0  0  0  # atno 8010 bound_to 7997
  140.4722  144.0745  150.6240 H   0  0  0  0  0  0  0  0  0  0  0  0  # atno 10167 bound_to 10162
  156.8992  130.5715  149.5648 H   0  0  0  0  0  0  0  0  0  0  0  0  # atno 10718 bound_to 10713
  152.9831  135.6051  154.3374 H   0  0  0  0  0  0  0  0  0  0  0  0  # atno 10763 bound_to 10752
  154.3073  135.2772  155.2584 H   0  0  0  0  0  0  0  0  0  0  0  0  # atno 10764 bound_to 10752
  154.4810  135.5917  153.6445 H   0  0  0  0  0  0  0  0  0  0  0  0  # atno 10765 bound_to 10752
  141.0702  133.6681  156.3445 H   0  0  0  0  0  0  0  0  0  0  0  0  # atno 11005 bound_to 11000
  144.8646  140.7188  143.6085 LP  0  0  0  0  0  0  0  0  0  0  0  0  # atno 17320 bound_to 7965
  145.3541  139.1698  143.4419 LP  0  0  0  0  0  0  0  0  0  0  0  0  # atno 17321 bound_to 7965
  140.3963  143.2726  152.0001 LP  0  0  0  0  0  0  0  0  0  0  0  0  # atno 17342 bound_to 10162
  139.4820  144.6035  151.7563 LP  0  0  0  0  0  0  0  0  0  0  0  0  # atno 17343 bound_to 10162
  156.0590  130.5646  150.9153 LP  0  0  0  0  0  0  0  0  0  0  0  0  # atno 17370 bound_to 10713
  157.6037  131.0940  150.8917 LP  0  0  0  0  0  0  0  0  0  0  0  0  # atno 17371 bound_to 10713
  140.5689  134.5860  157.5452 LP  0  0  0  0  0  0  0  0  0  0  0  0  # atno 17394 bound_to 11000
  139.9516  134.7607  156.0435 LP  0  0  0  0  0  0  0  0  0  0  0  0  # atno 17395 bound_to 11000

$$$$
