#       Name:                AV-unprocessed.smi:1202
#       Creating user name   scv26
#       Creation time:       Fri Mar 27 04:05:07 2020


#       File generated by GOLD software.
#

@<TRIPOS>MOLECULE
AV-unprocessed.smi:1202
    51    52     1
SMALL
NO_CHARGES


@<TRIPOS>ATOM
      1 ****        -5.6088   3.2667   2.0727 C.3            1 S1                 0.0000
      2 ****        -5.1532   1.9052   1.8388 N.am           1 S1                 0.0000
      3 ****        -4.5817   1.4867   0.7002 C.2            1 S1                 0.0000
      4 ****        -4.3861   2.2218  -0.2679 O.2            1 S1                 0.0000
      5 ****        -4.1572   0.0140   0.6442 C.3            1 S1                 0.0000
      6 ****        -2.7127  -0.2008   0.3974 N.3            1 S1                 0.0000
      7 ****        -2.4582  -1.6383   0.2469 C.3            1 S1                 0.0000
      8 ****        -0.9931  -1.8935  -0.1480 C.3            1 S1                 0.0000
      9 ****        -0.0404  -1.3003   0.9038 C.3            1 S1                 0.0000
     10 ****         1.3726  -1.5324   0.5963 N.am           1 S1                 0.0000
     11 ****         2.0686  -1.0863  -0.4633 C.2            1 S1                 0.0000
     12 ****         1.5797  -0.4032  -1.3637 O.2            1 S1                 0.0000
     13 ****         3.5461  -1.5015  -0.5114 C.3            1 S1                 0.0000
     14 ****         4.3705  -0.6256  -1.3609 N.am           1 S1                 0.0000
     15 ****         4.6305  -1.0650  -2.6744 C.2            1 S1                 0.0000
     16 ****         5.3684  -0.3421  -3.5318 C.2            1 S1                 0.0000
     17 ****         5.9035   0.9191  -3.0766 C.2            1 S1                 0.0000
     18 ****         5.6577   1.3506  -1.8235 C.2            1 S1                 0.0000
     19 ****         4.8490   0.5652  -0.8840 C.2            1 S1                 0.0000
     20 ****         4.6170   0.9533   0.2614 O.2            1 S1                 0.0000
     21 ****        -0.3757   0.1855   1.1198 C.3            1 S1                 0.0000
     22 ****        -1.8663   0.3644   1.4602 C.3            1 S1                 0.0000
     23 ****        -6.0038   3.3584   3.0845 H              1 S1                 0.0000
     24 ****        -6.3995   3.5366   1.3715 H              1 S1                 0.0000
     25 ****        -4.7878   3.9759   1.9617 H              1 S1                 0.0000
     26 ****        -5.2775   1.2399   2.5882 H              1 S1                 0.0000
     27 ****        -4.4508  -0.4907   1.5669 H              1 S1                 0.0000
     28 ****        -4.7335  -0.4502  -0.1576 H              1 S1                 0.0000
     29 ****        -2.6980  -2.1653   1.1722 H              1 S1                 0.0000
     30 ****        -3.1060  -2.0495  -0.5285 H              1 S1                 0.0000
     31 ****        -0.8192  -2.9653  -0.2486 H              1 S1                 0.0000
     32 ****        -0.8090  -1.4559  -1.1297 H              1 S1                 0.0000
     33 ****        -0.2217  -1.8205   1.8453 H              1 S1                 0.0000
     34 ****         1.8788  -2.0908   1.2683 H              1 S1                 0.0000
     35 ****         3.9501  -1.5266   0.5025 H              1 S1                 0.0000
     36 ****         3.5961  -2.5327  -0.8637 H              1 S1                 0.0000
     37 ****         4.1884  -2.0147  -2.9386 H              1 S1                 0.0000
     38 ****         5.5534  -0.6929  -4.5364 H              1 S1                 0.0000
     39 ****         6.5029   1.5202  -3.7443 H              1 S1                 0.0000
     40 ****         6.0659   2.2973  -1.5009 H              1 S1                 0.0000
     41 ****         0.2374   0.5938   1.9241 H              1 S1                 0.0000
     42 ****        -0.1449   0.7694   0.2282 H              1 S1                 0.0000
     43 ****        -2.0554   1.4305   1.5848 H              1 S1                 0.0000
     44 ****        -2.0969  -0.1103   2.4155 H              1 S1                 0.0000
     45 ****        -4.6579   3.1834  -0.2286 LP             1 S1                 0.0000
     46 ****        -3.9554   1.8573  -1.0936 LP             1 S1                 0.0000
     47 ****        -2.4700   0.2813  -0.4444 LP             1 S1                 0.0000
     48 ****         0.6126  -0.1509  -1.3310 LP             1 S1                 0.0000
     49 ****         2.1498  -0.1008  -2.1277 LP             1 S1                 0.0000
     50 ****         4.0627   0.3927   0.8766 LP             1 S1                 0.0000
     51 ****         4.9829   1.8290   0.5763 LP             1 S1                 0.0000
@<TRIPOS>BOND
    1    1    2 1     
    2    1   23 1     
    3    1   24 1     
    4    1   25 1     
    5    2    3 am    
    6    2   26 1     
    7    3    4 2     
    8    3    5 1     
    9    5    6 1     
   10    5   27 1     
   11    5   28 1     
   12    6   22 1     
   13    6    7 1     
   14    7    8 1     
   15    7   29 1     
   16    7   30 1     
   17    8    9 1     
   18    8   31 1     
   19    8   32 1     
   20    9   10 1     
   21    9   21 1     
   22    9   33 1     
   23   10   11 am    
   24   10   34 1     
   25   11   12 2     
   26   11   13 1     
   27   13   14 1     
   28   13   35 1     
   29   13   36 1     
   30   14   19 am    
   31   14   15 1     
   32   15   16 2     
   33   15   37 1     
   34   16   17 1     
   35   16   38 1     
   36   17   18 2     
   37   17   39 1     
   38   18   19 1     
   39   18   40 1     
   40   19   20 2     
   41   21   22 1     
   42   21   41 1     
   43   21   42 1     
   44   22   43 1     
   45   22   44 1     
   46    4   45 1     
   47    4   46 1     
   48    6   47 1     
   49   12   48 1     
   50   12   49 1     
   51   20   50 1     
   52   20   51 1     
@<TRIPOS>SUBSTRUCTURE
      1 S1             1
@<TRIPOS>SET
LONE_PAIRS      STATIC     ATOMS    <user>   **** ""
7 45 46 47 48 49 50 51
DONOR_HYDROGENS      STATIC     ATOMS    <user>   **** ""
2 26 34
ATOM$BLUE        STATIC     ATOMS    COLORGROUP SYSTEM
7 45 46 47 48 49 50 51
ATOM$RED        STATIC     ATOMS    COLORGROUP SYSTEM
2 26 34
