AV-unprocessed.smi:153|AV-procd|sdf|1253|dock10
  -GOLD-   2262018483D 1   1.00000     0.00000
 Structure written by MMmdl.
 60 63  0  0  0  0  0  0  0  0  2 V2000
  153.2742  141.7959  159.2296 C   0  0  0  0  0  0  0  0  0  0  0  0
  152.0002  142.5587  159.6269 C   0  0  1  0  0  0  0  0  0  0  0  0
  152.4691  143.7533  160.2566 O   0  0  0  0  0  0  0  0  0  0  0  0
  151.7946  144.8904  159.7423 C   0  0  0  0  0  0  0  0  0  0  0  0
  151.4497  144.4894  158.3158 C   0  0  0  0  0  0  0  0  0  0  0  0
  151.0765  143.0217  158.4657 C   0  0  2  0  0  0  0  0  0  0  0  0
  149.7374  142.9761  158.9287 O   0  0  0  0  0  0  0  0  0  0  0  0
  151.1427  142.2533  157.1160 C   0  0  0  0  0  0  0  0  0  0  0  0
  150.8989  140.8150  157.1886 N   0  0  0  0  0  0  0  0  0  0  0  0
  150.6594  140.0517  158.3103 C   0  0  0  0  0  0  0  0  0  0  0  0
  150.4427  138.7853  158.0874 N   0  0  0  0  0  0  0  0  0  0  0  0
  150.5149  138.6567  156.7054 C   0  0  0  0  0  0  0  0  0  0  0  0
  150.3613  137.5717  155.7889 C   0  0  0  0  0  0  0  0  0  0  0  0
  150.0993  136.2836  156.1426 N   0  0  0  0  0  0  0  0  0  0  0  0
  149.4931  135.9998  157.4374 C   0  0  0  0  0  0  0  0  0  0  0  0
  150.0843  135.2354  155.1197 C   0  0  0  0  0  0  0  0  0  0  0  0
  149.2238  134.0204  155.5226 C   0  0  2  0  0  0  0  0  0  0  0  0
  150.0057  133.2265  156.3924 O   0  0  0  0  0  0  0  0  0  0  0  0
  148.7999  133.1495  154.3185 C   0  0  0  0  0  0  0  0  0  0  0  0
  147.9127  133.8693  153.3708 N   0  3  0  0  0  0  0  0  0  0  0  0
  147.3865  133.0053  152.2841 C   0  0  0  0  0  0  0  0  0  0  0  0
  146.5034  133.8236  151.3270 C   0  0  0  0  0  0  0  0  0  0  0  0
  145.4473  134.4354  152.0567 O   0  0  0  0  0  0  0  0  0  0  0  0
  145.9350  135.3346  153.0444 C   0  0  0  0  0  0  0  0  0  0  0  0
  146.8004  134.5674  154.0583 C   0  0  0  0  0  0  0  0  0  0  0  0
  150.4643  137.8633  154.4656 N   0  0  0  0  0  0  0  0  0  0  0  0
  150.7115  139.1105  154.0584 C   0  0  0  0  0  0  0  0  0  0  0  0
  150.8827  140.2076  154.7953 N   0  0  0  0  0  0  0  0  0  0  0  0
  150.7760  139.9327  156.1266 C   0  0  0  0  0  0  0  0  0  0  0  0
  153.0514  140.7896  158.8832 H   0  0  0  0  0  0  0  0  0  0  0  0
  153.9395  141.6889  160.0868 H   0  0  0  0  0  0  0  0  0  0  0  0
  153.8269  142.3168  158.4475 H   0  0  0  0  0  0  0  0  0  0  0  0
  151.4466  141.9635  160.3551 H   0  0  0  0  0  0  0  0  0  0  0  0
  150.8914  145.0707  160.3268 H   0  0  0  0  0  0  0  0  0  0  0  0
  152.4184  145.7828  159.7916 H   0  0  0  0  0  0  0  0  0  0  0  0
  150.6604  145.1020  157.8782 H   0  0  0  0  0  0  0  0  0  0  0  0
  152.3375  144.5921  157.6902 H   0  0  0  0  0  0  0  0  0  0  0  0
  149.2896  142.2742  158.4819 H   0  0  0  0  0  0  0  0  0  0  0  0
  150.4234  142.6752  156.4130 H   0  0  0  0  0  0  0  0  0  0  0  0
  152.1209  142.4099  156.6609 H   0  0  0  0  0  0  0  0  0  0  0  0
  150.6422  140.4546  159.3116 H   0  0  0  0  0  0  0  0  0  0  0  0
  149.9614  136.5903  158.2256 H   0  0  0  0  0  0  0  0  0  0  0  0
  149.6167  134.9481  157.6968 H   0  0  0  0  0  0  0  0  0  0  0  0
  148.4251  136.2178  157.4208 H   0  0  0  0  0  0  0  0  0  0  0  0
  149.7730  135.6141  154.1459 H   0  0  0  0  0  0  0  0  0  0  0  0
  151.1165  134.9107  154.9817 H   0  0  0  0  0  0  0  0  0  0  0  0
  148.3579  134.3711  156.0829 H   0  0  0  0  0  0  0  0  0  0  0  0
  150.7497  133.7303  156.6837 H   0  0  0  0  0  0  0  0  0  0  0  0
  149.6665  132.7952  153.7616 H   0  0  0  0  0  0  0  0  0  0  0  0
  148.3011  132.2541  154.6940 H   0  0  0  0  0  0  0  0  0  0  0  0
  148.2034  132.5538  151.7226 H   0  0  0  0  0  0  0  0  0  0  0  0
  146.8064  132.1870  152.7138 H   0  0  0  0  0  0  0  0  0  0  0  0
  147.0908  134.5817  150.8067 H   0  0  0  0  0  0  0  0  0  0  0  0
  146.0749  133.1739  150.5638 H   0  0  0  0  0  0  0  0  0  0  0  0
  146.5041  136.1379  152.5736 H   0  0  0  0  0  0  0  0  0  0  0  0
  145.0875  135.7986  153.5492 H   0  0  0  0  0  0  0  0  0  0  0  0
  146.1896  133.8412  154.5969 H   0  0  0  0  0  0  0  0  0  0  0  0
  147.2001  135.2626  154.7975 H   0  0  0  0  0  0  0  0  0  0  0  0
  150.7836  139.2488  152.9896 H   0  0  0  0  0  0  0  0  0  0  0  0
  148.4724  134.5896  152.9375 H   0  0  0  0  0  0  0  0  0  0  0  0
  1  2  1  0  0  0  0
  1 30  1  0  0  0  0
  1 31  1  0  0  0  0
  1 32  1  0  0  0  0
  2  6  1  0  0  0  0
  2  3  1  0  0  0  0
  2 33  1  0  0  0  0
  3  4  1  0  0  0  0
  4  5  1  0  0  0  0
  4 34  1  0  0  0  0
  4 35  1  0  0  0  0
  5  6  1  0  0  0  0
  5 36  1  0  0  0  0
  5 37  1  0  0  0  0
  6  7  1  0  0  0  0
  6  8  1  0  0  0  0
  7 38  1  0  0  0  0
  8  9  1  0  0  0  0
  8 39  1  0  0  0  0
  8 40  1  0  0  0  0
  9 29  1  0  0  0  0
  9 10  1  0  0  0  0
 10 11  2  0  0  0  0
 10 41  1  0  0  0  0
 11 12  1  0  0  0  0
 12 29  2  0  0  0  0
 12 13  1  0  0  0  0
 13 14  1  0  0  0  0
 13 26  2  0  0  0  0
 14 15  1  0  0  0  0
 14 16  1  0  0  0  0
 15 42  1  0  0  0  0
 15 43  1  0  0  0  0
 15 44  1  0  0  0  0
 16 17  1  0  0  0  0
 16 45  1  0  0  0  0
 16 46  1  0  0  0  0
 17 18  1  0  0  0  0
 17 19  1  0  0  0  0
 17 47  1  0  0  0  0
 18 48  1  0  0  0  0
 19 20  1  0  0  0  0
 19 49  1  0  0  0  0
 19 50  1  0  0  0  0
 20 25  1  0  0  0  0
 20 21  1  0  0  0  0
 20 60  1  0  0  0  0
 21 22  1  0  0  0  0
 21 51  1  0  0  0  0
 21 52  1  0  0  0  0
 22 23  1  0  0  0  0
 22 53  1  0  0  0  0
 22 54  1  0  0  0  0
 23 24  1  0  0  0  0
 24 25  1  0  0  0  0
 24 55  1  0  0  0  0
 24 56  1  0  0  0  0
 25 57  1  0  0  0  0
 25 58  1  0  0  0  0
 26 27  1  0  0  0  0
 27 28  2  0  0  0  0
 27 59  1  0  0  0  0
 28 29  1  0  0  0  0
M  CHG  1  20   1
M  END
> <s_m_source_file>
AV-unprocessed.smi

> <i_m_source_file_index>
153

> <i_lp_mmshare_version>
43012

> <i_f3d_flags>
0

> <s_epik_input>
W0NIMl0xW0NIMl1PW0NAQEhdKFtDSDNdKVtDQEBdMShbT0hdKVtDSDJdbihbY0hdbjIpYyhjMjMpbltjSF1uYzNOKFtDSDNdKVtDSDJdW0NASF0oW09IXSlbQ0gyXU40W0NIMl1bQ0gyXU9bQ0gyXVtDSDJdNA==

> <s_epik_cmdline>
J2VwaWtfcHl0aG9uJywgJy1waCcsICc3LjAnLCAnLXRuJywgJzgnLCAnLW1hJywgJzIwMCcsICctbWV0YWxfYmluZGluZycsICctaW1hZScsICc8aW5maWxlLm1hZT4nLCAnLW9tYWUnLCAnPG91dGZpbGUubWFlPic=

> <r_lp_tautomer_probability>
1

> <r_epik_Ionization_Penalty>
0.403509

> <r_epik_Ionization_Penalty_Charging>
0.40072

> <r_epik_Ionization_Penalty_Neutral>
0.00278876

> <r_epik_State_Penalty>
0.400058

> <r_epik_Charging_Adjusted_Penalty>
0.800778

> <i_epik_Tot_Q>
1

> <i_epik_Tot_abs_Q>
1

> <r_epik_Metal_State_Penalty>
0.400321

> <b_epik_Metal_Only>
0

> <s_lp_Force_Field>
OPLS_2005

> <r_lp_Energy>
47.2205

> <b_lp_Chiralities_Consistent>
1

> <s_lp_Variant>
AV-unprocessed.smi:153-4

> <Gold.Version>
5.8.1

> <Gold.Id.Protein>
6NUR|6NUR_protein|mol2

> <Gold.PLP.Fitness>
53.8015

> <Gold.PLP.PLP>
-44.4652

> <Gold.PLP.part.hbond>
-2.4537

> <Gold.PLP.part.metal>
0.0000

> <Gold.PLP.part.buried>
-7.5089

> <Gold.PLP.part.nonpolar>
-35.1586

> <Gold.PLP.part.repulsive>
0.4070

> <Gold.PLP.ligand.clash>
0.0000

> <Gold.PLP.ligand.torsion>
0.6049

> <Gold.PLP.Chemscore.Hbond>
2.4000

> <Gold.PLP.Chemscore.CHOScore>
1.0000

> <Gold.PLP.Chemscore.Metal>
0.0000

> <Gold.Chemscore.Hbonds>
donor molecule, donor type, donor heavy atom, donor atom, acceptor molecule, acceptor atom, score
      L1  H    20    60       P1  7948  2.00
      P1  H  7989  7998       L1    28  0.40
      L1  C    27    59       P1  7957  1.00

> <Gold.PLP.Chemscore.Internal.Correction>
0.3461

> <Gold.Rescore>
     Score         DG    S(hbond)    S(metal)    S(lipo)     H(rot)  DE(clash)    DE(int)     intcor
      7.85     -10.71       0.92        0.00      97.59       3.62       0.38       2.48       ----

> <Gold.Chemscore.Fitness>
7.8526

> <Gold.Chemscore.DG>
-10.7129

> <Gold.Chemscore.ZeroCoef>
-5.4800

> <Gold.Chemscore.Hbond>
0.9214

> <Gold.Chemscore.Metal>
0.0000

> <Gold.Chemscore.Lipo>
97.5880

> <Gold.Chemscore.Internal_Hbond>
0.0000

> <Gold.Chemscore.DEClash>
0.3833

> <Gold.Chemscore.DEInternal>
2.4770

> <Gold.Chemscore.Rot>
3.6182

> <Gold.Chemscore.Internal.Correction>
   9.000000E+99

> <Gold.Chemscore.Hbonds>
donor molecule, donor type, donor heavy atom, donor atom, acceptor molecule, acceptor atom, score
      L1  H    20    60       P1  7948  0.29
      P1  H  7989  7998       L1    28  0.01

> <Gold.Chemscore.Hbond.Weighted>
-3.0776

> <Gold.Chemscore.Metal.Weighted>
-0.0000

> <Gold.Chemscore.Lipo.Weighted>
-11.4178

> <Gold.Chemscore.Internal_Hbond.Weighted>
0.0000

> <Gold.Chemscore.DEClash.Weighted>
0.3833

> <Gold.Chemscore.DEInternal.Weighted>
2.4770

> <Gold.Chemscore.Rot.Weighted>
9.2625

> <Gold.Chemscore.Internal.Correction.Weighted>
   9.000000E+99

> <Gold.Protein.RotatedTorsions>
[ 6907 6896 6895 6894 ] final  -30.53 input  -60.11 | X-H torsion
[ 7974 7965 7964 7962 ] final  -47.08 input  175.53 | X-H torsion
[ 8008 7997 7996 7995 ] final  101.63 input   59.86 | X-H torsion
[ 10167 10162 10161 10158 ] final   77.73 input  -65.29 | X-H torsion
[ 10718 10713 10712 10709 ] final -100.06 input   66.30 | X-H torsion
[ 10763 10752 10751 10750 ] final  -49.72 input  -60.55 | X-H torsion
[ 11005 11000 10999 10996 ] final   54.97 input  -57.11 | X-H torsion

> <Gold.Protein.ActiveResidues>
 VAL166  LYS551  ARG553  GLY616  TRP617  ASP618  TYR619  PRO620  LYS621  CYS622 
 ASP623  PHE694  ASN695  SER759  ASP760  ASP761  ALA762  ILE779  LEU786  VAL792 
 PHE793  MET794  SER795  GLU796  ALA797  LYS798  CYS799  TRP800  GLU811  SER814 

> <Gold.Protein.RotatedAtoms>
  151.1043  134.9990  159.8463 H   0  0  0  0  0  0  0  0  0  0  0  0  # atno 6907 bound_to 6896
  152.5439  134.1913  159.8685 H   0  0  0  0  0  0  0  0  0  0  0  0  # atno 6908 bound_to 6896
  151.1958  133.4596  159.2628 H   0  0  0  0  0  0  0  0  0  0  0  0  # atno 6909 bound_to 6896
  145.9653  140.7438  142.9437 H   0  0  0  0  0  0  0  0  0  0  0  0  # atno 7974 bound_to 7965
  156.1317  140.3194  155.8359 H   0  0  0  0  0  0  0  0  0  0  0  0  # atno 8008 bound_to 7997
  155.4319  140.0519  157.3035 H   0  0  0  0  0  0  0  0  0  0  0  0  # atno 8009 bound_to 7997
  154.4904  140.2090  155.9573 H   0  0  0  0  0  0  0  0  0  0  0  0  # atno 8010 bound_to 7997
  139.9785  144.5843  150.7922 H   0  0  0  0  0  0  0  0  0  0  0  0  # atno 10167 bound_to 10162
  156.0152  130.5311  150.6762 H   0  0  0  0  0  0  0  0  0  0  0  0  # atno 10718 bound_to 10713
  154.0988  135.6566  153.4864 H   0  0  0  0  0  0  0  0  0  0  0  0  # atno 10763 bound_to 10752
  153.0296  135.5220  154.7307 H   0  0  0  0  0  0  0  0  0  0  0  0  # atno 10764 bound_to 10752
  154.6453  135.2994  155.0022 H   0  0  0  0  0  0  0  0  0  0  0  0  # atno 10765 bound_to 10752
  140.0644  134.5557  155.9116 H   0  0  0  0  0  0  0  0  0  0  0  0  # atno 11005 bound_to 11000
  144.6824  140.2658  143.7312 LP  0  0  0  0  0  0  0  0  0  0  0  0  # atno 17320 bound_to 7965
  145.7983  139.1954  143.2063 LP  0  0  0  0  0  0  0  0  0  0  0  0  # atno 17321 bound_to 7965
  140.7497  143.2943  151.3245 LP  0  0  0  0  0  0  0  0  0  0  0  0  # atno 17342 bound_to 10162
  139.6427  144.0508  152.2567 LP  0  0  0  0  0  0  0  0  0  0  0  0  # atno 17343 bound_to 10162
  157.4474  131.0868  151.0881 LP  0  0  0  0  0  0  0  0  0  0  0  0  # atno 17370 bound_to 10713
  157.1407  130.6142  149.5554 LP  0  0  0  0  0  0  0  0  0  0  0  0  # atno 17371 bound_to 10713
  141.1986  133.6602  156.5803 LP  0  0  0  0  0  0  0  0  0  0  0  0  # atno 17394 bound_to 11000
  140.3721  134.7596  157.4606 LP  0  0  0  0  0  0  0  0  0  0  0  0  # atno 17395 bound_to 11000

$$$$
