AV-unprocessed.smi:1205|AV-procd|sdf|5041|dock7
  -GOLD-   22720 4 63D 1   1.00000     0.00000
 Structure written by MMmdl.
 49 50  0  0  0  0  0  0  0  0  2 V2000
  150.2286  141.8816  156.1092 C   0  0  0  0  0  0  0  0  0  0  0  0
  150.1996  140.5248  155.4701 C   0  0  0  0  0  0  0  0  0  0  0  0
  149.0703  139.6856  155.2433 C   0  0  0  0  0  0  0  0  0  0  0  0
  149.6254  138.5898  154.6407 C   0  0  0  0  0  0  0  0  0  0  0  0
  149.0175  137.4554  154.2018 N   0  0  0  0  0  0  0  0  0  0  0  0
  148.4451  136.4771  154.9250 C   0  0  0  0  0  0  0  0  0  0  0  0
  148.3630  136.4489  156.1531 O   0  0  0  0  0  0  0  0  0  0  0  0
  147.9623  135.5069  154.1355 N   0  0  0  0  0  0  0  0  0  0  0  0
  147.2846  134.3056  154.6136 C   0  0  0  0  0  0  0  0  0  0  0  0
  147.7237  133.0310  153.8548 C   0  0  2  0  0  0  0  0  0  0  0  0
  149.1919  133.0943  153.3808 C   0  0  0  0  0  0  0  0  0  0  0  0
  146.7679  132.7190  152.7523 N   0  3  2  0  0  0  0  0  0  0  0  0
  146.7539  131.2831  152.3672 C   0  0  0  0  0  0  0  0  0  0  0  0
  145.5665  130.9790  151.4401 C   0  0  0  0  0  0  0  0  0  0  0  0
  145.5820  131.8895  150.2034 C   0  0  0  0  0  0  0  0  0  0  0  0
  145.6692  133.3759  150.5996 C   0  0  1  0  0  0  0  0  0  0  0  0
  144.3458  133.9219  151.1639 C   0  0  0  0  0  0  0  0  0  0  0  0
  146.8527  133.6090  151.5607 C   0  0  0  0  0  0  0  0  0  0  0  0
  150.9841  138.7843  154.5289 N   0  0  0  0  0  0  0  0  0  0  0  0
  151.9965  137.9119  153.9668 C   0  0  0  0  0  0  0  0  0  0  0  0
  151.3347  139.9830  155.0431 N   0  0  0  0  0  0  0  0  0  0  0  0
  149.2313  142.1896  156.4242 H   0  0  0  0  0  0  0  0  0  0  0  0
  150.6052  142.6345  155.4163 H   0  0  0  0  0  0  0  0  0  0  0  0
  150.8706  141.8869  156.9906 H   0  0  0  0  0  0  0  0  0  0  0  0
  148.0370  139.8759  155.4909 H   0  0  0  0  0  0  0  0  0  0  0  0
  148.9961  137.3407  153.1992 H   0  0  0  0  0  0  0  0  0  0  0  0
  148.0674  135.6066  153.1361 H   0  0  0  0  0  0  0  0  0  0  0  0
  147.4615  134.1901  155.6845 H   0  0  0  0  0  0  0  0  0  0  0  0
  146.2146  134.4745  154.4971 H   0  0  0  0  0  0  0  0  0  0  0  0
  147.6534  132.2087  154.5680 H   0  0  0  0  0  0  0  0  0  0  0  0
  149.8747  133.1773  154.2267 H   0  0  0  0  0  0  0  0  0  0  0  0
  149.3734  133.9536  152.7354 H   0  0  0  0  0  0  0  0  0  0  0  0
  149.4768  132.1963  152.8328 H   0  0  0  0  0  0  0  0  0  0  0  0
  147.6908  131.0206  151.8743 H   0  0  0  0  0  0  0  0  0  0  0  0
  146.6761  130.6562  153.2562 H   0  0  0  0  0  0  0  0  0  0  0  0
  145.5959  129.9339  151.1304 H   0  0  0  0  0  0  0  0  0  0  0  0
  144.6313  131.1081  151.9862 H   0  0  0  0  0  0  0  0  0  0  0  0
  146.4433  131.6326  149.5852 H   0  0  0  0  0  0  0  0  0  0  0  0
  144.7004  131.7078  149.5875 H   0  0  0  0  0  0  0  0  0  0  0  0
  145.8708  133.9421  149.6893 H   0  0  0  0  0  0  0  0  0  0  0  0
  144.0674  133.4328  152.0973 H   0  0  0  0  0  0  0  0  0  0  0  0
  143.5288  133.7756  150.4567 H   0  0  0  0  0  0  0  0  0  0  0  0
  144.4177  134.9916  151.3625 H   0  0  0  0  0  0  0  0  0  0  0  0
  146.8741  134.6563  151.8600 H   0  0  0  0  0  0  0  0  0  0  0  0
  147.7866  133.4182  151.0303 H   0  0  0  0  0  0  0  0  0  0  0  0
  151.7126  137.6253  152.9537 H   0  0  0  0  0  0  0  0  0  0  0  0
  152.0865  137.0149  154.5801 H   0  0  0  0  0  0  0  0  0  0  0  0
  152.9630  138.4169  153.9321 H   0  0  0  0  0  0  0  0  0  0  0  0
  145.8551  132.8858  153.1513 H   0  0  0  0  0  0  0  0  0  0  0  0
  1  2  1  0  0  0  0
  1 22  1  0  0  0  0
  1 23  1  0  0  0  0
  1 24  1  0  0  0  0
  2 21  2  0  0  0  0
  2  3  1  0  0  0  0
  3  4  2  0  0  0  0
  3 25  1  0  0  0  0
  4  5  1  0  0  0  0
  4 19  1  0  0  0  0
  5  6  1  0  0  0  0
  5 26  1  0  0  0  0
  6  7  2  0  0  0  0
  6  8  1  0  0  0  0
  8  9  1  0  0  0  0
  8 27  1  0  0  0  0
  9 10  1  0  0  0  0
  9 28  1  0  0  0  0
  9 29  1  0  0  0  0
 10 11  1  0  0  0  0
 10 12  1  0  0  0  0
 10 30  1  0  0  0  0
 11 31  1  0  0  0  0
 11 32  1  0  0  0  0
 11 33  1  0  0  0  0
 12 18  1  0  0  0  0
 12 13  1  0  0  0  0
 12 49  1  0  0  0  0
 13 14  1  0  0  0  0
 13 34  1  0  0  0  0
 13 35  1  0  0  0  0
 14 15  1  0  0  0  0
 14 36  1  0  0  0  0
 14 37  1  0  0  0  0
 15 16  1  0  0  0  0
 15 38  1  0  0  0  0
 15 39  1  0  0  0  0
 16 17  1  0  0  0  0
 16 18  1  0  0  0  0
 16 40  1  0  0  0  0
 17 41  1  0  0  0  0
 17 42  1  0  0  0  0
 17 43  1  0  0  0  0
 18 44  1  0  0  0  0
 18 45  1  0  0  0  0
 19 20  1  0  0  0  0
 19 21  1  0  0  0  0
 20 46  1  0  0  0  0
 20 47  1  0  0  0  0
 20 48  1  0  0  0  0
M  CHG  1  12   1
M  END
> <s_m_source_file>
AV-unprocessed.smi

> <i_m_source_file_index>
1205

> <i_lp_mmshare_version>
43012

> <i_f3d_flags>
0

> <s_epik_input>
W0NIM11jMVtjSF1jKG4objEpW0NIM10pW05IXUMoPU8pW05IXVtDSDJdW0NASF0oW0NIM10pTjJbQ0gyXVtDSDJdW0NIMl1bQ0BASF0oW0NIM10pW0NIMl0y

> <s_epik_cmdline>
J2VwaWtfcHl0aG9uJywgJy1waCcsICc3LjAnLCAnLXRuJywgJzgnLCAnLW1hJywgJzIwMCcsICctbWV0YWxfYmluZGluZycsICctaW1hZScsICc8aW5maWxlLm1hZT4nLCAnLW9tYWUnLCAnPG91dGZpbGUubWFlPic=

> <r_lp_tautomer_probability>
1

> <r_epik_Ionization_Penalty>
0.0020309

> <r_epik_Ionization_Penalty_Charging>
0.00195276

> <r_epik_Ionization_Penalty_Neutral>
7.81448e-05

> <r_epik_State_Penalty>
0.00133177

> <r_epik_Charging_Adjusted_Penalty>
0.00328452

> <i_epik_Tot_Q>
1

> <i_epik_Tot_abs_Q>
1

> <r_epik_Metal_State_Penalty>
-0

> <b_epik_Metal_Only>
0

> <s_lp_Force_Field>
OPLS_2005

> <r_lp_Energy>
24.2768

> <b_lp_Chiralities_Consistent>
1

> <s_lp_Variant>
AV-unprocessed.smi:1205-3

> <Gold.Version>
5.8.1

> <Gold.Id.Protein>
6NUR|6NUR_protein|mol2

> <Gold.PLP.Fitness>
41.8925

> <Gold.PLP.PLP>
-35.7605

> <Gold.PLP.part.hbond>
-3.0000

> <Gold.PLP.part.metal>
0.0000

> <Gold.PLP.part.buried>
-3.2941

> <Gold.PLP.part.nonpolar>
-29.8886

> <Gold.PLP.part.repulsive>
0.0770

> <Gold.PLP.ligand.clash>
0.0000

> <Gold.PLP.ligand.torsion>
1.4584

> <Gold.PLP.Chemscore.Hbond>
2.9760

> <Gold.PLP.Chemscore.CHOScore>
0.0000

> <Gold.PLP.Chemscore.Metal>
0.0000

> <Gold.Chemscore.Hbonds>
donor molecule, donor type, donor heavy atom, donor atom, acceptor molecule, acceptor atom, score
      L1  H     5    26       P1  7948  0.94
      L1  H     8    27       P1  7948  0.96
      P1  H  7989  7998       L1    21  0.95

> <Gold.PLP.Chemscore.Internal.Correction>
0.1208

> <Gold.Rescore>
     Score         DG    S(hbond)    S(metal)    S(lipo)     H(rot)  DE(clash)    DE(int)     intcor
     16.91     -18.14       1.93        0.00      85.33       1.47       0.02       1.22       ----

> <Gold.Chemscore.Fitness>
16.9063

> <Gold.Chemscore.DG>
-18.1433

> <Gold.Chemscore.ZeroCoef>
-5.4800

> <Gold.Chemscore.Hbond>
1.9258

> <Gold.Chemscore.Metal>
0.0000

> <Gold.Chemscore.Lipo>
85.3319

> <Gold.Chemscore.Internal_Hbond>
0.0000

> <Gold.Chemscore.DEClash>
0.0197

> <Gold.Chemscore.DEInternal>
1.2174

> <Gold.Chemscore.Rot>
1.4658

> <Gold.Chemscore.Internal.Correction>
   9.000000E+99

> <Gold.Chemscore.Hbonds>
donor molecule, donor type, donor heavy atom, donor atom, acceptor molecule, acceptor atom, score
      L1  H     5    26       P1  7948  0.92
      L1  H     8    27       P1  7948  0.92
      P1  H  7989  7998       L1    21  0.08

> <Gold.Chemscore.Hbond.Weighted>
-6.4321

> <Gold.Chemscore.Metal.Weighted>
-0.0000

> <Gold.Chemscore.Lipo.Weighted>
-9.9838

> <Gold.Chemscore.Internal_Hbond.Weighted>
0.0000

> <Gold.Chemscore.DEClash.Weighted>
0.0197

> <Gold.Chemscore.DEInternal.Weighted>
1.2174

> <Gold.Chemscore.Rot.Weighted>
3.7526

> <Gold.Chemscore.Internal.Correction.Weighted>
   9.000000E+99

> <Gold.Protein.RotatedTorsions>
[ 6907 6896 6895 6894 ] final  119.66 input  -60.11 | X-H torsion
[ 7974 7965 7964 7962 ] final  -19.83 input  175.53 | X-H torsion
[ 8008 7997 7996 7995 ] final  107.79 input   59.86 | X-H torsion
[ 10167 10162 10161 10158 ] final  -65.20 input  -65.29 | X-H torsion
[ 10718 10713 10712 10709 ] final  -35.14 input   66.30 | X-H torsion
[ 10763 10752 10751 10750 ] final  -21.83 input  -60.55 | X-H torsion
[ 11005 11000 10999 10996 ] final  148.85 input  -57.11 | X-H torsion

> <Gold.Protein.ActiveResidues>
 VAL166  LYS551  ARG553  GLY616  TRP617  ASP618  TYR619  PRO620  LYS621  CYS622 
 ASP623  PHE694  ASN695  SER759  ASP760  ASP761  ALA762  ILE779  LEU786  VAL792 
 PHE793  MET794  SER795  GLU796  ALA797  LYS798  CYS799  TRP800  GLU811  SER814 

> <Gold.Protein.RotatedAtoms>
  152.4455  133.7529  159.6703 H   0  0  0  0  0  0  0  0  0  0  0  0  # atno 6907 bound_to 6896
  150.8354  133.8011  159.3088 H   0  0  0  0  0  0  0  0  0  0  0  0  # atno 6908 bound_to 6896
  151.5652  135.1067  160.0034 H   0  0  0  0  0  0  0  0  0  0  0  0  # atno 6909 bound_to 6896
  146.1821  140.4117  142.8490 H   0  0  0  0  0  0  0  0  0  0  0  0  # atno 7974 bound_to 7965
  156.1852  140.3088  155.9224 H   0  0  0  0  0  0  0  0  0  0  0  0  # atno 8008 bound_to 7997
  155.3297  140.0460  157.3059 H   0  0  0  0  0  0  0  0  0  0  0  0  # atno 8009 bound_to 7997
  154.5387  140.2254  155.8687 H   0  0  0  0  0  0  0  0  0  0  0  0  # atno 8010 bound_to 7997
  140.5746  143.2321  151.6468 H   0  0  0  0  0  0  0  0  0  0  0  0  # atno 10167 bound_to 10162
  156.3421  130.4295  149.7778 H   0  0  0  0  0  0  0  0  0  0  0  0  # atno 10718 bound_to 10713
  153.6423  135.6984  153.5237 H   0  0  0  0  0  0  0  0  0  0  0  0  # atno 10763 bound_to 10752
  153.2772  135.4196  155.1044 H   0  0  0  0  0  0  0  0  0  0  0  0  # atno 10764 bound_to 10752
  154.8496  135.3593  154.5967 H   0  0  0  0  0  0  0  0  0  0  0  0  # atno 10765 bound_to 10752
  140.0995  134.8992  157.1774 H   0  0  0  0  0  0  0  0  0  0  0  0  # atno 11005 bound_to 11000
  144.8332  140.6741  143.6277 LP  0  0  0  0  0  0  0  0  0  0  0  0  # atno 17320 bound_to 7965
  145.4047  139.1591  143.4158 LP  0  0  0  0  0  0  0  0  0  0  0  0  # atno 17321 bound_to 7965
  139.5136  144.3438  152.0716 LP  0  0  0  0  0  0  0  0  0  0  0  0  # atno 17342 bound_to 10162
  140.2580  144.4098  150.6196 LP  0  0  0  0  0  0  0  0  0  0  0  0  # atno 17343 bound_to 10162
  156.5010  130.8129  151.3132 LP  0  0  0  0  0  0  0  0  0  0  0  0  # atno 17370 bound_to 10713
  157.7448  130.9944  150.2708 LP  0  0  0  0  0  0  0  0  0  0  0  0  # atno 17371 bound_to 10713
  140.3240  134.2884  155.7240 LP  0  0  0  0  0  0  0  0  0  0  0  0  # atno 17394 bound_to 11000
  141.2101  133.7728  156.9950 LP  0  0  0  0  0  0  0  0  0  0  0  0  # atno 17395 bound_to 11000

$$$$
