AV-unprocessed.smi:3289|AV-procd|sdf|12607|dock1
  -GOLD-   2272018533D 1   1.00000     0.00000
 Structure written by MMmdl.
 40 41  0  0  0  0  0  0  0  0  2 V2000
  146.6320  140.2119  154.3724 C   0  0  0  0  0  0  0  0  0  0  0  0
  147.6384  139.7465  153.3087 C   0  0  0  0  0  0  0  0  0  0  0  0
  147.0458  138.6430  152.4199 C   0  0  0  0  0  0  0  0  0  0  0  0
  148.9403  139.3103  153.9242 C   0  0  0  0  0  0  0  0  0  0  0  0
  149.4932  138.1003  153.7699 N   0  3  0  0  0  0  0  0  0  0  0  0
  150.6920  138.0310  154.4236 C   0  0  0  0  0  0  0  0  0  0  0  0
  150.8909  139.2591  154.9952 C   0  0  0  0  0  0  0  0  0  0  0  0
  149.8039  140.0302  154.6674 N   0  0  0  0  0  0  0  0  0  0  0  0
  149.6006  141.4340  155.0596 C   0  0  0  0  0  0  0  0  0  0  0  0
  149.4464  141.5912  156.5750 C   0  0  0  0  0  0  0  0  0  0  0  0
  149.1154  140.6278  157.2667 O   0  0  0  0  0  0  0  0  0  0  0  0
  149.7076  142.8075  157.0772 N   0  0  0  0  0  0  0  0  0  0  0  0
  149.6610  143.1595  158.4920 C   0  0  0  0  0  0  0  0  0  0  0  0
  150.4973  144.4157  158.7979 C   0  0  2  0  0  0  0  0  0  0  0  0
  151.9874  144.2292  158.4795 C   0  0  0  0  0  0  0  0  0  0  0  0
  152.6072  143.9763  159.8366 C   0  0  0  0  0  0  0  0  0  0  0  0
  151.7420  144.8526  160.7284 C   0  0  0  0  0  0  0  0  0  0  0  0
  150.4340  144.6939  160.1980 O   0  0  0  0  0  0  0  0  0  0  0  0
  147.0413  141.0275  154.9697 H   0  0  0  0  0  0  0  0  0  0  0  0
  146.3617  139.4029  155.0519 H   0  0  0  0  0  0  0  0  0  0  0  0
  145.7132  140.5733  153.9096 H   0  0  0  0  0  0  0  0  0  0  0  0
  147.8602  140.6050  152.6768 H   0  0  0  0  0  0  0  0  0  0  0  0
  147.7391  138.3557  151.6291 H   0  0  0  0  0  0  0  0  0  0  0  0
  146.1249  138.9773  151.9413 H   0  0  0  0  0  0  0  0  0  0  0  0
  146.8133  137.7483  152.9983 H   0  0  0  0  0  0  0  0  0  0  0  0
  151.3001  137.1381  154.4285 H   0  0  0  0  0  0  0  0  0  0  0  0
  151.7101  139.6354  155.5911 H   0  0  0  0  0  0  0  0  0  0  0  0
  150.4293  142.0289  154.6734 H   0  0  0  0  0  0  0  0  0  0  0  0
  148.6952  141.7968  154.5718 H   0  0  0  0  0  0  0  0  0  0  0  0
  149.9659  143.5428  156.4350 H   0  0  0  0  0  0  0  0  0  0  0  0
  148.6303  143.2898  158.8266 H   0  0  0  0  0  0  0  0  0  0  0  0
  150.0586  142.3112  159.0494 H   0  0  0  0  0  0  0  0  0  0  0  0
  150.1070  145.2675  158.2394 H   0  0  0  0  0  0  0  0  0  0  0  0
  152.1851  143.4268  157.7679 H   0  0  0  0  0  0  0  0  0  0  0  0
  152.3922  145.1513  158.0603 H   0  0  0  0  0  0  0  0  0  0  0  0
  152.4939  142.9277  160.1148 H   0  0  0  0  0  0  0  0  0  0  0  0
  153.6658  144.2335  159.8809 H   0  0  0  0  0  0  0  0  0  0  0  0
  151.7867  144.5632  161.7784 H   0  0  0  0  0  0  0  0  0  0  0  0
  152.0391  145.8990  160.6460 H   0  0  0  0  0  0  0  0  0  0  0  0
  149.0786  137.3444  153.2395 H   0  0  0  0  0  0  0  0  0  0  0  0
  1  2  1  0  0  0  0
  1 19  1  0  0  0  0
  1 20  1  0  0  0  0
  1 21  1  0  0  0  0
  2  3  1  0  0  0  0
  2  4  1  0  0  0  0
  2 22  1  0  0  0  0
  3 23  1  0  0  0  0
  3 24  1  0  0  0  0
  3 25  1  0  0  0  0
  4  8  1  0  0  0  0
  4  5  2  0  0  0  0
  5  6  1  0  0  0  0
  5 40  1  0  0  0  0
  6  7  2  0  0  0  0
  6 26  1  0  0  0  0
  7  8  1  0  0  0  0
  7 27  1  0  0  0  0
  8  9  1  0  0  0  0
  9 10  1  0  0  0  0
  9 28  1  0  0  0  0
  9 29  1  0  0  0  0
 10 11  2  0  0  0  0
 10 12  1  0  0  0  0
 12 13  1  0  0  0  0
 12 30  1  0  0  0  0
 13 14  1  0  0  0  0
 13 31  1  0  0  0  0
 13 32  1  0  0  0  0
 14 18  1  0  0  0  0
 14 15  1  0  0  0  0
 14 33  1  0  0  0  0
 15 16  1  0  0  0  0
 15 34  1  0  0  0  0
 15 35  1  0  0  0  0
 16 17  1  0  0  0  0
 16 36  1  0  0  0  0
 16 37  1  0  0  0  0
 17 18  1  0  0  0  0
 17 38  1  0  0  0  0
 17 39  1  0  0  0  0
M  CHG  1   5   1
M  END
> <s_m_source_file>
AV-unprocessed.smi

> <i_m_source_file_index>
3289

> <i_lp_mmshare_version>
43012

> <i_f3d_flags>
0

> <s_epik_input>
W0NIM11bQ0hdKFtDSDNdKWMxbltjSF1bY0hdbjFbQ0gyXUMoPU8pW05IXVtDSDJdW0NAQEhdMltDSDJdW0NIMl1bQ0gyXU8y

> <s_epik_cmdline>
J2VwaWtfcHl0aG9uJywgJy1waCcsICc3LjAnLCAnLXRuJywgJzgnLCAnLW1hJywgJzIwMCcsICctbWV0YWxfYmluZGluZycsICctaW1hZScsICc8aW5maWxlLm1hZT4nLCAnLW9tYWUnLCAnPG91dGZpbGUubWFlPic=

> <r_lp_tautomer_probability>
1

> <r_epik_Ionization_Penalty>
0.274547

> <r_epik_Ionization_Penalty_Charging>
0

> <r_epik_Ionization_Penalty_Neutral>
0.274547

> <r_epik_State_Penalty>
0.266843

> <r_epik_Charging_Adjusted_Penalty>
0.266843

> <i_epik_Tot_Q>
1

> <i_epik_Tot_abs_Q>
1

> <r_epik_Metal_State_Penalty>
0.55046

> <b_epik_Metal_Only>
0

> <s_lp_Force_Field>
OPLS_2005

> <r_lp_Energy>
23.0035

> <b_lp_Chiralities_Consistent>
1

> <s_lp_Variant>
AV-unprocessed.smi:3289-1

> <Gold.Version>
5.8.1

> <Gold.Id.Protein>
6NUR|6NUR_protein|mol2

> <Gold.PLP.Fitness>
45.8367

> <Gold.PLP.PLP>
-38.7414

> <Gold.PLP.part.hbond>
-3.0000

> <Gold.PLP.part.metal>
0.0000

> <Gold.PLP.part.buried>
-0.7071

> <Gold.PLP.part.nonpolar>
-36.4113

> <Gold.PLP.part.repulsive>
0.2374

> <Gold.PLP.ligand.clash>
0.0000

> <Gold.PLP.ligand.torsion>
0.5070

> <Gold.PLP.Chemscore.Hbond>
2.6720

> <Gold.PLP.Chemscore.CHOScore>
0.0000

> <Gold.PLP.Chemscore.Metal>
0.0000

> <Gold.Chemscore.Hbonds>
donor molecule, donor type, donor heavy atom, donor atom, acceptor molecule, acceptor atom, score
      L1  H     5    40       P1  7948  2.00
      L1  H    12    30       P1  8028  0.56

> <Gold.PLP.Chemscore.Internal.Correction>
0.0933

> <Gold.Rescore>
     Score         DG    S(hbond)    S(metal)    S(lipo)     H(rot)  DE(clash)    DE(int)     intcor
     16.93     -17.83       1.65        0.00      97.38       1.78       0.40       0.49       ----

> <Gold.Chemscore.Fitness>
16.9349

> <Gold.Chemscore.DG>
-17.8263

> <Gold.Chemscore.ZeroCoef>
-5.4800

> <Gold.Chemscore.Hbond>
1.6524

> <Gold.Chemscore.Metal>
0.0000

> <Gold.Chemscore.Lipo>
97.3775

> <Gold.Chemscore.Internal_Hbond>
0.0000

> <Gold.Chemscore.DEClash>
0.3970

> <Gold.Chemscore.DEInternal>
0.4944

> <Gold.Chemscore.Rot>
1.7835

> <Gold.Chemscore.Internal.Correction>
   9.000000E+99

> <Gold.Chemscore.Hbonds>
donor molecule, donor type, donor heavy atom, donor atom, acceptor molecule, acceptor atom, score
      L1  H     5    40       P1  7948  0.97
      L1  H    12    30       P1  8028  0.56

> <Gold.Chemscore.Hbond.Weighted>
-5.5190

> <Gold.Chemscore.Metal.Weighted>
-0.0000

> <Gold.Chemscore.Lipo.Weighted>
-11.3932

> <Gold.Chemscore.Internal_Hbond.Weighted>
0.0000

> <Gold.Chemscore.DEClash.Weighted>
0.3970

> <Gold.Chemscore.DEInternal.Weighted>
0.4944

> <Gold.Chemscore.Rot.Weighted>
4.5659

> <Gold.Chemscore.Internal.Correction.Weighted>
   9.000000E+99

> <Gold.Protein.RotatedTorsions>
[ 6907 6896 6895 6894 ] final  121.06 input  -60.11 | X-H torsion
[ 7974 7965 7964 7962 ] final  -81.60 input  175.53 | X-H torsion
[ 8008 7997 7996 7995 ] final  135.59 input   59.86 | X-H torsion
[ 10167 10162 10161 10158 ] final -123.57 input  -65.29 | X-H torsion
[ 10718 10713 10712 10709 ] final -106.62 input   66.30 | X-H torsion
[ 10763 10752 10751 10750 ] final -123.15 input  -60.55 | X-H torsion
[ 11005 11000 10999 10996 ] final  116.03 input  -57.11 | X-H torsion

> <Gold.Protein.ActiveResidues>
 VAL166  LYS551  ARG553  GLY616  TRP617  ASP618  TYR619  PRO620  LYS621  CYS622 
 ASP623  PHE694  ASN695  SER759  ASP760  ASP761  ALA762  ILE779  LEU786  VAL792 
 PHE793  MET794  SER795  GLU796  ALA797  LYS798  CYS799  TRP800  GLU811  SER814 

> <Gold.Protein.RotatedAtoms>
  152.4350  133.7345  159.6605 H   0  0  0  0  0  0  0  0  0  0  0  0  # atno 6907 bound_to 6896
  150.8233  133.8204  159.3135 H   0  0  0  0  0  0  0  0  0  0  0  0  # atno 6908 bound_to 6896
  151.5880  135.1057  160.0084 H   0  0  0  0  0  0  0  0  0  0  0  0  # atno 6909 bound_to 6896
  145.5445  140.9505  143.1533 H   0  0  0  0  0  0  0  0  0  0  0  0  # atno 7974 bound_to 7965
  156.3003  140.2467  156.3606 H   0  0  0  0  0  0  0  0  0  0  0  0  # atno 8008 bound_to 7997
  154.8881  140.0410  157.1841 H   0  0  0  0  0  0  0  0  0  0  0  0  # atno 8009 bound_to 7997
  154.8626  140.2923  155.5533 H   0  0  0  0  0  0  0  0  0  0  0  0  # atno 8010 bound_to 7997
  140.0020  143.5530  152.2299 H   0  0  0  0  0  0  0  0  0  0  0  0  # atno 10167 bound_to 10162
  156.0398  130.5622  150.7706 H   0  0  0  0  0  0  0  0  0  0  0  0  # atno 10718 bound_to 10713
  154.8702  135.4108  154.2897 H   0  0  0  0  0  0  0  0  0  0  0  0  # atno 10763 bound_to 10752
  153.3775  135.7010  153.6596 H   0  0  0  0  0  0  0  0  0  0  0  0  # atno 10764 bound_to 10752
  153.5432  135.3644  155.2699 H   0  0  0  0  0  0  0  0  0  0  0  0  # atno 10765 bound_to 10752
  139.9028  134.9592  156.7135 H   0  0  0  0  0  0  0  0  0  0  0  0  # atno 11005 bound_to 11000
  144.7560  139.7073  143.7254 LP  0  0  0  0  0  0  0  0  0  0  0  0  # atno 17320 bound_to 7965
  146.1958  139.5224  142.9775 LP  0  0  0  0  0  0  0  0  0  0  0  0  # atno 17321 bound_to 7965
  139.6265  144.7638  151.2628 LP  0  0  0  0  0  0  0  0  0  0  0  0  # atno 17342 bound_to 10162
  140.7415  143.6555  150.8210 LP  0  0  0  0  0  0  0  0  0  0  0  0  # atno 17343 bound_to 10162
  157.5201  131.0931  151.0090 LP  0  0  0  0  0  0  0  0  0  0  0  0  # atno 17370 bound_to 10713
  157.0422  130.5754  149.5358 LP  0  0  0  0  0  0  0  0  0  0  0  0  # atno 17371 bound_to 10713
  140.7056  133.9268  155.8052 LP  0  0  0  0  0  0  0  0  0  0  0  0  # atno 17394 bound_to 11000
  141.0339  134.0718  157.3983 LP  0  0  0  0  0  0  0  0  0  0  0  0  # atno 17395 bound_to 11000

$$$$
