#       Name:                AV-unprocessed.smi:450
#       Creating user name   scv26
#       Creation time:       Thu Mar 26 23:00:36 2020


#       File generated by GOLD software.
#

@<TRIPOS>MOLECULE
AV-unprocessed.smi:450
    37    37     1
SMALL
NO_CHARGES


@<TRIPOS>ATOM
      1 ****        -2.0722  -0.9054  -1.6696 C.3            1 S1                 0.0000
      2 ****        -2.3653  -1.7315  -0.4082 C.3            1 S1                 0.0000
      3 ****        -1.9620  -1.0285   0.9019 C.3            1 S1                 0.0000
      4 ****        -2.3458  -1.8633   2.1341 C.3            1 S1                 0.0000
      5 ****        -0.5271  -0.7587   0.9015 N.am           1 S1                 0.0000
      6 ****         0.0826   0.2339   1.5676 C.2            1 S1                 0.0000
      7 ****        -0.5060   1.0170   2.3121 O.2            1 S1                 0.0000
      8 ****         1.5896   0.3731   1.3486 C.3            1 S1                 0.0000
      9 ****         1.8737   0.9596   0.0410 N.pl3          1 S1                 0.0000
     10 ****         2.1241   0.3263  -1.1234 C.2            1 S1                 0.0000
     11 ****         2.1538  -1.0588  -1.1951 N.pl3          1 S1                 0.0000
     12 ****         2.3286   1.1373  -2.1575 N.2            1 S1                 0.0000
     13 ****         2.2042   2.4247  -1.6392 C.2            1 S1                 0.0000
     14 ****         2.3567   3.5827  -2.4536 C.1            1 S1                 0.0000
     15 ****         2.4804   4.5253  -3.1129 N.1            1 S1                 0.0000
     16 ****         1.9257   2.3110  -0.2941 C.2            1 S1                 0.0000
     17 ****         1.7181   3.3742   0.6103 C.1            1 S1                 0.0000
     18 ****         1.5480   4.2451   1.3522 N.1            1 S1                 0.0000
     19 ****        -2.4203  -1.4265  -2.5617 H              1 S1                 0.0000
     20 ****        -1.0044  -0.7224  -1.7932 H              1 S1                 0.0000
     21 ****        -2.5759   0.0609  -1.6321 H              1 S1                 0.0000
     22 ****        -3.4323  -1.9553  -0.3798 H              1 S1                 0.0000
     23 ****        -1.8568  -2.6936  -0.4832 H              1 S1                 0.0000
     24 ****        -2.5001  -0.0799   0.9505 H              1 S1                 0.0000
     25 ****        -3.4159  -2.0714   2.1477 H              1 S1                 0.0000
     26 ****        -2.1043  -1.3391   3.0592 H              1 S1                 0.0000
     27 ****        -1.8207  -2.8189   2.1461 H              1 S1                 0.0000
     28 ****         0.0412  -1.3478   0.3106 H              1 S1                 0.0000
     29 ****         2.0257   0.9993   2.1278 H              1 S1                 0.0000
     30 ****         2.0721  -0.6013   1.4318 H              1 S1                 0.0000
     31 ****         1.9888  -1.6286  -0.3775 H              1 S1                 0.0000
     32 ****         2.2874  -1.5425  -2.0711 H              1 S1                 0.0000
     33 ****        -1.4932   0.9325   2.4469 LP             1 S1                 0.0000
     34 ****         0.0029   1.7380   2.7824 LP             1 S1                 0.0000
     35 ****         2.5285   0.8790  -3.1027 LP             1 S1                 0.0000
     36 ****         2.5873   5.3401  -3.6828 LP             1 S1                 0.0000
     37 ****         1.4010   4.9981   1.9936 LP             1 S1                 0.0000
@<TRIPOS>BOND
    1    1    2 1     
    2    1   19 1     
    3    1   20 1     
    4    1   21 1     
    5    2    3 1     
    6    2   22 1     
    7    2   23 1     
    8    3    4 1     
    9    3    5 1     
   10    3   24 1     
   11    4   25 1     
   12    4   26 1     
   13    4   27 1     
   14    5    6 am    
   15    5   28 1     
   16    6    7 2     
   17    6    8 1     
   18    8    9 1     
   19    8   29 1     
   20    8   30 1     
   21    9   16 1     
   22    9   10 1     
   23   10   11 1     
   24   10   12 2     
   25   11   31 1     
   26   11   32 1     
   27   12   13 1     
   28   13   14 1     
   29   13   16 2     
   30   14   15 3     
   31   16   17 1     
   32   17   18 3     
   33    7   33 1     
   34    7   34 1     
   35   12   35 1     
   36   15   36 1     
   37   18   37 1     
@<TRIPOS>SUBSTRUCTURE
      1 S1             1
@<TRIPOS>SET
LONE_PAIRS      STATIC     ATOMS    <user>   **** ""
5 33 34 35 36 37
DONOR_HYDROGENS      STATIC     ATOMS    <user>   **** ""
3 28 31 32
ATOM$BLUE        STATIC     ATOMS    COLORGROUP SYSTEM
5 33 34 35 36 37
ATOM$RED        STATIC     ATOMS    COLORGROUP SYSTEM
3 28 31 32
