AV-unprocessed.smi:2267|AV-procd|sdf|9149|dock10
  -GOLD-   2272012353D 1   1.00000     0.00000
 Structure written by MMmdl.
 41 42  0  0  0  0  0  0  0  0  1 V2000
  151.9222  145.3719  159.3679 C   0  0  0  0  0  0  0  0  0  0  0  0
  152.1805  143.8862  159.5100 C   0  0  0  0  0  0  0  0  0  0  0  0
  152.8252  143.3829  160.6577 C   0  0  0  0  0  0  0  0  0  0  0  0
  153.0625  142.0017  160.7808 C   0  0  0  0  0  0  0  0  0  0  0  0
  152.6563  141.1233  159.7585 C   0  0  0  0  0  0  0  0  0  0  0  0
  152.0104  141.6095  158.6034 C   0  0  0  0  0  0  0  0  0  0  0  0
  151.6465  140.6793  157.6532 O   0  0  0  0  0  0  0  0  0  0  0  0
  151.6018  141.0865  156.2920 C   0  0  0  0  0  0  0  0  0  0  0  0
  151.1216  139.9036  155.4340 C   0  0  1  0  0  0  0  0  0  0  0  0
  152.0119  138.8299  155.6683 O   0  0  0  0  0  0  0  0  0  0  0  0
  149.7028  139.4390  155.8348 C   0  0  0  0  0  0  0  0  0  0  0  0
  148.6719  140.4280  155.4759 N   0  0  0  0  0  0  0  0  0  0  0  0
  148.5892  140.7762  154.1177 C   0  0  0  0  0  0  0  0  0  0  0  0
  147.7215  141.6324  153.6873 N   0  0  0  0  0  0  0  0  0  0  0  0
  146.8379  142.2403  154.5838 C   0  0  0  0  0  0  0  0  0  0  0  0
  145.8614  143.2299  153.9729 C   0  0  0  0  0  0  0  0  0  0  0  0
  146.8703  141.9520  155.9135 C   0  0  0  0  0  0  0  0  0  0  0  0
  145.9353  142.5848  156.9366 C   0  0  0  0  0  0  0  0  0  0  0  0
  147.8541  140.9803  156.4184 C   0  0  0  0  0  0  0  0  0  0  0  0
  147.9446  140.6780  157.6100 O   0  0  0  0  0  0  0  0  0  0  0  0
  151.7764  143.0034  158.4871 C   0  0  0  0  0  0  0  0  0  0  0  0
  152.0867  145.8953  160.3102 H   0  0  0  0  0  0  0  0  0  0  0  0
  150.8927  145.5515  159.0567 H   0  0  0  0  0  0  0  0  0  0  0  0
  152.5880  145.7993  158.6178 H   0  0  0  0  0  0  0  0  0  0  0  0
  153.1393  144.0520  161.4455 H   0  0  0  0  0  0  0  0  0  0  0  0
  153.5563  141.6150  161.6599 H   0  0  0  0  0  0  0  0  0  0  0  0
  152.8425  140.0642  159.8618 H   0  0  0  0  0  0  0  0  0  0  0  0
  150.9571  141.9559  156.1501 H   0  0  0  0  0  0  0  0  0  0  0  0
  152.6124  141.3683  155.9913 H   0  0  0  0  0  0  0  0  0  0  0  0
  151.1475  140.1855  154.3805 H   0  0  0  0  0  0  0  0  0  0  0  0
  151.5554  138.0189  155.5048 H   0  0  0  0  0  0  0  0  0  0  0  0
  149.4900  138.4522  155.4180 H   0  0  0  0  0  0  0  0  0  0  0  0
  149.6602  139.2841  156.9145 H   0  0  0  0  0  0  0  0  0  0  0  0
  149.3051  140.2793  153.4608 H   0  0  0  0  0  0  0  0  0  0  0  0
  144.8331  142.9165  154.1560 H   0  0  0  0  0  0  0  0  0  0  0  0
  145.9991  143.3086  152.8937 H   0  0  0  0  0  0  0  0  0  0  0  0
  146.0062  144.2222  154.4009 H   0  0  0  0  0  0  0  0  0  0  0  0
  146.5116  143.1280  157.6861 H   0  0  0  0  0  0  0  0  0  0  0  0
  145.3580  141.8130  157.4465 H   0  0  0  0  0  0  0  0  0  0  0  0
  145.2275  143.2854  156.4966 H   0  0  0  0  0  0  0  0  0  0  0  0
  151.2876  143.4202  157.6197 H   0  0  0  0  0  0  0  0  0  0  0  0
  1  2  1  0  0  0  0
  1 22  1  0  0  0  0
  1 23  1  0  0  0  0
  1 24  1  0  0  0  0
  2 21  1  0  0  0  0
  2  3  2  0  0  0  0
  3  4  1  0  0  0  0
  3 25  1  0  0  0  0
  4  5  2  0  0  0  0
  4 26  1  0  0  0  0
  5  6  1  0  0  0  0
  5 27  1  0  0  0  0
  6  7  1  0  0  0  0
  6 21  2  0  0  0  0
  7  8  1  0  0  0  0
  8  9  1  0  0  0  0
  8 28  1  0  0  0  0
  8 29  1  0  0  0  0
  9 10  1  0  0  0  0
  9 11  1  0  0  0  0
  9 30  1  0  0  0  0
 10 31  1  0  0  0  0
 11 12  1  0  0  0  0
 11 32  1  0  0  0  0
 11 33  1  0  0  0  0
 12 19  1  0  0  0  0
 12 13  1  0  0  0  0
 13 14  2  0  0  0  0
 13 34  1  0  0  0  0
 14 15  1  0  0  0  0
 15 16  1  0  0  0  0
 15 17  2  0  0  0  0
 16 35  1  0  0  0  0
 16 36  1  0  0  0  0
 16 37  1  0  0  0  0
 17 18  1  0  0  0  0
 17 19  1  0  0  0  0
 18 38  1  0  0  0  0
 18 39  1  0  0  0  0
 18 40  1  0  0  0  0
 19 20  2  0  0  0  0
 21 41  1  0  0  0  0
M  END
> <s_m_source_file>
AV-unprocessed.smi

> <i_m_source_file_index>
2267

> <i_lp_mmshare_version>
43012

> <i_f3d_flags>
0

> <s_epik_input>
W0NIM11jMVtjSF1bY0hdW2NIXWMoW2NIXTEpT1tDSDJdW0NASF0oW09IXSlbQ0gyXW4yW2NIXW5jKFtDSDNdKWMoW0NIM10pYzI9Tw==

> <s_epik_cmdline>
J2VwaWtfcHl0aG9uJywgJy1waCcsICc3LjAnLCAnLXRuJywgJzgnLCAnLW1hJywgJzIwMCcsICctbWV0YWxfYmluZGluZycsICctaW1hZScsICc8aW5maWxlLm1hZT4nLCAnLW9tYWUnLCAnPG91dGZpbGUubWFlPic=

> <r_lp_tautomer_probability>
1

> <r_epik_Ionization_Penalty>
3.72236e-05

> <r_epik_Ionization_Penalty_Charging>
8.38864e-08

> <r_epik_Ionization_Penalty_Neutral>
3.71397e-05

> <r_epik_State_Penalty>
-0

> <r_epik_Charging_Adjusted_Penalty>
8.38864e-08

> <i_epik_Tot_Q>
0

> <i_epik_Tot_abs_Q>
0

> <r_epik_Metal_State_Penalty>
-0

> <b_epik_Metal_Only>
0

> <s_lp_Force_Field>
OPLS_2005

> <r_lp_Energy>
23.9214

> <b_lp_Chiralities_Consistent>
1

> <s_lp_Variant>
AV-unprocessed.smi:2267-2

> <Gold.Version>
5.8.1

> <Gold.Id.Protein>
6NUR|6NUR_protein|mol2

> <Gold.PLP.Fitness>
44.2075

> <Gold.PLP.PLP>
-42.0233

> <Gold.PLP.part.hbond>
-0.0883

> <Gold.PLP.part.metal>
0.0000

> <Gold.PLP.part.buried>
-5.1308

> <Gold.PLP.part.nonpolar>
-36.6174

> <Gold.PLP.part.repulsive>
0.1906

> <Gold.PLP.ligand.clash>
0.0000

> <Gold.PLP.ligand.torsion>
0.4154

> <Gold.PLP.Chemscore.Hbond>
0.0000

> <Gold.PLP.Chemscore.CHOScore>
1.0000

> <Gold.PLP.Chemscore.Metal>
0.0000

> <Gold.Chemscore.Hbonds>
donor molecule, donor type, donor heavy atom, donor atom, acceptor molecule, acceptor atom, score
      L1  C    13    34       P1  7957  1.00

> <Gold.PLP.Chemscore.Internal.Correction>
0.0150

> <Gold.Rescore>
     Score         DG    S(hbond)    S(metal)    S(lipo)     H(rot)  DE(clash)    DE(int)     intcor
     13.73     -15.51       0.97        0.00     109.56       2.35       1.36       0.42       ----

> <Gold.Chemscore.Fitness>
13.7329

> <Gold.Chemscore.DG>
-15.5134

> <Gold.Chemscore.ZeroCoef>
-5.4800

> <Gold.Chemscore.Hbond>
0.9666

> <Gold.Chemscore.Metal>
0.0000

> <Gold.Chemscore.Lipo>
109.5606

> <Gold.Chemscore.Internal_Hbond>
0.0000

> <Gold.Chemscore.DEClash>
1.3608

> <Gold.Chemscore.DEInternal>
0.4197

> <Gold.Chemscore.Rot>
2.3490

> <Gold.Chemscore.Internal.Correction>
   9.000000E+99

> <Gold.Chemscore.Hbond.Weighted>
-3.2283

> <Gold.Chemscore.Metal.Weighted>
-0.0000

> <Gold.Chemscore.Lipo.Weighted>
-12.8186

> <Gold.Chemscore.Internal_Hbond.Weighted>
0.0000

> <Gold.Chemscore.DEClash.Weighted>
1.3608

> <Gold.Chemscore.DEInternal.Weighted>
0.4197

> <Gold.Chemscore.Rot.Weighted>
6.0136

> <Gold.Chemscore.Internal.Correction.Weighted>
   9.000000E+99

> <Gold.Protein.RotatedTorsions>
[ 6907 6896 6895 6894 ] final  127.82 input  -60.11 | X-H torsion
[ 7974 7965 7964 7962 ] final   40.67 input  175.53 | X-H torsion
[ 8008 7997 7996 7995 ] final   71.67 input   59.86 | X-H torsion
[ 10167 10162 10161 10158 ] final  175.39 input  -65.29 | X-H torsion
[ 10718 10713 10712 10709 ] final -146.43 input   66.30 | X-H torsion
[ 10763 10752 10751 10750 ] final  131.54 input  -60.55 | X-H torsion
[ 11005 11000 10999 10996 ] final    4.28 input  -57.11 | X-H torsion

> <Gold.Protein.ActiveResidues>
 VAL166  LYS551  ARG553  GLY616  TRP617  ASP618  TYR619  PRO620  LYS621  CYS622 
 ASP623  PHE694  ASN695  SER759  ASP760  ASP761  ALA762  ILE779  LEU786  VAL792 
 PHE793  MET794  SER795  GLU796  ALA797  LYS798  CYS799  TRP800  GLU811  SER814 

> <Gold.Protein.RotatedAtoms>
  152.3777  133.6503  159.6136 H   0  0  0  0  0  0  0  0  0  0  0  0  # atno 6907 bound_to 6896
  150.7716  133.9166  159.3394 H   0  0  0  0  0  0  0  0  0  0  0  0  # atno 6908 bound_to 6896
  151.6977  135.0937  160.0296 H   0  0  0  0  0  0  0  0  0  0  0  0  # atno 6909 bound_to 6896
  146.0886  139.5505  142.9491 H   0  0  0  0  0  0  0  0  0  0  0  0  # atno 7974 bound_to 7965
  155.7574  140.3487  155.5181 H   0  0  0  0  0  0  0  0  0  0  0  0  # atno 8008 bound_to 7997
  155.8947  140.1024  157.1415 H   0  0  0  0  0  0  0  0  0  0  0  0  # atno 8009 bound_to 7997
  154.4037  140.1297  156.4347 H   0  0  0  0  0  0  0  0  0  0  0  0  # atno 8010 bound_to 7997
  139.5175  144.3037  152.0355 H   0  0  0  0  0  0  0  0  0  0  0  0  # atno 10167 bound_to 10162
  156.3948  130.7904  151.2109 H   0  0  0  0  0  0  0  0  0  0  0  0  # atno 10718 bound_to 10713
  153.7760  135.3175  155.3359 H   0  0  0  0  0  0  0  0  0  0  0  0  # atno 10763 bound_to 10752
  154.8179  135.4624  154.0697 H   0  0  0  0  0  0  0  0  0  0  0  0  # atno 10764 bound_to 10752
  153.1972  135.6917  153.8362 H   0  0  0  0  0  0  0  0  0  0  0  0  # atno 10765 bound_to 10752
  140.5837  133.9989  155.8058 H   0  0  0  0  0  0  0  0  0  0  0  0  # atno 11005 bound_to 11000
  145.6083  141.0344  143.1980 LP  0  0  0  0  0  0  0  0  0  0  0  0  # atno 17320 bound_to 7965
  144.7343  139.7631  143.7335 LP  0  0  0  0  0  0  0  0  0  0  0  0  # atno 17321 bound_to 7965
  140.2484  144.4195  150.6232 LP  0  0  0  0  0  0  0  0  0  0  0  0  # atno 17342 bound_to 10162
  140.6242  143.2179  151.6631 LP  0  0  0  0  0  0  0  0  0  0  0  0  # atno 17343 bound_to 10162
  157.7501  131.0304  150.4138 LP  0  0  0  0  0  0  0  0  0  0  0  0  # atno 17370 bound_to 10713
  156.4406  130.3991  149.6700 LP  0  0  0  0  0  0  0  0  0  0  0  0  # atno 17371 bound_to 10713
  141.0980  133.9813  157.3128 LP  0  0  0  0  0  0  0  0  0  0  0  0  # atno 17394 bound_to 11000
  139.9305  135.0200  156.8385 LP  0  0  0  0  0  0  0  0  0  0  0  0  # atno 17395 bound_to 11000

$$$$
