AV-unprocessed.smi:836|AV-procd|sdf|3890|dock3
  -GOLD-   22720 1343D 1   1.00000     0.00000
 Structure written by MMmdl.
 38 39  0  0  0  0  0  0  0  0  1 V2000
  151.6922  145.5393  159.3480 C   0  0  0  0  0  0  0  0  0  0  0  0
  151.6685  144.0133  159.5134 C   0  0  2  0  0  0  0  0  0  0  0  0
  153.0384  143.4743  159.9674 C   0  0  0  0  0  0  0  0  0  0  0  0
  153.0201  141.9464  160.1328 C   0  0  0  0  0  0  0  0  0  0  0  0
  152.5651  141.2443  158.8380 C   0  0  1  0  0  0  0  0  0  0  0  0
  152.4755  139.8020  159.0395 N   0  0  0  0  0  0  0  0  0  0  0  0
  153.5092  138.9458  159.0230 C   0  0  0  0  0  0  0  0  0  0  0  0
  154.6770  139.2931  158.8484 O   0  0  0  0  0  0  0  0  0  0  0  0
  153.1758  137.4692  159.2449 C   0  0  0  0  0  0  0  0  0  0  0  0
  153.6611  137.0046  160.5328 N   0  0  0  0  0  0  0  0  0  0  0  0
  153.8128  137.7207  161.7008 C   0  0  0  0  0  0  0  0  0  0  0  0
  154.3106  136.8639  162.6397 C   0  0  0  0  0  0  0  0  0  0  0  0
  154.4349  135.6241  161.9475 C   0  0  0  0  0  0  0  0  0  0  0  0
  154.9388  134.3060  162.4734 C   0  0  0  0  0  0  0  0  0  0  0  0
  154.2027  133.9101  163.5119 F   0  0  0  0  0  0  0  0  0  0  0  0
  154.8689  133.3780  161.5192 F   0  0  0  0  0  0  0  0  0  0  0  0
  156.2059  134.4299  162.8681 F   0  0  0  0  0  0  0  0  0  0  0  0
  154.0418  135.7178  160.6843 N   0  0  0  0  0  0  0  0  0  0  0  0
  151.1983  141.7837  158.3786 C   0  0  0  0  0  0  0  0  0  0  0  0
  151.2203  143.3123  158.2169 C   0  0  0  0  0  0  0  0  0  0  0  0
  152.4087  145.8445  158.5848 H   0  0  0  0  0  0  0  0  0  0  0  0
  151.9696  146.0313  160.2807 H   0  0  0  0  0  0  0  0  0  0  0  0
  150.7123  145.9174  159.0555 H   0  0  0  0  0  0  0  0  0  0  0  0
  150.9403  143.7793  160.2913 H   0  0  0  0  0  0  0  0  0  0  0  0
  153.8030  143.7498  159.2398 H   0  0  0  0  0  0  0  0  0  0  0  0
  153.3289  143.9392  160.9101 H   0  0  0  0  0  0  0  0  0  0  0  0
  154.0135  141.5998  160.4200 H   0  0  0  0  0  0  0  0  0  0  0  0
  152.3512  141.6801  160.9525 H   0  0  0  0  0  0  0  0  0  0  0  0
  153.2922  141.4495  158.0497 H   0  0  0  0  0  0  0  0  0  0  0  0
  151.5524  139.4206  159.1895 H   0  0  0  0  0  0  0  0  0  0  0  0
  152.0961  137.3192  159.2040 H   0  0  0  0  0  0  0  0  0  0  0  0
  153.6143  136.8663  158.4480 H   0  0  0  0  0  0  0  0  0  0  0  0
  153.5593  138.7688  161.7641 H   0  0  0  0  0  0  0  0  0  0  0  0
  154.5523  137.0886  163.6680 H   0  0  0  0  0  0  0  0  0  0  0  0
  150.9124  141.3193  157.4341 H   0  0  0  0  0  0  0  0  0  0  0  0
  150.4297  141.5093  159.1027 H   0  0  0  0  0  0  0  0  0  0  0  0
  150.2289  143.6620  157.9271 H   0  0  0  0  0  0  0  0  0  0  0  0
  151.8923  143.5812  157.4007 H   0  0  0  0  0  0  0  0  0  0  0  0
  1  2  1  0  0  0  0
  1 21  1  0  0  0  0
  1 22  1  0  0  0  0
  1 23  1  0  0  0  0
  2 20  1  0  0  0  0
  2  3  1  0  0  0  0
  2 24  1  0  0  0  0
  3  4  1  0  0  0  0
  3 25  1  0  0  0  0
  3 26  1  0  0  0  0
  4  5  1  0  0  0  0
  4 27  1  0  0  0  0
  4 28  1  0  0  0  0
  5  6  1  0  0  0  0
  5 19  1  0  0  0  0
  5 29  1  0  0  0  0
  6  7  1  0  0  0  0
  6 30  1  0  0  0  0
  7  8  2  0  0  0  0
  7  9  1  0  0  0  0
  9 10  1  0  0  0  0
  9 31  1  0  0  0  0
  9 32  1  0  0  0  0
 10 18  1  0  0  0  0
 10 11  1  0  0  0  0
 11 12  2  0  0  0  0
 11 33  1  0  0  0  0
 12 13  1  0  0  0  0
 12 34  1  0  0  0  0
 13 14  1  0  0  0  0
 13 18  2  0  0  0  0
 14 15  1  0  0  0  0
 14 16  1  0  0  0  0
 14 17  1  0  0  0  0
 19 20  1  0  0  0  0
 19 35  1  0  0  0  0
 19 36  1  0  0  0  0
 20 37  1  0  0  0  0
 20 38  1  0  0  0  0
M  END
> <s_m_source_file>
AV-unprocessed.smi

> <i_m_source_file_index>
836

> <i_lp_mmshare_version>
43012

> <i_f3d_flags>
0

> <s_epik_input>
W0NIM11bQ0BASF0xW0NIMl1bQ0gyXVtDQEhdKFtDSDJdW0NIMl0xKVtOSF1DKD1PKVtDSDJdbjJbY0hdW2NIXWMobjIpQyhGKShGKUY=

> <s_epik_cmdline>
J2VwaWtfcHl0aG9uJywgJy1waCcsICc3LjAnLCAnLXRuJywgJzgnLCAnLW1hJywgJzIwMCcsICctbWV0YWxfYmluZGluZycsICctaW1hZScsICc8aW5maWxlLm1hZT4nLCAnLW9tYWUnLCAnPG91dGZpbGUubWFlPic=

> <r_lp_tautomer_probability>
1

> <r_epik_Ionization_Penalty>
8.28749e-08

> <r_epik_Ionization_Penalty_Charging>
0

> <r_epik_Ionization_Penalty_Neutral>
8.28749e-08

> <r_epik_State_Penalty>
-0

> <r_epik_Charging_Adjusted_Penalty>
0

> <i_epik_Tot_Q>
0

> <i_epik_Tot_abs_Q>
0

> <r_epik_Metal_State_Penalty>
-0

> <b_epik_Metal_Only>
0

> <s_lp_Force_Field>
OPLS_2005

> <r_lp_Energy>
10.955

> <b_lp_Chiralities_Consistent>
1

> <s_lp_Variant>
AV-unprocessed.smi:836-1

> <Gold.Version>
5.8.1

> <Gold.Id.Protein>
6NUR|6NUR_protein|mol2

> <Gold.PLP.Fitness>
43.6572

> <Gold.PLP.PLP>
-39.1727

> <Gold.PLP.part.hbond>
-2.0000

> <Gold.PLP.part.metal>
0.0000

> <Gold.PLP.part.buried>
-3.8699

> <Gold.PLP.part.nonpolar>
-33.6544

> <Gold.PLP.part.repulsive>
0.1178

> <Gold.PLP.ligand.clash>
0.0000

> <Gold.PLP.ligand.torsion>
0.7672

> <Gold.PLP.Chemscore.Hbond>
2.0000

> <Gold.PLP.Chemscore.CHOScore>
0.0000

> <Gold.PLP.Chemscore.Metal>
0.0000

> <Gold.Chemscore.Hbonds>
donor molecule, donor type, donor heavy atom, donor atom, acceptor molecule, acceptor atom, score
      P1  H  6896  6908       L1    18  1.00
      P1  H  7997  8010       L1     8  1.00

> <Gold.PLP.Chemscore.Internal.Correction>
0.0190

> <Gold.Rescore>
     Score         DG    S(hbond)    S(metal)    S(lipo)     H(rot)  DE(clash)    DE(int)     intcor
     19.46     -20.34       1.90        0.00     106.40       1.54       0.06       0.82       ----

> <Gold.Chemscore.Fitness>
19.4619

> <Gold.Chemscore.DG>
-20.3431

> <Gold.Chemscore.ZeroCoef>
-5.4800

> <Gold.Chemscore.Hbond>
1.9049

> <Gold.Chemscore.Metal>
0.0000

> <Gold.Chemscore.Lipo>
106.3992

> <Gold.Chemscore.Internal_Hbond>
0.0000

> <Gold.Chemscore.DEClash>
0.0565

> <Gold.Chemscore.DEInternal>
0.8247

> <Gold.Chemscore.Rot>
1.5422

> <Gold.Chemscore.Internal.Correction>
   9.000000E+99

> <Gold.Chemscore.Hbonds>
donor molecule, donor type, donor heavy atom, donor atom, acceptor molecule, acceptor atom, score
      P1  H  6896  6908       L1    18  0.42
      P1  H  7997  8010       L1     8  0.98

> <Gold.Chemscore.Hbond.Weighted>
-6.3624

> <Gold.Chemscore.Metal.Weighted>
-0.0000

> <Gold.Chemscore.Lipo.Weighted>
-12.4487

> <Gold.Chemscore.Internal_Hbond.Weighted>
0.0000

> <Gold.Chemscore.DEClash.Weighted>
0.0565

> <Gold.Chemscore.DEInternal.Weighted>
0.8247

> <Gold.Chemscore.Rot.Weighted>
3.9479

> <Gold.Chemscore.Internal.Correction.Weighted>
   9.000000E+99

> <Gold.Protein.RotatedTorsions>
[ 6907 6896 6895 6894 ] final  -60.02 input  -60.11 | X-H torsion
[ 7974 7965 7964 7962 ] final  135.29 input  175.53 | X-H torsion
[ 8008 7997 7996 7995 ] final   -4.47 input   59.86 | X-H torsion
[ 10167 10162 10161 10158 ] final -163.43 input  -65.29 | X-H torsion
[ 10718 10713 10712 10709 ] final  -15.95 input   66.30 | X-H torsion
[ 10763 10752 10751 10750 ] final   67.01 input  -60.55 | X-H torsion
[ 11005 11000 10999 10996 ] final -131.52 input  -57.11 | X-H torsion

> <Gold.Protein.ActiveResidues>
 VAL166  LYS551  ARG553  GLY616  TRP617  ASP618  TYR619  PRO620  LYS621  CYS622 
 ASP623  PHE694  ASN695  SER759  ASP760  ASP761  ALA762  ILE779  LEU786  VAL792 
 PHE793  MET794  SER795  GLU796  ALA797  LYS798  CYS799  TRP800  GLU811  SER814 

> <Gold.Protein.RotatedAtoms>
  150.7887  134.6892  159.6487 H   0  0  0  0  0  0  0  0  0  0  0  0  # atno 6907 bound_to 6896
  152.3988  134.6317  160.0087 H   0  0  0  0  0  0  0  0  0  0  0  0  # atno 6908 bound_to 6896
  151.6595  133.3281  159.3207 H   0  0  0  0  0  0  0  0  0  0  0  0  # atno 6909 bound_to 6896
  144.9678  139.4638  143.5448 H   0  0  0  0  0  0  0  0  0  0  0  0  # atno 7974 bound_to 7965
  154.6140  140.2483  155.7633 H   0  0  0  0  0  0  0  0  0  0  0  0  # atno 8008 bound_to 7997
  156.2387  140.2940  156.0335 H   0  0  0  0  0  0  0  0  0  0  0  0  # atno 8009 bound_to 7997
  155.2006  140.0394  157.2907 H   0  0  0  0  0  0  0  0  0  0  0  0  # atno 8010 bound_to 7997
  139.6321  144.0419  152.2025 H   0  0  0  0  0  0  0  0  0  0  0  0  # atno 10167 bound_to 10162
  156.5945  130.4807  149.6265 H   0  0  0  0  0  0  0  0  0  0  0  0  # atno 10718 bound_to 10713
  153.0166  135.5299  154.6913 H   0  0  0  0  0  0  0  0  0  0  0  0  # atno 10763 bound_to 10752
  154.6047  135.2872  155.0500 H   0  0  0  0  0  0  0  0  0  0  0  0  # atno 10764 bound_to 10752
  154.1544  135.6558  153.5023 H   0  0  0  0  0  0  0  0  0  0  0  0  # atno 10765 bound_to 10752
  140.9252  134.1392  157.4281 H   0  0  0  0  0  0  0  0  0  0  0  0  # atno 11005 bound_to 11000
  146.3373  139.8871  142.8815 LP  0  0  0  0  0  0  0  0  0  0  0  0  # atno 17320 bound_to 7965
  145.2603  141.0075  143.3830 LP  0  0  0  0  0  0  0  0  0  0  0  0  # atno 17321 bound_to 7965
  140.0087  144.6240  150.7666 LP  0  0  0  0  0  0  0  0  0  0  0  0  # atno 17342 bound_to 10162
  140.7445  143.2862  151.3458 LP  0  0  0  0  0  0  0  0  0  0  0  0  # atno 17343 bound_to 10162
  156.2522  130.6913  151.1655 LP  0  0  0  0  0  0  0  0  0  0  0  0  # atno 17370 bound_to 10713
  157.7295  131.0623  150.5769 LP  0  0  0  0  0  0  0  0  0  0  0  0  # atno 17371 bound_to 10713
  139.8784  134.9985  156.5906 LP  0  0  0  0  0  0  0  0  0  0  0  0  # atno 17394 bound_to 11000
  140.7936  133.8562  155.8667 LP  0  0  0  0  0  0  0  0  0  0  0  0  # atno 17395 bound_to 11000

$$$$
