AV-unprocessed.smi:1480|AV-procd|sdf|5986|dock7
  -GOLD-   22720 6 83D 1   1.00000     0.00000
 Structure written by MMmdl.
 37 38  0  0  0  0  0  0  0  0  1 V2000
  153.5208  143.4644  163.4732 C   0  0  0  0  0  0  0  0  0  0  0  0
  153.3285  142.7688  162.1995 N   0  0  0  0  0  0  0  0  0  0  0  0
  152.2569  143.3093  161.3509 C   0  0  0  0  0  0  0  0  0  0  0  0
  151.8023  142.3457  160.2471 C   0  0  0  0  0  0  0  0  0  0  0  0
  153.0213  141.7740  159.5119 C   0  0  2  0  0  0  0  0  0  0  0  0
  152.5833  140.8526  158.3639 C   0  0  0  0  0  0  0  0  0  0  0  0
  153.1937  139.8035  158.1582 O   0  0  0  0  0  0  0  0  0  0  0  0
  151.5254  141.2743  157.6469 N   0  0  0  0  0  0  0  0  0  0  0  0
  150.9064  140.6536  156.5310 C   0  0  0  0  0  0  0  0  0  0  0  0
  151.5284  139.7518  155.6157 C   0  0  0  0  0  0  0  0  0  0  0  0
  150.5245  139.4536  154.7392 C   0  0  0  0  0  0  0  0  0  0  0  0
  149.4012  140.1484  155.1409 N   0  0  0  0  0  0  0  0  0  0  0  0
  148.0838  140.1603  154.5301 C   0  0  0  0  0  0  0  0  0  0  0  0
  147.6178  138.7429  154.1942 C   0  0  0  0  0  0  0  0  0  0  0  0
  148.2785  138.0960  153.2305 N   0  0  0  0  0  0  0  0  0  0  0  0
  146.6736  138.2382  154.7979 O   0  0  0  0  0  0  0  0  0  0  0  0
  149.6368  140.8893  156.2465 N   0  0  0  0  0  0  0  0  0  0  0  0
  153.9228  141.0206  160.5110 C   0  0  0  0  0  0  0  0  0  0  0  0
  154.1617  141.7637  161.8362 C   0  0  0  0  0  0  0  0  0  0  0  0
  155.0976  141.3934  162.5456 O   0  0  0  0  0  0  0  0  0  0  0  0
  154.5132  143.9153  163.5187 H   0  0  0  0  0  0  0  0  0  0  0  0
  153.4230  142.7697  164.3086 H   0  0  0  0  0  0  0  0  0  0  0  0
  152.7941  144.2636  163.6225 H   0  0  0  0  0  0  0  0  0  0  0  0
  151.3936  143.5797  161.9607 H   0  0  0  0  0  0  0  0  0  0  0  0
  152.6213  144.2334  160.9002 H   0  0  0  0  0  0  0  0  0  0  0  0
  151.2167  141.5387  160.6914 H   0  0  0  0  0  0  0  0  0  0  0  0
  151.1401  142.8665  159.5539 H   0  0  0  0  0  0  0  0  0  0  0  0
  153.5904  142.6064  159.0929 H   0  0  0  0  0  0  0  0  0  0  0  0
  151.1157  142.1517  157.9329 H   0  0  0  0  0  0  0  0  0  0  0  0
  152.5396  139.3757  155.5889 H   0  0  0  0  0  0  0  0  0  0  0  0
  150.5146  138.8103  153.8716 H   0  0  0  0  0  0  0  0  0  0  0  0
  147.3709  140.6443  155.1999 H   0  0  0  0  0  0  0  0  0  0  0  0
  148.1269  140.7611  153.6206 H   0  0  0  0  0  0  0  0  0  0  0  0
  148.0101  137.1556  152.9790 H   0  0  0  0  0  0  0  0  0  0  0  0
  149.0493  138.5488  152.7606 H   0  0  0  0  0  0  0  0  0  0  0  0
  153.4867  140.0533  160.7654 H   0  0  0  0  0  0  0  0  0  0  0  0
  154.8878  140.8098  160.0480 H   0  0  0  0  0  0  0  0  0  0  0  0
  1  2  1  0  0  0  0
  1 21  1  0  0  0  0
  1 22  1  0  0  0  0
  1 23  1  0  0  0  0
  2 19  1  0  0  0  0
  2  3  1  0  0  0  0
  3  4  1  0  0  0  0
  3 24  1  0  0  0  0
  3 25  1  0  0  0  0
  4  5  1  0  0  0  0
  4 26  1  0  0  0  0
  4 27  1  0  0  0  0
  5  6  1  0  0  0  0
  5 18  1  0  0  0  0
  5 28  1  0  0  0  0
  6  7  2  0  0  0  0
  6  8  1  0  0  0  0
  8  9  1  0  0  0  0
  8 29  1  0  0  0  0
  9 17  2  0  0  0  0
  9 10  1  0  0  0  0
 10 11  2  0  0  0  0
 10 30  1  0  0  0  0
 11 12  1  0  0  0  0
 11 31  1  0  0  0  0
 12 13  1  0  0  0  0
 12 17  1  0  0  0  0
 13 14  1  0  0  0  0
 13 32  1  0  0  0  0
 13 33  1  0  0  0  0
 14 15  1  0  0  0  0
 14 16  2  0  0  0  0
 15 34  1  0  0  0  0
 15 35  1  0  0  0  0
 18 19  1  0  0  0  0
 18 36  1  0  0  0  0
 18 37  1  0  0  0  0
 19 20  2  0  0  0  0
M  END
> <s_m_source_file>
AV-unprocessed.smi

> <i_m_source_file_index>
1480

> <i_lp_mmshare_version>
43012

> <i_f3d_flags>
0

> <s_epik_input>
W0NIM11OMVtDSDJdW0NIMl1bQ0BIXShbQ0gyXUMxPU8pQyg9TylbTkhdYzJbY0hdW2NIXW4objIpW0NIMl1DKD1PKVtOSDJd

> <s_epik_cmdline>
J2VwaWtfcHl0aG9uJywgJy1waCcsICc3LjAnLCAnLXRuJywgJzgnLCAnLW1hJywgJzIwMCcsICctbWV0YWxfYmluZGluZycsICctaW1hZScsICc8aW5maWxlLm1hZT4nLCAnLW9tYWUnLCAnPG91dGZpbGUubWFlPic=

> <r_lp_tautomer_probability>
1

> <r_epik_Ionization_Penalty>
3.93272e-06

> <r_epik_Ionization_Penalty_Charging>
0

> <r_epik_Ionization_Penalty_Neutral>
3.93272e-06

> <r_epik_State_Penalty>
-0

> <r_epik_Charging_Adjusted_Penalty>
0

> <i_epik_Tot_Q>
0

> <i_epik_Tot_abs_Q>
0

> <r_epik_Metal_State_Penalty>
-0

> <b_epik_Metal_Only>
0

> <s_lp_Force_Field>
OPLS_2005

> <r_lp_Energy>
16.8293

> <b_lp_Chiralities_Consistent>
1

> <s_lp_Variant>
AV-unprocessed.smi:1480-2

> <Gold.Version>
5.8.1

> <Gold.Id.Protein>
6NUR|6NUR_protein|mol2

> <Gold.PLP.Fitness>
50.4735

> <Gold.PLP.PLP>
-42.0495

> <Gold.PLP.part.hbond>
-3.7210

> <Gold.PLP.part.metal>
0.0000

> <Gold.PLP.part.buried>
0.9351

> <Gold.PLP.part.nonpolar>
-37.6505

> <Gold.PLP.part.repulsive>
0.3564

> <Gold.PLP.ligand.clash>
0.0000

> <Gold.PLP.ligand.torsion>
0.8663

> <Gold.PLP.Chemscore.Hbond>
2.5151

> <Gold.PLP.Chemscore.CHOScore>
0.8680

> <Gold.PLP.Chemscore.Metal>
0.0000

> <Gold.Chemscore.Hbonds>
donor molecule, donor type, donor heavy atom, donor atom, acceptor molecule, acceptor atom, score
      L1  H    15    34       P1  7948  0.40
      L1  H    15    35       P1  7957  0.42
      P1  H  7997  8008       L1     7  1.00

> <Gold.PLP.Chemscore.Internal.Correction>
0.0072

> <Gold.Rescore>
     Score         DG    S(hbond)    S(metal)    S(lipo)     H(rot)  DE(clash)    DE(int)     intcor
     13.94     -18.19       2.76        0.00      74.21       2.03       2.86       1.40       ----

> <Gold.Chemscore.Fitness>
13.9371

> <Gold.Chemscore.DG>
-18.1903

> <Gold.Chemscore.ZeroCoef>
-5.4800

> <Gold.Chemscore.Hbond>
2.7596

> <Gold.Chemscore.Metal>
0.0000

> <Gold.Chemscore.Lipo>
74.2052

> <Gold.Chemscore.Internal_Hbond>
0.0000

> <Gold.Chemscore.DEClash>
2.8579

> <Gold.Chemscore.DEInternal>
1.3953

> <Gold.Chemscore.Rot>
2.0269

> <Gold.Chemscore.Internal.Correction>
   9.000000E+99

> <Gold.Chemscore.Hbonds>
donor molecule, donor type, donor heavy atom, donor atom, acceptor molecule, acceptor atom, score
      L1  H    15    34       P1  7948  0.40
      L1  H    15    35       P1  7957  0.38
      P1  H  7997  8008       L1     7  0.84

> <Gold.Chemscore.Hbond.Weighted>
-9.2171

> <Gold.Chemscore.Metal.Weighted>
-0.0000

> <Gold.Chemscore.Lipo.Weighted>
-8.6820

> <Gold.Chemscore.Internal_Hbond.Weighted>
0.0000

> <Gold.Chemscore.DEClash.Weighted>
2.8579

> <Gold.Chemscore.DEInternal.Weighted>
1.3953

> <Gold.Chemscore.Rot.Weighted>
5.1888

> <Gold.Chemscore.Internal.Correction.Weighted>
   9.000000E+99

> <Gold.Protein.RotatedTorsions>
[ 6907 6896 6895 6894 ] final -173.56 input  -60.11 | X-H torsion
[ 7974 7965 7964 7962 ] final   28.47 input  175.53 | X-H torsion
[ 8008 7997 7996 7995 ] final  -91.63 input   59.86 | X-H torsion
[ 10167 10162 10161 10158 ] final  -83.84 input  -65.29 | X-H torsion
[ 10718 10713 10712 10709 ] final -126.80 input   66.30 | X-H torsion
[ 10763 10752 10751 10750 ] final   73.47 input  -60.55 | X-H torsion
[ 11005 11000 10999 10996 ] final  162.71 input  -57.11 | X-H torsion

> <Gold.Protein.ActiveResidues>
 VAL166  LYS551  ARG553  GLY616  TRP617  ASP618  TYR619  PRO620  LYS621  CYS622 
 ASP623  PHE694  ASN695  SER759  ASP760  ASP761  ALA762  ILE779  LEU786  VAL792 
 PHE793  MET794  SER795  GLU796  ALA797  LYS798  CYS799  TRP800  GLU811  SER814 

> <Gold.Protein.RotatedAtoms>
  151.5581  133.3407  159.2965 H   0  0  0  0  0  0  0  0  0  0  0  0  # atno 6907 bound_to 6896
  150.8439  134.7743  159.6965 H   0  0  0  0  0  0  0  0  0  0  0  0  # atno 6908 bound_to 6896
  152.4501  134.5420  159.9893 H   0  0  0  0  0  0  0  0  0  0  0  0  # atno 6909 bound_to 6896
  146.1727  139.7052  142.8956 H   0  0  0  0  0  0  0  0  0  0  0  0  # atno 7974 bound_to 7965
  154.7132  140.0517  157.0569 H   0  0  0  0  0  0  0  0  0  0  0  0  # atno 8008 bound_to 7997
  155.0527  140.3181  155.4667 H   0  0  0  0  0  0  0  0  0  0  0  0  # atno 8009 bound_to 7997
  156.2795  140.2113  156.5653 H   0  0  0  0  0  0  0  0  0  0  0  0  # atno 8010 bound_to 7997
  140.4188  143.2592  151.8918 H   0  0  0  0  0  0  0  0  0  0  0  0  # atno 10167 bound_to 10162
  156.1798  130.6724  151.0290 H   0  0  0  0  0  0  0  0  0  0  0  0  # atno 10718 bound_to 10713
  153.0524  135.5061  154.7899 H   0  0  0  0  0  0  0  0  0  0  0  0  # atno 10763 bound_to 10752
  154.6751  135.2959  154.9692 H   0  0  0  0  0  0  0  0  0  0  0  0  # atno 10764 bound_to 10752
  154.0497  135.6705  153.4851 H   0  0  0  0  0  0  0  0  0  0  0  0  # atno 10765 bound_to 10752
  140.2285  134.8142  157.3293 H   0  0  0  0  0  0  0  0  0  0  0  0  # atno 11005 bound_to 11000
  145.4296  141.0414  143.2918 LP  0  0  0  0  0  0  0  0  0  0  0  0  # atno 17320 bound_to 7965
  144.8188  139.5829  143.6996 LP  0  0  0  0  0  0  0  0  0  0  0  0  # atno 17321 bound_to 7965
  139.4782  144.5459  151.8459 LP  0  0  0  0  0  0  0  0  0  0  0  0  # atno 17342 bound_to 10162
  140.4556  144.1794  150.5901 LP  0  0  0  0  0  0  0  0  0  0  0  0  # atno 17343 bound_to 10162
  157.6860  131.0824  150.7240 LP  0  0  0  0  0  0  0  0  0  0  0  0  # atno 17370 bound_to 10713
  156.7298  130.4706  149.5502 LP  0  0  0  0  0  0  0  0  0  0  0  0  # atno 17371 bound_to 10713
  140.1775  134.4531  155.7792 LP  0  0  0  0  0  0  0  0  0  0  0  0  # atno 17394 bound_to 11000
  141.2219  133.6969  156.7813 LP  0  0  0  0  0  0  0  0  0  0  0  0  # atno 17395 bound_to 11000

$$$$
