#       Name:                AV-unprocessed.smi:1795
#       Creating user name   scv26
#       Creation time:       Fri Mar 27 08:48:30 2020


#       File generated by GOLD software.
#

@<TRIPOS>MOLECULE
AV-unprocessed.smi:1795
    54    55     1
SMALL
NO_CHARGES


@<TRIPOS>ATOM
      1 ****        -4.6360  -1.4552  -2.3013 C.3            1 S1                 0.0000
      2 ****        -3.5418  -2.2515  -1.5692 C.3            1 S1                 0.0000
      3 ****        -2.6979  -1.3894  -0.6092 C.3            1 S1                 0.0000
      4 ****        -1.7538  -0.4976  -1.2929 N.3            1 S1                 0.0000
      5 ****        -0.9403   0.3020  -0.3464 C.3            1 S1                 0.0000
      6 ****        -1.8053   1.1274   0.6409 C.3            1 S1                 0.0000
      7 ****         0.0632   1.2585  -1.0564 C.3            1 S1                 0.0000
      8 ****         0.8805   2.0386  -0.1314 N.am           1 S1                 0.0000
      9 ****         1.9111   1.5591   0.5807 C.2            1 S1                 0.0000
     10 ****         2.3016   0.3937   0.5017 O.2            1 S1                 0.0000
     11 ****         2.6118   2.5606   1.5091 C.3            1 S1                 0.0000
     12 ****         3.2199   1.9259   2.6901 N.am           1 S1                 0.0000
     13 ****         4.6086   1.6887   2.6498 C.2            1 S1                 0.0000
     14 ****         5.2611   1.1167   3.6741 C.2            1 S1                 0.0000
     15 ****         4.5012   0.7407   4.8426 C.2            1 S1                 0.0000
     16 ****         3.1719   0.9592   4.8901 C.2            1 S1                 0.0000
     17 ****         2.4542   1.5827   3.7721 C.2            1 S1                 0.0000
     18 ****         1.2397   1.7848   3.8059 O.2            1 S1                 0.0000
     19 ****        -0.9358  -1.3157  -2.1937 C.3            1 S1                 0.0000
     20 ****        -1.7767  -2.1351  -3.1894 C.3            1 S1                 0.0000
     21 ****        -0.9074  -3.0469  -4.0619 C.3            1 S1                 0.0000
     22 ****        -2.6973  -2.9546  -2.4772 O.3            1 S1                 0.0000
     23 ****        -5.3439  -1.0270  -1.5911 H              1 S1                 0.0000
     24 ****        -5.1969  -2.0984  -2.9793 H              1 S1                 0.0000
     25 ****        -4.2243  -0.6317  -2.8844 H              1 S1                 0.0000
     26 ****        -4.0489  -3.0123  -0.9752 H              1 S1                 0.0000
     27 ****        -3.3922  -0.8218   0.0077 H              1 S1                 0.0000
     28 ****        -2.1480  -2.0475   0.0653 H              1 S1                 0.0000
     29 ****        -0.3522  -0.3930   0.2551 H              1 S1                 0.0000
     30 ****        -1.2045   1.7509   1.3022 H              1 S1                 0.0000
     31 ****        -2.3887   0.4951   1.3085 H              1 S1                 0.0000
     32 ****        -2.4942   1.7836   0.1080 H              1 S1                 0.0000
     33 ****         0.7553   0.7209  -1.7029 H              1 S1                 0.0000
     34 ****        -0.4794   1.9545  -1.6970 H              1 S1                 0.0000
     35 ****         0.6302   3.0094  -0.0110 H              1 S1                 0.0000
     36 ****         3.3648   3.0926   0.9260 H              1 S1                 0.0000
     37 ****         1.9016   3.3273   1.8252 H              1 S1                 0.0000
     38 ****         5.1022   1.9929   1.7382 H              1 S1                 0.0000
     39 ****         6.3253   0.9391   3.6240 H              1 S1                 0.0000
     40 ****         5.0003   0.2797   5.6823 H              1 S1                 0.0000
     41 ****         2.6198   0.6694   5.7721 H              1 S1                 0.0000
     42 ****        -0.2737  -0.6907  -2.7885 H              1 S1                 0.0000
     43 ****        -0.3014  -1.9844  -1.6095 H              1 S1                 0.0000
     44 ****        -2.3247  -1.4583  -3.8455 H              1 S1                 0.0000
     45 ****        -0.1892  -2.4673  -4.6427 H              1 S1                 0.0000
     46 ****        -1.5199  -3.6145  -4.7627 H              1 S1                 0.0000
     47 ****        -0.3494  -3.7599  -3.4542 H              1 S1                 0.0000
     48 ****        -2.2574   0.1827  -1.8253 LP             1 S1                 0.0000
     49 ****         1.8445  -0.2460  -0.1163 LP             1 S1                 0.0000
     50 ****         3.0757   0.0871   1.0556 LP             1 S1                 0.0000
     51 ****         0.7821   2.2125   3.0264 LP             1 S1                 0.0000
     52 ****         0.7112   1.5212   4.6129 LP             1 S1                 0.0000
     53 ****        -3.2777  -3.4228  -3.1435 LP             1 S1                 0.0000
     54 ****        -2.1750  -3.6304  -1.9571 LP             1 S1                 0.0000
@<TRIPOS>BOND
    1    1    2 1     
    2    1   23 1     
    3    1   24 1     
    4    1   25 1     
    5    2   22 1     
    6    2    3 1     
    7    2   26 1     
    8    3    4 1     
    9    3   27 1     
   10    3   28 1     
   11    4    5 1     
   12    4   19 1     
   13    5    6 1     
   14    5    7 1     
   15    5   29 1     
   16    6   30 1     
   17    6   31 1     
   18    6   32 1     
   19    7    8 1     
   20    7   33 1     
   21    7   34 1     
   22    8    9 am    
   23    8   35 1     
   24    9   10 2     
   25    9   11 1     
   26   11   12 1     
   27   11   36 1     
   28   11   37 1     
   29   12   17 am    
   30   12   13 1     
   31   13   14 2     
   32   13   38 1     
   33   14   15 1     
   34   14   39 1     
   35   15   16 2     
   36   15   40 1     
   37   16   17 1     
   38   16   41 1     
   39   17   18 2     
   40   19   20 1     
   41   19   42 1     
   42   19   43 1     
   43   20   21 1     
   44   20   22 1     
   45   20   44 1     
   46   21   45 1     
   47   21   46 1     
   48   21   47 1     
   49    4   48 1     
   50   10   49 1     
   51   10   50 1     
   52   18   51 1     
   53   18   52 1     
   54   22   53 1     
   55   22   54 1     
@<TRIPOS>SUBSTRUCTURE
      1 S1             1
@<TRIPOS>SET
LONE_PAIRS      STATIC     ATOMS    <user>   **** ""
7 48 49 50 51 52 53 54
DONOR_HYDROGENS      STATIC     ATOMS    <user>   **** ""
1 35
ATOM$BLUE        STATIC     ATOMS    COLORGROUP SYSTEM
7 48 49 50 51 52 53 54
ATOM$RED        STATIC     ATOMS    COLORGROUP SYSTEM
1 35
