AV-unprocessed.smi:516|AV-procd|sdf|2785|dock8
  -GOLD-   2262023263D 1   1.00000     0.00000
 Structure written by MMmdl.
 45 47  0  0  0  0  0  0  0  0  2 V2000
  146.1488  142.8216  154.3529 C   0  0  0  0  0  0  0  0  0  0  0  0
  147.4314  142.2866  154.0807 O   0  0  0  0  0  0  0  0  0  0  0  0
  147.6005  140.9791  154.6028 C   0  0  0  0  0  0  0  0  0  0  0  0
  148.8115  140.3062  153.9403 C   0  0  0  0  0  0  0  0  0  0  0  0
  149.0293  138.9527  154.4410 N   0  0  0  0  0  0  0  0  0  0  0  0
  148.1513  137.9142  154.4369 C   0  0  0  0  0  0  0  0  0  0  0  0
  146.7549  138.0058  153.8892 C   0  0  0  0  0  0  0  0  0  0  0  0
  146.6218  136.8303  152.9916 N   0  3  0  0  0  0  0  0  0  0  0  0
  146.4414  135.5670  153.7444 C   0  0  0  0  0  0  0  0  0  0  0  0
  146.3721  134.3701  152.7808 C   0  0  0  0  0  0  0  0  0  0  0  0
  145.3177  134.5699  151.8479 O   0  0  0  0  0  0  0  0  0  0  0  0
  145.5232  135.7321  151.0549 C   0  0  0  0  0  0  0  0  0  0  0  0
  145.5635  136.9751  151.9596 C   0  0  0  0  0  0  0  0  0  0  0  0
  148.6322  136.7879  154.9749 N   0  0  0  0  0  0  0  0  0  0  0  0
  149.9178  137.1412  155.3546 C   0  0  0  0  0  0  0  0  0  0  0  0
  150.1771  138.4349  155.0422 C   0  0  0  0  0  0  0  0  0  0  0  0
  151.4667  139.0724  155.3420 C   0  0  0  0  0  0  0  0  0  0  0  0
  151.7238  140.2441  155.0757 O   0  0  0  0  0  0  0  0  0  0  0  0
  152.3455  138.2337  155.9429 N   0  0  0  0  0  0  0  0  0  0  0  0
  152.1478  136.9230  156.2825 C   0  0  0  0  0  0  0  0  0  0  0  0
  153.0527  136.2914  156.8267 O   0  0  0  0  0  0  0  0  0  0  0  0
  150.9256  136.3678  155.9932 N   0  0  0  0  0  0  0  0  0  0  0  0
  150.6068  134.9780  156.3265 C   0  0  0  0  0  0  0  0  0  0  0  0
  153.2503  138.6209  156.1679 H   0  0  0  0  0  0  0  0  0  0  0  0
  146.0709  143.8213  153.9256 H   0  0  0  0  0  0  0  0  0  0  0  0
  145.9741  142.8999  155.4267 H   0  0  0  0  0  0  0  0  0  0  0  0
  145.3631  142.2055  153.9136 H   0  0  0  0  0  0  0  0  0  0  0  0
  147.7448  141.0287  155.6831 H   0  0  0  0  0  0  0  0  0  0  0  0
  146.7037  140.3850  154.4212 H   0  0  0  0  0  0  0  0  0  0  0  0
  148.6811  140.2745  152.8592 H   0  0  0  0  0  0  0  0  0  0  0  0
  149.7090  140.9014  154.0988 H   0  0  0  0  0  0  0  0  0  0  0  0
  146.0552  137.9384  154.7232 H   0  0  0  0  0  0  0  0  0  0  0  0
  146.5590  138.9427  153.3690 H   0  0  0  0  0  0  0  0  0  0  0  0
  147.2700  135.4292  154.4400 H   0  0  0  0  0  0  0  0  0  0  0  0
  145.5280  135.6224  154.3390 H   0  0  0  0  0  0  0  0  0  0  0  0
  147.3191  134.2361  152.2558 H   0  0  0  0  0  0  0  0  0  0  0  0
  146.1834  133.4511  153.3359 H   0  0  0  0  0  0  0  0  0  0  0  0
  146.4463  135.6386  150.4805 H   0  0  0  0  0  0  0  0  0  0  0  0
  144.7081  135.8172  150.3360 H   0  0  0  0  0  0  0  0  0  0  0  0
  144.5961  137.1146  152.4442 H   0  0  0  0  0  0  0  0  0  0  0  0
  145.7439  137.8575  151.3458 H   0  0  0  0  0  0  0  0  0  0  0  0
  151.4099  134.4477  156.8393 H   0  0  0  0  0  0  0  0  0  0  0  0
  150.3750  134.4214  155.4180 H   0  0  0  0  0  0  0  0  0  0  0  0
  149.7303  134.9430  156.9743 H   0  0  0  0  0  0  0  0  0  0  0  0
  147.5024  136.7463  152.5028 H   0  0  0  0  0  0  0  0  0  0  0  0
  1  2  1  0  0  0  0
  1 25  1  0  0  0  0
  1 26  1  0  0  0  0
  1 27  1  0  0  0  0
  2  3  1  0  0  0  0
  3  4  1  0  0  0  0
  3 28  1  0  0  0  0
  3 29  1  0  0  0  0
  4  5  1  0  0  0  0
  4 30  1  0  0  0  0
  4 31  1  0  0  0  0
  5 16  1  0  0  0  0
  5  6  1  0  0  0  0
  6  7  1  0  0  0  0
  6 14  2  0  0  0  0
  7  8  1  0  0  0  0
  7 32  1  0  0  0  0
  7 33  1  0  0  0  0
  8 13  1  0  0  0  0
  8  9  1  0  0  0  0
  8 45  1  0  0  0  0
  9 10  1  0  0  0  0
  9 34  1  0  0  0  0
  9 35  1  0  0  0  0
 10 11  1  0  0  0  0
 10 36  1  0  0  0  0
 10 37  1  0  0  0  0
 11 12  1  0  0  0  0
 12 13  1  0  0  0  0
 12 38  1  0  0  0  0
 12 39  1  0  0  0  0
 13 40  1  0  0  0  0
 13 41  1  0  0  0  0
 14 15  1  0  0  0  0
 15 22  1  0  0  0  0
 15 16  2  0  0  0  0
 16 17  1  0  0  0  0
 17 18  2  0  0  0  0
 17 19  1  0  0  0  0
 19 24  1  0  0  0  0
 19 20  1  0  0  0  0
 20 21  2  0  0  0  0
 20 22  1  0  0  0  0
 22 23  1  0  0  0  0
 23 42  1  0  0  0  0
 23 43  1  0  0  0  0
 23 44  1  0  0  0  0
M  CHG  1   8   1
M  END
> <s_m_source_file>
AV-unprocessed.smi

> <i_m_source_file_index>
516

> <i_lp_mmshare_version>
43012

> <i_f3d_flags>
0

> <s_epik_input>
W0NIM11uMWMoPU8pW25IXWMoPU8pYyhjMTIpbihbQ0gyXVtDSDJdT1tDSDNdKWMobjIpW0NIMl1OM1tDSDJdW0NIMl1PW0NIMl1bQ0gyXTM=

> <s_epik_cmdline>
J2VwaWtfcHl0aG9uJywgJy1waCcsICc3LjAnLCAnLXRuJywgJzgnLCAnLW1hJywgJzIwMCcsICctbWV0YWxfYmluZGluZycsICctaW1hZScsICc8aW5maWxlLm1hZT4nLCAnLW9tYWUnLCAnPG91dGZpbGUubWFlPic=

> <r_epik_Ionization_Penalty>
1.12077

> <r_epik_Ionization_Penalty_Charging>
1.12077

> <r_epik_Ionization_Penalty_Neutral>
4.43299e-09

> <r_epik_State_Penalty>
1.17893

> <r_epik_Charging_Adjusted_Penalty>
2.29969

> <i_epik_Tot_Q>
1

> <i_epik_Tot_abs_Q>
1

> <r_epik_Metal_State_Penalty>
1.32838

> <b_epik_Metal_Only>
0

> <s_lp_Force_Field>
OPLS_2005

> <r_lp_Energy>
36.1073

> <b_lp_Chiralities_Consistent>
1

> <s_lp_Variant>
AV-unprocessed.smi:516-2

> <Gold.Version>
5.8.1

> <Gold.Id.Protein>
6NUR|6NUR_protein|mol2

> <Gold.PLP.Fitness>
39.5049

> <Gold.PLP.PLP>
-28.4968

> <Gold.PLP.part.hbond>
-3.0000

> <Gold.PLP.part.metal>
0.0000

> <Gold.PLP.part.buried>
-0.5700

> <Gold.PLP.part.nonpolar>
-24.9185

> <Gold.PLP.part.repulsive>
0.6150

> <Gold.PLP.ligand.clash>
0.0000

> <Gold.PLP.ligand.torsion>
0.3439

> <Gold.PLP.Chemscore.Hbond>
3.8800

> <Gold.PLP.Chemscore.CHOScore>
0.0000

> <Gold.PLP.Chemscore.Metal>
0.0000

> <Gold.Chemscore.Hbonds>
donor molecule, donor type, donor heavy atom, donor atom, acceptor molecule, acceptor atom, score
      L1  H     8    45       P1  7948  2.00
      P1  H  7989  7998       L1    18  0.90
      P1  H 10752 10765       L1    21  1.00

> <Gold.PLP.Chemscore.Internal.Correction>
0.0559

> <Gold.Rescore>
     Score         DG    S(hbond)    S(metal)    S(lipo)     H(rot)  DE(clash)    DE(int)     intcor
     12.25     -14.14       2.56        0.00      47.19       2.11       0.23       1.67       ----

> <Gold.Chemscore.Fitness>
12.2506

> <Gold.Chemscore.DG>
-14.1448

> <Gold.Chemscore.ZeroCoef>
-5.4800

> <Gold.Chemscore.Hbond>
2.5562

> <Gold.Chemscore.Metal>
0.0000

> <Gold.Chemscore.Lipo>
47.1861

> <Gold.Chemscore.Internal_Hbond>
0.0000

> <Gold.Chemscore.DEClash>
0.2276

> <Gold.Chemscore.DEInternal>
1.6666

> <Gold.Chemscore.Rot>
2.1069

> <Gold.Chemscore.Internal.Correction>
   9.000000E+99

> <Gold.Chemscore.Hbonds>
donor molecule, donor type, donor heavy atom, donor atom, acceptor molecule, acceptor atom, score
      L1  H     8    45       P1  7948  1.00
      P1  H  7989  7998       L1    18  0.87
      P1  H 10752 10765       L1    21  0.29

> <Gold.Chemscore.Hbond.Weighted>
-8.5375

> <Gold.Chemscore.Metal.Weighted>
-0.0000

> <Gold.Chemscore.Lipo.Weighted>
-5.5208

> <Gold.Chemscore.Internal_Hbond.Weighted>
0.0000

> <Gold.Chemscore.DEClash.Weighted>
0.2276

> <Gold.Chemscore.DEInternal.Weighted>
1.6666

> <Gold.Chemscore.Rot.Weighted>
5.3936

> <Gold.Chemscore.Internal.Correction.Weighted>
   9.000000E+99

> <Gold.Protein.RotatedTorsions>
[ 6907 6896 6895 6894 ] final -144.08 input  -60.11 | X-H torsion
[ 7974 7965 7964 7962 ] final  -26.64 input  175.53 | X-H torsion
[ 8008 7997 7996 7995 ] final   43.58 input   59.86 | X-H torsion
[ 10167 10162 10161 10158 ] final  174.08 input  -65.29 | X-H torsion
[ 10718 10713 10712 10709 ] final  131.00 input   66.30 | X-H torsion
[ 10763 10752 10751 10750 ] final -107.40 input  -60.55 | X-H torsion
[ 11005 11000 10999 10996 ] final   -8.18 input  -57.11 | X-H torsion

> <Gold.Protein.ActiveResidues>
 VAL166  LYS551  ARG553  GLY616  TRP617  ASP618  TYR619  PRO620  LYS621  CYS622 
 ASP623  PHE694  ASN695  SER759  ASP760  ASP761  ALA762  ILE779  LEU786  VAL792 
 PHE793  MET794  SER795  GLU796  ALA797  LYS798  CYS799  TRP800  GLU811  SER814 

> <Gold.Protein.RotatedAtoms>
  151.1092  133.5186  159.2606 H   0  0  0  0  0  0  0  0  0  0  0  0  # atno 6907 bound_to 6896
  151.1987  135.0433  159.8873 H   0  0  0  0  0  0  0  0  0  0  0  0  # atno 6908 bound_to 6896
  152.5449  134.0923  159.8335 H   0  0  0  0  0  0  0  0  0  0  0  0  # atno 6909 bound_to 6896
  146.1412  140.5046  142.8651 H   0  0  0  0  0  0  0  0  0  0  0  0  # atno 7974 bound_to 7965
  155.3051  140.3387  155.4246 H   0  0  0  0  0  0  0  0  0  0  0  0  # atno 8008 bound_to 7997
  156.1983  140.1723  156.7992 H   0  0  0  0  0  0  0  0  0  0  0  0  # atno 8009 bound_to 7997
  154.5526  140.0702  156.8676 H   0  0  0  0  0  0  0  0  0  0  0  0  # atno 8010 bound_to 7997
  139.5130  144.3187  152.0223 H   0  0  0  0  0  0  0  0  0  0  0  0  # atno 10167 bound_to 10162
  157.5009  131.1094  150.9429 H   0  0  0  0  0  0  0  0  0  0  0  0  # atno 10718 bound_to 10713
  154.8073  135.4676  154.0424 H   0  0  0  0  0  0  0  0  0  0  0  0  # atno 10763 bound_to 10752
  153.1883  135.6851  153.8393 H   0  0  0  0  0  0  0  0  0  0  0  0  # atno 10764 bound_to 10752
  153.7919  135.3242  155.3357 H   0  0  0  0  0  0  0  0  0  0  0  0  # atno 10765 bound_to 10752
  140.7207  133.8831  155.8818 H   0  0  0  0  0  0  0  0  0  0  0  0  # atno 11005 bound_to 11000
  144.7794  140.5809  143.6615 LP  0  0  0  0  0  0  0  0  0  0  0  0  # atno 17320 bound_to 7965
  145.5042  139.1482  143.3640 LP  0  0  0  0  0  0  0  0  0  0  0  0  # atno 17321 bound_to 7965
  140.2630  144.4047  150.6179 LP  0  0  0  0  0  0  0  0  0  0  0  0  # atno 17342 bound_to 10162
  140.6144  143.2171  151.6822 LP  0  0  0  0  0  0  0  0  0  0  0  0  # atno 17343 bound_to 10162
  157.0100  130.5633  149.5320 LP  0  0  0  0  0  0  0  0  0  0  0  0  # atno 17370 bound_to 10713
  156.0228  130.5323  150.8324 LP  0  0  0  0  0  0  0  0  0  0  0  0  # atno 17371 bound_to 10713
  141.0006  134.1156  157.4321 LP  0  0  0  0  0  0  0  0  0  0  0  0  # atno 17394 bound_to 11000
  139.8849  135.0067  156.6398 LP  0  0  0  0  0  0  0  0  0  0  0  0  # atno 17395 bound_to 11000

$$$$
