#       Name:                AV-unprocessed.smi:484
#       Creating user name   scv26
#       Creation time:       Thu Mar 26 23:12:13 2020


#       File generated by GOLD software.
#

@<TRIPOS>MOLECULE
AV-unprocessed.smi:484
    53    55     1
SMALL
NO_CHARGES


@<TRIPOS>ATOM
      1 ****        -6.7207   1.2119   1.2629 C.3            1 S1                 0.0000
      2 ****        -5.8453   0.9632   0.0297 C.3            1 S1                 0.0000
      3 ****        -4.3651   1.0114   0.3573 C.ar           1 S1                 0.0000
      4 ****        -3.6424   2.2116   0.2063 C.ar           1 S1                 0.0000
      5 ****        -2.2693   2.2532   0.5149 C.ar           1 S1                 0.0000
      6 ****        -1.5976   1.1030   0.9767 C.ar           1 S1                 0.0000
      7 ****        -0.2522   1.2319   1.2459 O.3            1 S1                 0.0000
      8 ****         0.4675   0.0758   1.6521 C.3            1 S1                 0.0000
      9 ****         1.9488   0.4496   1.8255 C.3            1 S1                 0.0000
     10 ****         2.6141  -0.6551   2.4025 O.3            1 S1                 0.0000
     11 ****         2.6621   0.8825   0.5218 C.3            1 S1                 0.0000
     12 ****         2.6055  -0.1100  -0.5702 N.pl3          1 S1                 0.0000
     13 ****         1.7059  -0.2657  -1.5886 C.2            1 S1                 0.0000
     14 ****         0.4892   0.5586  -1.8687 C.3            1 S1                 0.0000
     15 ****         0.2742   0.7653  -3.2481 O.3            1 S1                 0.0000
     16 ****         2.1131  -1.3385  -2.3245 N.pl3          1 S1                 1.0000
     17 ****         3.2882  -1.8639  -1.7906 C.ar           1 S1                 0.0000
     18 ****         4.0704  -2.9402  -2.1985 C.ar           1 S1                 0.0000
     19 ****         5.2224  -3.2115  -1.4322 C.ar           1 S1                 0.0000
     20 ****         5.5589  -2.4258  -0.3111 C.ar           1 S1                 0.0000
     21 ****         4.7573  -1.3372   0.0917 C.ar           1 S1                 0.0000
     22 ****         3.6162  -1.0767  -0.6679 C.ar           1 S1                 0.0000
     23 ****        -2.3303  -0.1011   1.1292 C.ar           1 S1                 0.0000
     24 ****        -3.7038  -0.1435   0.8208 C.ar           1 S1                 0.0000
     25 ****        -7.7786   1.1736   1.0022 H              1 S1                 0.0000
     26 ****        -6.5199   2.1915   1.6978 H              1 S1                 0.0000
     27 ****        -6.5404   0.4601   2.0321 H              1 S1                 0.0000
     28 ****        -6.0842  -0.0087  -0.4038 H              1 S1                 0.0000
     29 ****        -6.0693   1.7045  -0.7385 H              1 S1                 0.0000
     30 ****        -4.1385   3.1046  -0.1451 H              1 S1                 0.0000
     31 ****        -1.7251   3.1784   0.3940 H              1 S1                 0.0000
     32 ****         0.0670  -0.2774   2.6041 H              1 S1                 0.0000
     33 ****         0.3588  -0.7320   0.9270 H              1 S1                 0.0000
     34 ****         2.0161   1.2673   2.5439 H              1 S1                 0.0000
     35 ****         3.4848  -0.3847   2.6508 H              1 S1                 0.0000
     36 ****         2.2143   1.8036   0.1498 H              1 S1                 0.0000
     37 ****         3.7055   1.1310   0.7175 H              1 S1                 0.0000
     38 ****        -0.3828   0.0560  -1.4504 H              1 S1                 0.0000
     39 ****         0.5699   1.5304  -1.3832 H              1 S1                 0.0000
     40 ****        -0.5048   1.2903  -3.3547 H              1 S1                 0.0000
     41 ****         3.8154  -3.5412  -3.0590 H              1 S1                 0.0000
     42 ****         5.8615  -4.0373  -1.7104 H              1 S1                 0.0000
     43 ****         6.4501  -2.6627   0.2518 H              1 S1                 0.0000
     44 ****         5.0268  -0.7446   0.9530 H              1 S1                 0.0000
     45 ****        -1.8623  -1.0072   1.4825 H              1 S1                 0.0000
     46 ****        -4.2503  -1.0673   0.9436 H              1 S1                 0.0000
     47 ****         1.6210  -1.6756  -3.1420 H              1 S1                 0.0000
     48 ****        -0.1599   1.9096   1.9754 LP             1 S1                 0.0000
     49 ****         0.1844   1.5755   0.4145 LP             1 S1                 0.0000
     50 ****         2.6690  -1.4004   1.7381 LP             1 S1                 0.0000
     51 ****         2.1139  -0.9655   3.2109 LP             1 S1                 0.0000
     52 ****         0.1529  -0.1153  -3.7063 LP             1 S1                 0.0000
     53 ****         1.0590   1.2418  -3.6442 LP             1 S1                 0.0000
@<TRIPOS>BOND
    1    1    2 1     
    2    1   25 1     
    3    1   26 1     
    4    1   27 1     
    5    2    3 1     
    6    2   28 1     
    7    2   29 1     
    8    3   24 ar    
    9    3    4 ar    
   10    4    5 ar    
   11    4   30 1     
   12    5    6 ar    
   13    5   31 1     
   14    6    7 1     
   15    6   23 ar    
   16    7    8 1     
   17    8    9 1     
   18    8   32 1     
   19    8   33 1     
   20    9   10 1     
   21    9   11 1     
   22    9   34 1     
   23   10   35 1     
   24   11   12 1     
   25   11   36 1     
   26   11   37 1     
   27   12   22 1     
   28   12   13 1     
   29   13   14 1     
   30   13   16 2     
   31   14   15 1     
   32   14   38 1     
   33   14   39 1     
   34   15   40 1     
   35   16   17 1     
   36   16   47 1     
   37   17   22 ar    
   38   17   18 ar    
   39   18   19 ar    
   40   18   41 1     
   41   19   20 ar    
   42   19   42 1     
   43   20   21 ar    
   44   20   43 1     
   45   21   22 ar    
   46   21   44 1     
   47   23   24 ar    
   48   23   45 1     
   49   24   46 1     
   50    7   48 1     
   51    7   49 1     
   52   10   50 1     
   53   10   51 1     
   54   15   52 1     
   55   15   53 1     
@<TRIPOS>SUBSTRUCTURE
      1 S1             1
@<TRIPOS>SET
LONE_PAIRS      STATIC     ATOMS    <user>   **** ""
6 48 49 50 51 52 53
DONOR_HYDROGENS      STATIC     ATOMS    <user>   **** ""
3 35 40 47
ATOM$BLUE        STATIC     ATOMS    COLORGROUP SYSTEM
6 48 49 50 51 52 53
ATOM$RED        STATIC     ATOMS    COLORGROUP SYSTEM
3 35 40 47
