AV-unprocessed.smi:3018|AV-procd|sdf|11482|dock7
  -GOLD-   2272016423D 1   1.00000     0.00000
 Structure written by MMmdl.
 44 45  0  0  0  0  0  0  0  0  2 V2000
  148.7841  141.4110  156.7326 C   0  0  0  0  0  0  0  0  0  0  0  0
  150.0752  141.8443  156.0266 C   0  0  0  0  0  0  0  0  0  0  0  0
  151.2344  140.8554  156.2484 C   0  0  1  0  0  0  0  0  0  0  0  0
  151.3611  140.6437  157.6534 O   0  0  0  0  0  0  0  0  0  0  0  0
  152.2045  141.5480  158.3620 C   0  0  0  0  0  0  0  0  0  0  0  0
  152.3561  141.0077  159.7944 C   0  0  0  0  0  0  0  0  0  0  0  0
  153.1821  141.9637  160.6700 C   0  0  0  0  0  0  0  0  0  0  0  0
  152.5703  143.3736  160.6822 C   0  0  0  0  0  0  0  0  0  0  0  0
  152.4045  143.9202  159.2553 C   0  0  0  0  0  0  0  0  0  0  0  0
  151.5826  142.9596  158.3803 C   0  0  0  0  0  0  0  0  0  0  0  0
  150.9654  139.5146  155.5477 C   0  0  0  0  0  0  0  0  0  0  0  0
  150.7898  139.4754  154.3297 O   0  0  0  0  0  0  0  0  0  0  0  0
  150.9222  138.4280  156.3340 N   0  0  0  0  0  0  0  0  0  0  0  0
  150.6742  137.0676  155.8719 C   0  0  0  0  0  0  0  0  0  0  0  0
  150.6266  136.0726  157.0499 C   0  0  0  0  0  0  0  0  0  0  0  0
  149.8626  136.5555  158.2749 C   0  0  0  0  0  0  0  0  0  0  0  0
  150.3183  136.7684  159.4549 N   0  0  0  0  0  0  0  0  0  0  0  0
  149.1867  137.2085  160.2160 N   0  5  0  0  0  0  0  0  0  0  0  0
  148.1222  137.2130  159.3775 C   0  0  0  0  0  0  0  0  0  0  0  0
  146.9566  137.5209  159.6158 O   0  0  0  0  0  0  0  0  0  0  0  0
  148.5237  136.8134  158.1756 N   0  0  0  0  0  0  0  0  0  0  0  0
  147.9583  136.7123  157.3460 H   0  0  0  0  0  0  0  0  0  0  0  0
  147.9880  142.1367  156.5654 H   0  0  0  0  0  0  0  0  0  0  0  0
  148.9342  141.3236  157.8090 H   0  0  0  0  0  0  0  0  0  0  0  0
  148.4361  140.4459  156.3633 H   0  0  0  0  0  0  0  0  0  0  0  0
  149.8799  141.9594  154.9593 H   0  0  0  0  0  0  0  0  0  0  0  0
  150.3583  142.8316  156.3946 H   0  0  0  0  0  0  0  0  0  0  0  0
  152.1459  141.2982  155.8446 H   0  0  0  0  0  0  0  0  0  0  0  0
  153.1969  141.5928  157.9116 H   0  0  0  0  0  0  0  0  0  0  0  0
  151.3707  140.8660  160.2404 H   0  0  0  0  0  0  0  0  0  0  0  0
  152.8288  140.0252  159.7716 H   0  0  0  0  0  0  0  0  0  0  0  0
  153.2439  141.5762  161.6872 H   0  0  0  0  0  0  0  0  0  0  0  0
  154.2052  142.0115  160.2945 H   0  0  0  0  0  0  0  0  0  0  0  0
  151.5987  143.3454  161.1772 H   0  0  0  0  0  0  0  0  0  0  0  0
  153.1967  144.0464  161.2686 H   0  0  0  0  0  0  0  0  0  0  0  0
  151.9239  144.8983  159.2862 H   0  0  0  0  0  0  0  0  0  0  0  0
  153.3868  144.0721  158.8062 H   0  0  0  0  0  0  0  0  0  0  0  0
  151.5131  143.3634  157.3708 H   0  0  0  0  0  0  0  0  0  0  0  0
  150.5617  142.9043  158.7603 H   0  0  0  0  0  0  0  0  0  0  0  0
  151.0732  138.5529  157.3244 H   0  0  0  0  0  0  0  0  0  0  0  0
  149.7213  137.0680  155.3414 H   0  0  0  0  0  0  0  0  0  0  0  0
  151.4373  136.7787  155.1469 H   0  0  0  0  0  0  0  0  0  0  0  0
  150.1798  135.1331  156.7228 H   0  0  0  0  0  0  0  0  0  0  0  0
  151.6447  135.8351  157.3604 H   0  0  0  0  0  0  0  0  0  0  0  0
  1  2  1  0  0  0  0
  1 23  1  0  0  0  0
  1 24  1  0  0  0  0
  1 25  1  0  0  0  0
  2  3  1  0  0  0  0
  2 26  1  0  0  0  0
  2 27  1  0  0  0  0
  3  4  1  0  0  0  0
  3 11  1  0  0  0  0
  3 28  1  0  0  0  0
  4  5  1  0  0  0  0
  5 10  1  0  0  0  0
  5  6  1  0  0  0  0
  5 29  1  0  0  0  0
  6  7  1  0  0  0  0
  6 30  1  0  0  0  0
  6 31  1  0  0  0  0
  7  8  1  0  0  0  0
  7 32  1  0  0  0  0
  7 33  1  0  0  0  0
  8  9  1  0  0  0  0
  8 34  1  0  0  0  0
  8 35  1  0  0  0  0
  9 10  1  0  0  0  0
  9 36  1  0  0  0  0
  9 37  1  0  0  0  0
 10 38  1  0  0  0  0
 10 39  1  0  0  0  0
 11 12  2  0  0  0  0
 11 13  1  0  0  0  0
 13 14  1  0  0  0  0
 13 40  1  0  0  0  0
 14 15  1  0  0  0  0
 14 41  1  0  0  0  0
 14 42  1  0  0  0  0
 15 16  1  0  0  0  0
 15 43  1  0  0  0  0
 15 44  1  0  0  0  0
 16 21  1  0  0  0  0
 16 17  2  0  0  0  0
 17 18  1  0  0  0  0
 18 19  1  0  0  0  0
 19 20  2  0  0  0  0
 19 21  1  0  0  0  0
 21 22  1  0  0  0  0
M  CHG  1  18  -1
M  END
> <s_m_source_file>
AV-unprocessed.smi

> <i_m_source_file_index>
3018

> <i_lp_mmshare_version>
43012

> <i_f3d_flags>
0

> <s_epik_input>
W0NIMl0xW0NIMl1bQ0gyXVtDSDJdW0NIMl1bQ0hdMU9bQ0BASF0oW0NIMl1bQ0gzXSlDKD1PKVtOSF1bQ0gyXVtDSDJdYzJuW25IXWMoPU8pW25IXTI=

> <s_epik_cmdline>
J2VwaWtfcHl0aG9uJywgJy1waCcsICc3LjAnLCAnLXRuJywgJzgnLCAnLW1hJywgJzIwMCcsICctbWV0YWxfYmluZGluZycsICctaW1hZScsICc8aW5maWxlLm1hZT4nLCAnLW9tYWUnLCAnPG91dGZpbGUubWFlPic=

> <r_lp_tautomer_probability>
1

> <r_epik_Ionization_Penalty>
14.1812

> <r_epik_Ionization_Penalty_Charging>
13.7758

> <r_epik_Ionization_Penalty_Neutral>
0.405355

> <r_epik_State_Penalty>
4.92413

> <r_epik_Charging_Adjusted_Penalty>
18.7

> <i_epik_Tot_Q>
-1

> <i_epik_Tot_abs_Q>
1

> <r_epik_Metal_State_Penalty>
1.32654

> <b_epik_Metal_Only>
1

> <s_lp_Force_Field>
OPLS_2005

> <r_lp_Energy>
19.6137

> <b_lp_Chiralities_Consistent>
1

> <s_lp_Variant>
AV-unprocessed.smi:3018-4

> <Gold.Version>
5.8.1

> <Gold.Id.Protein>
6NUR|6NUR_protein|mol2

> <Gold.PLP.Fitness>
46.0258

> <Gold.PLP.PLP>
-35.1763

> <Gold.PLP.part.hbond>
-4.0039

> <Gold.PLP.part.metal>
0.0000

> <Gold.PLP.part.buried>
-4.7206

> <Gold.PLP.part.nonpolar>
-27.9114

> <Gold.PLP.part.repulsive>
0.2563

> <Gold.PLP.ligand.clash>
0.0000

> <Gold.PLP.ligand.torsion>
0.5065

> <Gold.PLP.Chemscore.Hbond>
3.8880

> <Gold.PLP.Chemscore.CHOScore>
0.0000

> <Gold.PLP.Chemscore.Metal>
0.0000

> <Gold.Chemscore.Hbonds>
donor molecule, donor type, donor heavy atom, donor atom, acceptor molecule, acceptor atom, score
      P1  H  6896  6909       L1    17  1.00
      P1  H  6931  6943       L1    18  0.96
      P1  H  6934  6947       L1    20  0.93
      P1  H  7989  7998       L1    12  1.00

> <Gold.PLP.Chemscore.Internal.Correction>
0.1986

> <Gold.Rescore>
     Score         DG    S(hbond)    S(metal)    S(lipo)     H(rot)  DE(clash)    DE(int)     intcor
     17.02     -17.65       2.96        0.00      84.64       2.98       0.00       0.63       ----

> <Gold.Chemscore.Fitness>
17.0184

> <Gold.Chemscore.DG>
-17.6511

> <Gold.Chemscore.ZeroCoef>
-5.4800

> <Gold.Chemscore.Hbond>
2.9609

> <Gold.Chemscore.Metal>
0.0000

> <Gold.Chemscore.Lipo>
84.6422

> <Gold.Chemscore.Internal_Hbond>
0.0000

> <Gold.Chemscore.DEClash>
0.0021

> <Gold.Chemscore.DEInternal>
0.6305

> <Gold.Chemscore.Rot>
2.9772

> <Gold.Chemscore.Internal.Correction>
   9.000000E+99

> <Gold.Chemscore.Hbonds>
donor molecule, donor type, donor heavy atom, donor atom, acceptor molecule, acceptor atom, score
      P1  H  6896  6909       L1    17  0.44
      P1  H  6931  6943       L1    18  0.45
      P1  H  6934  6947       L1    20  0.31
      P1  H  7989  7998       L1    12  0.82

> <Gold.Chemscore.Hbond.Weighted>
-9.8895

> <Gold.Chemscore.Metal.Weighted>
-0.0000

> <Gold.Chemscore.Lipo.Weighted>
-9.9031

> <Gold.Chemscore.Internal_Hbond.Weighted>
0.0000

> <Gold.Chemscore.DEClash.Weighted>
0.0021

> <Gold.Chemscore.DEInternal.Weighted>
0.6305

> <Gold.Chemscore.Rot.Weighted>
7.6216

> <Gold.Chemscore.Internal.Correction.Weighted>
   9.000000E+99

> <Gold.Protein.RotatedTorsions>
[ 6907 6896 6895 6894 ] final  100.35 input  -60.11 | X-H torsion
[ 7974 7965 7964 7962 ] final   90.49 input  175.53 | X-H torsion
[ 8008 7997 7996 7995 ] final  -41.28 input   59.86 | X-H torsion
[ 10167 10162 10161 10158 ] final  145.78 input  -65.29 | X-H torsion
[ 10718 10713 10712 10709 ] final  -51.98 input   66.30 | X-H torsion
[ 10763 10752 10751 10750 ] final  109.82 input  -60.55 | X-H torsion
[ 11005 11000 10999 10996 ] final   50.74 input  -57.11 | X-H torsion

> <Gold.Protein.ActiveResidues>
 VAL166  LYS551  ARG553  GLY616  TRP617  ASP618  TYR619  PRO620  LYS621  CYS622 
 ASP623  PHE694  ASN695  SER759  ASP760  ASP761  ALA762  ILE779  LEU786  VAL792 
 PHE793  MET794  SER795  GLU796  ALA797  LYS798  CYS799  TRP800  GLU811  SER814 

> <Gold.Protein.RotatedAtoms>
  152.5374  134.0290  159.8015 H   0  0  0  0  0  0  0  0  0  0  0  0  # atno 6907 bound_to 6896
  151.0464  133.5654  159.2653 H   0  0  0  0  0  0  0  0  0  0  0  0  # atno 6908 bound_to 6896
  151.2604  135.0660  159.9150 H   0  0  0  0  0  0  0  0  0  0  0  0  # atno 6909 bound_to 6896
  145.5183  139.2278  143.2686 H   0  0  0  0  0  0  0  0  0  0  0  0  # atno 7974 bound_to 7965
  154.4005  140.1503  156.3165 H   0  0  0  0  0  0  0  0  0  0  0  0  # atno 8008 bound_to 7997
  155.8568  140.3455  155.5708 H   0  0  0  0  0  0  0  0  0  0  0  0  # atno 8009 bound_to 7997
  155.7924  140.0858  157.1992 H   0  0  0  0  0  0  0  0  0  0  0  0  # atno 8010 bound_to 7997
  139.4919  144.5877  151.6745 H   0  0  0  0  0  0  0  0  0  0  0  0  # atno 10167 bound_to 10162
  156.1661  130.4149  149.9717 H   0  0  0  0  0  0  0  0  0  0  0  0  # atno 10718 bound_to 10713
  153.4402  135.3768  155.2223 H   0  0  0  0  0  0  0  0  0  0  0  0  # atno 10763 bound_to 10752
  154.8753  135.3861  154.4162 H   0  0  0  0  0  0  0  0  0  0  0  0  # atno 10764 bound_to 10752
  153.4706  135.7087  153.6059 H   0  0  0  0  0  0  0  0  0  0  0  0  # atno 10765 bound_to 10752
  140.0991  134.5105  155.8779 H   0  0  0  0  0  0  0  0  0  0  0  0  # atno 11005 bound_to 11000
  146.2122  140.5994  142.9054 LP  0  0  0  0  0  0  0  0  0  0  0  0  # atno 17320 bound_to 7965
  144.7690  140.5594  143.6683 LP  0  0  0  0  0  0  0  0  0  0  0  0  # atno 17321 bound_to 7965
  140.5497  144.0446  150.6121 LP  0  0  0  0  0  0  0  0  0  0  0  0  # atno 17342 bound_to 10162
  140.3496  143.2971  152.0501 LP  0  0  0  0  0  0  0  0  0  0  0  0  # atno 17343 bound_to 10162
  156.7532  130.9123  151.3638 LP  0  0  0  0  0  0  0  0  0  0  0  0  # atno 17370 bound_to 10713
  157.6769  130.9103  150.0172 LP  0  0  0  0  0  0  0  0  0  0  0  0  # atno 17371 bound_to 10713
  141.2100  133.6690  156.6482 LP  0  0  0  0  0  0  0  0  0  0  0  0  # atno 17394 bound_to 11000
  140.3245  134.7980  157.4278 LP  0  0  0  0  0  0  0  0  0  0  0  0  # atno 17395 bound_to 11000

$$$$
