AV-unprocessed.smi:3231|AV-procd|sdf|12337|dock1
  -GOLD-   2272018193D 1   1.00000     0.00000
 Structure written by MMmdl.
 40 41  0  0  0  0  0  0  0  0  1 V2000
  146.3939  137.5267  150.6758 O   0  0  0  0  0  0  0  0  0  0  0  0
  145.7495  137.4059  151.9272 C   0  0  2  0  0  0  0  0  0  0  0  0
  146.4133  138.4118  152.8823 C   0  0  0  0  0  0  0  0  0  0  0  0
  147.8545  138.4802  152.6637 N   0  0  0  0  0  0  0  0  0  0  0  0
  148.6153  138.7765  153.8744 C   0  0  0  0  0  0  0  0  0  0  0  0
  148.5634  140.2731  154.2208 C   0  0  0  0  0  0  0  0  0  0  0  0
  149.6747  140.6832  155.0602 N   0  0  0  0  0  0  0  0  0  0  0  0
  149.7245  141.7166  155.9720 C   0  0  0  0  0  0  0  0  0  0  0  0
  150.9740  141.7122  156.5228 C   0  0  0  0  0  0  0  0  0  0  0  0
  151.6249  140.6254  155.8750 C   0  0  0  0  0  0  0  0  0  0  0  0
  150.8452  140.0122  154.9991 N   0  0  0  0  0  0  0  0  0  0  0  0
  145.9081  135.9473  152.4118 C   0  0  0  0  0  0  0  0  0  0  0  0
  145.7544  134.9165  151.3838 N   0  0  0  0  0  0  0  0  0  0  0  0
  146.2682  133.6342  151.8540 C   0  0  0  0  0  0  0  0  0  0  0  0
  146.1229  132.5303  150.7925 C   0  0  0  0  0  0  0  0  0  0  0  0
  144.7560  132.4136  150.4122 O   0  0  0  0  0  0  0  0  0  0  0  0
  144.2238  133.6321  149.9033 C   0  0  0  0  0  0  0  0  0  0  0  0
  144.3663  134.7421  150.9595 C   0  0  0  0  0  0  0  0  0  0  0  0
  145.7707  137.8613  150.0493 H   0  0  0  0  0  0  0  0  0  0  0  0
  144.7024  137.6791  151.8014 H   0  0  0  0  0  0  0  0  0  0  0  0
  145.9643  139.3980  152.7575 H   0  0  0  0  0  0  0  0  0  0  0  0
  146.2209  138.1105  153.9130 H   0  0  0  0  0  0  0  0  0  0  0  0
  148.1804  137.6088  152.2577 H   0  0  0  0  0  0  0  0  0  0  0  0
  148.2362  138.1896  154.7120 H   0  0  0  0  0  0  0  0  0  0  0  0
  149.6554  138.4805  153.7345 H   0  0  0  0  0  0  0  0  0  0  0  0
  148.5888  140.8662  153.3057 H   0  0  0  0  0  0  0  0  0  0  0  0
  147.6285  140.5196  154.7260 H   0  0  0  0  0  0  0  0  0  0  0  0
  148.8755  142.3591  156.1522 H   0  0  0  0  0  0  0  0  0  0  0  0
  151.3636  142.3827  157.2744 H   0  0  0  0  0  0  0  0  0  0  0  0
  152.6340  140.2663  156.0142 H   0  0  0  0  0  0  0  0  0  0  0  0
  146.8924  135.8513  152.8726 H   0  0  0  0  0  0  0  0  0  0  0  0
  145.1920  135.7529  153.2116 H   0  0  0  0  0  0  0  0  0  0  0  0
  147.3197  133.7340  152.1253 H   0  0  0  0  0  0  0  0  0  0  0  0
  145.7398  133.3337  152.7603 H   0  0  0  0  0  0  0  0  0  0  0  0
  146.7343  132.7531  149.9167 H   0  0  0  0  0  0  0  0  0  0  0  0
  146.4654  131.5746  151.1890 H   0  0  0  0  0  0  0  0  0  0  0  0
  144.7420  133.9066  148.9833 H   0  0  0  0  0  0  0  0  0  0  0  0
  143.1745  133.4838  149.6480 H   0  0  0  0  0  0  0  0  0  0  0  0
  143.7425  134.5013  151.8218 H   0  0  0  0  0  0  0  0  0  0  0  0
  143.9759  135.6678  150.5395 H   0  0  0  0  0  0  0  0  0  0  0  0
  1  2  1  0  0  0  0
  1 19  1  0  0  0  0
  2  3  1  0  0  0  0
  2 12  1  0  0  0  0
  2 20  1  0  0  0  0
  3  4  1  0  0  0  0
  3 21  1  0  0  0  0
  3 22  1  0  0  0  0
  4  5  1  0  0  0  0
  4 23  1  0  0  0  0
  5  6  1  0  0  0  0
  5 24  1  0  0  0  0
  5 25  1  0  0  0  0
  6  7  1  0  0  0  0
  6 26  1  0  0  0  0
  6 27  1  0  0  0  0
  7 11  1  0  0  0  0
  7  8  1  0  0  0  0
  8  9  2  0  0  0  0
  8 28  1  0  0  0  0
  9 10  1  0  0  0  0
  9 29  1  0  0  0  0
 10 11  2  0  0  0  0
 10 30  1  0  0  0  0
 12 13  1  0  0  0  0
 12 31  1  0  0  0  0
 12 32  1  0  0  0  0
 13 18  1  0  0  0  0
 13 14  1  0  0  0  0
 14 15  1  0  0  0  0
 14 33  1  0  0  0  0
 14 34  1  0  0  0  0
 15 16  1  0  0  0  0
 15 35  1  0  0  0  0
 15 36  1  0  0  0  0
 16 17  1  0  0  0  0
 17 18  1  0  0  0  0
 17 37  1  0  0  0  0
 17 38  1  0  0  0  0
 18 39  1  0  0  0  0
 18 40  1  0  0  0  0
M  END
> <s_m_source_file>
AV-unprocessed.smi

> <i_m_source_file_index>
3231

> <i_lp_mmshare_version>
43012

> <i_f3d_flags>
0

> <s_epik_input>
W0NIMl0xW0NIMl1PW0NIMl1bQ0gyXU4xW0NIMl1bQ0BIXShbT0hdKVtDSDJdW05IXVtDSDJdW0NIMl1uMltjSF1bY0hdW2NIXW4y

> <s_epik_cmdline>
J2VwaWtfcHl0aG9uJywgJy1waCcsICc3LjAnLCAnLXRuJywgJzgnLCAnLW1hJywgJzIwMCcsICctbWV0YWxfYmluZGluZycsICctaW1hZScsICc8aW5maWxlLm1hZT4nLCAnLW9tYWUnLCAnPG91dGZpbGUubWFlPic=

> <r_lp_tautomer_probability>
1

> <r_epik_Ionization_Penalty>
2.37071

> <r_epik_Ionization_Penalty_Charging>
0

> <r_epik_Ionization_Penalty_Neutral>
2.37071

> <r_epik_State_Penalty>
1.72455

> <r_epik_Charging_Adjusted_Penalty>
1.72455

> <i_epik_Tot_Q>
0

> <i_epik_Tot_abs_Q>
0

> <r_epik_Metal_State_Penalty>
1.72366

> <b_epik_Metal_Only>
0

> <s_lp_Force_Field>
OPLS_2005

> <r_lp_Energy>
31.2728

> <b_lp_Chiralities_Consistent>
1

> <s_lp_Variant>
AV-unprocessed.smi:3231-7

> <Gold.Version>
5.8.1

> <Gold.Id.Protein>
6NUR|6NUR_protein|mol2

> <Gold.PLP.Fitness>
45.2055

> <Gold.PLP.PLP>
-33.5281

> <Gold.PLP.part.hbond>
-5.9853

> <Gold.PLP.part.metal>
0.0000

> <Gold.PLP.part.buried>
-1.8050

> <Gold.PLP.part.nonpolar>
-26.5128

> <Gold.PLP.part.repulsive>
0.3608

> <Gold.PLP.ligand.clash>
0.0000

> <Gold.PLP.ligand.torsion>
1.2568

> <Gold.PLP.Chemscore.Hbond>
3.7016

> <Gold.PLP.Chemscore.CHOScore>
0.8662

> <Gold.PLP.Chemscore.Metal>
0.0000

> <Gold.Chemscore.Hbonds>
donor molecule, donor type, donor heavy atom, donor atom, acceptor molecule, acceptor atom, score
      L1  H     1    19       P1 10171  0.91
      L1  H     4    23       P1  7948  1.00
      P1  H  7954  7966       L1     1  1.00
      P1  H  7989  7998       L1    11  0.70
      L1  C     8    28       P1  8028  0.87

> <Gold.PLP.Chemscore.Internal.Correction>
0.4875

> <Gold.Rescore>
     Score         DG    S(hbond)    S(metal)    S(lipo)     H(rot)  DE(clash)    DE(int)     intcor
     14.89     -15.99       2.55        0.00      76.48       2.72       0.11       0.99       ----

> <Gold.Chemscore.Fitness>
14.8933

> <Gold.Chemscore.DG>
-15.9892

> <Gold.Chemscore.ZeroCoef>
-5.4800

> <Gold.Chemscore.Hbond>
2.5509

> <Gold.Chemscore.Metal>
0.0000

> <Gold.Chemscore.Lipo>
76.4789

> <Gold.Chemscore.Internal_Hbond>
0.0000

> <Gold.Chemscore.DEClash>
0.1097

> <Gold.Chemscore.DEInternal>
0.9862

> <Gold.Chemscore.Rot>
2.7183

> <Gold.Chemscore.Internal.Correction>
   9.000000E+99

> <Gold.Chemscore.Hbonds>
donor molecule, donor type, donor heavy atom, donor atom, acceptor molecule, acceptor atom, score
      L1  H     1    19       P1 10171  0.84
      L1  H     4    23       P1  7948  0.99
      P1  H  7954  7966       L1     1  0.47
      P1  H  7989  7998       L1    11  0.02

> <Gold.Chemscore.Hbond.Weighted>
-8.5201

> <Gold.Chemscore.Metal.Weighted>
-0.0000

> <Gold.Chemscore.Lipo.Weighted>
-8.9480

> <Gold.Chemscore.Internal_Hbond.Weighted>
0.0000

> <Gold.Chemscore.DEClash.Weighted>
0.1097

> <Gold.Chemscore.DEInternal.Weighted>
0.9862

> <Gold.Chemscore.Rot.Weighted>
6.9589

> <Gold.Chemscore.Internal.Correction.Weighted>
   9.000000E+99

> <Gold.Protein.RotatedTorsions>
[ 6907 6896 6895 6894 ] final  163.46 input  -60.11 | X-H torsion
[ 7974 7965 7964 7962 ] final -138.55 input  175.53 | X-H torsion
[ 8008 7997 7996 7995 ] final   27.70 input   59.86 | X-H torsion
[ 10167 10162 10161 10158 ] final  -16.86 input  -65.29 | X-H torsion
[ 10718 10713 10712 10709 ] final   23.29 input   66.30 | X-H torsion
[ 10763 10752 10751 10750 ] final   70.74 input  -60.55 | X-H torsion
[ 11005 11000 10999 10996 ] final   64.77 input  -57.11 | X-H torsion

> <Gold.Protein.ActiveResidues>
 VAL166  LYS551  ARG553  GLY616  TRP617  ASP618  TYR619  PRO620  LYS621  CYS622 
 ASP623  PHE694  ASN695  SER759  ASP760  ASP761  ALA762  ILE779  LEU786  VAL792 
 PHE793  MET794  SER795  GLU796  ALA797  LYS798  CYS799  TRP800  GLU811  SER814 

> <Gold.Protein.RotatedAtoms>
  151.9248  133.3595  159.3909 H   0  0  0  0  0  0  0  0  0  0  0  0  # atno 6907 bound_to 6896
  150.7029  134.4598  159.5384 H   0  0  0  0  0  0  0  0  0  0  0  0  # atno 6908 bound_to 6896
  152.2228  134.8397  160.0534 H   0  0  0  0  0  0  0  0  0  0  0  0  # atno 6909 bound_to 6896
  144.8749  140.6423  143.5243 H   0  0  0  0  0  0  0  0  0  0  0  0  # atno 7974 bound_to 7965
  155.0471  140.3175  155.4704 H   0  0  0  0  0  0  0  0  0  0  0  0  # atno 8008 bound_to 7997
  156.2842  140.2152  156.5539 H   0  0  0  0  0  0  0  0  0  0  0  0  # atno 8009 bound_to 7997
  154.7241  140.0487  157.0655 H   0  0  0  0  0  0  0  0  0  0  0  0  # atno 8010 bound_to 7997
  140.7239  143.5073  150.9794 H   0  0  0  0  0  0  0  0  0  0  0  0  # atno 10167 bound_to 10162
  157.1641  130.6730  149.6054 H   0  0  0  0  0  0  0  0  0  0  0  0  # atno 10718 bound_to 10713
  153.0359  135.5162  154.7488 H   0  0  0  0  0  0  0  0  0  0  0  0  # atno 10763 bound_to 10752
  154.6465  135.2919  155.0042 H   0  0  0  0  0  0  0  0  0  0  0  0  # atno 10764 bound_to 10752
  154.0942  135.6646  153.4910 H   0  0  0  0  0  0  0  0  0  0  0  0  # atno 10765 bound_to 10752
  139.9937  134.6551  156.0047 H   0  0  0  0  0  0  0  0  0  0  0  0  # atno 11005 bound_to 11000
  145.4061  139.1588  143.4151 LP  0  0  0  0  0  0  0  0  0  0  0  0  # atno 17320 bound_to 7965
  146.2956  140.4161  142.8723 LP  0  0  0  0  0  0  0  0  0  0  0  0  # atno 17321 bound_to 7965
  139.8785  143.7102  152.3159 LP  0  0  0  0  0  0  0  0  0  0  0  0  # atno 17342 bound_to 10162
  139.7376  144.7567  151.0703 LP  0  0  0  0  0  0  0  0  0  0  0  0  # atno 17343 bound_to 10162
  155.9749  130.4701  150.6420 LP  0  0  0  0  0  0  0  0  0  0  0  0  # atno 17370 bound_to 10713
  157.4105  131.0823  151.1225 LP  0  0  0  0  0  0  0  0  0  0  0  0  # atno 17371 bound_to 10713
  141.1587  133.6540  156.4246 LP  0  0  0  0  0  0  0  0  0  0  0  0  # atno 17394 bound_to 11000
  140.4859  134.6621  157.5190 LP  0  0  0  0  0  0  0  0  0  0  0  0  # atno 17395 bound_to 11000

$$$$
