AV-unprocessed.smi:487|AV-procd|sdf|2699|dock3
  -GOLD-   2262023133D 1   1.00000     0.00000
 Structure written by MMmdl.
 41 42  0  0  0  0  0  0  0  0  1 V2000
  152.1551  140.1348  156.8229 O   0  0  0  0  0  0  0  0  0  0  0  0
  151.0929  140.6771  156.5202 C   0  0  0  0  0  0  0  0  0  0  0  0
  150.1784  140.0030  155.4828 C   0  0  0  0  0  0  0  0  0  0  0  0
  148.8550  140.6303  155.3305 N   0  0  0  0  0  0  0  0  0  0  0  0
  148.4774  141.1745  154.1111 C   0  0  0  0  0  0  0  0  0  0  0  0
  147.2844  141.7803  153.9022 C   0  0  0  0  0  0  0  0  0  0  0  0
  146.3128  141.8910  154.9847 C   0  0  0  0  0  0  0  0  0  0  0  0
  145.2079  142.4215  154.8947 O   0  0  0  0  0  0  0  0  0  0  0  0
  146.7299  141.3326  156.1961 N   0  0  0  0  0  0  0  0  0  0  0  0
  147.9579  140.7082  156.4186 C   0  0  0  0  0  0  0  0  0  0  0  0
  148.2298  140.2576  157.5306 O   0  0  0  0  0  0  0  0  0  0  0  0
  150.6925  141.8446  157.0536 N   0  0  0  0  0  0  0  0  0  0  0  0
  151.4145  142.6241  158.0574 C   0  0  0  0  0  0  0  0  0  0  0  0
  151.8473  141.6361  159.1713 C   0  0  0  0  0  0  0  0  0  0  0  0
  153.0705  142.0553  160.0056 C   0  0  0  0  0  0  0  0  0  0  0  0
  152.7829  142.7933  161.3288 C   0  0  0  0  0  0  0  0  0  0  0  0
  151.9151  144.0614  161.2484 C   0  0  0  0  0  0  0  0  0  0  0  0
  152.2572  144.9946  160.0730 C   0  0  0  0  0  0  0  0  0  0  0  0
  151.1740  145.0788  158.9836 C   0  0  0  0  0  0  0  0  0  0  0  0
  150.4910  143.7666  158.5441 C   0  0  0  0  0  0  0  0  0  0  0  0
  146.0903  141.3869  156.9754 H   0  0  0  0  0  0  0  0  0  0  0  0
  150.6996  140.0067  154.5242 H   0  0  0  0  0  0  0  0  0  0  0  0
  150.0740  138.9478  155.7421 H   0  0  0  0  0  0  0  0  0  0  0  0
  149.1685  141.1195  153.2819 H   0  0  0  0  0  0  0  0  0  0  0  0
  147.0486  142.1867  152.9291 H   0  0  0  0  0  0  0  0  0  0  0  0
  149.8058  142.2171  156.7461 H   0  0  0  0  0  0  0  0  0  0  0  0
  152.3042  143.0444  157.5853 H   0  0  0  0  0  0  0  0  0  0  0  0
  151.0078  141.3800  159.8187 H   0  0  0  0  0  0  0  0  0  0  0  0
  152.1262  140.6975  158.6888 H   0  0  0  0  0  0  0  0  0  0  0  0
  153.6127  141.1472  160.2723 H   0  0  0  0  0  0  0  0  0  0  0  0
  153.7728  142.6130  159.3865 H   0  0  0  0  0  0  0  0  0  0  0  0
  152.3202  142.1014  162.0334 H   0  0  0  0  0  0  0  0  0  0  0  0
  153.7425  143.0612  161.7723 H   0  0  0  0  0  0  0  0  0  0  0  0
  150.8604  143.7908  161.2403 H   0  0  0  0  0  0  0  0  0  0  0  0
  152.0445  144.6122  162.1808 H   0  0  0  0  0  0  0  0  0  0  0  0
  152.4134  146.0015  160.4619 H   0  0  0  0  0  0  0  0  0  0  0  0
  153.2141  144.7305  159.6258 H   0  0  0  0  0  0  0  0  0  0  0  0
  150.3914  145.7528  159.3342 H   0  0  0  0  0  0  0  0  0  0  0  0
  151.6038  145.5660  158.1077 H   0  0  0  0  0  0  0  0  0  0  0  0
  149.8165  144.0492  157.7341 H   0  0  0  0  0  0  0  0  0  0  0  0
  149.8258  143.3963  159.3238 H   0  0  0  0  0  0  0  0  0  0  0  0
  1  2  2  0  0  0  0
  2  3  1  0  0  0  0
  2 12  1  0  0  0  0
  3  4  1  0  0  0  0
  3 22  1  0  0  0  0
  3 23  1  0  0  0  0
  4 10  1  0  0  0  0
  4  5  1  0  0  0  0
  5  6  2  0  0  0  0
  5 24  1  0  0  0  0
  6  7  1  0  0  0  0
  6 25  1  0  0  0  0
  7  8  2  0  0  0  0
  7  9  1  0  0  0  0
  9 21  1  0  0  0  0
  9 10  1  0  0  0  0
 10 11  2  0  0  0  0
 12 13  1  0  0  0  0
 12 26  1  0  0  0  0
 13 20  1  0  0  0  0
 13 14  1  0  0  0  0
 13 27  1  0  0  0  0
 14 15  1  0  0  0  0
 14 28  1  0  0  0  0
 14 29  1  0  0  0  0
 15 16  1  0  0  0  0
 15 30  1  0  0  0  0
 15 31  1  0  0  0  0
 16 17  1  0  0  0  0
 16 32  1  0  0  0  0
 16 33  1  0  0  0  0
 17 18  1  0  0  0  0
 17 34  1  0  0  0  0
 17 35  1  0  0  0  0
 18 19  1  0  0  0  0
 18 36  1  0  0  0  0
 18 37  1  0  0  0  0
 19 20  1  0  0  0  0
 19 38  1  0  0  0  0
 19 39  1  0  0  0  0
 20 40  1  0  0  0  0
 20 41  1  0  0  0  0
M  END
> <s_m_source_file>
AV-unprocessed.smi

> <i_m_source_file_index>
487

> <i_lp_mmshare_version>
43012

> <i_f3d_flags>
0

> <s_epik_input>
Tz1jMVtuSF1jKD1PKVtjSF1bY0hdbjFbQ0gyXUMoPU8pW05IXVtDSF0yW0NIMl1bQ0gyXVtDSDJdW0NIMl1bQ0gyXVtDSDJdW0NIMl0y

> <s_epik_cmdline>
J2VwaWtfcHl0aG9uJywgJy1waCcsICc3LjAnLCAnLXRuJywgJzgnLCAnLW1hJywgJzIwMCcsICctbWV0YWxfYmluZGluZycsICctaW1hZScsICc8aW5maWxlLm1hZT4nLCAnLW9tYWUnLCAnPG91dGZpbGUubWFlPic=

> <r_lp_tautomer_probability>
0.999537

> <r_epik_Ionization_Penalty>
0.00321433

> <r_epik_Ionization_Penalty_Charging>
0.00321431

> <r_epik_Ionization_Penalty_Neutral>
2.02148e-08

> <r_epik_State_Penalty>
0.00226744

> <r_epik_Charging_Adjusted_Penalty>
0.00548175

> <i_epik_Tot_Q>
0

> <i_epik_Tot_abs_Q>
0

> <r_epik_Metal_State_Penalty>
0.364272

> <b_epik_Metal_Only>
0

> <s_lp_Force_Field>
OPLS_2005

> <r_lp_Energy>
21.4809

> <b_lp_Chiralities_Consistent>
1

> <s_lp_Variant>
AV-unprocessed.smi:487-1

> <Gold.Version>
5.8.1

> <Gold.Id.Protein>
6NUR|6NUR_protein|mol2

> <Gold.PLP.Fitness>
47.6241

> <Gold.PLP.PLP>
-41.9915

> <Gold.PLP.part.hbond>
-1.0000

> <Gold.PLP.part.metal>
0.0000

> <Gold.PLP.part.buried>
-4.2835

> <Gold.PLP.part.nonpolar>
-36.2865

> <Gold.PLP.part.repulsive>
0.2356

> <Gold.PLP.ligand.clash>
0.0000

> <Gold.PLP.ligand.torsion>
0.1747

> <Gold.PLP.Chemscore.Hbond>
0.9913

> <Gold.PLP.Chemscore.CHOScore>
1.0000

> <Gold.PLP.Chemscore.Metal>
0.0000

> <Gold.Chemscore.Hbonds>
donor molecule, donor type, donor heavy atom, donor atom, acceptor molecule, acceptor atom, score
      P1  H  7997  8009       L1     1  0.55
      L1  C     5    24       P1  7957  1.00

> <Gold.PLP.Chemscore.Internal.Correction>
0.0084

> <Gold.Rescore>
     Score         DG    S(hbond)    S(metal)    S(lipo)     H(rot)  DE(clash)    DE(int)     intcor
     15.09     -16.92       0.94        0.00     107.74       1.68       0.30       1.53       ----

> <Gold.Chemscore.Fitness>
15.0931

> <Gold.Chemscore.DG>
-16.9218

> <Gold.Chemscore.ZeroCoef>
-5.4800

> <Gold.Chemscore.Hbond>
0.9365

> <Gold.Chemscore.Metal>
0.0000

> <Gold.Chemscore.Lipo>
107.7386

> <Gold.Chemscore.Internal_Hbond>
0.0000

> <Gold.Chemscore.DEClash>
0.3036

> <Gold.Chemscore.DEInternal>
1.5251

> <Gold.Chemscore.Rot>
1.6763

> <Gold.Chemscore.Internal.Correction>
   9.000000E+99

> <Gold.Chemscore.Hbonds>
donor molecule, donor type, donor heavy atom, donor atom, acceptor molecule, acceptor atom, score
      P1  H  7997  8009       L1     1  0.53

> <Gold.Chemscore.Hbond.Weighted>
-3.1277

> <Gold.Chemscore.Metal.Weighted>
-0.0000

> <Gold.Chemscore.Lipo.Weighted>
-12.6054

> <Gold.Chemscore.Internal_Hbond.Weighted>
0.0000

> <Gold.Chemscore.DEClash.Weighted>
0.3036

> <Gold.Chemscore.DEInternal.Weighted>
1.5251

> <Gold.Chemscore.Rot.Weighted>
4.2914

> <Gold.Chemscore.Internal.Correction.Weighted>
   9.000000E+99

> <Gold.Protein.RotatedTorsions>
[ 6907 6896 6895 6894 ] final  135.25 input  -60.11 | X-H torsion
[ 7974 7965 7964 7962 ] final  -59.32 input  175.53 | X-H torsion
[ 8008 7997 7996 7995 ] final -168.16 input   59.86 | X-H torsion
[ 10167 10162 10161 10158 ] final   97.53 input  -65.29 | X-H torsion
[ 10718 10713 10712 10709 ] final  160.98 input   66.30 | X-H torsion
[ 10763 10752 10751 10750 ] final  -17.14 input  -60.55 | X-H torsion
[ 11005 11000 10999 10996 ] final -171.73 input  -57.11 | X-H torsion

> <Gold.Protein.ActiveResidues>
 VAL166  LYS551  ARG553  GLY616  TRP617  ASP618  TYR619  PRO620  LYS621  CYS622 
 ASP623  PHE694  ASN695  SER759  ASP760  ASP761  ALA762  ILE779  LEU786  VAL792 
 PHE793  MET794  SER795  GLU796  ALA797  LYS798  CYS799  TRP800  GLU811  SER814 

> <Gold.Protein.RotatedAtoms>
  152.3024  133.5669  159.5627 H   0  0  0  0  0  0  0  0  0  0  0  0  # atno 6907 bound_to 6896
  150.7284  134.0271  159.3730 H   0  0  0  0  0  0  0  0  0  0  0  0  # atno 6908 bound_to 6896
  151.8170  135.0664  160.0471 H   0  0  0  0  0  0  0  0  0  0  0  0  # atno 6909 bound_to 6896
  145.8288  140.8493  143.0094 H   0  0  0  0  0  0  0  0  0  0  0  0  # atno 7974 bound_to 7965
  155.8877  140.1019  157.1441 H   0  0  0  0  0  0  0  0  0  0  0  0  # atno 8008 bound_to 7997
  154.4011  140.1317  156.4340 H   0  0  0  0  0  0  0  0  0  0  0  0  # atno 8009 bound_to 7997
  155.7570  140.3464  155.5181 H   0  0  0  0  0  0  0  0  0  0  0  0  # atno 8010 bound_to 7997
  139.7792  144.6894  151.0046 H   0  0  0  0  0  0  0  0  0  0  0  0  # atno 10167 bound_to 10162
  157.1429  131.0545  151.2318 H   0  0  0  0  0  0  0  0  0  0  0  0  # atno 10718 bound_to 10713
  153.5693  135.7008  153.5512 H   0  0  0  0  0  0  0  0  0  0  0  0  # atno 10763 bound_to 10752
  153.3359  135.4034  155.1533 H   0  0  0  0  0  0  0  0  0  0  0  0  # atno 10764 bound_to 10752
  154.8636  135.3730  154.5215 H   0  0  0  0  0  0  0  0  0  0  0  0  # atno 10765 bound_to 10752
  140.5049  134.5858  157.5000 H   0  0  0  0  0  0  0  0  0  0  0  0  # atno 11005 bound_to 11000
  144.6741  140.0642  143.7475 LP  0  0  0  0  0  0  0  0  0  0  0  0  # atno 17320 bound_to 7965
  145.9594  139.2789  143.1165 LP  0  0  0  0  0  0  0  0  0  0  0  0  # atno 17321 bound_to 7965
  140.7817  143.4502  151.0424 LP  0  0  0  0  0  0  0  0  0  0  0  0  # atno 17342 bound_to 10162
  139.8183  143.7855  152.3175 LP  0  0  0  0  0  0  0  0  0  0  0  0  # atno 17343 bound_to 10162
  157.4290  130.7480  149.6975 LP  0  0  0  0  0  0  0  0  0  0  0  0  # atno 17370 bound_to 10713
  155.9785  130.4050  150.3645 LP  0  0  0  0  0  0  0  0  0  0  0  0  # atno 17371 bound_to 10713
  139.9692  134.7322  156.0076 LP  0  0  0  0  0  0  0  0  0  0  0  0  # atno 17394 bound_to 11000
  141.1416  133.6563  156.3746 LP  0  0  0  0  0  0  0  0  0  0  0  0  # atno 17395 bound_to 11000

$$$$
