AV-unprocessed.smi:2252|AV-procd|sdf|9112|dock9
  -GOLD-   2272012313D 1   1.00000     0.00000
 Structure written by MMmdl.
 44 46  0  0  0  0  0  0  0  0  3 V2000
  153.3700  141.2460  160.2313 C   0  0  0  0  0  0  0  0  0  0  0  0
  152.8295  142.4439  159.6169 N   0  0  0  0  0  0  0  0  0  0  0  0
  152.9215  143.7307  160.1310 C   0  0  0  0  0  0  0  0  0  0  0  0
  152.2854  144.5586  159.2387 C   0  0  0  0  0  0  0  0  0  0  0  0
  151.7992  143.8049  158.1765 N   0  0  0  0  0  0  0  0  0  0  0  0
  152.1491  142.5496  158.4554 C   0  0  0  0  0  0  0  0  0  0  0  0
  151.8340  141.3737  157.5693 C   0  0  0  0  0  0  0  0  0  0  0  0
  150.9669  141.7165  156.3367 C   0  0  0  0  0  0  0  0  0  0  0  0
  150.9819  140.6087  155.3836 N   0  5  0  0  0  0  0  0  0  0  0  0
  150.1080  139.5620  155.4188 C   0  0  0  0  0  0  0  0  0  0  0  0
  149.2915  139.2317  156.2846 O   0  0  0  0  0  0  0  0  0  0  0  0
  150.2083  138.6959  154.1481 C   0  0  1  0  0  0  0  0  0  0  0  0
  150.8594  137.3340  154.4865 C   0  0  0  0  0  0  0  0  0  0  0  0
  150.4918  136.5954  155.7560 C   0  0  0  0  0  0  0  0  0  0  0  0
  151.8644  137.1998  155.6105 C   0  0  0  0  0  0  0  0  0  0  0  0
  148.8889  138.5305  153.4736 N   0  3  0  0  0  0  0  0  0  0  0  0
  147.8272  137.9088  154.2937 C   0  0  0  0  0  0  0  0  0  0  0  0
  146.5325  138.2338  153.5580 C   0  0  0  0  0  0  0  0  0  0  0  0
  146.7787  139.6367  153.0076 C   0  0  0  0  0  0  0  0  0  0  0  0
  148.3053  139.7644  152.8949 C   0  0  0  0  0  0  0  0  0  0  0  0
  153.8193  141.4868  161.1948 H   0  0  0  0  0  0  0  0  0  0  0  0
  154.1333  140.8122  159.5852 H   0  0  0  0  0  0  0  0  0  0  0  0
  152.5737  140.5179  160.3872 H   0  0  0  0  0  0  0  0  0  0  0  0
  153.4202  143.9460  161.0645 H   0  0  0  0  0  0  0  0  0  0  0  0
  152.1420  145.6283  159.2779 H   0  0  0  0  0  0  0  0  0  0  0  0
  152.7810  140.9435  157.2406 H   0  0  0  0  0  0  0  0  0  0  0  0
  151.3492  140.5979  158.1627 H   0  0  0  0  0  0  0  0  0  0  0  0
  149.9491  141.9200  156.6703 H   0  0  0  0  0  0  0  0  0  0  0  0
  151.3177  142.6484  155.8915 H   0  0  0  0  0  0  0  0  0  0  0  0
  150.8641  139.2201  153.4504 H   0  0  0  0  0  0  0  0  0  0  0  0
  151.0269  136.6999  153.6173 H   0  0  0  0  0  0  0  0  0  0  0  0
  149.8007  137.0801  156.4432 H   0  0  0  0  0  0  0  0  0  0  0  0
  150.4074  135.5123  155.6974 H   0  0  0  0  0  0  0  0  0  0  0  0
  152.7001  136.5206  155.4559 H   0  0  0  0  0  0  0  0  0  0  0  0
  152.0857  138.0833  156.2058 H   0  0  0  0  0  0  0  0  0  0  0  0
  147.9731  136.8345  154.4117 H   0  0  0  0  0  0  0  0  0  0  0  0
  147.8139  138.3619  155.2864 H   0  0  0  0  0  0  0  0  0  0  0  0
  146.3928  137.5328  152.7340 H   0  0  0  0  0  0  0  0  0  0  0  0
  145.6535  138.1769  154.2007 H   0  0  0  0  0  0  0  0  0  0  0  0
  146.2773  139.7941  152.0519 H   0  0  0  0  0  0  0  0  0  0  0  0
  146.3978  140.3827  153.7064 H   0  0  0  0  0  0  0  0  0  0  0  0
  148.6334  140.6473  153.4445 H   0  0  0  0  0  0  0  0  0  0  0  0
  148.6283  139.8755  151.8594 H   0  0  0  0  0  0  0  0  0  0  0  0
  149.0458  137.8981  152.7013 H   0  0  0  0  0  0  0  0  0  0  0  0
  1  2  1  0  0  0  0
  1 21  1  0  0  0  0
  1 22  1  0  0  0  0
  1 23  1  0  0  0  0
  2  6  1  0  0  0  0
  2  3  1  0  0  0  0
  3  4  2  0  0  0  0
  3 24  1  0  0  0  0
  4  5  1  0  0  0  0
  4 25  1  0  0  0  0
  5  6  2  0  0  0  0
  6  7  1  0  0  0  0
  7  8  1  0  0  0  0
  7 26  1  0  0  0  0
  7 27  1  0  0  0  0
  8  9  1  0  0  0  0
  8 28  1  0  0  0  0
  8 29  1  0  0  0  0
  9 10  1  0  0  0  0
 10 11  2  0  0  0  0
 10 12  1  0  0  0  0
 12 13  1  0  0  0  0
 12 16  1  0  0  0  0
 12 30  1  0  0  0  0
 13 15  1  0  0  0  0
 13 14  1  0  0  0  0
 13 31  1  0  0  0  0
 14 15  1  0  0  0  0
 14 32  1  0  0  0  0
 14 33  1  0  0  0  0
 15 34  1  0  0  0  0
 15 35  1  0  0  0  0
 16 20  1  0  0  0  0
 16 17  1  0  0  0  0
 16 44  1  0  0  0  0
 17 18  1  0  0  0  0
 17 36  1  0  0  0  0
 17 37  1  0  0  0  0
 18 19  1  0  0  0  0
 18 38  1  0  0  0  0
 18 39  1  0  0  0  0
 19 20  1  0  0  0  0
 19 40  1  0  0  0  0
 19 41  1  0  0  0  0
 20 42  1  0  0  0  0
 20 43  1  0  0  0  0
M  CHG  1   9  -1
M  CHG  1  16   1
M  END
> <s_m_source_file>
AV-unprocessed.smi

> <i_m_source_file_index>
2252

> <i_lp_mmshare_version>
43012

> <i_f3d_flags>
0

> <s_epik_input>
W0NIM11uMVtjSF1bY0hdbmMxW0NIMl1bQ0gyXVtOSF1DKD1PKVtDQEhdKFtDSF0yW0NIMl1bQ0gyXTIpTjNbQ0gyXVtDSDJdW0NIMl1bQ0gyXTM=

> <s_epik_cmdline>
J2VwaWtfcHl0aG9uJywgJy1waCcsICc3LjAnLCAnLXRuJywgJzgnLCAnLW1hJywgJzIwMCcsICctbWV0YWxfYmluZGluZycsICctaW1hZScsICc8aW5maWxlLm1hZT4nLCAnLW9tYWUnLCAnPG91dGZpbGUubWFlPic=

> <r_lp_tautomer_probability>
1

> <r_epik_Ionization_Penalty>
7.86289

> <r_epik_Ionization_Penalty_Charging>
7.86289

> <r_epik_Ionization_Penalty_Neutral>
4.79398e-13

> <r_epik_State_Penalty>
7.18546

> <r_epik_Charging_Adjusted_Penalty>
15.0484

> <i_epik_Tot_Q>
0

> <i_epik_Tot_abs_Q>
2

> <r_epik_Metal_State_Penalty>
3.4294

> <b_epik_Metal_Only>
1

> <s_lp_Force_Field>
OPLS_2005

> <r_lp_Energy>
30.1163

> <b_lp_Chiralities_Consistent>
1

> <s_lp_Variant>
AV-unprocessed.smi:2252-10

> <Gold.Version>
5.8.1

> <Gold.Id.Protein>
6NUR|6NUR_protein|mol2

> <Gold.PLP.Fitness>
45.1529

> <Gold.PLP.PLP>
-37.5314

> <Gold.PLP.part.hbond>
-3.0000

> <Gold.PLP.part.metal>
0.0000

> <Gold.PLP.part.buried>
0.3822

> <Gold.PLP.part.nonpolar>
-34.5480

> <Gold.PLP.part.repulsive>
0.2580

> <Gold.PLP.ligand.clash>
0.0000

> <Gold.PLP.ligand.torsion>
0.9997

> <Gold.PLP.Chemscore.Hbond>
2.8160

> <Gold.PLP.Chemscore.CHOScore>
0.0000

> <Gold.PLP.Chemscore.Metal>
0.0000

> <Gold.Chemscore.Hbonds>
donor molecule, donor type, donor heavy atom, donor atom, acceptor molecule, acceptor atom, score
      L1  H    16    44       P1  7948  2.00
      P1  H  7989  7998       L1     9  0.90

> <Gold.PLP.Chemscore.Internal.Correction>
1.1729

> <Gold.Rescore>
     Score         DG    S(hbond)    S(metal)    S(lipo)     H(rot)  DE(clash)    DE(int)     intcor
     12.39     -17.94       1.74        0.00      97.93       1.88       2.13       3.42       ----

> <Gold.Chemscore.Fitness>
12.3925

> <Gold.Chemscore.DG>
-17.9351

> <Gold.Chemscore.ZeroCoef>
-5.4800

> <Gold.Chemscore.Hbond>
1.7407

> <Gold.Chemscore.Metal>
0.0000

> <Gold.Chemscore.Lipo>
97.9284

> <Gold.Chemscore.Internal_Hbond>
0.0000

> <Gold.Chemscore.DEClash>
2.1260

> <Gold.Chemscore.DEInternal>
3.4167

> <Gold.Chemscore.Rot>
1.8814

> <Gold.Chemscore.Internal.Correction>
   9.000000E+99

> <Gold.Chemscore.Hbonds>
donor molecule, donor type, donor heavy atom, donor atom, acceptor molecule, acceptor atom, score
      L1  H    16    44       P1  7948  0.97
      P1  H  7989  7998       L1     9  0.62

> <Gold.Chemscore.Hbond.Weighted>
-5.8138

> <Gold.Chemscore.Metal.Weighted>
-0.0000

> <Gold.Chemscore.Lipo.Weighted>
-11.4576

> <Gold.Chemscore.Internal_Hbond.Weighted>
0.0000

> <Gold.Chemscore.DEClash.Weighted>
2.1260

> <Gold.Chemscore.DEInternal.Weighted>
3.4167

> <Gold.Chemscore.Rot.Weighted>
4.8163

> <Gold.Chemscore.Internal.Correction.Weighted>
   9.000000E+99

> <Gold.Protein.RotatedTorsions>
[ 6907 6896 6895 6894 ] final  111.00 input  -60.11 | X-H torsion
[ 7974 7965 7964 7962 ] final  -63.29 input  175.53 | X-H torsion
[ 8008 7997 7996 7995 ] final  152.31 input   59.86 | X-H torsion
[ 10167 10162 10161 10158 ] final  135.19 input  -65.29 | X-H torsion
[ 10718 10713 10712 10709 ] final  -43.99 input   66.30 | X-H torsion
[ 10763 10752 10751 10750 ] final    1.18 input  -60.55 | X-H torsion
[ 11005 11000 10999 10996 ] final  -46.72 input  -57.11 | X-H torsion

> <Gold.Protein.ActiveResidues>
 VAL166  LYS551  ARG553  GLY616  TRP617  ASP618  TYR619  PRO620  LYS621  CYS622 
 ASP623  PHE694  ASN695  SER759  ASP760  ASP761  ALA762  ILE779  LEU786  VAL792 
 PHE793  MET794  SER795  GLU796  ALA797  LYS798  CYS799  TRP800  GLU811  SER814 

> <Gold.Protein.RotatedAtoms>
  152.4991  133.8720  159.7302 H   0  0  0  0  0  0  0  0  0  0  0  0  # atno 6907 bound_to 6896
  150.9204  133.6878  159.2840 H   0  0  0  0  0  0  0  0  0  0  0  0  # atno 6908 bound_to 6896
  151.4257  135.1008  159.9680 H   0  0  0  0  0  0  0  0  0  0  0  0  # atno 6909 bound_to 6896
  145.7809  140.8762  143.0331 H   0  0  0  0  0  0  0  0  0  0  0  0  # atno 7974 bound_to 7965
  156.2635  140.2024  156.6313 H   0  0  0  0  0  0  0  0  0  0  0  0  # atno 8008 bound_to 7997
  154.6681  140.0553  157.0160 H   0  0  0  0  0  0  0  0  0  0  0  0  # atno 8009 bound_to 7997
  155.1177  140.3221  155.4508 H   0  0  0  0  0  0  0  0  0  0  0  0  # atno 8010 bound_to 7997
  139.5227  144.6530  151.5247 H   0  0  0  0  0  0  0  0  0  0  0  0  # atno 10167 bound_to 10162
  156.2432  130.4181  149.8736 H   0  0  0  0  0  0  0  0  0  0  0  0  # atno 10718 bound_to 10713
  153.3113  135.6963  153.7113 H   0  0  0  0  0  0  0  0  0  0  0  0  # atno 10763 bound_to 10752
  153.5989  135.3466  155.2939 H   0  0  0  0  0  0  0  0  0  0  0  0  # atno 10764 bound_to 10752
  154.8576  135.4336  154.2252 H   0  0  0  0  0  0  0  0  0  0  0  0  # atno 10765 bound_to 10752
  141.0596  133.6713  156.3195 H   0  0  0  0  0  0  0  0  0  0  0  0  # atno 11005 bound_to 11000
  144.6796  139.9987  143.7484 LP  0  0  0  0  0  0  0  0  0  0  0  0  # atno 17320 bound_to 7965
  146.0075  139.3142  143.0890 LP  0  0  0  0  0  0  0  0  0  0  0  0  # atno 17321 bound_to 7965
  140.6343  143.9015  150.6633 LP  0  0  0  0  0  0  0  0  0  0  0  0  # atno 17342 bound_to 10162
  140.2329  143.3721  152.1550 LP  0  0  0  0  0  0  0  0  0  0  0  0  # atno 17343 bound_to 10162
  156.6311  130.8666  151.3495 LP  0  0  0  0  0  0  0  0  0  0  0  0  # atno 17370 bound_to 10713
  157.7184  130.9526  150.1342 LP  0  0  0  0  0  0  0  0  0  0  0  0  # atno 17371 bound_to 10713
  140.5894  134.5665  157.5496 LP  0  0  0  0  0  0  0  0  0  0  0  0  # atno 17394 bound_to 11000
  139.9421  134.7768  156.0653 LP  0  0  0  0  0  0  0  0  0  0  0  0  # atno 17395 bound_to 11000

$$$$
