AV-unprocessed.smi:1806|AV-procd|sdf|7299|dock1
  -GOLD-   22720 8553D 1   1.00000     0.00000
 Structure written by MMmdl.
 28 29  0  0  0  0  0  0  0  0  1 V2000
  153.2446  141.6124  160.4134 C   0  0  0  0  0  0  0  0  0  0  0  0
  152.6808  142.5332  159.3519 C   0  0  0  0  0  0  0  0  0  0  0  0
  153.0968  143.8760  159.2613 C   0  0  0  0  0  0  0  0  0  0  0  0
  152.5340  144.6775  158.2520 C   0  0  0  0  0  0  0  0  0  0  0  0
  151.5869  144.1066  157.3800 C   0  0  0  0  0  0  0  0  0  0  0  0
  151.2248  142.7500  157.5383 C   0  0  0  0  0  0  0  0  0  0  0  0
  150.2632  142.2721  156.6092 N   0  0  0  0  0  0  0  0  0  0  0  0
  150.1793  141.0545  156.0381 C   0  0  0  0  0  0  0  0  0  0  0  0
  150.9719  140.1362  156.2553 O   0  0  0  0  0  0  0  0  0  0  0  0
  149.0370  140.9685  155.1357 C   0  0  0  0  0  0  0  0  0  0  0  0
  148.8224  139.8282  154.4395 C   0  0  0  0  0  0  0  0  0  0  0  0
  147.7994  139.6655  153.5391 O   0  0  0  0  0  0  0  0  0  0  0  0
  147.1209  140.8658  153.1892 C   0  0  0  0  0  0  0  0  0  0  0  0
  146.9151  141.7446  154.4316 C   0  0  0  0  0  0  0  0  0  0  0  0
  148.1681  142.0341  155.0424 O   0  0  0  0  0  0  0  0  0  0  0  0
  151.7727  141.9857  158.5158 N   0  0  0  0  0  0  0  0  0  0  0  0
  153.8789  142.1574  161.1130 H   0  0  0  0  0  0  0  0  0  0  0  0
  153.8426  140.8258  159.9522 H   0  0  0  0  0  0  0  0  0  0  0  0
  152.4386  141.1445  160.9795 H   0  0  0  0  0  0  0  0  0  0  0  0
  153.8264  144.2840  159.9454 H   0  0  0  0  0  0  0  0  0  0  0  0
  152.8233  145.7128  158.1478 H   0  0  0  0  0  0  0  0  0  0  0  0
  151.1456  144.7083  156.5986 H   0  0  0  0  0  0  0  0  0  0  0  0
  149.5486  142.9336  156.3429 H   0  0  0  0  0  0  0  0  0  0  0  0
  149.4503  138.9498  154.4872 H   0  0  0  0  0  0  0  0  0  0  0  0
  147.7026  141.4003  152.4370 H   0  0  0  0  0  0  0  0  0  0  0  0
  146.1619  140.6150  152.7354 H   0  0  0  0  0  0  0  0  0  0  0  0
  146.4254  142.6800  154.1610 H   0  0  0  0  0  0  0  0  0  0  0  0
  146.2705  141.2410  155.1534 H   0  0  0  0  0  0  0  0  0  0  0  0
  1  2  1  0  0  0  0
  1 17  1  0  0  0  0
  1 18  1  0  0  0  0
  1 19  1  0  0  0  0
  2 16  1  0  0  0  0
  2  3  2  0  0  0  0
  3  4  1  0  0  0  0
  3 20  1  0  0  0  0
  4  5  2  0  0  0  0
  4 21  1  0  0  0  0
  5  6  1  0  0  0  0
  5 22  1  0  0  0  0
  6  7  1  0  0  0  0
  6 16  2  0  0  0  0
  7  8  1  0  0  0  0
  7 23  1  0  0  0  0
  8  9  2  0  0  0  0
  8 10  1  0  0  0  0
 10 15  1  0  0  0  0
 10 11  2  0  0  0  0
 11 12  1  0  0  0  0
 11 24  1  0  0  0  0
 12 13  1  0  0  0  0
 13 14  1  0  0  0  0
 13 25  1  0  0  0  0
 13 26  1  0  0  0  0
 14 15  1  0  0  0  0
 14 27  1  0  0  0  0
 14 28  1  0  0  0  0
M  END
> <s_m_source_file>
AV-unprocessed.smi

> <i_m_source_file_index>
1806

> <i_lp_mmshare_version>
43012

> <i_f3d_flags>
0

> <s_epik_input>
W0NIM11jMVtjSF1bY0hdW2NIXWMobjEpW05IXUMoPU8pQzI9W0NIXU9bQ0gyXVtDSDJdTzI=

> <s_epik_cmdline>
J2VwaWtfcHl0aG9uJywgJy1waCcsICc3LjAnLCAnLXRuJywgJzgnLCAnLW1hJywgJzIwMCcsICctbWV0YWxfYmluZGluZycsICctaW1hZScsICc8aW5maWxlLm1hZT4nLCAnLW9tYWUnLCAnPG91dGZpbGUubWFlPic=

> <r_lp_tautomer_probability>
1

> <r_epik_Ionization_Penalty>
0.000170398

> <r_epik_Ionization_Penalty_Charging>
0

> <r_epik_Ionization_Penalty_Neutral>
0.000170398

> <r_epik_State_Penalty>
-0

> <r_epik_Charging_Adjusted_Penalty>
0

> <i_epik_Tot_Q>
0

> <i_epik_Tot_abs_Q>
0

> <r_epik_Metal_State_Penalty>
0.0293809

> <b_epik_Metal_Only>
0

> <s_lp_Force_Field>
OPLS_2005

> <r_lp_Energy>
3.70878

> <b_lp_Chiralities_Consistent>
1

> <s_lp_Variant>
AV-unprocessed.smi:1806-1

> <Gold.Version>
5.8.1

> <Gold.Id.Protein>
6NUR|6NUR_protein|mol2

> <Gold.PLP.Fitness>
38.2684

> <Gold.PLP.PLP>
-35.7979

> <Gold.PLP.part.hbond>
-1.0000

> <Gold.PLP.part.metal>
0.0000

> <Gold.PLP.part.buried>
-5.9875

> <Gold.PLP.part.nonpolar>
-32.1016

> <Gold.PLP.part.repulsive>
3.2868

> <Gold.PLP.ligand.clash>
0.0000

> <Gold.PLP.ligand.torsion>
0.2654

> <Gold.PLP.Chemscore.Hbond>
1.0000

> <Gold.PLP.Chemscore.CHOScore>
0.0000

> <Gold.PLP.Chemscore.Metal>
0.0000

> <Gold.Chemscore.Hbonds>
donor molecule, donor type, donor heavy atom, donor atom, acceptor molecule, acceptor atom, score
      L1  H     7    23       P1  8028  1.00

> <Gold.PLP.Chemscore.Internal.Correction>
0.0013

> <Gold.Rescore>
     Score         DG    S(hbond)    S(metal)    S(lipo)     H(rot)  DE(clash)    DE(int)     intcor
     17.51     -19.15       0.92        0.00      90.52       0.00       0.47       1.18       ----

> <Gold.Chemscore.Fitness>
17.5062

> <Gold.Chemscore.DG>
-19.1529

> <Gold.Chemscore.ZeroCoef>
-5.4800

> <Gold.Chemscore.Hbond>
0.9227

> <Gold.Chemscore.Metal>
0.0000

> <Gold.Chemscore.Lipo>
90.5208

> <Gold.Chemscore.Internal_Hbond>
0.0000

> <Gold.Chemscore.DEClash>
0.4692

> <Gold.Chemscore.DEInternal>
1.1774

> <Gold.Chemscore.Rot>
0.0000

> <Gold.Chemscore.Internal.Correction>
   9.000000E+99

> <Gold.Chemscore.Hbonds>
donor molecule, donor type, donor heavy atom, donor atom, acceptor molecule, acceptor atom, score
      L1  H     7    23       P1  8028  0.91

> <Gold.Chemscore.Hbond.Weighted>
-3.0819

> <Gold.Chemscore.Metal.Weighted>
-0.0000

> <Gold.Chemscore.Lipo.Weighted>
-10.5909

> <Gold.Chemscore.Internal_Hbond.Weighted>
0.0000

> <Gold.Chemscore.DEClash.Weighted>
0.4692

> <Gold.Chemscore.DEInternal.Weighted>
1.1774

> <Gold.Chemscore.Rot.Weighted>
0.0000

> <Gold.Chemscore.Internal.Correction.Weighted>
   9.000000E+99

> <Gold.Protein.RotatedTorsions>
[ 6907 6896 6895 6894 ] final -152.62 input  -60.11 | X-H torsion
[ 7974 7965 7964 7962 ] final -144.73 input  175.53 | X-H torsion
[ 8008 7997 7996 7995 ] final -156.99 input   59.86 | X-H torsion
[ 10167 10162 10161 10158 ] final  -46.09 input  -65.29 | X-H torsion
[ 10718 10713 10712 10709 ] final   81.49 input   66.30 | X-H torsion
[ 10763 10752 10751 10750 ] final  -63.86 input  -60.55 | X-H torsion
[ 11005 11000 10999 10996 ] final -139.47 input  -57.11 | X-H torsion

> <Gold.Protein.ActiveResidues>
 VAL166  LYS551  ARG553  GLY616  TRP617  ASP618  TYR619  PRO620  LYS621  CYS622 
 ASP623  PHE694  ASN695  SER759  ASP760  ASP761  ALA762  ILE779  LEU786  VAL792 
 PHE793  MET794  SER795  GLU796  ALA797  LYS798  CYS799  TRP800  GLU811  SER814 

> <Gold.Protein.RotatedAtoms>
  151.2304  133.4453  159.2603 H   0  0  0  0  0  0  0  0  0  0  0  0  # atno 6907 bound_to 6896
  151.0800  134.9852  159.8361 H   0  0  0  0  0  0  0  0  0  0  0  0  # atno 6908 bound_to 6896
  152.5423  134.2244  159.8853 H   0  0  0  0  0  0  0  0  0  0  0  0  # atno 6909 bound_to 6896
  144.8277  140.5673  143.5536 H   0  0  0  0  0  0  0  0  0  0  0  0  # atno 7974 bound_to 7965
  155.7257  140.0795  157.2311 H   0  0  0  0  0  0  0  0  0  0  0  0  # atno 8008 bound_to 7997
  154.4039  140.1604  156.2506 H   0  0  0  0  0  0  0  0  0  0  0  0  # atno 8009 bound_to 7997
  155.9156  140.3401  155.6135 H   0  0  0  0  0  0  0  0  0  0  0  0  # atno 8010 bound_to 7997
  140.6832  143.2848  151.3732 H   0  0  0  0  0  0  0  0  0  0  0  0  # atno 10167 bound_to 10162
  157.6834  131.0006  150.2235 H   0  0  0  0  0  0  0  0  0  0  0  0  # atno 10718 bound_to 10713
  154.3214  135.6195  153.5509 H   0  0  0  0  0  0  0  0  0  0  0  0  # atno 10763 bound_to 10752
  152.9819  135.5725  154.5065 H   0  0  0  0  0  0  0  0  0  0  0  0  # atno 10764 bound_to 10752
  154.4734  135.2860  155.1602 H   0  0  0  0  0  0  0  0  0  0  0  0  # atno 10765 bound_to 10752
  140.8517  134.2278  157.4757 H   0  0  0  0  0  0  0  0  0  0  0  0  # atno 11005 bound_to 11000
  145.4965  139.1485  143.3681 LP  0  0  0  0  0  0  0  0  0  0  0  0  # atno 17320 bound_to 7965
  146.2581  140.5104  142.8865 LP  0  0  0  0  0  0  0  0  0  0  0  0  # atno 17321 bound_to 7965
  139.6169  144.0984  152.2354 LP  0  0  0  0  0  0  0  0  0  0  0  0  # atno 17342 bound_to 10162
  140.0416  144.6003  150.7406 LP  0  0  0  0  0  0  0  0  0  0  0  0  # atno 17343 bound_to 10162
  156.2881  130.3742  149.7868 LP  0  0  0  0  0  0  0  0  0  0  0  0  # atno 17370 bound_to 10713
  156.5536  130.8352  151.3307 LP  0  0  0  0  0  0  0  0  0  0  0  0  # atno 17371 bound_to 10713
  139.8704  134.9686  156.4638 LP  0  0  0  0  0  0  0  0  0  0  0  0  # atno 17394 bound_to 11000
  140.8783  133.7937  155.9438 LP  0  0  0  0  0  0  0  0  0  0  0  0  # atno 17395 bound_to 11000

$$$$
