AV-unprocessed.smi:1507|AV-procd|sdf|6081|dock2
  -GOLD-   22720 6203D 1   1.00000     0.00000
 Structure written by MMmdl.
 33 34  0  0  0  0  0  0  0  0  2 V2000
  149.7562  134.7664  154.3863 N   0  0  0  0  0  0  0  0  0  0  0  0
  150.4089  135.7498  155.6431 S   0  0  0  0  0  0  0  0  0  0  0  0
  149.2803  136.5661  156.1152 O   0  0  0  0  0  0  0  0  0  0  0  0
  151.0449  134.8269  156.5988 O   0  0  0  0  0  0  0  0  0  0  0  0
  151.4475  136.6098  154.7316 N   0  5  0  0  0  0  0  0  0  0  0  0
  151.1058  137.9343  154.2294 C   0  0  0  0  0  0  0  0  0  0  0  0
  151.3728  139.0117  155.2701 C   0  0  0  0  0  0  0  0  0  0  0  0
  150.6523  140.2257  155.2654 C   0  0  0  0  0  0  0  0  0  0  0  0
  150.9376  141.1938  156.2483 C   0  0  0  0  0  0  0  0  0  0  0  0
  151.9377  140.9263  157.2126 C   0  0  0  0  0  0  0  0  0  0  0  0
  152.2420  141.8856  158.2022 N   0  0  0  0  0  0  0  0  0  0  0  0
  152.3966  141.4258  159.5807 C   0  0  0  0  0  0  0  0  0  0  0  0
  153.0178  142.5349  160.4462 C   0  0  0  0  0  0  0  0  0  0  0  0
  152.2319  143.7179  160.3455 O   0  0  0  0  0  0  0  0  0  0  0  0
  152.1824  144.2099  159.0102 C   0  0  0  0  0  0  0  0  0  0  0  0
  151.5364  143.1593  158.0903 C   0  0  0  0  0  0  0  0  0  0  0  0
  152.6313  139.7614  157.2122 N   0  0  0  0  0  0  0  0  0  0  0  0
  152.3552  138.8344  156.2693 C   0  0  0  0  0  0  0  0  0  0  0  0
  150.3624  133.9795  154.1577 H   0  0  0  0  0  0  0  0  0  0  0  0
  149.4691  135.3150  153.5765 H   0  0  0  0  0  0  0  0  0  0  0  0
  151.6719  138.1826  153.3308 H   0  0  0  0  0  0  0  0  0  0  0  0
  150.0566  137.9988  153.9387 H   0  0  0  0  0  0  0  0  0  0  0  0
  149.8927  140.4317  154.5236 H   0  0  0  0  0  0  0  0  0  0  0  0
  150.4017  142.1309  156.2386 H   0  0  0  0  0  0  0  0  0  0  0  0
  151.4214  141.1421  159.9793 H   0  0  0  0  0  0  0  0  0  0  0  0
  153.0339  140.5413  159.6150 H   0  0  0  0  0  0  0  0  0  0  0  0
  153.0556  142.2203  161.4892 H   0  0  0  0  0  0  0  0  0  0  0  0
  154.0443  142.7390  160.1376 H   0  0  0  0  0  0  0  0  0  0  0  0
  151.6005  145.1314  158.9936 H   0  0  0  0  0  0  0  0  0  0  0  0
  153.1869  144.4621  158.6663 H   0  0  0  0  0  0  0  0  0  0  0  0
  151.5366  143.5339  157.0677 H   0  0  0  0  0  0  0  0  0  0  0  0
  150.4934  143.0083  158.3718 H   0  0  0  0  0  0  0  0  0  0  0  0
  152.9464  137.9305  156.3285 H   0  0  0  0  0  0  0  0  0  0  0  0
  1  2  1  0  0  0  0
  1 19  1  0  0  0  0
  1 20  1  0  0  0  0
  2  3  2  0  0  0  0
  2  4  2  0  0  0  0
  2  5  1  0  0  0  0
  5  6  1  0  0  0  0
  6  7  1  0  0  0  0
  6 21  1  0  0  0  0
  6 22  1  0  0  0  0
  7 18  1  0  0  0  0
  7  8  2  0  0  0  0
  8  9  1  0  0  0  0
  8 23  1  0  0  0  0
  9 10  2  0  0  0  0
  9 24  1  0  0  0  0
 10 11  1  0  0  0  0
 10 17  1  0  0  0  0
 11 16  1  0  0  0  0
 11 12  1  0  0  0  0
 12 13  1  0  0  0  0
 12 25  1  0  0  0  0
 12 26  1  0  0  0  0
 13 14  1  0  0  0  0
 13 27  1  0  0  0  0
 13 28  1  0  0  0  0
 14 15  1  0  0  0  0
 15 16  1  0  0  0  0
 15 29  1  0  0  0  0
 15 30  1  0  0  0  0
 16 31  1  0  0  0  0
 16 32  1  0  0  0  0
 17 18  2  0  0  0  0
 18 33  1  0  0  0  0
M  CHG  1   5  -1
M  END
> <s_m_source_file>
AV-unprocessed.smi

> <i_m_source_file_index>
1507

> <i_lp_mmshare_version>
43012

> <i_f3d_flags>
0

> <s_epik_input>
W05IMl1TKD1PKSg9TylbTkhdW0NIMl1jMVtjSF1bY0hdYyhuW2NIXTEpTjJbQ0gyXVtDSDJdT1tDSDJdW0NIMl0y

> <s_epik_cmdline>
J2VwaWtfcHl0aG9uJywgJy1waCcsICc3LjAnLCAnLXRuJywgJzgnLCAnLW1hJywgJzIwMCcsICctbWV0YWxfYmluZGluZycsICctaW1hZScsICc8aW5maWxlLm1hZT4nLCAnLW9tYWUnLCAnPG91dGZpbGUubWFlPic=

> <r_lp_tautomer_probability>
1

> <r_epik_Ionization_Penalty>
0.860968

> <r_epik_Ionization_Penalty_Charging>
0.789613

> <r_epik_Ionization_Penalty_Neutral>
0.071355

> <r_epik_State_Penalty>
0.836007

> <r_epik_Charging_Adjusted_Penalty>
1.62562

> <i_epik_Tot_Q>
-1

> <i_epik_Tot_abs_Q>
1

> <r_epik_Metal_State_Penalty>
0.647115

> <b_epik_Metal_Only>
0

> <s_lp_Force_Field>
OPLS_2005

> <r_lp_Energy>
17.6247

> <b_lp_Chiralities_Consistent>
1

> <s_lp_Variant>
AV-unprocessed.smi:1507-2

> <Gold.Version>
5.8.1

> <Gold.Id.Protein>
6NUR|6NUR_protein|mol2

> <Gold.PLP.Fitness>
44.9025

> <Gold.PLP.PLP>
-34.0164

> <Gold.PLP.part.hbond>
-3.0000

> <Gold.PLP.part.metal>
0.0000

> <Gold.PLP.part.buried>
-4.2821

> <Gold.PLP.part.nonpolar>
-27.0242

> <Gold.PLP.part.repulsive>
0.2472

> <Gold.PLP.ligand.clash>
0.0000

> <Gold.PLP.ligand.torsion>
1.2114

> <Gold.PLP.Chemscore.Hbond>
4.0000

> <Gold.PLP.Chemscore.CHOScore>
0.0000

> <Gold.PLP.Chemscore.Metal>
0.0000

> <Gold.Chemscore.Hbonds>
donor molecule, donor type, donor heavy atom, donor atom, acceptor molecule, acceptor atom, score
      L1  H     1    20       P1  7948  0.80
      P1  H  7997  8009       L1    17  0.90
      P1  H 10752 10765       L1     5  2.00

> <Gold.PLP.Chemscore.Internal.Correction>
1.3089

> <Gold.Rescore>
     Score         DG    S(hbond)    S(metal)    S(lipo)     H(rot)  DE(clash)    DE(int)     intcor
     15.61     -17.26       2.11        0.00      81.66       1.88       0.45       1.19       ----

> <Gold.Chemscore.Fitness>
15.6136

> <Gold.Chemscore.DG>
-17.2582

> <Gold.Chemscore.ZeroCoef>
-5.4800

> <Gold.Chemscore.Hbond>
2.1079

> <Gold.Chemscore.Metal>
0.0000

> <Gold.Chemscore.Lipo>
81.6619

> <Gold.Chemscore.Internal_Hbond>
0.0000

> <Gold.Chemscore.DEClash>
0.4529

> <Gold.Chemscore.DEInternal>
1.1917

> <Gold.Chemscore.Rot>
1.8814

> <Gold.Chemscore.Internal.Correction>
   9.000000E+99

> <Gold.Chemscore.Hbonds>
donor molecule, donor type, donor heavy atom, donor atom, acceptor molecule, acceptor atom, score
      L1  H     1    20       P1  7948  0.12
      P1  H  7997  8009       L1    17  0.13
      P1  H 10752 10765       L1     5  0.74

> <Gold.Chemscore.Hbond.Weighted>
-7.0402

> <Gold.Chemscore.Metal.Weighted>
-0.0000

> <Gold.Chemscore.Lipo.Weighted>
-9.5544

> <Gold.Chemscore.Internal_Hbond.Weighted>
0.0000

> <Gold.Chemscore.DEClash.Weighted>
0.4529

> <Gold.Chemscore.DEInternal.Weighted>
1.1917

> <Gold.Chemscore.Rot.Weighted>
4.8165

> <Gold.Chemscore.Internal.Correction.Weighted>
   9.000000E+99

> <Gold.Protein.RotatedTorsions>
[ 6907 6896 6895 6894 ] final -144.80 input  -60.11 | X-H torsion
[ 7974 7965 7964 7962 ] final   58.77 input  175.53 | X-H torsion
[ 8008 7997 7996 7995 ] final  173.26 input   59.86 | X-H torsion
[ 10167 10162 10161 10158 ] final  -23.73 input  -65.29 | X-H torsion
[ 10718 10713 10712 10709 ] final  -91.46 input   66.30 | X-H torsion
[ 10763 10752 10751 10750 ] final  167.53 input  -60.55 | X-H torsion
[ 11005 11000 10999 10996 ] final   39.85 input  -57.11 | X-H torsion

> <Gold.Protein.ActiveResidues>
 VAL166  LYS551  ARG553  GLY616  TRP617  ASP618  TYR619  PRO620  LYS621  CYS622 
 ASP623  PHE694  ASN695  SER759  ASP760  ASP761  ALA762  ILE779  LEU786  VAL792 
 PHE793  MET794  SER795  GLU796  ALA797  LYS798  CYS799  TRP800  GLU811  SER814 

> <Gold.Protein.RotatedAtoms>
  151.1190  133.5118  159.2602 H   0  0  0  0  0  0  0  0  0  0  0  0  # atno 6907 bound_to 6896
  151.1883  135.0391  159.8831 H   0  0  0  0  0  0  0  0  0  0  0  0  # atno 6908 bound_to 6896
  152.5454  134.1033  159.8380 H   0  0  0  0  0  0  0  0  0  0  0  0  # atno 6909 bound_to 6896
  145.9145  139.3680  143.0516 H   0  0  0  0  0  0  0  0  0  0  0  0  # atno 7974 bound_to 7965
  156.1093  140.1464  156.9361 H   0  0  0  0  0  0  0  0  0  0  0  0  # atno 8008 bound_to 7997
  154.4756  140.0895  156.7296 H   0  0  0  0  0  0  0  0  0  0  0  0  # atno 8009 bound_to 7997
  155.4624  140.3439  155.4317 H   0  0  0  0  0  0  0  0  0  0  0  0  # atno 8010 bound_to 7997
  140.7288  143.4417  151.0647 H   0  0  0  0  0  0  0  0  0  0  0  0  # atno 10167 bound_to 10162
  155.9994  130.4949  150.5477 H   0  0  0  0  0  0  0  0  0  0  0  0  # atno 10718 bound_to 10713
  154.3553  135.2753  155.2350 H   0  0  0  0  0  0  0  0  0  0  0  0  # atno 10763 bound_to 10752
  154.4562  135.5918  153.6228 H   0  0  0  0  0  0  0  0  0  0  0  0  # atno 10764 bound_to 10752
  152.9847  135.6054  154.3767 H   0  0  0  0  0  0  0  0  0  0  0  0  # atno 10765 bound_to 10752
  140.1987  134.3897  155.8107 H   0  0  0  0  0  0  0  0  0  0  0  0  # atno 11005 bound_to 11000
  145.8629  140.9464  143.0690 LP  0  0  0  0  0  0  0  0  0  0  0  0  # atno 17320 bound_to 7965
  144.6746  140.0554  143.7477 LP  0  0  0  0  0  0  0  0  0  0  0  0  # atno 17321 bound_to 7965
  139.8084  143.7985  152.3169 LP  0  0  0  0  0  0  0  0  0  0  0  0  # atno 17342 bound_to 10162
  139.8026  144.7368  150.9804 LP  0  0  0  0  0  0  0  0  0  0  0  0  # atno 17343 bound_to 10162
  157.3405  131.0716  151.1792 LP  0  0  0  0  0  0  0  0  0  0  0  0  # atno 17370 bound_to 10713
  157.2642  130.6673  149.5989 LP  0  0  0  0  0  0  0  0  0  0  0  0  # atno 17371 bound_to 10713
  141.2227  133.7083  156.8221 LP  0  0  0  0  0  0  0  0  0  0  0  0  # atno 17394 bound_to 11000
  140.2078  134.8850  157.3241 LP  0  0  0  0  0  0  0  0  0  0  0  0  # atno 17395 bound_to 11000

$$$$
