AV-unprocessed.smi:3204|AV-procd|sdf|12253|dock3
  -GOLD-   2272018 83D 1   1.00000     0.00000
 Structure written by MMmdl.
 30 31  0  0  0  0  0  0  0  0  1 V2000
  153.2106  142.0731  159.4053 C   0  0  0  0  0  0  0  0  0  0  0  0
  152.7115  140.6613  159.0774 C   0  0  0  0  0  0  0  0  0  0  0  0
  152.1259  140.5683  157.6806 C   0  0  0  0  0  0  0  0  0  0  0  0
  152.6674  139.6446  156.8551 N   0  0  0  0  0  0  0  0  0  0  0  0
  152.1444  139.5526  155.6303 C   0  0  0  0  0  0  0  0  0  0  0  0
  151.1374  140.2769  155.1353 N   0  0  0  0  0  0  0  0  0  0  0  0
  150.5809  141.2041  155.9514 C   0  0  0  0  0  0  0  0  0  0  0  0
  149.5140  141.9861  155.4862 N   0  0  0  0  0  0  0  0  0  0  0  0
  148.1963  141.4124  155.2363 C   0  0  1  0  0  0  0  0  0  0  0  0
  147.1295  142.0747  156.1095 C   0  0  0  0  0  0  0  0  0  0  0  0
  145.9415  141.9299  155.3532 O   0  0  0  0  0  0  0  0  0  0  0  0
  146.2717  142.2233  154.0045 C   0  0  0  0  0  0  0  0  0  0  0  0
  147.6857  141.6596  153.8128 C   0  0  2  0  0  0  0  0  0  0  0  0
  147.6113  140.4433  153.0970 O   0  0  0  0  0  0  0  0  0  0  0  0
  151.0547  141.3906  157.2679 C   0  0  0  0  0  0  0  0  0  0  0  0
  150.5026  142.3102  158.0968 F   0  0  0  0  0  0  0  0  0  0  0  0
  153.6240  142.1145  160.4132 H   0  0  0  0  0  0  0  0  0  0  0  0
  152.4013  142.8016  159.3472 H   0  0  0  0  0  0  0  0  0  0  0  0
  153.9924  142.3835  158.7115 H   0  0  0  0  0  0  0  0  0  0  0  0
  153.5284  139.9462  159.1797 H   0  0  0  0  0  0  0  0  0  0  0  0
  151.9529  140.3625  159.8018 H   0  0  0  0  0  0  0  0  0  0  0  0
  152.5800  138.8160  154.9718 H   0  0  0  0  0  0  0  0  0  0  0  0
  149.6679  142.9623  155.2783 H   0  0  0  0  0  0  0  0  0  0  0  0
  148.2048  140.3437  155.4578 H   0  0  0  0  0  0  0  0  0  0  0  0
  147.0425  141.6093  157.0916 H   0  0  0  0  0  0  0  0  0  0  0  0
  147.3290  143.1387  156.2516 H   0  0  0  0  0  0  0  0  0  0  0  0
  145.5357  141.8119  153.3125 H   0  0  0  0  0  0  0  0  0  0  0  0
  146.2787  143.3068  153.8768 H   0  0  0  0  0  0  0  0  0  0  0  0
  148.3055  142.3649  153.2573 H   0  0  0  0  0  0  0  0  0  0  0  0
  148.2996  140.4386  152.4490 H   0  0  0  0  0  0  0  0  0  0  0  0
  1  2  1  0  0  0  0
  1 17  1  0  0  0  0
  1 18  1  0  0  0  0
  1 19  1  0  0  0  0
  2  3  1  0  0  0  0
  2 20  1  0  0  0  0
  2 21  1  0  0  0  0
  3 15  1  0  0  0  0
  3  4  2  0  0  0  0
  4  5  1  0  0  0  0
  5  6  2  0  0  0  0
  5 22  1  0  0  0  0
  6  7  1  0  0  0  0
  7  8  1  0  0  0  0
  7 15  2  0  0  0  0
  8  9  1  0  0  0  0
  8 23  1  0  0  0  0
  9 13  1  0  0  0  0
  9 10  1  0  0  0  0
  9 24  1  0  0  0  0
 10 11  1  0  0  0  0
 10 25  1  0  0  0  0
 10 26  1  0  0  0  0
 11 12  1  0  0  0  0
 12 13  1  0  0  0  0
 12 27  1  0  0  0  0
 12 28  1  0  0  0  0
 13 14  1  0  0  0  0
 13 29  1  0  0  0  0
 14 30  1  0  0  0  0
 15 16  1  0  0  0  0
M  END
> <s_m_source_file>
AV-unprocessed.smi

> <i_m_source_file_index>
3204

> <i_lp_mmshare_version>
43012

> <i_f3d_flags>
0

> <s_epik_input>
W0NIM11bQ0gyXWMxbltjSF1uYyhjMUYpW05IXVtDQEBIXTJbQ0gyXU9bQ0gyXVtDQEhdMltPSF0=

> <s_epik_cmdline>
J2VwaWtfcHl0aG9uJywgJy1waCcsICc3LjAnLCAnLXRuJywgJzgnLCAnLW1hJywgJzIwMCcsICctbWV0YWxfYmluZGluZycsICctaW1hZScsICc8aW5maWxlLm1hZT4nLCAnLW9tYWUnLCAnPG91dGZpbGUubWFlPic=

> <r_lp_tautomer_probability>
1

> <r_epik_Ionization_Penalty>
0.000484964

> <r_epik_Ionization_Penalty_Charging>
0

> <r_epik_Ionization_Penalty_Neutral>
0.000484964

> <r_epik_State_Penalty>
-0

> <r_epik_Charging_Adjusted_Penalty>
0

> <i_epik_Tot_Q>
0

> <i_epik_Tot_abs_Q>
0

> <r_epik_Metal_State_Penalty>
-0

> <b_epik_Metal_Only>
0

> <s_lp_Force_Field>
OPLS_2005

> <r_lp_Energy>
13.9367

> <b_lp_Chiralities_Consistent>
1

> <s_lp_Variant>
AV-unprocessed.smi:3204-4

> <Gold.Version>
5.8.1

> <Gold.Id.Protein>
6NUR|6NUR_protein|mol2

> <Gold.PLP.Fitness>
43.3030

> <Gold.PLP.PLP>
-32.9671

> <Gold.PLP.part.hbond>
-4.0000

> <Gold.PLP.part.metal>
0.0000

> <Gold.PLP.part.buried>
-5.8924

> <Gold.PLP.part.nonpolar>
-23.7530

> <Gold.PLP.part.repulsive>
0.3286

> <Gold.PLP.ligand.clash>
0.0000

> <Gold.PLP.ligand.torsion>
0.6814

> <Gold.PLP.Chemscore.Hbond>
3.8960

> <Gold.PLP.Chemscore.CHOScore>
0.0000

> <Gold.PLP.Chemscore.Metal>
0.0000

> <Gold.Chemscore.Hbonds>
donor molecule, donor type, donor heavy atom, donor atom, acceptor molecule, acceptor atom, score
      L1  H     8    23       P1  8028  0.82
      L1  H    14    30       P1  7957  1.00
      P1  H  7989  7998       L1     6  1.00
      P1  H  7997  8008       L1     4  1.00

> <Gold.PLP.Chemscore.Internal.Correction>
0.0108

> <Gold.Rescore>
     Score         DG    S(hbond)    S(metal)    S(lipo)     H(rot)  DE(clash)    DE(int)     intcor
     16.77     -17.45       3.16        0.00      52.25       1.83       0.01       0.68       ----

> <Gold.Chemscore.Fitness>
16.7726

> <Gold.Chemscore.DG>
-17.4537

> <Gold.Chemscore.ZeroCoef>
-5.4800

> <Gold.Chemscore.Hbond>
3.1600

> <Gold.Chemscore.Metal>
0.0000

> <Gold.Chemscore.Lipo>
52.2526

> <Gold.Chemscore.Internal_Hbond>
0.0000

> <Gold.Chemscore.DEClash>
0.0050

> <Gold.Chemscore.DEInternal>
0.6760

> <Gold.Chemscore.Rot>
1.8337

> <Gold.Chemscore.Internal.Correction>
   9.000000E+99

> <Gold.Chemscore.Hbonds>
donor molecule, donor type, donor heavy atom, donor atom, acceptor molecule, acceptor atom, score
      L1  H     8    23       P1  8028  0.80
      L1  H    14    30       P1  7957  1.00
      P1  H  7989  7998       L1     6  0.58
      P1  H  7997  8008       L1     4  0.39

> <Gold.Chemscore.Hbond.Weighted>
-10.5543

> <Gold.Chemscore.Metal.Weighted>
-0.0000

> <Gold.Chemscore.Lipo.Weighted>
-6.1135

> <Gold.Chemscore.Internal_Hbond.Weighted>
0.0000

> <Gold.Chemscore.DEClash.Weighted>
0.0050

> <Gold.Chemscore.DEInternal.Weighted>
0.6760

> <Gold.Chemscore.Rot.Weighted>
4.6942

> <Gold.Chemscore.Internal.Correction.Weighted>
   9.000000E+99

> <Gold.Protein.RotatedTorsions>
[ 6907 6896 6895 6894 ] final   88.30 input  -60.11 | X-H torsion
[ 7974 7965 7964 7962 ] final -127.85 input  175.53 | X-H torsion
[ 8008 7997 7996 7995 ] final  -65.66 input   59.86 | X-H torsion
[ 10167 10162 10161 10158 ] final  105.43 input  -65.29 | X-H torsion
[ 10718 10713 10712 10709 ] final   18.74 input   66.30 | X-H torsion
[ 10763 10752 10751 10750 ] final    7.39 input  -60.55 | X-H torsion
[ 11005 11000 10999 10996 ] final  -47.06 input  -57.11 | X-H torsion

> <Gold.Protein.ActiveResidues>
 VAL166  LYS551  ARG553  GLY616  TRP617  ASP618  TYR619  PRO620  LYS621  CYS622 
 ASP623  PHE694  ASN695  SER759  ASP760  ASP761  ALA762  ILE779  LEU786  VAL792 
 PHE793  MET794  SER795  GLU796  ALA797  LYS798  CYS799  TRP800  GLU811  SER814 

> <Gold.Protein.RotatedAtoms>
  152.5423  134.2143  159.8762 H   0  0  0  0  0  0  0  0  0  0  0  0  # atno 6907 bound_to 6896
  151.2124  133.4542  159.2606 H   0  0  0  0  0  0  0  0  0  0  0  0  # atno 6908 bound_to 6896
  151.0884  134.9914  159.8446 H   0  0  0  0  0  0  0  0  0  0  0  0  # atno 6909 bound_to 6896
  144.9729  140.7564  143.4659 H   0  0  0  0  0  0  0  0  0  0  0  0  # atno 7974 bound_to 7965
  154.4685  140.0928  156.7084 H   0  0  0  0  0  0  0  0  0  0  0  0  # atno 8008 bound_to 7997
  155.4789  140.3467  155.4318 H   0  0  0  0  0  0  0  0  0  0  0  0  # atno 8009 bound_to 7997
  156.0999  140.1419  156.9470 H   0  0  0  0  0  0  0  0  0  0  0  0  # atno 8010 bound_to 7997
  139.7093  144.7080  151.1054 H   0  0  0  0  0  0  0  0  0  0  0  0  # atno 10167 bound_to 10162
  157.1007  130.6466  149.5871 H   0  0  0  0  0  0  0  0  0  0  0  0  # atno 10718 bound_to 10713
  153.2368  135.6899  153.7828 H   0  0  0  0  0  0  0  0  0  0  0  0  # atno 10763 bound_to 10752
  153.6972  135.3303  155.3217 H   0  0  0  0  0  0  0  0  0  0  0  0  # atno 10764 bound_to 10752
  154.8338  135.4559  154.1274 H   0  0  0  0  0  0  0  0  0  0  0  0  # atno 10765 bound_to 10752
  141.0617  133.6707  156.3243 H   0  0  0  0  0  0  0  0  0  0  0  0  # atno 11005 bound_to 11000
  145.2532  139.2023  143.4931 LP  0  0  0  0  0  0  0  0  0  0  0  0  # atno 17320 bound_to 7965
  146.3387  140.2449  142.8597 LP  0  0  0  0  0  0  0  0  0  0  0  0  # atno 17321 bound_to 7965
  140.7729  143.5315  150.9418 LP  0  0  0  0  0  0  0  0  0  0  0  0  # atno 17342 bound_to 10162
  139.8999  143.6848  152.3133 LP  0  0  0  0  0  0  0  0  0  0  0  0  # atno 17343 bound_to 10162
  155.9874  130.4914  150.7125 LP  0  0  0  0  0  0  0  0  0  0  0  0  # atno 17370 bound_to 10713
  157.4643  131.0886  151.0711 LP  0  0  0  0  0  0  0  0  0  0  0  0  # atno 17371 bound_to 10713
  140.5855  134.5703  157.5488 LP  0  0  0  0  0  0  0  0  0  0  0  0  # atno 17394 bound_to 11000
  139.9439  134.7737  156.0610 LP  0  0  0  0  0  0  0  0  0  0  0  0  # atno 17395 bound_to 11000

$$$$
