AV-unprocessed.smi:135|AV-procd|sdf|1169|dock9
  -GOLD-   2262018313D 1   1.00000     0.00000
 Structure written by MMmdl.
 51 54  0  0  0  0  0  0  0  0  1 V2000
  153.9881  138.4006  157.4023 O   0  0  0  0  0  0  0  0  0  0  0  0
  153.2843  137.7357  158.1637 C   0  0  0  0  0  0  0  0  0  0  0  0
  151.7699  137.9811  158.2430 C   0  0  0  0  0  0  0  0  0  0  0  0
  151.4034  139.4134  158.2044 N   0  0  0  0  0  0  0  0  0  0  0  0
  150.3937  139.8276  157.3012 C   0  0  0  0  0  0  0  0  0  0  0  0
  149.8235  139.0199  156.5664 O   0  0  0  0  0  0  0  0  0  0  0  0
  150.0945  141.2550  157.3032 C   0  0  0  0  0  0  0  0  0  0  0  0
  149.1537  141.7380  156.4742 F   0  0  0  0  0  0  0  0  0  0  0  0
  150.7497  142.1023  158.1233 C   0  0  0  0  0  0  0  0  0  0  0  0
  151.7302  141.6832  159.0057 N   0  0  0  0  0  0  0  0  0  0  0  0
  152.4800  142.6529  159.8973 C   0  0  2  0  0  0  0  0  0  0  0  0
  151.6364  143.0284  161.1329 C   0  0  0  0  0  0  0  0  0  0  0  0
  151.6159  144.5438  161.0834 C   0  0  0  0  0  0  0  0  0  0  0  0
  151.7685  144.8152  159.5948 C   0  0  0  0  0  0  0  0  0  0  0  0
  152.7278  143.8428  159.2038 O   0  0  0  0  0  0  0  0  0  0  0  0
  152.0913  140.3184  159.0471 C   0  0  0  0  0  0  0  0  0  0  0  0
  152.9883  139.9300  159.7985 O   0  0  0  0  0  0  0  0  0  0  0  0
  153.7487  136.7661  158.9702 N   0  0  0  0  0  0  0  0  0  0  0  0
  155.0832  136.2949  159.0869 C   0  0  0  0  0  0  0  0  0  0  0  0
  156.1591  136.9021  158.3961 C   0  0  0  0  0  0  0  0  0  0  0  0
  157.4735  136.4301  158.5727 C   0  0  0  0  0  0  0  0  0  0  0  0
  157.7263  135.3589  159.4492 C   0  0  0  0  0  0  0  0  0  0  0  0
  156.6631  134.7597  160.1500 C   0  0  0  0  0  0  0  0  0  0  0  0
  155.3421  135.2188  159.9698 C   0  0  0  0  0  0  0  0  0  0  0  0
  154.3265  134.6131  160.6672 O   0  0  0  0  0  0  0  0  0  0  0  0
  154.0127  135.1326  161.8985 C   0  0  0  0  0  0  0  0  0  0  0  0
  154.1033  134.3477  163.0694 C   0  0  0  0  0  0  0  0  0  0  0  0
  153.7733  134.9028  164.3212 C   0  0  0  0  0  0  0  0  0  0  0  0
  153.3565  136.2449  164.4094 C   0  0  0  0  0  0  0  0  0  0  0  0
  153.2750  137.0337  163.2458 C   0  0  0  0  0  0  0  0  0  0  0  0
  153.6059  136.4791  161.9944 C   0  0  0  0  0  0  0  0  0  0  0  0
  151.2771  137.4390  157.4337 H   0  0  0  0  0  0  0  0  0  0  0  0
  151.3950  137.4998  159.1474 H   0  0  0  0  0  0  0  0  0  0  0  0
  150.4835  143.1467  158.0686 H   0  0  0  0  0  0  0  0  0  0  0  0
  153.4243  142.1585  160.1323 H   0  0  0  0  0  0  0  0  0  0  0  0
  150.6246  142.6308  161.0399 H   0  0  0  0  0  0  0  0  0  0  0  0
  152.0877  142.6382  162.0453 H   0  0  0  0  0  0  0  0  0  0  0  0
  150.7072  144.9736  161.5054 H   0  0  0  0  0  0  0  0  0  0  0  0
  152.4715  144.9487  161.6257 H   0  0  0  0  0  0  0  0  0  0  0  0
  150.8264  144.6497  159.0702 H   0  0  0  0  0  0  0  0  0  0  0  0
  152.1109  145.8277  159.3816 H   0  0  0  0  0  0  0  0  0  0  0  0
  153.0524  136.2288  159.4660 H   0  0  0  0  0  0  0  0  0  0  0  0
  155.9944  137.7424  157.7385 H   0  0  0  0  0  0  0  0  0  0  0  0
  158.2898  136.8973  158.0418 H   0  0  0  0  0  0  0  0  0  0  0  0
  158.7356  135.0006  159.5882 H   0  0  0  0  0  0  0  0  0  0  0  0
  156.8600  133.9402  160.8254 H   0  0  0  0  0  0  0  0  0  0  0  0
  154.4234  133.3181  163.0111 H   0  0  0  0  0  0  0  0  0  0  0  0
  153.8396  134.2985  165.2139 H   0  0  0  0  0  0  0  0  0  0  0  0
  153.1013  136.6695  165.3691 H   0  0  0  0  0  0  0  0  0  0  0  0
  152.9562  138.0633  163.3126 H   0  0  0  0  0  0  0  0  0  0  0  0
  153.5390  137.0872  161.1043 H   0  0  0  0  0  0  0  0  0  0  0  0
  1  2  2  0  0  0  0
  2  3  1  0  0  0  0
  2 18  1  0  0  0  0
  3  4  1  0  0  0  0
  3 32  1  0  0  0  0
  3 33  1  0  0  0  0
  4 16  1  0  0  0  0
  4  5  1  0  0  0  0
  5  6  2  0  0  0  0
  5  7  1  0  0  0  0
  7  8  1  0  0  0  0
  7  9  2  0  0  0  0
  9 10  1  0  0  0  0
  9 34  1  0  0  0  0
 10 11  1  0  0  0  0
 10 16  1  0  0  0  0
 11 15  1  0  0  0  0
 11 12  1  0  0  0  0
 11 35  1  0  0  0  0
 12 13  1  0  0  0  0
 12 36  1  0  0  0  0
 12 37  1  0  0  0  0
 13 14  1  0  0  0  0
 13 38  1  0  0  0  0
 13 39  1  0  0  0  0
 14 15  1  0  0  0  0
 14 40  1  0  0  0  0
 14 41  1  0  0  0  0
 16 17  2  0  0  0  0
 18 19  1  0  0  0  0
 18 42  1  0  0  0  0
 19 24  1  0  0  0  0
 19 20  2  0  0  0  0
 20 21  1  0  0  0  0
 20 43  1  0  0  0  0
 21 22  2  0  0  0  0
 21 44  1  0  0  0  0
 22 23  1  0  0  0  0
 22 45  1  0  0  0  0
 23 24  2  0  0  0  0
 23 46  1  0  0  0  0
 24 25  1  0  0  0  0
 25 26  1  0  0  0  0
 26 31  1  0  0  0  0
 26 27  2  0  0  0  0
 27 28  1  0  0  0  0
 27 47  1  0  0  0  0
 28 29  2  0  0  0  0
 28 48  1  0  0  0  0
 29 30  1  0  0  0  0
 29 49  1  0  0  0  0
 30 31  2  0  0  0  0
 30 50  1  0  0  0  0
 31 51  1  0  0  0  0
M  END
> <s_m_source_file>
AV-unprocessed.smi

> <i_m_source_file_index>
135

> <i_lp_mmshare_version>
43012

> <i_f3d_flags>
0

> <s_epik_input>
TzFbQ0gyXVtDSDJdW0NIMl1bQ0BIXTFuKGMyPU8pW2NIXWMoRiljKD1PKW4yW0NIMl1DKD1PKVtOSF1jM1tjSF1bY0hdW2NIXVtjSF1jM09jNFtjSF1bY0hdW2NIXVtjSF1bY0hdNA==

> <s_epik_cmdline>
J2VwaWtfcHl0aG9uJywgJy1waCcsICc3LjAnLCAnLXRuJywgJzgnLCAnLW1hJywgJzIwMCcsICctbWV0YWxfYmluZGluZycsICctaW1hZScsICc8aW5maWxlLm1hZT4nLCAnLW9tYWUnLCAnPG91dGZpbGUubWFlPic=

> <r_lp_tautomer_probability>
1

> <r_epik_Ionization_Penalty>
1.89877e-06

> <r_epik_Ionization_Penalty_Charging>
3.88729e-08

> <r_epik_Ionization_Penalty_Neutral>
1.8599e-06

> <r_epik_State_Penalty>
-0

> <r_epik_Charging_Adjusted_Penalty>
3.88729e-08

> <i_epik_Tot_Q>
0

> <i_epik_Tot_abs_Q>
0

> <r_epik_Metal_State_Penalty>
-0

> <b_epik_Metal_Only>
0

> <s_epik_Chemistry_Notes>
This compound contains an acetal/aminal-like group ( X-CH(R)-Y where X, Y are N, S, or O) that may be acid/base labile, releasing an aldehyde.

> <s_lp_Force_Field>
OPLS_2005

> <r_lp_Energy>
40.0565

> <b_lp_Chiralities_Consistent>
1

> <s_lp_Variant>
AV-unprocessed.smi:135-1

> <Gold.Version>
5.8.1

> <Gold.Id.Protein>
6NUR|6NUR_protein|mol2

> <Gold.PLP.Fitness>
51.5939

> <Gold.PLP.PLP>
-48.8008

> <Gold.PLP.part.hbond>
-2.0000

> <Gold.PLP.part.metal>
0.0000

> <Gold.PLP.part.buried>
-8.4486

> <Gold.PLP.part.nonpolar>
-38.8000

> <Gold.PLP.part.repulsive>
0.1058

> <Gold.PLP.ligand.clash>
0.0000

> <Gold.PLP.ligand.torsion>
1.3137

> <Gold.PLP.Chemscore.Hbond>
1.7908

> <Gold.PLP.Chemscore.CHOScore>
0.0000

> <Gold.PLP.Chemscore.Metal>
0.0000

> <Gold.Chemscore.Hbonds>
donor molecule, donor type, donor heavy atom, donor atom, acceptor molecule, acceptor atom, score
      P1  H  6896  6908       L1    25  1.00
      P1  H  7997  8010       L1     1  0.77

> <Gold.PLP.Chemscore.Internal.Correction>
0.0483

> <Gold.Rescore>
     Score         DG    S(hbond)    S(metal)    S(lipo)     H(rot)  DE(clash)    DE(int)     intcor
     14.27     -18.82       1.67        0.00     110.84       2.04       0.69       3.86       ----

> <Gold.Chemscore.Fitness>
14.2713

> <Gold.Chemscore.DG>
-18.8216

> <Gold.Chemscore.ZeroCoef>
-5.4800

> <Gold.Chemscore.Hbond>
1.6736

> <Gold.Chemscore.Metal>
0.0000

> <Gold.Chemscore.Lipo>
110.8406

> <Gold.Chemscore.Internal_Hbond>
0.0000

> <Gold.Chemscore.DEClash>
0.6917

> <Gold.Chemscore.DEInternal>
3.8586

> <Gold.Chemscore.Rot>
2.0377

> <Gold.Chemscore.Internal.Correction>
   9.000000E+99

> <Gold.Chemscore.Hbonds>
donor molecule, donor type, donor heavy atom, donor atom, acceptor molecule, acceptor atom, score
      P1  H  6896  6908       L1    25  0.25
      P1  H  7997  8010       L1     1  0.78

> <Gold.Chemscore.Hbond.Weighted>
-5.5898

> <Gold.Chemscore.Metal.Weighted>
-0.0000

> <Gold.Chemscore.Lipo.Weighted>
-12.9683

> <Gold.Chemscore.Internal_Hbond.Weighted>
0.0000

> <Gold.Chemscore.DEClash.Weighted>
0.6917

> <Gold.Chemscore.DEInternal.Weighted>
3.8586

> <Gold.Chemscore.Rot.Weighted>
5.2165

> <Gold.Chemscore.Internal.Correction.Weighted>
   9.000000E+99

> <Gold.Protein.RotatedTorsions>
[ 6907 6896 6895 6894 ] final  -41.08 input  -60.11 | X-H torsion
[ 7974 7965 7964 7962 ] final  123.71 input  175.53 | X-H torsion
[ 8008 7997 7996 7995 ] final   48.52 input   59.86 | X-H torsion
[ 10167 10162 10161 10158 ] final  -84.76 input  -65.29 | X-H torsion
[ 10718 10713 10712 10709 ] final  -35.20 input   66.30 | X-H torsion
[ 10763 10752 10751 10750 ] final  -43.34 input  -60.55 | X-H torsion
[ 11005 11000 10999 10996 ] final  -37.94 input  -57.11 | X-H torsion

> <Gold.Protein.ActiveResidues>
 VAL166  LYS551  ARG553  GLY616  TRP617  ASP618  TYR619  PRO620  LYS621  CYS622 
 ASP623  PHE694  ASN695  SER759  ASP760  ASP761  ALA762  ILE779  LEU786  VAL792 
 PHE793  MET794  SER795  GLU796  ALA797  LYS798  CYS799  TRP800  GLU811  SER814 

> <Gold.Protein.RotatedAtoms>
  150.9709  134.9082  159.7787 H   0  0  0  0  0  0  0  0  0  0  0  0  # atno 6907 bound_to 6896
  152.5190  134.3542  159.9272 H   0  0  0  0  0  0  0  0  0  0  0  0  # atno 6908 bound_to 6896
  151.3551  133.3870  159.2718 H   0  0  0  0  0  0  0  0  0  0  0  0  # atno 6909 bound_to 6896
  145.0928  139.3574  143.4852 H   0  0  0  0  0  0  0  0  0  0  0  0  # atno 7974 bound_to 7965
  155.3870  140.3431  155.4249 H   0  0  0  0  0  0  0  0  0  0  0  0  # atno 8008 bound_to 7997
  156.1579  140.1591  156.8695 H   0  0  0  0  0  0  0  0  0  0  0  0  # atno 8009 bound_to 7997
  154.5112  140.0789  156.7974 H   0  0  0  0  0  0  0  0  0  0  0  0  # atno 8010 bound_to 7997
  140.4102  143.2626  151.9028 H   0  0  0  0  0  0  0  0  0  0  0  0  # atno 10167 bound_to 10162
  156.3414  130.4294  149.7784 H   0  0  0  0  0  0  0  0  0  0  0  0  # atno 10718 bound_to 10713
  153.9940  135.6702  153.4755 H   0  0  0  0  0  0  0  0  0  0  0  0  # atno 10763 bound_to 10752
  153.0692  135.4984  154.8264 H   0  0  0  0  0  0  0  0  0  0  0  0  # atno 10764 bound_to 10752
  154.7092  135.3094  154.9186 H   0  0  0  0  0  0  0  0  0  0  0  0  # atno 10765 bound_to 10752
  140.9990  133.6965  156.1987 H   0  0  0  0  0  0  0  0  0  0  0  0  # atno 11005 bound_to 11000
  146.3531  140.0770  142.8620 LP  0  0  0  0  0  0  0  0  0  0  0  0  # atno 17320 bound_to 7965
  145.1046  140.9367  143.4692 LP  0  0  0  0  0  0  0  0  0  0  0  0  # atno 17321 bound_to 7965
  139.4783  144.5545  151.8335 LP  0  0  0  0  0  0  0  0  0  0  0  0  # atno 17342 bound_to 10162
  140.4646  144.1673  150.5910 LP  0  0  0  0  0  0  0  0  0  0  0  0  # atno 17343 bound_to 10162
  156.5019  130.8132  151.3135 LP  0  0  0  0  0  0  0  0  0  0  0  0  # atno 17370 bound_to 10713
  157.7447  130.9942  150.2699 LP  0  0  0  0  0  0  0  0  0  0  0  0  # atno 17371 bound_to 10713
  140.6919  134.4656  157.5588 LP  0  0  0  0  0  0  0  0  0  0  0  0  # atno 17394 bound_to 11000
  139.9029  134.8514  156.1822 LP  0  0  0  0  0  0  0  0  0  0  0  0  # atno 17395 bound_to 11000

$$$$
