AV-unprocessed.smi:1522|AV-procd|sdf|6134|dock10
  -GOLD-   22720 6273D 1   1.00000     0.00000
 Structure written by MMmdl.
 35 36  0  0  0  0  0  0  0  0  2 V2000
  143.5595  134.7208  152.9347 C   0  0  0  0  0  0  0  0  0  0  0  0
  144.9994  134.8967  152.4027 C   0  0  2  0  0  0  0  0  0  0  0  0
  145.1904  136.3103  151.7927 C   0  0  0  0  0  0  0  0  0  0  0  0
  146.4893  136.8968  152.1099 N   0  0  0  0  0  0  0  0  0  0  0  0
  146.6692  138.0030  152.8457 C   0  0  0  0  0  0  0  0  0  0  0  0
  145.7408  138.6414  153.3411 O   0  0  0  0  0  0  0  0  0  0  0  0
  147.9719  138.3080  152.9579 N   0  0  0  0  0  0  0  0  0  0  0  0
  148.5528  139.4170  153.6224 C   0  0  0  0  0  0  0  0  0  0  0  0
  149.7785  139.2686  154.1380 N   0  0  0  0  0  0  0  0  0  0  0  0
  150.2283  140.4300  154.7539 N   0  0  0  0  0  0  0  0  0  0  0  0
  149.3234  141.4106  154.6775 C   0  0  0  0  0  0  0  0  0  0  0  0
  147.8303  141.0133  153.8457 S   0  0  0  0  0  0  0  0  0  0  0  0
  145.3434  133.8423  151.4054 N   0  3  0  0  0  0  0  0  0  0  0  0
  145.3685  132.4554  151.9374 C   0  0  0  0  0  0  0  0  0  0  0  0
  144.8082  131.5355  150.8437 C   0  0  0  0  0  0  0  0  0  0  0  0
  144.7085  132.4164  149.6041 C   0  0  0  0  0  0  0  0  0  0  0  0
  144.5035  133.8091  150.1880 C   0  0  0  0  0  0  0  0  0  0  0  0
  143.2999  135.4950  153.6569 H   0  0  0  0  0  0  0  0  0  0  0  0
  143.4264  133.7702  153.4507 H   0  0  0  0  0  0  0  0  0  0  0  0
  142.8302  134.7683  152.1252 H   0  0  0  0  0  0  0  0  0  0  0  0
  145.6824  134.7810  153.2460 H   0  0  0  0  0  0  0  0  0  0  0  0
  145.0775  136.2985  150.7080 H   0  0  0  0  0  0  0  0  0  0  0  0
  144.4187  136.9826  152.1692 H   0  0  0  0  0  0  0  0  0  0  0  0
  147.3051  136.4293  151.7414 H   0  0  0  0  0  0  0  0  0  0  0  0
  148.6243  137.6845  152.5057 H   0  0  0  0  0  0  0  0  0  0  0  0
  149.5373  142.3752  155.1136 H   0  0  0  0  0  0  0  0  0  0  0  0
  146.3937  132.1875  152.1947 H   0  0  0  0  0  0  0  0  0  0  0  0
  144.7632  132.3594  152.8405 H   0  0  0  0  0  0  0  0  0  0  0  0
  145.4291  130.6547  150.6775 H   0  0  0  0  0  0  0  0  0  0  0  0
  143.8137  131.1900  151.1294 H   0  0  0  0  0  0  0  0  0  0  0  0
  145.6459  132.3823  149.0471 H   0  0  0  0  0  0  0  0  0  0  0  0
  143.9051  132.1145  148.9313 H   0  0  0  0  0  0  0  0  0  0  0  0
  143.4547  133.9430  150.4591 H   0  0  0  0  0  0  0  0  0  0  0  0
  144.7772  134.5915  149.4795 H   0  0  0  0  0  0  0  0  0  0  0  0
  146.2816  134.0337  151.0840 H   0  0  0  0  0  0  0  0  0  0  0  0
  1  2  1  0  0  0  0
  1 18  1  0  0  0  0
  1 19  1  0  0  0  0
  1 20  1  0  0  0  0
  2  3  1  0  0  0  0
  2 13  1  0  0  0  0
  2 21  1  0  0  0  0
  3  4  1  0  0  0  0
  3 22  1  0  0  0  0
  3 23  1  0  0  0  0
  4  5  1  0  0  0  0
  4 24  1  0  0  0  0
  5  6  2  0  0  0  0
  5  7  1  0  0  0  0
  7  8  1  0  0  0  0
  7 25  1  0  0  0  0
  8 12  1  0  0  0  0
  8  9  2  0  0  0  0
  9 10  1  0  0  0  0
 10 11  2  0  0  0  0
 11 12  1  0  0  0  0
 11 26  1  0  0  0  0
 13 17  1  0  0  0  0
 13 14  1  0  0  0  0
 13 35  1  0  0  0  0
 14 15  1  0  0  0  0
 14 27  1  0  0  0  0
 14 28  1  0  0  0  0
 15 16  1  0  0  0  0
 15 29  1  0  0  0  0
 15 30  1  0  0  0  0
 16 17  1  0  0  0  0
 16 31  1  0  0  0  0
 16 32  1  0  0  0  0
 17 33  1  0  0  0  0
 17 34  1  0  0  0  0
M  CHG  1  13   1
M  END
> <s_m_source_file>
AV-unprocessed.smi

> <i_m_source_file_index>
1522

> <i_lp_mmshare_version>
43012

> <i_f3d_flags>
0

> <s_epik_input>
W0NIMl0xW0NIMl1bQ0gyXVtDSDJdTjFbQ0BIXShbQ0gzXSlbQ0gyXVtOSF1DKD1PKVtOSF1jMm5uW2NIXXMy

> <s_epik_cmdline>
J2VwaWtfcHl0aG9uJywgJy1waCcsICc3LjAnLCAnLXRuJywgJzgnLCAnLW1hJywgJzIwMCcsICctbWV0YWxfYmluZGluZycsICctaW1hZScsICc8aW5maWxlLm1hZT4nLCAnLW9tYWUnLCAnPG91dGZpbGUubWFlPic=

> <r_lp_tautomer_probability>
1

> <r_epik_Ionization_Penalty>
0.00457064

> <r_epik_Ionization_Penalty_Charging>
0.000848324

> <r_epik_Ionization_Penalty_Neutral>
0.00372231

> <r_epik_State_Penalty>
-0

> <r_epik_Charging_Adjusted_Penalty>
0.000848324

> <i_epik_Tot_Q>
1

> <i_epik_Tot_abs_Q>
1

> <r_epik_Metal_State_Penalty>
0.370178

> <b_epik_Metal_Only>
0

> <s_lp_Force_Field>
OPLS_2005

> <r_lp_Energy>
27.0536

> <b_lp_Chiralities_Consistent>
1

> <s_lp_Variant>
AV-unprocessed.smi:1522-1

> <Gold.Version>
5.8.1

> <Gold.Id.Protein>
6NUR|6NUR_protein|mol2

> <Gold.PLP.Fitness>
37.4001

> <Gold.PLP.PLP>
-27.1598

> <Gold.PLP.part.hbond>
-3.9476

> <Gold.PLP.part.metal>
0.0000

> <Gold.PLP.part.buried>
-1.5104

> <Gold.PLP.part.nonpolar>
-23.9110

> <Gold.PLP.part.repulsive>
2.4777

> <Gold.PLP.ligand.clash>
0.0000

> <Gold.PLP.ligand.torsion>
0.7346

> <Gold.PLP.Chemscore.Hbond>
2.8940

> <Gold.PLP.Chemscore.CHOScore>
1.0000

> <Gold.PLP.Chemscore.Metal>
0.0000

> <Gold.Chemscore.Hbonds>
donor molecule, donor type, donor heavy atom, donor atom, acceptor molecule, acceptor atom, score
      L1  H     4    24       P1  7948  0.94
      L1  H     7    25       P1  7948  1.00
      P1  H  7989  7998       L1    10  0.89
      L1  C    11    26       P1  8028  1.00

> <Gold.PLP.Chemscore.Internal.Correction>
0.0274

> <Gold.Rescore>
     Score         DG    S(hbond)    S(metal)    S(lipo)     H(rot)  DE(clash)    DE(int)     intcor
     13.58     -14.33       1.91        0.00      58.41       1.70       0.03       0.72       ----

> <Gold.Chemscore.Fitness>
13.5808

> <Gold.Chemscore.DG>
-14.3305

> <Gold.Chemscore.ZeroCoef>
-5.4800

> <Gold.Chemscore.Hbond>
1.9088

> <Gold.Chemscore.Metal>
0.0000

> <Gold.Chemscore.Lipo>
58.4126

> <Gold.Chemscore.Internal_Hbond>
0.0000

> <Gold.Chemscore.DEClash>
0.0280

> <Gold.Chemscore.DEInternal>
0.7217

> <Gold.Chemscore.Rot>
1.7028

> <Gold.Chemscore.Internal.Correction>
   9.000000E+99

> <Gold.Chemscore.Hbonds>
donor molecule, donor type, donor heavy atom, donor atom, acceptor molecule, acceptor atom, score
      L1  H     4    24       P1  7948  0.92
      L1  H     7    25       P1  7948  0.94
      P1  H  7989  7998       L1    10  0.09

> <Gold.Chemscore.Hbond.Weighted>
-6.3754

> <Gold.Chemscore.Metal.Weighted>
-0.0000

> <Gold.Chemscore.Lipo.Weighted>
-6.8343

> <Gold.Chemscore.Internal_Hbond.Weighted>
0.0000

> <Gold.Chemscore.DEClash.Weighted>
0.0280

> <Gold.Chemscore.DEInternal.Weighted>
0.7217

> <Gold.Chemscore.Rot.Weighted>
4.3592

> <Gold.Chemscore.Internal.Correction.Weighted>
   9.000000E+99

> <Gold.Protein.RotatedTorsions>
[ 6907 6896 6895 6894 ] final -112.50 input  -60.11 | X-H torsion
[ 7974 7965 7964 7962 ] final  103.46 input  175.53 | X-H torsion
[ 8008 7997 7996 7995 ] final  -74.66 input   59.86 | X-H torsion
[ 10167 10162 10161 10158 ] final -157.98 input  -65.29 | X-H torsion
[ 10718 10713 10712 10709 ] final   93.53 input   66.30 | X-H torsion
[ 10763 10752 10751 10750 ] final  -85.12 input  -60.55 | X-H torsion
[ 11005 11000 10999 10996 ] final   82.24 input  -57.11 | X-H torsion

> <Gold.Protein.ActiveResidues>
 VAL166  LYS551  ARG553  GLY616  TRP617  ASP618  TYR619  PRO620  LYS621  CYS622 
 ASP623  PHE694  ASN695  SER759  ASP760  ASP761  ALA762  ILE779  LEU786  VAL792 
 PHE793  MET794  SER795  GLU796  ALA797  LYS798  CYS799  TRP800  GLU811  SER814 

> <Gold.Protein.RotatedAtoms>
  150.7763  133.9080  159.3360 H   0  0  0  0  0  0  0  0  0  0  0  0  # atno 6907 bound_to 6896
  151.6954  135.0937  160.0251 H   0  0  0  0  0  0  0  0  0  0  0  0  # atno 6908 bound_to 6896
  152.3800  133.6494  159.6189 H   0  0  0  0  0  0  0  0  0  0  0  0  # atno 6909 bound_to 6896
  145.3456  139.2451  143.3586 H   0  0  0  0  0  0  0  0  0  0  0  0  # atno 7974 bound_to 7965
  154.5349  140.0757  156.8411 H   0  0  0  0  0  0  0  0  0  0  0  0  # atno 8008 bound_to 7997
  155.3298  140.3401  155.4221 H   0  0  0  0  0  0  0  0  0  0  0  0  # atno 8009 bound_to 7997
  156.1819  140.1655  156.8245 H   0  0  0  0  0  0  0  0  0  0  0  0  # atno 8010 bound_to 7997
  139.6728  143.9715  152.2293 H   0  0  0  0  0  0  0  0  0  0  0  0  # atno 10167 bound_to 10162
  157.6954  131.0481  150.4048 H   0  0  0  0  0  0  0  0  0  0  0  0  # atno 10718 bound_to 10713
  154.6074  135.5496  153.7437 H   0  0  0  0  0  0  0  0  0  0  0  0  # atno 10763 bound_to 10752
  153.0180  135.6381  154.1627 H   0  0  0  0  0  0  0  0  0  0  0  0  # atno 10764 bound_to 10752
  154.1566  135.2899  155.3100 H   0  0  0  0  0  0  0  0  0  0  0  0  # atno 10765 bound_to 10752
  139.9070  134.8057  156.2148 H   0  0  0  0  0  0  0  0  0  0  0  0  # atno 11005 bound_to 11000
  146.2989  140.4062  142.8711 LP  0  0  0  0  0  0  0  0  0  0  0  0  # atno 17320 bound_to 7965
  144.8757  140.7333  143.6019 LP  0  0  0  0  0  0  0  0  0  0  0  0  # atno 17321 bound_to 7965
  139.9484  144.6636  150.8196 LP  0  0  0  0  0  0  0  0  0  0  0  0  # atno 17342 bound_to 10162
  140.7624  143.3198  151.2648 LP  0  0  0  0  0  0  0  0  0  0  0  0  # atno 17343 bound_to 10162
  156.4438  130.3997  149.6680 LP  0  0  0  0  0  0  0  0  0  0  0  0  # atno 17370 bound_to 10713
  156.3854  130.7600  151.2597 LP  0  0  0  0  0  0  0  0  0  0  0  0  # atno 17371 bound_to 10713
  141.0442  133.6922  156.1654 LP  0  0  0  0  0  0  0  0  0  0  0  0  # atno 17394 bound_to 11000
  140.6908  134.4667  157.5588 LP  0  0  0  0  0  0  0  0  0  0  0  0  # atno 17395 bound_to 11000

$$$$
