AV-unprocessed.smi:1100|AV-procd|sdf|4764|dock8
  -GOLD-   22720 3303D 1   1.00000     0.00000
 Structure written by MMmdl.
 43 44  0  0  0  0  0  0  0  0  3 V2000
  146.6423  140.0768  153.9497 C   0  0  0  0  0  0  0  0  0  0  0  0
  147.6524  139.0703  153.3424 C   0  0  1  0  0  0  0  0  0  0  0  0
  148.9092  138.8203  154.2177 C   0  0  0  0  0  0  0  0  0  0  0  0
  149.4337  140.0832  154.7364 N   0  5  0  0  0  0  0  0  0  0  0  0
  150.3247  140.1886  155.7595 C   0  0  0  0  0  0  0  0  0  0  0  0
  151.2126  139.3840  156.0635 O   0  0  0  0  0  0  0  0  0  0  0  0
  150.1322  141.3140  156.4758 N   0  0  0  0  0  0  0  0  0  0  0  0
  150.8607  141.8336  157.5578 C   0  0  0  0  0  0  0  0  0  0  0  0
  151.4165  140.8925  158.5067 C   0  0  0  0  0  0  0  0  0  0  0  0
  152.0997  141.3121  159.5892 C   0  0  0  0  0  0  0  0  0  0  0  0
  152.3117  142.7367  159.8561 C   0  0  0  0  0  0  0  0  0  0  0  0
  152.9307  143.1353  160.8434 O   0  0  0  0  0  0  0  0  0  0  0  0
  151.7761  143.5937  158.9392 N   0  0  0  0  0  0  0  0  0  0  0  0
  151.9270  145.0400  159.1199 C   0  0  0  0  0  0  0  0  0  0  0  0
  151.0540  143.1460  157.8161 C   0  0  0  0  0  0  0  0  0  0  0  0
  147.0173  137.7718  152.9547 N   0  3  0  0  0  0  0  0  0  0  0  0
  146.5287  136.9084  154.0662 C   0  0  0  0  0  0  0  0  0  0  0  0
  146.0620  135.5527  153.5130 C   0  0  0  0  0  0  0  0  0  0  0  0
  145.0383  135.7629  152.5480 O   0  0  0  0  0  0  0  0  0  0  0  0
  145.4990  136.5264  151.4397 C   0  0  0  0  0  0  0  0  0  0  0  0
  145.9661  137.9122  151.9164 C   0  0  0  0  0  0  0  0  0  0  0  0
  147.0834  141.0667  154.0789 H   0  0  0  0  0  0  0  0  0  0  0  0
  146.2662  139.7614  154.9245 H   0  0  0  0  0  0  0  0  0  0  0  0
  145.7818  140.2068  153.2934 H   0  0  0  0  0  0  0  0  0  0  0  0
  148.0240  139.5197  152.4197 H   0  0  0  0  0  0  0  0  0  0  0  0
  148.6561  138.1255  155.0192 H   0  0  0  0  0  0  0  0  0  0  0  0
  149.6539  138.3059  153.6079 H   0  0  0  0  0  0  0  0  0  0  0  0
  149.3390  141.8720  156.1963 H   0  0  0  0  0  0  0  0  0  0  0  0
  151.2839  139.8323  158.3471 H   0  0  0  0  0  0  0  0  0  0  0  0
  152.5011  140.5828  160.2771 H   0  0  0  0  0  0  0  0  0  0  0  0
  151.5720  145.6111  158.2615 H   0  0  0  0  0  0  0  0  0  0  0  0
  152.9746  145.3064  159.2686 H   0  0  0  0  0  0  0  0  0  0  0  0
  151.3637  145.3729  159.9925 H   0  0  0  0  0  0  0  0  0  0  0  0
  150.6623  143.9465  157.2092 H   0  0  0  0  0  0  0  0  0  0  0  0
  147.3146  136.7478  154.8047 H   0  0  0  0  0  0  0  0  0  0  0  0
  145.6964  137.3895  154.5812 H   0  0  0  0  0  0  0  0  0  0  0  0
  146.8944  135.0037  153.0693 H   0  0  0  0  0  0  0  0  0  0  0  0
  145.6656  134.9346  154.3187 H   0  0  0  0  0  0  0  0  0  0  0  0
  146.3070  135.9977  150.9315 H   0  0  0  0  0  0  0  0  0  0  0  0
  144.6862  136.6311  150.7207 H   0  0  0  0  0  0  0  0  0  0  0  0
  145.1237  138.4764  152.3189 H   0  0  0  0  0  0  0  0  0  0  0  0
  146.3514  138.4727  151.0638 H   0  0  0  0  0  0  0  0  0  0  0  0
  147.7608  137.2545  152.5071 H   0  0  0  0  0  0  0  0  0  0  0  0
  1  2  1  0  0  0  0
  1 22  1  0  0  0  0
  1 23  1  0  0  0  0
  1 24  1  0  0  0  0
  2  3  1  0  0  0  0
  2 16  1  0  0  0  0
  2 25  1  0  0  0  0
  3  4  1  0  0  0  0
  3 26  1  0  0  0  0
  3 27  1  0  0  0  0
  4  5  1  0  0  0  0
  5  6  2  0  0  0  0
  5  7  1  0  0  0  0
  7  8  1  0  0  0  0
  7 28  1  0  0  0  0
  8 15  2  0  0  0  0
  8  9  1  0  0  0  0
  9 10  2  0  0  0  0
  9 29  1  0  0  0  0
 10 11  1  0  0  0  0
 10 30  1  0  0  0  0
 11 12  2  0  0  0  0
 11 13  1  0  0  0  0
 13 14  1  0  0  0  0
 13 15  1  0  0  0  0
 14 31  1  0  0  0  0
 14 32  1  0  0  0  0
 14 33  1  0  0  0  0
 15 34  1  0  0  0  0
 16 21  1  0  0  0  0
 16 17  1  0  0  0  0
 16 43  1  0  0  0  0
 17 18  1  0  0  0  0
 17 35  1  0  0  0  0
 17 36  1  0  0  0  0
 18 19  1  0  0  0  0
 18 37  1  0  0  0  0
 18 38  1  0  0  0  0
 19 20  1  0  0  0  0
 20 21  1  0  0  0  0
 20 39  1  0  0  0  0
 20 40  1  0  0  0  0
 21 41  1  0  0  0  0
 21 42  1  0  0  0  0
M  CHG  1   4  -1
M  CHG  1  16   1
M  END
> <s_m_source_file>
AV-unprocessed.smi

> <i_m_source_file_index>
1100

> <i_lp_mmshare_version>
43012

> <i_f3d_flags>
0

> <s_epik_input>
W0NIMl0xW0NIMl1PW0NIMl1bQ0gyXU4xW0NASF0oW0NIM10pW0NIMl1bTkhdQyg9TylbTkhdYzJbY0hdW2NIXWMoPU8pbihbQ0gzXSlbY0hdMg==

> <s_epik_cmdline>
J2VwaWtfcHl0aG9uJywgJy1waCcsICc3LjAnLCAnLXRuJywgJzgnLCAnLW1hJywgJzIwMCcsICctbWV0YWxfYmluZGluZycsICctaW1hZScsICc8aW5maWxlLm1hZT4nLCAnLW9tYWUnLCAnPG91dGZpbGUubWFlPic=

> <r_lp_tautomer_probability>
1

> <r_epik_Ionization_Penalty>
6.79272

> <r_epik_Ionization_Penalty_Charging>
6.79272

> <r_epik_Ionization_Penalty_Neutral>
3.37009e-06

> <r_epik_State_Penalty>
7.34577

> <r_epik_Charging_Adjusted_Penalty>
14.1385

> <i_epik_Tot_Q>
0

> <i_epik_Tot_abs_Q>
2

> <r_epik_Metal_State_Penalty>
3.26257

> <b_epik_Metal_Only>
1

> <s_lp_Force_Field>
OPLS_2005

> <r_lp_Energy>
32.2868

> <b_lp_Chiralities_Consistent>
1

> <s_lp_Variant>
AV-unprocessed.smi:1100-6

> <Gold.Version>
5.8.1

> <Gold.Id.Protein>
6NUR|6NUR_protein|mol2

> <Gold.PLP.Fitness>
43.8488

> <Gold.PLP.PLP>
-36.0342

> <Gold.PLP.part.hbond>
-1.0000

> <Gold.PLP.part.metal>
0.0000

> <Gold.PLP.part.buried>
-1.7312

> <Gold.PLP.part.nonpolar>
-34.7736

> <Gold.PLP.part.repulsive>
0.3201

> <Gold.PLP.ligand.clash>
0.0000

> <Gold.PLP.ligand.torsion>
0.6713

> <Gold.PLP.Chemscore.Hbond>
2.0000

> <Gold.PLP.Chemscore.CHOScore>
1.0000

> <Gold.PLP.Chemscore.Metal>
0.0000

> <Gold.Chemscore.Hbonds>
donor molecule, donor type, donor heavy atom, donor atom, acceptor molecule, acceptor atom, score
      L1  H    16    43       P1  7948  2.00
      L1  C    15    34       P1  8028  1.00

> <Gold.PLP.Chemscore.Internal.Correction>
0.1573

> <Gold.Rescore>
     Score         DG    S(hbond)    S(metal)    S(lipo)     H(rot)  DE(clash)    DE(int)     intcor
     12.31     -14.28       0.98        0.00      80.40       1.51       0.07       1.91       ----

> <Gold.Chemscore.Fitness>
12.3075

> <Gold.Chemscore.DG>
-14.2821

> <Gold.Chemscore.ZeroCoef>
-5.4800

> <Gold.Chemscore.Hbond>
0.9784

> <Gold.Chemscore.Metal>
0.0000

> <Gold.Chemscore.Lipo>
80.3999

> <Gold.Chemscore.Internal_Hbond>
0.0000

> <Gold.Chemscore.DEClash>
0.0652

> <Gold.Chemscore.DEInternal>
1.9094

> <Gold.Chemscore.Rot>
1.5128

> <Gold.Chemscore.Internal.Correction>
   9.000000E+99

> <Gold.Chemscore.Hbonds>
donor molecule, donor type, donor heavy atom, donor atom, acceptor molecule, acceptor atom, score
      L1  H    16    43       P1  7948  1.00

> <Gold.Chemscore.Hbond.Weighted>
-3.2680

> <Gold.Chemscore.Metal.Weighted>
-0.0000

> <Gold.Chemscore.Lipo.Weighted>
-9.4068

> <Gold.Chemscore.Internal_Hbond.Weighted>
0.0000

> <Gold.Chemscore.DEClash.Weighted>
0.0652

> <Gold.Chemscore.DEInternal.Weighted>
1.9094

> <Gold.Chemscore.Rot.Weighted>
3.8726

> <Gold.Chemscore.Internal.Correction.Weighted>
   9.000000E+99

> <Gold.Protein.RotatedTorsions>
[ 6907 6896 6895 6894 ] final  126.39 input  -60.11 | X-H torsion
[ 7974 7965 7964 7962 ] final   48.35 input  175.53 | X-H torsion
[ 8008 7997 7996 7995 ] final  -77.08 input   59.86 | X-H torsion
[ 10167 10162 10161 10158 ] final -120.78 input  -65.29 | X-H torsion
[ 10718 10713 10712 10709 ] final  -85.24 input   66.30 | X-H torsion
[ 10763 10752 10751 10750 ] final  -16.72 input  -60.55 | X-H torsion
[ 11005 11000 10999 10996 ] final  132.45 input  -57.11 | X-H torsion

> <Gold.Protein.ActiveResidues>
 VAL166  LYS551  ARG553  GLY616  TRP617  ASP618  TYR619  PRO620  LYS621  CYS622 
 ASP623  PHE694  ASN695  SER759  ASP760  ASP761  ALA762  ILE779  LEU786  VAL792 
 PHE793  MET794  SER795  GLU796  ALA797  LYS798  CYS799  TRP800  GLU811  SER814 

> <Gold.Protein.RotatedAtoms>
  152.3908  133.6676  159.6235 H   0  0  0  0  0  0  0  0  0  0  0  0  # atno 6907 bound_to 6896
  150.7816  133.8958  159.3335 H   0  0  0  0  0  0  0  0  0  0  0  0  # atno 6908 bound_to 6896
  151.6745  135.0972  160.0255 H   0  0  0  0  0  0  0  0  0  0  0  0  # atno 6909 bound_to 6896
  146.0212  139.4653  142.9896 H   0  0  0  0  0  0  0  0  0  0  0  0  # atno 7974 bound_to 7965
  154.5563  140.0716  156.8749 H   0  0  0  0  0  0  0  0  0  0  0  0  # atno 8008 bound_to 7997
  155.2895  140.3377  155.4235 H   0  0  0  0  0  0  0  0  0  0  0  0  # atno 8009 bound_to 7997
  156.2005  140.1720  156.7895 H   0  0  0  0  0  0  0  0  0  0  0  0  # atno 8010 bound_to 7997
  140.0321  143.5237  152.2171 H   0  0  0  0  0  0  0  0  0  0  0  0  # atno 10167 bound_to 10162
  155.9998  130.4724  150.4532 H   0  0  0  0  0  0  0  0  0  0  0  0  # atno 10718 bound_to 10713
  153.5629  135.7009  153.5539 H   0  0  0  0  0  0  0  0  0  0  0  0  # atno 10763 bound_to 10752
  153.3413  135.4020  155.1574 H   0  0  0  0  0  0  0  0  0  0  0  0  # atno 10764 bound_to 10752
  154.8645  135.3743  154.5147 H   0  0  0  0  0  0  0  0  0  0  0  0  # atno 10765 bound_to 10752
  139.9791  134.9554  156.9584 H   0  0  0  0  0  0  0  0  0  0  0  0  # atno 11005 bound_to 11000
  145.7190  141.0081  143.1413 LP  0  0  0  0  0  0  0  0  0  0  0  0  # atno 17320 bound_to 7965
  144.6991  139.8847  143.7449 LP  0  0  0  0  0  0  0  0  0  0  0  0  # atno 17321 bound_to 7965
  139.6069  144.7598  151.3042 LP  0  0  0  0  0  0  0  0  0  0  0  0  # atno 17342 bound_to 10162
  140.7297  143.6900  150.7930 LP  0  0  0  0  0  0  0  0  0  0  0  0  # atno 17343 bound_to 10162
  157.2563  131.0557  151.2348 LP  0  0  0  0  0  0  0  0  0  0  0  0  # atno 17370 bound_to 10713
  157.3479  130.7067  149.6422 LP  0  0  0  0  0  0  0  0  0  0  0  0  # atno 17371 bound_to 10713
  140.5134  134.0980  155.7275 LP  0  0  0  0  0  0  0  0  0  0  0  0  # atno 17394 bound_to 11000
  141.1465  133.9046  157.2203 LP  0  0  0  0  0  0  0  0  0  0  0  0  # atno 17395 bound_to 11000

$$$$
