#       Name:                AV-unprocessed.smi:1641
#       Creating user name   scv26
#       Creation time:       Fri Mar 27 07:24:33 2020


#       File generated by GOLD software.
#

@<TRIPOS>MOLECULE
AV-unprocessed.smi:1641
    48    49     1
SMALL
NO_CHARGES


@<TRIPOS>ATOM
      1 ****        -3.6507   7.5199   2.2001 C.3            1 S1                 0.0000
      2 ****        -3.1957   6.1713   1.7580 C.2            1 S1                 0.0000
      3 ****        -2.8325   5.2113   2.6173 N.2            1 S1                 0.0000
      4 ****        -2.4461   4.0452   1.9711 N.2            1 S1                 0.0000
      5 ****        -2.5280   4.1621   0.6386 C.2            1 S1                 0.0000
      6 ****        -2.1902   3.1215  -0.2669 N.am           1 S1                 0.0000
      7 ****        -1.7600   1.8795   0.0161 C.2            1 S1                 0.0000
      8 ****        -1.5949   1.4217   1.1471 O.2            1 S1                 0.0000
      9 ****        -1.5231   1.1785  -1.1023 N.am           1 S1                 0.0000
     10 ****        -1.0503  -0.2008  -1.1341 C.3            1 S1                 0.0000
     11 ****         0.4537  -0.2926  -0.8099 C.3            1 S1                 0.0000
     12 ****         0.9649  -1.6842  -0.8771 N.4            1 S1                 1.0000
     13 ****         2.4354  -1.7372  -1.0557 C.3            1 S1                 0.0000
     14 ****         2.9138  -3.1964  -1.1805 C.3            1 S1                 0.0000
     15 ****         4.4390  -3.3001  -1.2876 C.3            1 S1                 0.0000
     16 ****         2.5020  -3.9198  -0.0264 O.3            1 S1                 0.0000
     17 ****         1.0869  -3.9585   0.1189 C.3            1 S1                 0.0000
     18 ****         0.7566  -4.8353   1.3315 C.3            1 S1                 0.0000
     19 ****         0.5575  -2.5209   0.2788 C.3            1 S1                 0.0000
     20 ****        -3.0886   5.7218   0.0604 S.3            1 S1                 0.0000
     21 ****        -4.0309   7.4796   3.2213 H              1 S1                 0.0000
     22 ****        -4.4457   7.8804   1.5473 H              1 S1                 0.0000
     23 ****        -2.8190   8.2237   2.1623 H              1 S1                 0.0000
     24 ****        -2.2842   3.3531  -1.2448 H              1 S1                 0.0000
     25 ****        -1.6887   1.6268  -1.9919 H              1 S1                 0.0000
     26 ****        -1.6464  -0.7946  -0.4408 H              1 S1                 0.0000
     27 ****        -1.2409  -0.6020  -2.1299 H              1 S1                 0.0000
     28 ****         0.9928   0.3215  -1.5330 H              1 S1                 0.0000
     29 ****         0.6721   0.1275   0.1732 H              1 S1                 0.0000
     30 ****         2.7182  -1.1816  -1.9508 H              1 S1                 0.0000
     31 ****         2.9215  -1.2505  -0.2086 H              1 S1                 0.0000
     32 ****         2.4723  -3.6541  -2.0676 H              1 S1                 0.0000
     33 ****         4.8088  -2.7720  -2.1667 H              1 S1                 0.0000
     34 ****         4.7524  -4.3411  -1.3706 H              1 S1                 0.0000
     35 ****         4.9272  -2.8743  -0.4105 H              1 S1                 0.0000
     36 ****         0.6468  -4.4159  -0.7692 H              1 S1                 0.0000
     37 ****        -0.3205  -4.9050   1.4848 H              1 S1                 0.0000
     38 ****         1.1994  -4.4322   2.2428 H              1 S1                 0.0000
     39 ****         1.1388  -5.8474   1.1957 H              1 S1                 0.0000
     40 ****         0.9408  -2.0795   1.2004 H              1 S1                 0.0000
     41 ****        -0.5283  -2.5464   0.3656 H              1 S1                 0.0000
     42 ****         0.5635  -2.1022  -1.7044 H              1 S1                 0.0000
     43 ****        -2.8388   5.3216   3.6111 LP             1 S1                 0.0000
     44 ****        -2.1430   3.2173   2.4431 LP             1 S1                 0.0000
     45 ****        -1.7853   1.9885   1.9486 LP             1 S1                 0.0000
     46 ****        -1.2704   0.4831   1.2641 LP             1 S1                 0.0000
     47 ****         2.8953  -3.4830   0.7826 LP             1 S1                 0.0000
     48 ****         2.8424  -4.8574  -0.0977 LP             1 S1                 0.0000
@<TRIPOS>BOND
    1    1    2 1     
    2    1   21 1     
    3    1   22 1     
    4    1   23 1     
    5    2   20 1     
    6    2    3 2     
    7    3    4 1     
    8    4    5 2     
    9    5    6 1     
   10    5   20 1     
   11    6    7 am    
   12    6   24 1     
   13    7    8 2     
   14    7    9 am    
   15    9   10 1     
   16    9   25 1     
   17   10   11 1     
   18   10   26 1     
   19   10   27 1     
   20   11   12 1     
   21   11   28 1     
   22   11   29 1     
   23   12   19 1     
   24   12   13 1     
   25   12   42 1     
   26   13   14 1     
   27   13   30 1     
   28   13   31 1     
   29   14   15 1     
   30   14   16 1     
   31   14   32 1     
   32   15   33 1     
   33   15   34 1     
   34   15   35 1     
   35   16   17 1     
   36   17   18 1     
   37   17   19 1     
   38   17   36 1     
   39   18   37 1     
   40   18   38 1     
   41   18   39 1     
   42   19   40 1     
   43   19   41 1     
   44    3   43 1     
   45    4   44 1     
   46    8   45 1     
   47    8   46 1     
   48   16   47 1     
   49   16   48 1     
@<TRIPOS>SUBSTRUCTURE
      1 S1             1
@<TRIPOS>SET
LONE_PAIRS      STATIC     ATOMS    <user>   **** ""
6 43 44 45 46 47 48
DONOR_HYDROGENS      STATIC     ATOMS    <user>   **** ""
3 24 25 42
ATOM$BLUE        STATIC     ATOMS    COLORGROUP SYSTEM
6 43 44 45 46 47 48
ATOM$RED        STATIC     ATOMS    COLORGROUP SYSTEM
3 24 25 42
