AV-unprocessed.smi:1|AV-procd|sdf|12|dock1
  -GOLD-   2262015103D 1   1.00000     0.00000
 Structure written by MMmdl.
 57 62  0  0  0  0  0  0  0  0  1 V2000
  149.8681  141.7077  155.6526 O   0  0  0  0  0  0  0  0  0  0  0  0
  150.6664  141.1527  156.4127 C   0  0  0  0  0  0  0  0  0  0  0  0
  151.0674  139.8233  156.4347 N   0  0  0  0  0  0  0  0  0  0  0  0
  150.1804  138.8748  156.4552 C   0  0  0  0  0  0  0  0  0  0  0  0
  148.7800  138.8897  156.4635 N   0  0  0  0  0  0  0  0  0  0  0  0
  147.9459  137.7620  156.4810 C   0  0  0  0  0  0  0  0  0  0  0  0
  148.3637  136.5248  156.4920 N   0  0  0  0  0  0  0  0  0  0  0  0
  149.7493  136.4494  156.4884 C   0  0  0  0  0  0  0  0  0  0  0  0
  150.6677  137.4782  156.4734 C   0  0  0  0  0  0  0  0  0  0  0  0
  151.9667  136.9833  156.4797 N   0  0  0  0  0  0  0  0  0  0  0  0
  151.7756  135.6674  156.4985 C   0  0  0  0  0  0  0  0  0  0  0  0
  150.4903  135.2671  156.4982 N   0  0  0  0  0  0  0  0  0  0  0  0
  150.0197  133.8460  156.5294 C   0  0  1  0  0  0  0  0  0  0  0  0
  149.2040  133.6070  155.4205 O   0  0  0  0  0  0  0  0  0  0  0  0
  149.7780  132.6139  154.5741 C   0  0  2  0  0  0  0  0  0  0  0  0
  148.6901  131.7986  153.8658 C   0  0  0  0  0  0  0  0  0  0  0  0
  147.9211  132.6671  153.0506 O   0  0  0  0  0  0  0  0  0  0  0  0
  146.8619  132.1916  152.3687 C   0  0  0  0  0  0  0  0  0  0  0  0
  146.5694  130.9956  152.3100 O   0  0  0  0  0  0  0  0  0  0  0  0
  146.0783  133.2657  151.6928 C   0  0  0  0  0  0  0  0  0  0  0  0
  146.2897  134.6147  152.0624 C   0  0  0  0  0  0  0  0  0  0  0  0
  145.5682  135.6509  151.4385 C   0  0  0  0  0  0  0  0  0  0  0  0
  144.6261  135.3509  150.4374 C   0  0  0  0  0  0  0  0  0  0  0  0
  144.4061  134.0130  150.0613 C   0  0  0  0  0  0  0  0  0  0  0  0
  145.1265  132.9752  150.6842 C   0  0  0  0  0  0  0  0  0  0  0  0
  150.6753  131.8002  155.5050 C   0  0  2  0  0  0  0  0  0  0  0  0
  149.9280  130.8407  156.2346 O   0  0  0  0  0  0  0  0  0  0  0  0
  150.4535  130.8587  157.8199 S   0  0  0  0  0  0  0  0  0  0  0  0
  149.2948  131.1239  158.6861 O   0  0  0  0  0  0  0  0  0  0  0  0
  151.3491  129.7099  158.0233 O   0  0  0  0  0  0  0  0  0  0  0  0
  151.3874  132.2437  157.7508 O   0  0  0  0  0  0  0  0  0  0  0  0
  151.1926  132.8549  156.4873 C   0  0  2  0  0  0  0  0  0  0  0  0
  151.2952  141.9767  157.4885 C   0  0  0  0  0  0  0  0  0  0  0  0
  151.3383  143.3821  157.3696 C   0  0  0  0  0  0  0  0  0  0  0  0
  151.9262  144.1591  158.3869 C   0  0  0  0  0  0  0  0  0  0  0  0
  152.4701  143.5343  159.5259 C   0  0  0  0  0  0  0  0  0  0  0  0
  152.4259  142.1320  159.6484 C   0  0  0  0  0  0  0  0  0  0  0  0
  151.8385  141.3535  158.6318 C   0  0  0  0  0  0  0  0  0  0  0  0
  146.8808  137.9978  156.4847 H   0  0  0  0  0  0  0  0  0  0  0  0
  152.6007  134.9705  156.5120 H   0  0  0  0  0  0  0  0  0  0  0  0
  149.4198  133.7660  157.4371 H   0  0  0  0  0  0  0  0  0  0  0  0
  150.4066  133.1029  153.8306 H   0  0  0  0  0  0  0  0  0  0  0  0
  149.1497  131.0346  153.2370 H   0  0  0  0  0  0  0  0  0  0  0  0
  148.0539  131.2912  154.5925 H   0  0  0  0  0  0  0  0  0  0  0  0
  147.0086  134.8696  152.8277 H   0  0  0  0  0  0  0  0  0  0  0  0
  145.7391  136.6772  151.7285 H   0  0  0  0  0  0  0  0  0  0  0  0
  144.0742  136.1461  149.9585 H   0  0  0  0  0  0  0  0  0  0  0  0
  143.6838  133.7814  149.2923 H   0  0  0  0  0  0  0  0  0  0  0  0
  144.9339  131.9595  150.3707 H   0  0  0  0  0  0  0  0  0  0  0  0
  151.4812  131.2946  154.9718 H   0  0  0  0  0  0  0  0  0  0  0  0
  152.1017  133.3316  156.1204 H   0  0  0  0  0  0  0  0  0  0  0  0
  150.9221  143.8687  156.4993 H   0  0  0  0  0  0  0  0  0  0  0  0
  151.9594  145.2346  158.2940 H   0  0  0  0  0  0  0  0  0  0  0  0
  152.9204  144.1308  160.3054 H   0  0  0  0  0  0  0  0  0  0  0  0
  152.8424  141.6532  160.5222 H   0  0  0  0  0  0  0  0  0  0  0  0
  151.8065  140.2783  158.7336 H   0  0  0  0  0  0  0  0  0  0  0  0
  148.3324  139.7952  156.4553 H   0  0  0  0  0  0  0  0  0  0  0  0
  1  2  2  0  0  0  0
  2  3  1  0  0  0  0
  2 33  1  0  0  0  0
  3  4  2  0  0  0  0
  4  9  1  0  0  0  0
  4  5  1  0  0  0  0
  5  6  1  0  0  0  0
  5 57  1  0  0  0  0
  6  7  2  0  0  0  0
  6 39  1  0  0  0  0
  7  8  1  0  0  0  0
  8 12  1  0  0  0  0
  8  9  2  0  0  0  0
  9 10  1  0  0  0  0
 10 11  2  0  0  0  0
 11 12  1  0  0  0  0
 11 40  1  0  0  0  0
 12 13  1  0  0  0  0
 13 32  1  0  0  0  0
 13 14  1  0  0  0  0
 13 41  1  0  0  0  0
 14 15  1  0  0  0  0
 15 16  1  0  0  0  0
 15 26  1  0  0  0  0
 15 42  1  0  0  0  0
 16 17  1  0  0  0  0
 16 43  1  0  0  0  0
 16 44  1  0  0  0  0
 17 18  1  0  0  0  0
 18 19  2  0  0  0  0
 18 20  1  0  0  0  0
 20 25  1  0  0  0  0
 20 21  2  0  0  0  0
 21 22  1  0  0  0  0
 21 45  1  0  0  0  0
 22 23  2  0  0  0  0
 22 46  1  0  0  0  0
 23 24  1  0  0  0  0
 23 47  1  0  0  0  0
 24 25  2  0  0  0  0
 24 48  1  0  0  0  0
 25 49  1  0  0  0  0
 26 32  1  0  0  0  0
 26 27  1  0  0  0  0
 26 50  1  0  0  0  0
 27 28  1  0  0  0  0
 28 29  2  0  0  0  0
 28 30  2  0  0  0  0
 28 31  1  0  0  0  0
 31 32  1  0  0  0  0
 32 51  1  0  0  0  0
 33 38  1  0  0  0  0
 33 34  2  0  0  0  0
 34 35  1  0  0  0  0
 34 52  1  0  0  0  0
 35 36  2  0  0  0  0
 35 53  1  0  0  0  0
 36 37  1  0  0  0  0
 36 54  1  0  0  0  0
 37 38  2  0  0  0  0
 37 55  1  0  0  0  0
 38 56  1  0  0  0  0
M  END
> <s_m_source_file>
AV-unprocessed.smi

> <i_m_source_file_index>
1

> <i_lp_mmshare_version>
43012

> <i_f3d_flags>
0

> <s_epik_input>
W2NIXTFbY0hdW2NIXVtjSF1bY0hdYzFDKD1PKVtOSF1jKG5bY0hdbjIpYyhjMjMpbltjSF1uM1tDQEBIXShbQ0BIXShbQ0BIXTQ1KU9TKE81KSg9Tyk9TylPW0NASF00W0NIMl1PQyg9TyljNltjSF1bY0hdW2NIXVtjSF1bY0hdNg==

> <s_epik_cmdline>
J2VwaWtfcHl0aG9uJywgJy1waCcsICc3LjAnLCAnLXRuJywgJzgnLCAnLW1hJywgJzIwMCcsICctbWV0YWxfYmluZGluZycsICctaW1hZScsICc8aW5maWxlLm1hZT4nLCAnLW9tYWUnLCAnPG91dGZpbGUubWFlPic=

> <r_epik_Ionization_Penalty>
0.122545

> <r_epik_Ionization_Penalty_Charging>
0.122545

> <r_epik_Ionization_Penalty_Neutral>
7.8935e-16

> <r_epik_State_Penalty>
2.69178

> <r_epik_Charging_Adjusted_Penalty>
2.81433

> <i_epik_Tot_Q>
0

> <i_epik_Tot_abs_Q>
0

> <r_epik_Metal_State_Penalty>
3.02665

> <b_epik_Metal_Only>
0

> <s_epik_Chemistry_Notes>
This compound has an ester and may undergo hydrolysis at high or low pH. This compound contains an acetal/aminal-like group ( X-CH(R)-Y where X, Y are N, S, or O) that may be acid/base labile, releasing an aldehyde.

> <s_lp_Force_Field>
OPLS_2005

> <r_lp_Energy>
62.4663

> <b_lp_Chiralities_Consistent>
1

> <s_lp_Variant>
AV-unprocessed.smi:1-12

> <Gold.Version>
5.8.1

> <Gold.Id.Protein>
6NUR|6NUR_protein|mol2

> <Gold.PLP.Fitness>
50.0916

> <Gold.PLP.PLP>
-51.3485

> <Gold.PLP.part.hbond>
-1.0000

> <Gold.PLP.part.metal>
0.0000

> <Gold.PLP.part.buried>
-5.6927

> <Gold.PLP.part.nonpolar>
-45.3889

> <Gold.PLP.part.repulsive>
0.4472

> <Gold.PLP.ligand.clash>
0.0000

> <Gold.PLP.ligand.torsion>
0.8101

> <Gold.PLP.Chemscore.Hbond>
0.0000

> <Gold.PLP.Chemscore.CHOScore>
0.0000

> <Gold.PLP.Chemscore.Metal>
0.0000

> <Gold.PLP.Chemscore.Internal.Correction>
0.3634

> <Gold.Rescore>
     Score         DG    S(hbond)    S(metal)    S(lipo)     H(rot)  DE(clash)    DE(int)     intcor
     13.19     -14.24       0.00        0.00     121.54       2.13       0.26       0.79       ----

> <Gold.Chemscore.Fitness>
13.1875

> <Gold.Chemscore.DG>
-14.2384

> <Gold.Chemscore.ZeroCoef>
-5.4800

> <Gold.Chemscore.Hbond>
0.0000

> <Gold.Chemscore.Metal>
0.0000

> <Gold.Chemscore.Lipo>
121.5361

> <Gold.Chemscore.Internal_Hbond>
0.0000

> <Gold.Chemscore.DEClash>
0.2625

> <Gold.Chemscore.DEInternal>
0.7884

> <Gold.Chemscore.Rot>
2.1333

> <Gold.Chemscore.Internal.Correction>
   9.000000E+99

> <Gold.Chemscore.Hbond.Weighted>
-0.0000

> <Gold.Chemscore.Metal.Weighted>
-0.0000

> <Gold.Chemscore.Lipo.Weighted>
-14.2197

> <Gold.Chemscore.Internal_Hbond.Weighted>
0.0000

> <Gold.Chemscore.DEClash.Weighted>
0.2625

> <Gold.Chemscore.DEInternal.Weighted>
0.7884

> <Gold.Chemscore.Rot.Weighted>
5.4614

> <Gold.Chemscore.Internal.Correction.Weighted>
   9.000000E+99

> <Gold.Protein.RotatedTorsions>
[ 6907 6896 6895 6894 ] final  148.40 input  -60.11 | X-H torsion
[ 7974 7965 7964 7962 ] final  -27.89 input  175.53 | X-H torsion
[ 8008 7997 7996 7995 ] final   54.41 input   59.86 | X-H torsion
[ 10167 10162 10161 10158 ] final -101.94 input  -65.29 | X-H torsion
[ 10718 10713 10712 10709 ] final   71.70 input   66.30 | X-H torsion
[ 10763 10752 10751 10750 ] final -143.95 input  -60.55 | X-H torsion
[ 11005 11000 10999 10996 ] final -107.76 input  -57.11 | X-H torsion

> <Gold.Protein.ActiveResidues>
 VAL166  LYS551  ARG553  GLY616  TRP617  ASP618  TYR619  PRO620  LYS621  CYS622 
 ASP623  PHE694  ASN695  SER759  ASP760  ASP761  ALA762  ILE779  LEU786  VAL792 
 PHE793  MET794  SER795  GLU796  ALA797  LYS798  CYS799  TRP800  GLU811  SER814 

> <Gold.Protein.RotatedAtoms>
  152.1420  133.4469  159.4771 H   0  0  0  0  0  0  0  0  0  0  0  0  # atno 6907 bound_to 6896
  150.6887  134.2294  159.4437 H   0  0  0  0  0  0  0  0  0  0  0  0  # atno 6908 bound_to 6896
  152.0185  134.9836  160.0620 H   0  0  0  0  0  0  0  0  0  0  0  0  # atno 6909 bound_to 6896
  146.1327  140.5211  142.8686 H   0  0  0  0  0  0  0  0  0  0  0  0  # atno 7974 bound_to 7965
  155.4843  140.3469  155.4344 H   0  0  0  0  0  0  0  0  0  0  0  0  # atno 8008 bound_to 7997
  156.1019  140.1437  156.9485 H   0  0  0  0  0  0  0  0  0  0  0  0  # atno 8009 bound_to 7997
  154.4699  140.0904  156.7095 H   0  0  0  0  0  0  0  0  0  0  0  0  # atno 8010 bound_to 7997
  140.2360  143.3573  152.0845 H   0  0  0  0  0  0  0  0  0  0  0  0  # atno 10167 bound_to 10162
  157.6464  130.9541  150.0825 H   0  0  0  0  0  0  0  0  0  0  0  0  # atno 10718 bound_to 10713
  154.8449  135.3454  154.6269 H   0  0  0  0  0  0  0  0  0  0  0  0  # atno 10763 bound_to 10752
  153.6878  135.6976  153.5103 H   0  0  0  0  0  0  0  0  0  0  0  0  # atno 10764 bound_to 10752
  153.2618  135.4320  155.0857 H   0  0  0  0  0  0  0  0  0  0  0  0  # atno 10765 bound_to 10752
  141.0937  133.9009  157.2014 H   0  0  0  0  0  0  0  0  0  0  0  0  # atno 11005 bound_to 11000
  144.7707  140.5630  143.6672 LP  0  0  0  0  0  0  0  0  0  0  0  0  # atno 17320 bound_to 7965
  145.5226  139.1476  143.3544 LP  0  0  0  0  0  0  0  0  0  0  0  0  # atno 17321 bound_to 7965
  139.5093  144.6866  151.5872 LP  0  0  0  0  0  0  0  0  0  0  0  0  # atno 17342 bound_to 10162
  140.6150  143.9366  150.6481 LP  0  0  0  0  0  0  0  0  0  0  0  0  # atno 17343 bound_to 10162
  156.1797  130.3649  149.9051 LP  0  0  0  0  0  0  0  0  0  0  0  0  # atno 17370 bound_to 10713
  156.7007  130.8932  151.3599 LP  0  0  0  0  0  0  0  0  0  0  0  0  # atno 17371 bound_to 10713
  139.9769  135.0111  156.9653 LP  0  0  0  0  0  0  0  0  0  0  0  0  # atno 17394 bound_to 11000
  140.5190  134.0926  155.7287 LP  0  0  0  0  0  0  0  0  0  0  0  0  # atno 17395 bound_to 11000

$$$$
