AV-unprocessed.smi:2251|AV-procd|sdf|9102|dock3
  -GOLD-   2272012303D 1   1.00000     0.00000
 Structure written by MMmdl.
 45 46  0  0  0  0  0  0  0  0  2 V2000
  147.1640  134.9647  162.4934 C   0  0  0  0  0  0  0  0  0  0  0  0
  147.1537  136.1341  161.5152 C   0  0  0  0  0  0  0  0  0  0  0  0
  147.0221  137.2856  161.9294 O   0  0  0  0  0  0  0  0  0  0  0  0
  147.2959  135.8249  160.2168 N   0  0  0  0  0  0  0  0  0  0  0  0
  147.3317  136.7931  159.1241 C   0  0  0  0  0  0  0  0  0  0  0  0
  148.4902  136.5405  158.1527 C   0  0  0  0  0  0  0  0  0  0  0  0
  149.3673  135.7188  158.4213 O   0  0  0  0  0  0  0  0  0  0  0  0
  148.4677  137.2403  157.0103 N   0  0  0  0  0  0  0  0  0  0  0  0
  149.4793  137.1430  155.9626 C   0  0  0  0  0  0  0  0  0  0  0  0
  149.7013  138.4940  155.2232 C   0  0  0  0  0  0  0  0  0  0  0  0
  148.3379  138.9919  154.6903 C   0  0  0  0  0  0  0  0  0  0  0  0
  147.9145  140.3158  154.9720 C   0  0  0  0  0  0  0  0  0  0  0  0
  146.6797  140.7845  154.4813 C   0  0  0  0  0  0  0  0  0  0  0  0
  145.9009  139.9721  153.7382 N   0  3  0  0  0  0  0  0  0  0  0  0
  146.2546  138.7068  153.4330 C   0  0  0  0  0  0  0  0  0  0  0  0
  147.4796  138.1853  153.8965 C   0  0  0  0  0  0  0  0  0  0  0  0
  150.3643  139.5323  156.1831 C   0  0  0  0  0  0  0  0  0  0  0  0
  151.8069  139.1864  156.5938 C   0  0  0  0  0  0  0  0  0  0  0  0
  152.7018  138.9959  155.3639 C   0  0  0  0  0  0  0  0  0  0  0  0
  152.1131  137.9450  154.4163 C   0  0  0  0  0  0  0  0  0  0  0  0
  150.6656  138.2893  154.0182 C   0  0  0  0  0  0  0  0  0  0  0  0
  146.4309  134.2128  162.1998 H   0  0  0  0  0  0  0  0  0  0  0  0
  146.9218  135.3014  163.5020 H   0  0  0  0  0  0  0  0  0  0  0  0
  148.1493  134.4983  162.5161 H   0  0  0  0  0  0  0  0  0  0  0  0
  147.4054  134.8522  159.9687 H   0  0  0  0  0  0  0  0  0  0  0  0
  146.3953  136.7215  158.5708 H   0  0  0  0  0  0  0  0  0  0  0  0
  147.3829  137.8079  159.5234 H   0  0  0  0  0  0  0  0  0  0  0  0
  147.7128  137.8947  156.8652 H   0  0  0  0  0  0  0  0  0  0  0  0
  150.4014  136.7727  156.4090 H   0  0  0  0  0  0  0  0  0  0  0  0
  149.1677  136.3753  155.2525 H   0  0  0  0  0  0  0  0  0  0  0  0
  148.5308  140.9819  155.5572 H   0  0  0  0  0  0  0  0  0  0  0  0
  146.2968  141.7791  154.6576 H   0  0  0  0  0  0  0  0  0  0  0  0
  145.5530  138.1516  152.8274 H   0  0  0  0  0  0  0  0  0  0  0  0
  147.7312  137.1721  153.6249 H   0  0  0  0  0  0  0  0  0  0  0  0
  150.4025  140.5050  155.6903 H   0  0  0  0  0  0  0  0  0  0  0  0
  149.7646  139.6692  157.0837 H   0  0  0  0  0  0  0  0  0  0  0  0
  152.2103  139.9856  157.2164 H   0  0  0  0  0  0  0  0  0  0  0  0
  151.8246  138.2892  157.2120 H   0  0  0  0  0  0  0  0  0  0  0  0
  152.8060  139.9453  154.8368 H   0  0  0  0  0  0  0  0  0  0  0  0
  153.7052  138.7014  155.6729 H   0  0  0  0  0  0  0  0  0  0  0  0
  152.7315  137.8742  153.5211 H   0  0  0  0  0  0  0  0  0  0  0  0
  152.1521  136.9617  154.8854 H   0  0  0  0  0  0  0  0  0  0  0  0
  150.2981  137.5072  153.3540 H   0  0  0  0  0  0  0  0  0  0  0  0
  150.6858  139.2021  153.4207 H   0  0  0  0  0  0  0  0  0  0  0  0
  145.0103  140.3299  153.3913 H   0  0  0  0  0  0  0  0  0  0  0  0
  1  2  1  0  0  0  0
  1 22  1  0  0  0  0
  1 23  1  0  0  0  0
  1 24  1  0  0  0  0
  2  3  2  0  0  0  0
  2  4  1  0  0  0  0
  4  5  1  0  0  0  0
  4 25  1  0  0  0  0
  5  6  1  0  0  0  0
  5 26  1  0  0  0  0
  5 27  1  0  0  0  0
  6  7  2  0  0  0  0
  6  8  1  0  0  0  0
  8  9  1  0  0  0  0
  8 28  1  0  0  0  0
  9 10  1  0  0  0  0
  9 29  1  0  0  0  0
  9 30  1  0  0  0  0
 10 21  1  0  0  0  0
 10 11  1  0  0  0  0
 10 17  1  0  0  0  0
 11 16  1  0  0  0  0
 11 12  2  0  0  0  0
 12 13  1  0  0  0  0
 12 31  1  0  0  0  0
 13 14  2  0  0  0  0
 13 32  1  0  0  0  0
 14 15  1  0  0  0  0
 14 45  1  0  0  0  0
 15 16  2  0  0  0  0
 15 33  1  0  0  0  0
 16 34  1  0  0  0  0
 17 18  1  0  0  0  0
 17 35  1  0  0  0  0
 17 36  1  0  0  0  0
 18 19  1  0  0  0  0
 18 37  1  0  0  0  0
 18 38  1  0  0  0  0
 19 20  1  0  0  0  0
 19 39  1  0  0  0  0
 19 40  1  0  0  0  0
 20 21  1  0  0  0  0
 20 41  1  0  0  0  0
 20 42  1  0  0  0  0
 21 43  1  0  0  0  0
 21 44  1  0  0  0  0
M  CHG  1  14   1
M  END
> <s_m_source_file>
AV-unprocessed.smi

> <i_m_source_file_index>
2251

> <i_lp_mmshare_version>
43012

> <i_f3d_flags>
0

> <s_epik_input>
W0NIM11DKD1PKVtOSF1bQ0gyXUMoPU8pW05IXVtDSDJdQzEoW0NIMl1bQ0gyXVtDSDJdW0NIMl1bQ0gyXTEpYzJbY0hdW2NIXW5bY0hdW2NIXTI=

> <s_epik_cmdline>
J2VwaWtfcHl0aG9uJywgJy1waCcsICc3LjAnLCAnLXRuJywgJzgnLCAnLW1hJywgJzIwMCcsICctbWV0YWxfYmluZGluZycsICctaW1hZScsICc8aW5maWxlLm1hZT4nLCAnLW9tYWUnLCAnPG91dGZpbGUubWFlPic=

> <r_epik_Ionization_Penalty>
1.36815

> <r_epik_Ionization_Penalty_Charging>
1.36815

> <r_epik_Ionization_Penalty_Neutral>
3.04412e-07

> <r_epik_State_Penalty>
1.44763

> <r_epik_Charging_Adjusted_Penalty>
2.81578

> <i_epik_Tot_Q>
1

> <i_epik_Tot_abs_Q>
1

> <r_epik_Metal_State_Penalty>
1.50443

> <b_epik_Metal_Only>
0

> <s_lp_Force_Field>
OPLS_2005

> <r_lp_Energy>
22.2864

> <b_lp_Chiralities_Consistent>
1

> <s_lp_Variant>
AV-unprocessed.smi:2251-2

> <Gold.Version>
5.8.1

> <Gold.Id.Protein>
6NUR|6NUR_protein|mol2

> <Gold.PLP.Fitness>
41.6311

> <Gold.PLP.PLP>
-29.4309

> <Gold.PLP.part.hbond>
-4.0000

> <Gold.PLP.part.metal>
0.0000

> <Gold.PLP.part.buried>
-2.7996

> <Gold.PLP.part.nonpolar>
-23.3612

> <Gold.PLP.part.repulsive>
0.1279

> <Gold.PLP.ligand.clash>
0.0000

> <Gold.PLP.ligand.torsion>
0.5441

> <Gold.PLP.Chemscore.Hbond>
4.4080

> <Gold.PLP.Chemscore.CHOScore>
0.0000

> <Gold.PLP.Chemscore.Metal>
0.0000

> <Gold.Chemscore.Hbonds>
donor molecule, donor type, donor heavy atom, donor atom, acceptor molecule, acceptor atom, score
      L1  H    14    45       P1 10175  2.00
      P1  H  6896  6907       L1     7  0.81
      P1  H  6931  6943       L1     3  0.40
      P1  H  6934  6947       L1     3  0.82

> <Gold.PLP.Chemscore.Internal.Correction>
0.0643

> <Gold.Rescore>
     Score         DG    S(hbond)    S(metal)    S(lipo)     H(rot)  DE(clash)    DE(int)     intcor
     19.68     -20.53       3.40        0.00      77.45       2.10       0.47       0.38       ----

> <Gold.Chemscore.Fitness>
19.6823

> <Gold.Chemscore.DG>
-20.5291

> <Gold.Chemscore.ZeroCoef>
-5.4800

> <Gold.Chemscore.Hbond>
3.3984

> <Gold.Chemscore.Metal>
0.0000

> <Gold.Chemscore.Lipo>
77.4526

> <Gold.Chemscore.Internal_Hbond>
0.0000

> <Gold.Chemscore.DEClash>
0.4707

> <Gold.Chemscore.DEInternal>
0.3762

> <Gold.Chemscore.Rot>
2.0952

> <Gold.Chemscore.Internal.Correction>
   9.000000E+99

> <Gold.Chemscore.Hbonds>
donor molecule, donor type, donor heavy atom, donor atom, acceptor molecule, acceptor atom, score
      L1  H    14    45       P1 10175  0.99
      P1  H  6896  6907       L1     7  0.79
      P1  H  6931  6943       L1     3  0.28
      P1  H  6934  6947       L1     3  0.78

> <Gold.Chemscore.Hbond.Weighted>
-11.3508

> <Gold.Chemscore.Metal.Weighted>
-0.0000

> <Gold.Chemscore.Lipo.Weighted>
-9.0619

> <Gold.Chemscore.Internal_Hbond.Weighted>
0.0000

> <Gold.Chemscore.DEClash.Weighted>
0.4707

> <Gold.Chemscore.DEInternal.Weighted>
0.3762

> <Gold.Chemscore.Rot.Weighted>
5.3636

> <Gold.Chemscore.Internal.Correction.Weighted>
   9.000000E+99

> <Gold.Protein.RotatedTorsions>
[ 6907 6896 6895 6894 ] final  -52.19 input  -60.11 | X-H torsion
[ 7974 7965 7964 7962 ] final  158.51 input  175.53 | X-H torsion
[ 8008 7997 7996 7995 ] final   99.28 input   59.86 | X-H torsion
[ 10167 10162 10161 10158 ] final  130.94 input  -65.29 | X-H torsion
[ 10718 10713 10712 10709 ] final -129.80 input   66.30 | X-H torsion
[ 10763 10752 10751 10750 ] final  -49.24 input  -60.55 | X-H torsion
[ 11005 11000 10999 10996 ] final  178.45 input  -57.11 | X-H torsion

> <Gold.Protein.ActiveResidues>
 VAL166  LYS551  ARG553  GLY616  TRP617  ASP618  TYR619  PRO620  LYS621  CYS622 
 ASP623  PHE694  ASN695  SER759  ASP760  ASP761  ALA762  ILE779  LEU786  VAL792 
 PHE793  MET794  SER795  GLU796  ALA797  LYS798  CYS799  TRP800  GLU811  SER814 

> <Gold.Protein.RotatedAtoms>
  150.8541  134.7874  159.7031 H   0  0  0  0  0  0  0  0  0  0  0  0  # atno 6907 bound_to 6896
  152.4597  134.5208  159.9792 H   0  0  0  0  0  0  0  0  0  0  0  0  # atno 6908 bound_to 6896
  151.5323  133.3409  159.2956 H   0  0  0  0  0  0  0  0  0  0  0  0  # atno 6909 bound_to 6896
  144.7842  139.7488  143.6247 H   0  0  0  0  0  0  0  0  0  0  0  0  # atno 7974 bound_to 7965
  156.1089  140.3231  155.8045 H   0  0  0  0  0  0  0  0  0  0  0  0  # atno 8008 bound_to 7997
  155.4708  140.0546  157.2997 H   0  0  0  0  0  0  0  0  0  0  0  0  # atno 8009 bound_to 7997
  154.4746  140.2026  155.9924 H   0  0  0  0  0  0  0  0  0  0  0  0  # atno 8010 bound_to 7997
  139.5406  144.6727  151.4636 H   0  0  0  0  0  0  0  0  0  0  0  0  # atno 10167 bound_to 10162
  156.2082  130.6901  151.0619 H   0  0  0  0  0  0  0  0  0  0  0  0  # atno 10718 bound_to 10713
  154.0909  135.6577  153.4852 H   0  0  0  0  0  0  0  0  0  0  0  0  # atno 10763 bound_to 10752
  153.0322  135.5202  154.7382 H   0  0  0  0  0  0  0  0  0  0  0  0  # atno 10764 bound_to 10752
  154.6505  135.3000  154.9961 H   0  0  0  0  0  0  0  0  0  0  0  0  # atno 10765 bound_to 10752
  140.3952  134.6826  157.4530 H   0  0  0  0  0  0  0  0  0  0  0  0  # atno 11005 bound_to 11000
  146.2065  139.5393  142.9709 LP  0  0  0  0  0  0  0  0  0  0  0  0  # atno 17320 bound_to 7965
  145.5968  141.0361  143.2040 LP  0  0  0  0  0  0  0  0  0  0  0  0  # atno 17321 bound_to 7965
  140.6634  143.8449  150.6914 LP  0  0  0  0  0  0  0  0  0  0  0  0  # atno 17342 bound_to 10162
  140.1851  143.4083  152.1905 LP  0  0  0  0  0  0  0  0  0  0  0  0  # atno 17343 bound_to 10162
  157.7024  131.0770  150.6777 LP  0  0  0  0  0  0  0  0  0  0  0  0  # atno 17370 bound_to 10713
  156.6836  130.4574  149.5620 LP  0  0  0  0  0  0  0  0  0  0  0  0  # atno 17371 bound_to 10713
  140.0377  134.6313  155.9022 LP  0  0  0  0  0  0  0  0  0  0  0  0  # atno 17394 bound_to 11000
  141.1876  133.6560  156.5291 LP  0  0  0  0  0  0  0  0  0  0  0  0  # atno 17395 bound_to 11000

$$$$
