AV-unprocessed.smi:2781|AV-procd|sdf|10717|dock5
  -GOLD-   2272015153D 1   1.00000     0.00000
 Structure written by MMmdl.
 35 38  0  0  0  0  0  0  0  0  1 V2000
  153.1867  143.4902  163.6884 O   0  0  0  0  0  0  0  0  0  0  0  0
  153.7311  142.6358  162.9881 C   0  0  0  0  0  0  0  0  0  0  0  0
  154.7046  141.8023  163.3960 N   0  0  0  0  0  0  0  0  0  0  0  0
  155.3172  141.7255  164.6752 C   0  0  0  0  0  0  0  0  0  0  0  0
  155.2716  142.9181  165.4329 C   0  0  0  0  0  0  0  0  0  0  0  0
  155.8494  142.9462  166.7172 C   0  0  0  0  0  0  0  0  0  0  0  0
  156.4578  141.7783  167.2101 C   0  0  0  0  0  0  0  0  0  0  0  0
  157.0262  141.7571  168.4389 F   0  0  0  0  0  0  0  0  0  0  0  0
  156.4600  140.6327  166.3932 C   0  0  0  0  0  0  0  0  0  0  0  0
  155.9068  140.6047  165.1619 N   0  0  0  0  0  0  0  0  0  0  0  0
  153.4168  142.4193  161.7034 N   0  0  0  0  0  0  0  0  0  0  0  0
  152.4245  143.1279  160.9616 C   0  0  2  0  0  0  0  0  0  0  0  0
  151.9887  142.5231  159.6357 C   0  0  1  0  0  0  0  0  0  0  0  0
  150.7732  142.9490  158.8175 C   0  0  2  0  0  0  0  0  0  0  0  0
  151.2091  143.0511  157.3414 C   0  0  0  0  0  0  0  0  0  0  0  0
  152.1086  144.3118  157.3444 C   0  0  0  0  0  0  0  0  0  0  0  0
  152.0570  144.7545  158.8216 C   0  0  1  0  0  0  0  0  0  0  0  0
  150.5972  144.4325  159.1458 C   0  0  0  0  0  0  0  0  0  0  0  0
  152.8566  143.7447  159.6399 C   0  0  1  0  0  0  0  0  0  0  0  0
  155.0492  141.1470  162.7103 H   0  0  0  0  0  0  0  0  0  0  0  0
  154.7994  143.8059  165.0380 H   0  0  0  0  0  0  0  0  0  0  0  0
  155.8254  143.8473  167.3119 H   0  0  0  0  0  0  0  0  0  0  0  0
  156.9168  139.7157  166.7353 H   0  0  0  0  0  0  0  0  0  0  0  0
  153.9178  141.6960  161.2088 H   0  0  0  0  0  0  0  0  0  0  0  0
  151.6739  143.6593  161.5421 H   0  0  0  0  0  0  0  0  0  0  0  0
  152.4457  141.5789  159.3440 H   0  0  0  0  0  0  0  0  0  0  0  0
  149.9009  142.3202  158.9964 H   0  0  0  0  0  0  0  0  0  0  0  0
  151.7409  142.1605  157.0045 H   0  0  0  0  0  0  0  0  0  0  0  0
  150.3473  143.1941  156.6880 H   0  0  0  0  0  0  0  0  0  0  0  0
  153.1255  144.0979  157.0127 H   0  0  0  0  0  0  0  0  0  0  0  0
  151.6968  145.0809  156.6897 H   0  0  0  0  0  0  0  0  0  0  0  0
  152.3629  145.7849  159.0038 H   0  0  0  0  0  0  0  0  0  0  0  0
  149.8839  144.9405  158.4934 H   0  0  0  0  0  0  0  0  0  0  0  0
  150.3114  144.6341  160.1776 H   0  0  0  0  0  0  0  0  0  0  0  0
  153.9000  143.6260  159.3525 H   0  0  0  0  0  0  0  0  0  0  0  0
  1  2  2  0  0  0  0
  2  3  1  0  0  0  0
  2 11  1  0  0  0  0
  3  4  1  0  0  0  0
  3 20  1  0  0  0  0
  4 10  1  0  0  0  0
  4  5  2  0  0  0  0
  5  6  1  0  0  0  0
  5 21  1  0  0  0  0
  6  7  2  0  0  0  0
  6 22  1  0  0  0  0
  7  8  1  0  0  0  0
  7  9  1  0  0  0  0
  9 10  2  0  0  0  0
  9 23  1  0  0  0  0
 11 12  1  0  0  0  0
 11 24  1  0  0  0  0
 12 19  1  0  0  0  0
 12 13  1  0  0  0  0
 12 25  1  0  0  0  0
 13 19  1  0  0  0  0
 13 14  1  0  0  0  0
 13 26  1  0  0  0  0
 14 18  1  0  0  0  0
 14 15  1  0  0  0  0
 14 27  1  0  0  0  0
 15 16  1  0  0  0  0
 15 28  1  0  0  0  0
 15 29  1  0  0  0  0
 16 17  1  0  0  0  0
 16 30  1  0  0  0  0
 16 31  1  0  0  0  0
 17 18  1  0  0  0  0
 17 19  1  0  0  0  0
 17 32  1  0  0  0  0
 18 33  1  0  0  0  0
 18 34  1  0  0  0  0
 19 35  1  0  0  0  0
M  END
> <s_m_source_file>
AV-unprocessed.smi

> <i_m_source_file_index>
2781

> <i_lp_mmshare_version>
43012

> <i_f3d_flags>
0

> <s_epik_input>
bjFbY0hdYyhGKVtjSF1bY0hdYzFbTkhdQyg9TylbTkhdW0NASF0yW0NAQEhdM1tDQEhdKFtDSDJdNClbQ0gyXVtDSDJdW0NASF00W0NASF0yMw==

> <s_epik_cmdline>
J2VwaWtfcHl0aG9uJywgJy1waCcsICc3LjAnLCAnLXRuJywgJzgnLCAnLW1hJywgJzIwMCcsICctbWV0YWxfYmluZGluZycsICctaW1hZScsICc8aW5maWxlLm1hZT4nLCAnLW9tYWUnLCAnPG91dGZpbGUubWFlPic=

> <r_lp_tautomer_probability>
1

> <r_epik_Ionization_Penalty>
4.05776e-05

> <r_epik_Ionization_Penalty_Charging>
0

> <r_epik_Ionization_Penalty_Neutral>
4.05776e-05

> <r_epik_State_Penalty>
-0

> <r_epik_Charging_Adjusted_Penalty>
0

> <i_epik_Tot_Q>
0

> <i_epik_Tot_abs_Q>
0

> <r_epik_Metal_State_Penalty>
-0

> <b_epik_Metal_Only>
0

> <s_lp_Force_Field>
OPLS_2005

> <r_lp_Energy>
77.2999

> <b_lp_Chiralities_Consistent>
1

> <s_lp_Variant>
AV-unprocessed.smi:2781-1

> <Gold.Version>
5.8.1

> <Gold.Id.Protein>
6NUR|6NUR_protein|mol2

> <Gold.PLP.Fitness>
43.1506

> <Gold.PLP.PLP>
-43.6108

> <Gold.PLP.part.hbond>
-1.2707

> <Gold.PLP.part.metal>
0.0000

> <Gold.PLP.part.buried>
-6.7632

> <Gold.PLP.part.nonpolar>
-34.5046

> <Gold.PLP.part.repulsive>
0.5349

> <Gold.PLP.ligand.clash>
0.0000

> <Gold.PLP.ligand.torsion>
0.2432

> <Gold.PLP.Chemscore.Hbond>
0.0000

> <Gold.PLP.Chemscore.CHOScore>
0.0000

> <Gold.PLP.Chemscore.Metal>
0.0000

> <Gold.PLP.Chemscore.Internal.Correction>
0.0262

> <Gold.Rescore>
     Score         DG    S(hbond)    S(metal)    S(lipo)     H(rot)  DE(clash)    DE(int)     intcor
     14.15     -17.09       0.00        0.00     121.12       1.00       1.21       1.73       ----

> <Gold.Chemscore.Fitness>
14.1518

> <Gold.Chemscore.DG>
-17.0908

> <Gold.Chemscore.ZeroCoef>
-5.4800

> <Gold.Chemscore.Hbond>
0.0000

> <Gold.Chemscore.Metal>
0.0000

> <Gold.Chemscore.Lipo>
121.1179

> <Gold.Chemscore.Internal_Hbond>
0.0000

> <Gold.Chemscore.DEClash>
1.2108

> <Gold.Chemscore.DEInternal>
1.7281

> <Gold.Chemscore.Rot>
1.0000

> <Gold.Chemscore.Internal.Correction>
   9.000000E+99

> <Gold.Chemscore.Hbond.Weighted>
-0.0000

> <Gold.Chemscore.Metal.Weighted>
-0.0000

> <Gold.Chemscore.Lipo.Weighted>
-14.1708

> <Gold.Chemscore.Internal_Hbond.Weighted>
0.0000

> <Gold.Chemscore.DEClash.Weighted>
1.2108

> <Gold.Chemscore.DEInternal.Weighted>
1.7281

> <Gold.Chemscore.Rot.Weighted>
2.5600

> <Gold.Chemscore.Internal.Correction.Weighted>
   9.000000E+99

> <Gold.Protein.RotatedTorsions>
[ 6907 6896 6895 6894 ] final  -24.30 input  -60.11 | X-H torsion
[ 7974 7965 7964 7962 ] final   15.97 input  175.53 | X-H torsion
[ 8008 7997 7996 7995 ] final  160.14 input   59.86 | X-H torsion
[ 10167 10162 10161 10158 ] final  -59.47 input  -65.29 | X-H torsion
[ 10718 10713 10712 10709 ] final  -94.71 input   66.30 | X-H torsion
[ 10763 10752 10751 10750 ] final   -8.99 input  -60.55 | X-H torsion
[ 11005 11000 10999 10996 ] final  145.70 input  -57.11 | X-H torsion

> <Gold.Protein.ActiveResidues>
 VAL166  LYS551  ARG553  GLY616  TRP617  ASP618  TYR619  PRO620  LYS621  CYS622 
 ASP623  PHE694  ASN695  SER759  ASP760  ASP761  ALA762  ILE779  LEU786  VAL792 
 PHE793  MET794  SER795  GLU796  ALA797  LYS798  CYS799  TRP800  GLU811  SER814 

> <Gold.Protein.RotatedAtoms>
  151.1915  135.0404  159.8834 H   0  0  0  0  0  0  0  0  0  0  0  0  # atno 6907 bound_to 6896
  152.5439  134.0951  159.8303 H   0  0  0  0  0  0  0  0  0  0  0  0  # atno 6908 bound_to 6896
  151.1080  133.5147  159.2639 H   0  0  0  0  0  0  0  0  0  0  0  0  # atno 6909 bound_to 6896
  146.2263  139.8816  142.8570 H   0  0  0  0  0  0  0  0  0  0  0  0  # atno 7974 bound_to 7965
  156.2192  140.1812  156.7516 H   0  0  0  0  0  0  0  0  0  0  0  0  # atno 8008 bound_to 7997
  154.5839  140.0661  156.9173 H   0  0  0  0  0  0  0  0  0  0  0  0  # atno 8009 bound_to 7997
  155.2453  140.3325  155.4290 H   0  0  0  0  0  0  0  0  0  0  0  0  # atno 8010 bound_to 7997
  140.6133  143.2394  151.5657 H   0  0  0  0  0  0  0  0  0  0  0  0  # atno 10167 bound_to 10162
  156.0031  130.5079  150.5968 H   0  0  0  0  0  0  0  0  0  0  0  0  # atno 10718 bound_to 10713
  153.4484  135.7014  153.6124 H   0  0  0  0  0  0  0  0  0  0  0  0  # atno 10763 bound_to 10752
  153.4469  135.3767  155.2261 H   0  0  0  0  0  0  0  0  0  0  0  0  # atno 10764 bound_to 10752
  154.8728  135.3987  154.3893 H   0  0  0  0  0  0  0  0  0  0  0  0  # atno 10765 bound_to 10752
  140.0733  134.9139  157.1382 H   0  0  0  0  0  0  0  0  0  0  0  0  # atno 11005 bound_to 11000
  145.2506  141.0042  143.3883 LP  0  0  0  0  0  0  0  0  0  0  0  0  # atno 17320 bound_to 7965
  144.9377  139.4224  143.6464 LP  0  0  0  0  0  0  0  0  0  0  0  0  # atno 17321 bound_to 7965
  139.5378  144.2731  152.1289 LP  0  0  0  0  0  0  0  0  0  0  0  0  # atno 17342 bound_to 10162
  140.1935  144.4728  150.6467 LP  0  0  0  0  0  0  0  0  0  0  0  0  # atno 17343 bound_to 10162
  157.3823  131.0783  151.1466 LP  0  0  0  0  0  0  0  0  0  0  0  0  # atno 17370 bound_to 10713
  157.2184  130.6470  149.5801 LP  0  0  0  0  0  0  0  0  0  0  0  0  # atno 17371 bound_to 10713
  140.3594  134.2510  155.7189 LP  0  0  0  0  0  0  0  0  0  0  0  0  # atno 17394 bound_to 11000
  141.2020  133.7948  157.0412 LP  0  0  0  0  0  0  0  0  0  0  0  0  # atno 17395 bound_to 11000

$$$$
