#       Name:                AV-unprocessed.smi:1469
#       Creating user name   scv26
#       Creation time:       Fri Mar 27 06:04:29 2020


#       File generated by GOLD software.
#

@<TRIPOS>MOLECULE
AV-unprocessed.smi:1469
    45    46     1
SMALL
NO_CHARGES


@<TRIPOS>ATOM
      1 ****        -1.8304  -0.7079  -0.1836 C.3            1 S1                 0.0000
      2 ****        -0.6517  -1.4867  -0.8116 C.3            1 S1                 0.0000
      3 ****         0.6368  -0.6241  -0.8511 C.3            1 S1                 0.0000
      4 ****         1.0690  -0.1837   0.4731 N.am           1 S1                 0.0000
      5 ****         0.9092   1.0494   0.9784 C.2            1 S1                 0.0000
      6 ****         0.3352   1.9560   0.3733 O.2            1 S1                 0.0000
      7 ****         1.4711   1.2689   2.3909 C.3            1 S1                 0.0000
      8 ****         1.4727   2.6788   2.8166 N.am           1 S1                 0.0000
      9 ****         0.4052   3.1026   3.6332 C.2            1 S1                 0.0000
     10 ****         0.3117   4.3646   4.0814 C.2            1 S1                 0.0000
     11 ****         1.3444   5.3010   3.7052 C.2            1 S1                 0.0000
     12 ****         2.3678   4.9072   2.9212 C.2            1 S1                 0.0000
     13 ****         2.4728   3.5292   2.4274 C.2            1 S1                 0.0000
     14 ****         3.4021   3.1613   1.7081 O.2            1 S1                 0.0000
     15 ****        -0.9962  -1.9729  -2.1803 N.4            1 S1                 1.0000
     16 ****         0.0455  -2.8028  -2.8392 C.3            1 S1                 0.0000
     17 ****        -0.6760  -3.9139  -3.6145 C.3            1 S1                 0.0000
     18 ****        -2.1449  -3.5096  -3.5976 C.3            1 S1                 0.0000
     19 ****        -2.2675  -2.7211  -2.2991 C.3            1 S1                 0.0000
     20 ****        -1.5999  -0.3742   0.8276 H              1 S1                 0.0000
     21 ****        -2.7292  -1.3178  -0.0966 H              1 S1                 0.0000
     22 ****        -2.0795   0.1747  -0.7738 H              1 S1                 0.0000
     23 ****        -0.4620  -2.3620  -0.1877 H              1 S1                 0.0000
     24 ****         1.4698  -1.1916  -1.2647 H              1 S1                 0.0000
     25 ****         0.4978   0.2277  -1.5194 H              1 S1                 0.0000
     26 ****         1.5455  -0.8662   1.0452 H              1 S1                 0.0000
     27 ****         0.8895   0.6622   3.0868 H              1 S1                 0.0000
     28 ****         2.4836   0.8635   2.4380 H              1 S1                 0.0000
     29 ****        -0.3277   2.3434   3.8649 H              1 S1                 0.0000
     30 ****        -0.5152   4.6721   4.7046 H              1 S1                 0.0000
     31 ****         1.2954   6.3224   4.0532 H              1 S1                 0.0000
     32 ****         3.1305   5.6220   2.6489 H              1 S1                 0.0000
     33 ****         0.6355  -2.1730  -3.5060 H              1 S1                 0.0000
     34 ****         0.7273  -3.2493  -2.1138 H              1 S1                 0.0000
     35 ****        -0.2902  -4.0390  -4.6268 H              1 S1                 0.0000
     36 ****        -0.5520  -4.8641  -3.0933 H              1 S1                 0.0000
     37 ****        -2.3615  -2.8612  -4.4477 H              1 S1                 0.0000
     38 ****        -2.8220  -4.3632  -3.6422 H              1 S1                 0.0000
     39 ****        -2.3709  -3.4102  -1.4589 H              1 S1                 0.0000
     40 ****        -3.1335  -2.0583  -2.3080 H              1 S1                 0.0000
     41 ****        -1.1080  -1.1550  -2.7626 H              1 S1                 0.0000
     42 ****        -0.0381   1.7899  -0.5394 LP             1 S1                 0.0000
     43 ****         0.2425   2.8581   0.7948 LP             1 S1                 0.0000
     44 ****         3.4429   2.2144   1.3891 LP             1 S1                 0.0000
     45 ****         4.1160   3.8094   1.4430 LP             1 S1                 0.0000
@<TRIPOS>BOND
    1    1    2 1     
    2    1   20 1     
    3    1   21 1     
    4    1   22 1     
    5    2    3 1     
    6    2   15 1     
    7    2   23 1     
    8    3    4 1     
    9    3   24 1     
   10    3   25 1     
   11    4    5 am    
   12    4   26 1     
   13    5    6 2     
   14    5    7 1     
   15    7    8 1     
   16    7   27 1     
   17    7   28 1     
   18    8   13 am    
   19    8    9 1     
   20    9   10 2     
   21    9   29 1     
   22   10   11 1     
   23   10   30 1     
   24   11   12 2     
   25   11   31 1     
   26   12   13 1     
   27   12   32 1     
   28   13   14 2     
   29   15   19 1     
   30   15   16 1     
   31   15   41 1     
   32   16   17 1     
   33   16   33 1     
   34   16   34 1     
   35   17   18 1     
   36   17   35 1     
   37   17   36 1     
   38   18   19 1     
   39   18   37 1     
   40   18   38 1     
   41   19   39 1     
   42   19   40 1     
   43    6   42 1     
   44    6   43 1     
   45   14   44 1     
   46   14   45 1     
@<TRIPOS>SUBSTRUCTURE
      1 S1             1
@<TRIPOS>SET
LONE_PAIRS      STATIC     ATOMS    <user>   **** ""
4 42 43 44 45
DONOR_HYDROGENS      STATIC     ATOMS    <user>   **** ""
2 26 41
ATOM$BLUE        STATIC     ATOMS    COLORGROUP SYSTEM
4 42 43 44 45
ATOM$RED        STATIC     ATOMS    COLORGROUP SYSTEM
2 26 41
