#       Name:                AV-unprocessed.smi:2975
#       Creating user name   scv26
#       Creation time:       Fri Mar 27 16:27:23 2020


#       File generated by GOLD software.
#

@<TRIPOS>MOLECULE
AV-unprocessed.smi:2975
    44    46     1
SMALL
NO_CHARGES


@<TRIPOS>ATOM
      1 ****        -0.8018   2.8247   0.4734 C.3            1 S1                 0.0000
      2 ****        -0.5250   1.9346   1.6934 C.3            1 S1                 0.0000
      3 ****        -0.9028   2.6382   2.8582 O.3            1 S1                 0.0000
      4 ****        -1.2258   0.6077   1.5910 C.2            1 S1                 0.0000
      5 ****        -2.5590   0.5345   1.5672 N.2            1 S1                 0.0000
      6 ****        -2.7928  -0.8205   1.4578 C.ar           1 S1                 0.0000
      7 ****        -4.0071  -1.5384   1.3725 C.ar           1 S1                 0.0000
      8 ****        -3.9986  -2.9443   1.2641 C.ar           1 S1                 0.0000
      9 ****        -2.7786  -3.6504   1.2399 C.ar           1 S1                 0.0000
     10 ****        -1.5579  -2.9536   1.3255 C.ar           1 S1                 0.0000
     11 ****        -1.5716  -1.5496   1.4334 C.ar           1 S1                 0.0000
     12 ****        -0.5731  -0.5848   1.5378 N.pl3          1 S1                 0.0000
     13 ****         0.8571  -0.8623   1.5814 C.3            1 S1                 0.0000
     14 ****         1.4955  -0.8786   0.1854 C.3            1 S1                 0.0000
     15 ****         1.5161   0.4355  -0.3555 O.3            1 S1                 0.0000
     16 ****         2.1100   0.6235  -1.5861 C.ar           1 S1                 0.0000
     17 ****         2.5468  -0.4333  -2.4257 C.ar           1 S1                 0.0000
     18 ****         3.1373  -0.1568  -3.6741 C.ar           1 S1                 0.0000
     19 ****         3.3022   1.1740  -4.0988 C.ar           1 S1                 0.0000
     20 ****         2.8750   2.2293  -3.2724 C.ar           1 S1                 0.0000
     21 ****         2.2834   1.9543  -2.0243 C.ar           1 S1                 0.0000
     22 ****         1.8870   2.9822  -1.2368 F              1 S1                 0.0000
     23 ****        -0.5129   2.3227  -0.4499 H              1 S1                 0.0000
     24 ****        -0.2419   3.7585   0.5326 H              1 S1                 0.0000
     25 ****        -1.8598   3.0764   0.3924 H              1 S1                 0.0000
     26 ****         0.5507   1.7882   1.7567 H              1 S1                 0.0000
     27 ****        -1.8332   2.7990   2.8169 H              1 S1                 0.0000
     28 ****        -4.9464  -1.0060   1.3896 H              1 S1                 0.0000
     29 ****        -4.9325  -3.4832   1.1990 H              1 S1                 0.0000
     30 ****        -2.7805  -4.7273   1.1561 H              1 S1                 0.0000
     31 ****        -0.6225  -3.4927   1.3072 H              1 S1                 0.0000
     32 ****         1.3591  -0.1544   2.2396 H              1 S1                 0.0000
     33 ****         0.9954  -1.8380   2.0479 H              1 S1                 0.0000
     34 ****         2.5155  -1.2580   0.2626 H              1 S1                 0.0000
     35 ****         0.9342  -1.5538  -0.4625 H              1 S1                 0.0000
     36 ****         2.4367  -1.4674  -2.1377 H              1 S1                 0.0000
     37 ****         3.4634  -0.9686  -4.3077 H              1 S1                 0.0000
     38 ****         3.7555   1.3850  -5.0562 H              1 S1                 0.0000
     39 ****         3.0022   3.2522  -3.5950 H              1 S1                 0.0000
     40 ****        -0.4106   3.5076   2.9033 LP             1 S1                 0.0000
     41 ****        -0.6892   2.0919   3.6681 LP             1 S1                 0.0000
     42 ****        -3.2245   1.2793   1.6166 LP             1 S1                 0.0000
     43 ****         1.9983   1.0182   0.2988 LP             1 S1                 0.0000
     44 ****         0.5665   0.7386  -0.4349 LP             1 S1                 0.0000
@<TRIPOS>BOND
    1    1    2 1     
    2    1   23 1     
    3    1   24 1     
    4    1   25 1     
    5    2    3 1     
    6    2    4 1     
    7    2   26 1     
    8    3   27 1     
    9    4   12 1     
   10    4    5 2     
   11    5    6 1     
   12    6   11 ar    
   13    6    7 ar    
   14    7    8 ar    
   15    7   28 1     
   16    8    9 ar    
   17    8   29 1     
   18    9   10 ar    
   19    9   30 1     
   20   10   11 ar    
   21   10   31 1     
   22   11   12 1     
   23   12   13 1     
   24   13   14 1     
   25   13   32 1     
   26   13   33 1     
   27   14   15 1     
   28   14   34 1     
   29   14   35 1     
   30   15   16 1     
   31   16   21 ar    
   32   16   17 ar    
   33   17   18 ar    
   34   17   36 1     
   35   18   19 ar    
   36   18   37 1     
   37   19   20 ar    
   38   19   38 1     
   39   20   21 ar    
   40   20   39 1     
   41   21   22 1     
   42    3   40 1     
   43    3   41 1     
   44    5   42 1     
   45   15   43 1     
   46   15   44 1     
@<TRIPOS>SUBSTRUCTURE
      1 S1             1
@<TRIPOS>SET
LONE_PAIRS      STATIC     ATOMS    <user>   **** ""
5 40 41 42 43 44
DONOR_HYDROGENS      STATIC     ATOMS    <user>   **** ""
1 27
ATOM$BLUE        STATIC     ATOMS    COLORGROUP SYSTEM
5 40 41 42 43 44
ATOM$RED        STATIC     ATOMS    COLORGROUP SYSTEM
1 27
