AV-unprocessed.smi:54|AV-procd|sdf|544|dock8
  -GOLD-   2262016433D 1   1.00000     0.00000
 Structure written by MMmdl.
 44 46  0  0  0  0  0  0  0  0  1 V2000
  151.9748  145.2728  160.4879 C   0  0  0  0  0  0  0  0  0  0  0  0
  150.9566  144.9134  159.3943 C   0  0  0  0  0  0  0  0  0  0  0  0
  149.5192  144.9387  159.9395 C   0  0  0  0  0  0  0  0  0  0  0  0
  151.2829  143.5455  158.7841 C   0  0  0  0  0  0  0  0  0  0  0  0
  152.1172  142.7887  159.2829 O   0  0  0  0  0  0  0  0  0  0  0  0
  150.5499  143.2123  157.5761 N   0  0  0  0  0  0  0  0  0  0  0  0
  150.6490  142.0759  156.8487 C   0  0  0  0  0  0  0  0  0  0  0  0
  149.7896  141.7537  155.8922 N   0  0  0  0  0  0  0  0  0  0  0  0
  150.0612  140.5718  155.2605 C   0  0  0  0  0  0  0  0  0  0  0  0
  151.1159  139.7224  155.5207 C   0  0  0  0  0  0  0  0  0  0  0  0
  151.0592  138.6175  154.6783 N   0  0  0  0  0  0  0  0  0  0  0  0
  149.9962  138.8264  153.9520 C   0  0  0  0  0  0  0  0  0  0  0  0
  149.3309  139.9943  154.2448 N   0  0  0  0  0  0  0  0  0  0  0  0
  148.0922  140.5643  153.6326 C   0  0  1  0  0  0  0  0  0  0  0  0
  147.7269  139.7482  152.5558 O   0  0  0  0  0  0  0  0  0  0  0  0
  146.4490  139.1644  152.7916 C   0  0  1  0  0  0  0  0  0  0  0  0
  146.3279  137.7860  152.1159 C   0  0  0  0  0  0  0  0  0  0  0  0
  146.5946  137.8399  150.7298 O   0  0  0  0  0  0  0  0  0  0  0  0
  146.2497  139.2221  154.3075 C   0  0  2  0  0  0  0  0  0  0  0  0
  144.8894  139.2061  154.6956 O   0  0  0  0  0  0  0  0  0  0  0  0
  146.9504  140.5270  154.6617 C   0  0  2  0  0  0  0  0  0  0  0  0
  146.1174  141.6651  154.5306 O   0  0  0  0  0  0  0  0  0  0  0  0
  152.0601  140.0626  156.5457 C   0  0  0  0  0  0  0  0  0  0  0  0
  153.0521  139.4338  156.9082 O   0  0  0  0  0  0  0  0  0  0  0  0
  151.7475  141.2781  157.1689 N   0  0  0  0  0  0  0  0  0  0  0  0
  148.3831  141.5649  153.3093 H   0  0  0  0  0  0  0  0  0  0  0  0
  145.7314  139.8382  152.3199 H   0  0  0  0  0  0  0  0  0  0  0  0
  146.7712  138.3988  154.7967 H   0  0  0  0  0  0  0  0  0  0  0  0
  147.3382  140.5141  155.6815 H   0  0  0  0  0  0  0  0  0  0  0  0
  152.9940  145.2621  160.0994 H   0  0  0  0  0  0  0  0  0  0  0  0
  151.9292  144.5737  161.3242 H   0  0  0  0  0  0  0  0  0  0  0  0
  151.7871  146.2720  160.8817 H   0  0  0  0  0  0  0  0  0  0  0  0
  151.0284  145.6633  158.6052 H   0  0  0  0  0  0  0  0  0  0  0  0
  148.7971  144.6641  159.1695 H   0  0  0  0  0  0  0  0  0  0  0  0
  149.2552  145.9356  160.2936 H   0  0  0  0  0  0  0  0  0  0  0  0
  149.3943  144.2487  160.7751 H   0  0  0  0  0  0  0  0  0  0  0  0
  149.9287  143.9256  157.2238 H   0  0  0  0  0  0  0  0  0  0  0  0
  149.6760  138.1351  153.1868 H   0  0  0  0  0  0  0  0  0  0  0  0
  147.0455  137.0975  152.5623 H   0  0  0  0  0  0  0  0  0  0  0  0
  145.3367  137.3635  152.2814 H   0  0  0  0  0  0  0  0  0  0  0  0
  145.7727  137.8107  150.2641 H   0  0  0  0  0  0  0  0  0  0  0  0
  144.3757  139.5662  153.9884 H   0  0  0  0  0  0  0  0  0  0  0  0
  145.4737  141.4875  153.8613 H   0  0  0  0  0  0  0  0  0  0  0  0
  152.3695  141.5802  157.9040 H   0  0  0  0  0  0  0  0  0  0  0  0
  1  2  1  0  0  0  0
  1 30  1  0  0  0  0
  1 31  1  0  0  0  0
  1 32  1  0  0  0  0
  2  3  1  0  0  0  0
  2  4  1  0  0  0  0
  2 33  1  0  0  0  0
  3 34  1  0  0  0  0
  3 35  1  0  0  0  0
  3 36  1  0  0  0  0
  4  5  2  0  0  0  0
  4  6  1  0  0  0  0
  6 37  1  0  0  0  0
  6  7  1  0  0  0  0
  7 25  1  0  0  0  0
  7  8  2  0  0  0  0
  8  9  1  0  0  0  0
  9 13  1  0  0  0  0
  9 10  2  0  0  0  0
 10 11  1  0  0  0  0
 10 23  1  0  0  0  0
 11 12  2  0  0  0  0
 12 13  1  0  0  0  0
 12 38  1  0  0  0  0
 13 14  1  0  0  0  0
 14 26  1  0  0  0  0
 14 21  1  0  0  0  0
 14 15  1  0  0  0  0
 15 16  1  0  0  0  0
 16 27  1  0  0  0  0
 16 17  1  0  0  0  0
 16 19  1  0  0  0  0
 17 18  1  0  0  0  0
 17 39  1  0  0  0  0
 17 40  1  0  0  0  0
 18 41  1  0  0  0  0
 19 28  1  0  0  0  0
 19 20  1  0  0  0  0
 19 21  1  0  0  0  0
 20 42  1  0  0  0  0
 21 29  1  0  0  0  0
 21 22  1  0  0  0  0
 22 43  1  0  0  0  0
 23 24  2  0  0  0  0
 23 25  1  0  0  0  0
 25 44  1  0  0  0  0
M  END
> <s_m_source_file>
AV-unprocessed.smi

> <i_m_source_file_index>
54

> <i_lp_mmshare_version>
43012

> <i_f3d_flags>
0

> <s_epik_input>
W0NIM11bQ0hdKFtDSDNdKUMoPU8pW05IXWMobjEpW25IXWMoPU8pYyhjMTIpbltjSF1uMltDQEBIXTNPW0NASF0oW0NIMl1bT0hdKVtDQEBIXShbT0hdKVtDQEhdM1tPSF0=

> <s_epik_cmdline>
J2VwaWtfcHl0aG9uJywgJy1waCcsICc3LjAnLCAnLXRuJywgJzgnLCAnLW1hJywgJzIwMCcsICctbWV0YWxfYmluZGluZycsICctaW1hZScsICc8aW5maWxlLm1hZT4nLCAnLW9tYWUnLCAnPG91dGZpbGUubWFlPic=

> <r_lp_tautomer_probability>
0.85571

> <r_epik_Ionization_Penalty>
0.0316551

> <r_epik_Ionization_Penalty_Charging>
0.0316043

> <r_epik_Ionization_Penalty_Neutral>
5.07097e-05

> <r_epik_State_Penalty>
3.15494e-07

> <r_epik_Charging_Adjusted_Penalty>
0.0316047

> <i_epik_Tot_Q>
0

> <i_epik_Tot_abs_Q>
0

> <r_epik_Metal_State_Penalty>
0.421206

> <b_epik_Metal_Only>
0

> <s_epik_Chemistry_Notes>
This compound contains an acetal/aminal-like group ( X-CH(R)-Y where X, Y are N, S, or O) that may be acid/base labile, releasing an aldehyde.

> <s_lp_Force_Field>
OPLS_2005

> <r_lp_Energy>
44.5551

> <b_lp_Chiralities_Consistent>
1

> <s_lp_Variant>
AV-unprocessed.smi:54-16

> <Gold.Version>
5.8.1

> <Gold.Id.Protein>
6NUR|6NUR_protein|mol2

> <Gold.PLP.Fitness>
54.7289

> <Gold.PLP.PLP>
-37.1868

> <Gold.PLP.part.hbond>
-5.9003

> <Gold.PLP.part.metal>
0.0000

> <Gold.PLP.part.buried>
-1.7168

> <Gold.PLP.part.nonpolar>
-34.1705

> <Gold.PLP.part.repulsive>
5.3054

> <Gold.PLP.ligand.clash>
0.0000

> <Gold.PLP.ligand.torsion>
0.3017

> <Gold.PLP.Chemscore.Hbond>
5.0000

> <Gold.PLP.Chemscore.CHOScore>
1.0362

> <Gold.PLP.Chemscore.Metal>
0.0000

> <Gold.Chemscore.Hbonds>
donor molecule, donor type, donor heavy atom, donor atom, acceptor molecule, acceptor atom, score
      L1  H     6    37       P1  8028  1.00
      L1  H    18    41       P1 10171  0.86
      L1  H    20    42       P1 10175  1.00
      P1  H  7954  7966       L1    18  1.00
      P1  H  7997  8009       L1    24  0.98
      L1  C    12    38       P1  7948  1.00
      L1  C    12    38       P1  7957  0.13

> <Gold.PLP.Chemscore.Internal.Correction>
0.0369

> <Gold.Rescore>
     Score         DG    S(hbond)    S(metal)    S(lipo)     H(rot)  DE(clash)    DE(int)     intcor
     12.08     -15.27       4.01        0.00      57.74       4.05       2.62       0.58       ----

> <Gold.Chemscore.Fitness>
12.0759

> <Gold.Chemscore.DG>
-15.2745

> <Gold.Chemscore.ZeroCoef>
-5.4800

> <Gold.Chemscore.Hbond>
4.0135

> <Gold.Chemscore.Metal>
0.0000

> <Gold.Chemscore.Lipo>
57.7398

> <Gold.Chemscore.Internal_Hbond>
0.0000

> <Gold.Chemscore.DEClash>
2.6222

> <Gold.Chemscore.DEInternal>
0.5764

> <Gold.Chemscore.Rot>
4.0493

> <Gold.Chemscore.Internal.Correction>
   9.000000E+99

> <Gold.Chemscore.Hbonds>
donor molecule, donor type, donor heavy atom, donor atom, acceptor molecule, acceptor atom, score
      L1  H     6    37       P1  8028  0.73
      L1  H    18    41       P1 10171  0.81
      L1  H    20    42       P1 10175  1.00
      L1  H    22    43       P1 10175  0.01
      P1  H  7954  7966       L1    18  0.97
      P1  H  7997  8009       L1    24  0.75

> <Gold.Chemscore.Hbond.Weighted>
-13.4052

> <Gold.Chemscore.Metal.Weighted>
-0.0000

> <Gold.Chemscore.Lipo.Weighted>
-6.7556

> <Gold.Chemscore.Internal_Hbond.Weighted>
0.0000

> <Gold.Chemscore.DEClash.Weighted>
2.6222

> <Gold.Chemscore.DEInternal.Weighted>
0.5764

> <Gold.Chemscore.Rot.Weighted>
10.3662

> <Gold.Chemscore.Internal.Correction.Weighted>
   9.000000E+99

> <Gold.Protein.RotatedTorsions>
[ 6907 6896 6895 6894 ] final    9.73 input  -60.11 | X-H torsion
[ 7974 7965 7964 7962 ] final   55.40 input  175.53 | X-H torsion
[ 8008 7997 7996 7995 ] final -169.05 input   59.86 | X-H torsion
[ 10167 10162 10161 10158 ] final  125.63 input  -65.29 | X-H torsion
[ 10718 10713 10712 10709 ] final   60.54 input   66.30 | X-H torsion
[ 10763 10752 10751 10750 ] final  178.50 input  -60.55 | X-H torsion
[ 11005 11000 10999 10996 ] final  113.48 input  -57.11 | X-H torsion

> <Gold.Protein.ActiveResidues>
 VAL166  LYS551  ARG553  GLY616  TRP617  ASP618  TYR619  PRO620  LYS621  CYS622 
 ASP623  PHE694  ASN695  SER759  ASP760  ASP761  ALA762  ILE779  LEU786  VAL792 
 PHE793  MET794  SER795  GLU796  ALA797  LYS798  CYS799  TRP800  GLU811  SER814 

> <Gold.Protein.RotatedAtoms>
  151.7269  135.0883  160.0293 H   0  0  0  0  0  0  0  0  0  0  0  0  # atno 6907 bound_to 6896
  152.3566  133.6240  159.5992 H   0  0  0  0  0  0  0  0  0  0  0  0  # atno 6908 bound_to 6896
  150.7575  133.9406  159.3496 H   0  0  0  0  0  0  0  0  0  0  0  0  # atno 6909 bound_to 6896
  145.9508  139.3970  143.0307 H   0  0  0  0  0  0  0  0  0  0  0  0  # atno 7974 bound_to 7965
  155.8998  140.1039  157.1358 H   0  0  0  0  0  0  0  0  0  0  0  0  # atno 8008 bound_to 7997
  154.4025  140.1295  156.4485 H   0  0  0  0  0  0  0  0  0  0  0  0  # atno 8009 bound_to 7997
  155.7436  140.3466  155.5118 H   0  0  0  0  0  0  0  0  0  0  0  0  # atno 8010 bound_to 7997
  139.5675  144.6920  151.3869 H   0  0  0  0  0  0  0  0  0  0  0  0  # atno 10167 bound_to 10162
  157.5760  130.8944  149.9348 H   0  0  0  0  0  0  0  0  0  0  0  0  # atno 10718 bound_to 10713
  154.5084  135.2787  155.1363 H   0  0  0  0  0  0  0  0  0  0  0  0  # atno 10763 bound_to 10752
  154.2968  135.6256  153.5411 H   0  0  0  0  0  0  0  0  0  0  0  0  # atno 10764 bound_to 10752
  152.9914  135.5687  154.5544 H   0  0  0  0  0  0  0  0  0  0  0  0  # atno 10765 bound_to 10752
  139.8954  134.9550  156.6745 H   0  0  0  0  0  0  0  0  0  0  0  0  # atno 11005 bound_to 11000
  145.8174  140.9696  143.0917 LP  0  0  0  0  0  0  0  0  0  0  0  0  # atno 17320 bound_to 7965
  144.6795  139.9998  143.7484 LP  0  0  0  0  0  0  0  0  0  0  0  0  # atno 17321 bound_to 7965
  140.6959  143.7750  150.7326 LP  0  0  0  0  0  0  0  0  0  0  0  0  # atno 17342 bound_to 10162
  140.1246  143.4581  152.2292 LP  0  0  0  0  0  0  0  0  0  0  0  0  # atno 17343 bound_to 10162
  156.0805  130.3673  150.0590 LP  0  0  0  0  0  0  0  0  0  0  0  0  # atno 17370 bound_to 10713
  156.8736  130.9533  151.3607 LP  0  0  0  0  0  0  0  0  0  0  0  0  # atno 17371 bound_to 10713
  140.7347  133.9028  155.8236 LP  0  0  0  0  0  0  0  0  0  0  0  0  # atno 17394 bound_to 11000
  141.0125  134.1001  157.4206 LP  0  0  0  0  0  0  0  0  0  0  0  0  # atno 17395 bound_to 11000

$$$$
