#       Name:                AV-unprocessed.smi:471
#       Creating user name   scv26
#       Creation time:       Thu Mar 26 23:07:08 2020


#       File generated by GOLD software.
#

@<TRIPOS>MOLECULE
AV-unprocessed.smi:471
    25    25     1
SMALL
NO_CHARGES


@<TRIPOS>ATOM
      1 ****        -2.7276   0.6191  -1.6600 O.co2          1 S1                 0.0000
      2 ****        -1.9074  -0.2997  -1.8757 C.2            1 S1                 0.0000
      3 ****        -2.1967  -1.4858  -2.1477 O.co2          1 S1                -1.0000
      4 ****        -0.4213   0.0584  -1.7896 C.3            1 S1                 0.0000
      5 ****         0.0719   0.0596  -0.4296 N.am           1 S1                 0.0000
      6 ****         0.1933  -1.1171   0.2954 C.2            1 S1                 0.0000
      7 ****         0.6720  -1.1618   1.5607 C.2            1 S1                 0.0000
      8 ****         1.0973   0.0612   2.2328 C.2            1 S1                 0.0000
      9 ****         1.5459   0.1226   3.3756 O.2            1 S1                 0.0000
     10 ****         0.9625   1.2224   1.4662 N.am           1 S1                 0.0000
     11 ****         0.4700   1.2846   0.1610 C.2            1 S1                 0.0000
     12 ****         0.3992   2.3755  -0.4051 O.2            1 S1                 0.0000
     13 ****         1.2424   2.0931   1.8933 H              1 S1                 0.0000
     14 ****         0.1826  -0.6895  -2.3067 H              1 S1                 0.0000
     15 ****        -0.2187   1.0114  -2.2793 H              1 S1                 0.0000
     16 ****        -0.1083  -2.0455  -0.1691 H              1 S1                 0.0000
     17 ****         0.7422  -2.1080   2.0773 H              1 S1                 0.0000
     18 ****        -3.7092   0.4322  -1.6983 LP             1 S1                 0.0000
     19 ****        -2.4019   1.5407  -1.4491 LP             1 S1                 0.0000
     20 ****        -3.1548  -1.7657  -2.2076 LP             1 S1                 0.0000
     21 ****        -1.4698  -2.1543  -2.3052 LP             1 S1                 0.0000
     22 ****         1.6424  -0.7105   3.9203 LP             1 S1                 0.0000
     23 ****         1.8144   1.0056   3.7606 LP             1 S1                 0.0000
     24 ****         0.0437   2.4325  -1.3380 LP             1 S1                 0.0000
     25 ****         0.6972   3.2046   0.0680 LP             1 S1                 0.0000
@<TRIPOS>BOND
    1    1    2 ar    
    2    2    3 ar    
    3    2    4 1     
    4    4    5 1     
    5    4   14 1     
    6    4   15 1     
    7    5   11 1     
    8    5    6 1     
    9    6    7 2     
   10    6   16 1     
   11    7    8 1     
   12    7   17 1     
   13    8    9 2     
   14    8   10 1     
   15   10   13 1     
   16   10   11 1     
   17   11   12 2     
   18    1   18 1     
   19    1   19 1     
   20    3   20 1     
   21    3   21 1     
   22    9   22 1     
   23    9   23 1     
   24   12   24 1     
   25   12   25 1     
@<TRIPOS>SUBSTRUCTURE
      1 S1             1
@<TRIPOS>SET
LONE_PAIRS      STATIC     ATOMS    <user>   **** ""
8 18 19 20 21 22 23 24 25
DONOR_HYDROGENS      STATIC     ATOMS    <user>   **** ""
1 13
ATOM$BLUE        STATIC     ATOMS    COLORGROUP SYSTEM
8 18 19 20 21 22 23 24 25
ATOM$RED        STATIC     ATOMS    COLORGROUP SYSTEM
1 13
