AV-unprocessed.smi:102|AV-procd|sdf|951|dock4
  -GOLD-   2262017483D 1   1.00000     0.00000
 Structure written by MMmdl.
 44 45  0  0  0  0  0  0  0  0  1 V2000
  147.1514  135.9915  162.4737 C   0  0  0  0  0  0  0  0  0  0  0  0
  147.1863  136.4321  161.0161 C   0  0  0  0  0  0  0  0  0  0  0  0
  146.5714  137.4276  160.6329 O   0  0  0  0  0  0  0  0  0  0  0  0
  147.9450  135.6241  160.2529 O   0  0  0  0  0  0  0  0  0  0  0  0
  147.8161  135.6406  158.8380 C   0  0  0  0  0  0  0  0  0  0  0  0
  148.8663  136.5612  158.1977 C   0  0  2  0  0  0  0  0  0  0  0  0
  148.5573  137.9210  158.4653 O   0  0  0  0  0  0  0  0  0  0  0  0
  149.0920  138.7367  157.4693 C   0  0  2  0  0  0  0  0  0  0  0  0
  148.1326  139.8904  157.2492 N   0  0  0  0  0  0  0  0  0  0  0  0
  146.7730  139.6487  157.1099 C   0  0  0  0  0  0  0  0  0  0  0  0
  145.8695  140.6285  156.8714 C   0  0  0  0  0  0  0  0  0  0  0  0
  144.5673  140.3164  156.7567 F   0  0  0  0  0  0  0  0  0  0  0  0
  146.2960  142.0179  156.7343 C   0  0  0  0  0  0  0  0  0  0  0  0
  145.5527  142.9742  156.5235 O   0  0  0  0  0  0  0  0  0  0  0  0
  147.6743  142.2130  156.8589 N   0  0  0  0  0  0  0  0  0  0  0  0
  148.6167  141.2123  157.1006 C   0  0  0  0  0  0  0  0  0  0  0  0
  149.8099  141.5012  157.1784 O   0  0  0  0  0  0  0  0  0  0  0  0
  149.3695  137.8643  156.2214 C   0  0  2  0  0  0  0  0  0  0  0  0
  148.6952  138.3335  155.0585 O   0  0  0  0  0  0  0  0  0  0  0  0
  149.0812  139.4713  154.4607 C   0  0  0  0  0  0  0  0  0  0  0  0
  147.9245  140.1817  153.7710 C   0  0  0  0  0  0  0  0  0  0  0  0
  150.2230  139.9304  154.4409 O   0  0  0  0  0  0  0  0  0  0  0  0
  148.8577  136.4931  156.6637 C   0  0  1  0  0  0  0  0  0  0  0  0
  149.5542  135.3741  156.1046 O   0  0  0  0  0  0  0  0  0  0  0  0
  150.8763  135.1462  156.2803 C   0  0  0  0  0  0  0  0  0  0  0  0
  151.2175  133.6631  156.2235 C   0  0  0  0  0  0  0  0  0  0  0  0
  151.7494  135.9929  156.4684 O   0  0  0  0  0  0  0  0  0  0  0  0
  148.0179  143.1572  156.7595 H   0  0  0  0  0  0  0  0  0  0  0  0
  147.9619  136.4636  163.0290 H   0  0  0  0  0  0  0  0  0  0  0  0
  147.2615  134.9097  162.5520 H   0  0  0  0  0  0  0  0  0  0  0  0
  146.2047  136.2749  162.9343 H   0  0  0  0  0  0  0  0  0  0  0  0
  147.9808  134.6199  158.4923 H   0  0  0  0  0  0  0  0  0  0  0  0
  146.8072  135.9136  158.5246 H   0  0  0  0  0  0  0  0  0  0  0  0
  149.8567  136.3539  158.6021 H   0  0  0  0  0  0  0  0  0  0  0  0
  150.0123  139.1791  157.8523 H   0  0  0  0  0  0  0  0  0  0  0  0
  146.4037  138.6373  157.2006 H   0  0  0  0  0  0  0  0  0  0  0  0
  150.4488  137.8749  156.0702 H   0  0  0  0  0  0  0  0  0  0  0  0
  147.1218  140.3771  154.4822 H   0  0  0  0  0  0  0  0  0  0  0  0
  147.5299  139.5646  152.9636 H   0  0  0  0  0  0  0  0  0  0  0  0
  148.2536  141.1323  153.3513 H   0  0  0  0  0  0  0  0  0  0  0  0
  147.8178  136.4094  156.3460 H   0  0  0  0  0  0  0  0  0  0  0  0
  150.5148  133.1306  155.5824 H   0  0  0  0  0  0  0  0  0  0  0  0
  151.1746  133.2282  157.2222 H   0  0  0  0  0  0  0  0  0  0  0  0
  152.2223  133.5192  155.8259 H   0  0  0  0  0  0  0  0  0  0  0  0
  1  2  1  0  0  0  0
  1 29  1  0  0  0  0
  1 30  1  0  0  0  0
  1 31  1  0  0  0  0
  2  3  2  0  0  0  0
  2  4  1  0  0  0  0
  4  5  1  0  0  0  0
  5  6  1  0  0  0  0
  5 32  1  0  0  0  0
  5 33  1  0  0  0  0
  6 23  1  0  0  0  0
  6  7  1  0  0  0  0
  6 34  1  0  0  0  0
  7  8  1  0  0  0  0
  8  9  1  0  0  0  0
  8 18  1  0  0  0  0
  8 35  1  0  0  0  0
  9 16  1  0  0  0  0
  9 10  1  0  0  0  0
 10 11  2  0  0  0  0
 10 36  1  0  0  0  0
 11 12  1  0  0  0  0
 11 13  1  0  0  0  0
 13 14  2  0  0  0  0
 13 15  1  0  0  0  0
 15 28  1  0  0  0  0
 15 16  1  0  0  0  0
 16 17  2  0  0  0  0
 18 19  1  0  0  0  0
 18 23  1  0  0  0  0
 18 37  1  0  0  0  0
 19 20  1  0  0  0  0
 20 21  1  0  0  0  0
 20 22  2  0  0  0  0
 21 38  1  0  0  0  0
 21 39  1  0  0  0  0
 21 40  1  0  0  0  0
 23 24  1  0  0  0  0
 23 41  1  0  0  0  0
 24 25  1  0  0  0  0
 25 26  1  0  0  0  0
 25 27  2  0  0  0  0
 26 42  1  0  0  0  0
 26 43  1  0  0  0  0
 26 44  1  0  0  0  0
M  END
> <s_m_source_file>
AV-unprocessed.smi

> <i_m_source_file_index>
102

> <i_lp_mmshare_version>
43012

> <i_f3d_flags>
0

> <s_epik_input>
W0NIM11DKD1PKU9bQ0gyXVtDQEBIXTFPW0NASF0oW0NAQEhdKE9DKD1PKVtDSDNdKVtDQEhdMU9DKD1PKVtDSDNdKW4yW2NIXWMoRiljKD1PKVtuSF1jMj1P

> <s_epik_cmdline>
J2VwaWtfcHl0aG9uJywgJy1waCcsICc3LjAnLCAnLXRuJywgJzgnLCAnLW1hJywgJzIwMCcsICctbWV0YWxfYmluZGluZycsICctaW1hZScsICc8aW5maWxlLm1hZT4nLCAnLW9tYWUnLCAnPG91dGZpbGUubWFlPic=

> <r_lp_tautomer_probability>
0.999537

> <r_epik_Ionization_Penalty>
0.058267

> <r_epik_Ionization_Penalty_Charging>
0.058267

> <r_epik_Ionization_Penalty_Neutral>
6.57791e-16

> <r_epik_State_Penalty>
0.0503774

> <r_epik_Charging_Adjusted_Penalty>
0.108644

> <i_epik_Tot_Q>
0

> <i_epik_Tot_abs_Q>
0

> <r_epik_Metal_State_Penalty>
2.6644

> <b_epik_Metal_Only>
0

> <s_epik_Chemistry_Notes>
This compound has an ester and may undergo hydrolysis at high or low pH. This compound contains an acetal/aminal-like group ( X-CH(R)-Y where X, Y are N, S, or O) that may be acid/base labile, releasing an aldehyde.

> <s_lp_Force_Field>
OPLS_2005

> <r_lp_Energy>
7.12504

> <b_lp_Chiralities_Consistent>
1

> <s_lp_Variant>
AV-unprocessed.smi:102-7

> <Gold.Version>
5.8.1

> <Gold.Id.Protein>
6NUR|6NUR_protein|mol2

> <Gold.PLP.Fitness>
35.3515

> <Gold.PLP.PLP>
-26.4607

> <Gold.PLP.part.hbond>
-4.6759

> <Gold.PLP.part.metal>
0.0000

> <Gold.PLP.part.buried>
-4.6071

> <Gold.PLP.part.nonpolar>
-17.5006

> <Gold.PLP.part.repulsive>
0.5368

> <Gold.PLP.ligand.clash>
0.0000

> <Gold.PLP.ligand.torsion>
1.6832

> <Gold.PLP.Chemscore.Hbond>
4.0000

> <Gold.PLP.Chemscore.CHOScore>
0.0000

> <Gold.PLP.Chemscore.Metal>
0.0000

> <Gold.Chemscore.Hbonds>
donor molecule, donor type, donor heavy atom, donor atom, acceptor molecule, acceptor atom, score
      L1  H    15    28       P1  8028  0.75
      P1  H  6934  6947       L1     3  1.00
      P1  H  7989  7998       L1    22  1.00
      P1  H 10752 10764       L1    27  0.89

> <Gold.PLP.Chemscore.Internal.Correction>
0.2573

> <Gold.Rescore>
     Score         DG    S(hbond)    S(metal)    S(lipo)     H(rot)  DE(clash)    DE(int)     intcor
      8.76     -11.61       3.82        0.00      31.89       4.05       0.23       2.62       ----

> <Gold.Chemscore.Fitness>
8.7617

> <Gold.Chemscore.DG>
-11.6096

> <Gold.Chemscore.ZeroCoef>
-5.4800

> <Gold.Chemscore.Hbond>
3.8240

> <Gold.Chemscore.Metal>
0.0000

> <Gold.Chemscore.Lipo>
31.8860

> <Gold.Chemscore.Internal_Hbond>
0.0000

> <Gold.Chemscore.DEClash>
0.2322

> <Gold.Chemscore.DEInternal>
2.6157

> <Gold.Chemscore.Rot>
4.0520

> <Gold.Chemscore.Internal.Correction>
   9.000000E+99

> <Gold.Chemscore.Hbonds>
donor molecule, donor type, donor heavy atom, donor atom, acceptor molecule, acceptor atom, score
      L1  H    15    28       P1  8028  0.12
      P1  H  6934  6947       L1     3  0.99
      P1  H  7989  7998       L1    22  0.99
      P1  H 10752 10764       L1    27  0.22

> <Gold.Chemscore.Hbond.Weighted>
-12.7721

> <Gold.Chemscore.Metal.Weighted>
-0.0000

> <Gold.Chemscore.Lipo.Weighted>
-3.7307

> <Gold.Chemscore.Internal_Hbond.Weighted>
0.0000

> <Gold.Chemscore.DEClash.Weighted>
0.2322

> <Gold.Chemscore.DEInternal.Weighted>
2.6157

> <Gold.Chemscore.Rot.Weighted>
10.3732

> <Gold.Chemscore.Internal.Correction.Weighted>
   9.000000E+99

> <Gold.Protein.RotatedTorsions>
[ 6907 6896 6895 6894 ] final  144.08 input  -60.11 | X-H torsion
[ 7974 7965 7964 7962 ] final -132.05 input  175.53 | X-H torsion
[ 8008 7997 7996 7995 ] final   53.57 input   59.86 | X-H torsion
[ 10167 10162 10161 10158 ] final  167.78 input  -65.29 | X-H torsion
[ 10718 10713 10712 10709 ] final  106.19 input   66.30 | X-H torsion
[ 10763 10752 10751 10750 ] final  -39.71 input  -60.55 | X-H torsion
[ 11005 11000 10999 10996 ] final  -83.74 input  -57.11 | X-H torsion

> <Gold.Protein.ActiveResidues>
 VAL166  LYS551  ARG553  GLY616  TRP617  ASP618  TYR619  PRO620  LYS621  CYS622 
 ASP623  PHE694  ASN695  SER759  ASP760  ASP761  ALA762  ILE779  LEU786  VAL792 
 PHE793  MET794  SER795  GLU796  ALA797  LYS798  CYS799  TRP800  GLU811  SER814 

> <Gold.Protein.RotatedAtoms>
  152.1982  133.4822  159.5043 H   0  0  0  0  0  0  0  0  0  0  0  0  # atno 6907 bound_to 6896
  150.6964  134.1625  159.4190 H   0  0  0  0  0  0  0  0  0  0  0  0  # atno 6908 bound_to 6896
  151.9541  135.0154  160.0594 H   0  0  0  0  0  0  0  0  0  0  0  0  # atno 6909 bound_to 6896
  144.9322  140.7141  143.4899 H   0  0  0  0  0  0  0  0  0  0  0  0  # atno 7974 bound_to 7965
  155.4705  140.3465  155.4325 H   0  0  0  0  0  0  0  0  0  0  0  0  # atno 8008 bound_to 7997
  156.1103  140.1459  156.9376 H   0  0  0  0  0  0  0  0  0  0  0  0  # atno 8009 bound_to 7997
  154.4752  140.0887  156.7223 H   0  0  0  0  0  0  0  0  0  0  0  0  # atno 8010 bound_to 7997
  139.4953  144.3884  151.9544 H   0  0  0  0  0  0  0  0  0  0  0  0  # atno 10167 bound_to 10162
  157.6677  131.0845  150.5970 H   0  0  0  0  0  0  0  0  0  0  0  0  # atno 10718 bound_to 10713
  153.9339  135.6769  153.4745 H   0  0  0  0  0  0  0  0  0  0  0  0  # atno 10763 bound_to 10752
  153.0966  135.4848  154.8786 H   0  0  0  0  0  0  0  0  0  0  0  0  # atno 10764 bound_to 10752
  154.7413  135.3161  154.8680 H   0  0  0  0  0  0  0  0  0  0  0  0  # atno 10765 bound_to 10752
  141.1656  133.7310  156.8765 H   0  0  0  0  0  0  0  0  0  0  0  0  # atno 11005 bound_to 11000
  145.3124  139.1814  143.4631 LP  0  0  0  0  0  0  0  0  0  0  0  0  # atno 17320 bound_to 7965
  146.3251  140.3130  142.8628 LP  0  0  0  0  0  0  0  0  0  0  0  0  # atno 17321 bound_to 7965
  140.3322  144.3303  150.5985 LP  0  0  0  0  0  0  0  0  0  0  0  0  # atno 17342 bound_to 10162
  140.5636  143.2189  151.7723 LP  0  0  0  0  0  0  0  0  0  0  0  0  # atno 17343 bound_to 10162
  156.6271  130.4421  149.5800 LP  0  0  0  0  0  0  0  0  0  0  0  0  # atno 17370 bound_to 10713
  156.2311  130.6795  151.1464 LP  0  0  0  0  0  0  0  0  0  0  0  0  # atno 17371 bound_to 10713
  140.1745  134.9077  157.2874 LP  0  0  0  0  0  0  0  0  0  0  0  0  # atno 17394 bound_to 11000
  140.2464  134.3734  155.7459 LP  0  0  0  0  0  0  0  0  0  0  0  0  # atno 17395 bound_to 11000

$$$$
