AV-unprocessed.smi:3001|AV-procd|sdf|11431|dock10
  -GOLD-   2272016363D 1   1.00000     0.00000
 Structure written by MMmdl.
 41 42  0  0  0  0  0  0  0  0  1 V2000
  146.4398  142.3181  154.0855 C   0  0  0  0  0  0  0  0  0  0  0  0
  146.6964  141.1346  153.9284 C   0  0  0  0  0  0  0  0  0  0  0  0
  146.9997  139.7066  153.7513 C   0  0  0  0  0  0  0  0  0  0  0  0
  148.1850  139.3134  154.4965 N   0  0  0  0  0  0  0  0  0  0  0  0
  149.3166  140.0328  154.5732 C   0  0  0  0  0  0  0  0  0  0  0  0
  149.4507  141.1206  154.0141 O   0  0  0  0  0  0  0  0  0  0  0  0
  150.4849  139.4655  155.3968 C   0  0  0  0  0  0  0  0  0  0  0  0
  150.9257  140.3250  156.4958 N   0  0  0  0  0  0  0  0  0  0  0  0
  151.9217  140.0408  157.3472 C   0  0  0  0  0  0  0  0  0  0  0  0
  152.6320  139.0391  157.2588 O   0  0  0  0  0  0  0  0  0  0  0  0
  152.0104  140.9654  158.3164 N   0  0  0  0  0  0  0  0  0  0  0  0
  152.8252  140.9077  159.4792 C   0  0  0  0  0  0  0  0  0  0  0  0
  153.6178  139.7683  159.7565 C   0  0  0  0  0  0  0  0  0  0  0  0
  154.4654  139.7761  160.8778 C   0  0  0  0  0  0  0  0  0  0  0  0
  154.5018  140.9329  161.6744 C   0  0  0  0  0  0  0  0  0  0  0  0
  153.7610  142.0296  161.4163 N   0  0  0  0  0  0  0  0  0  0  0  0
  152.9263  142.0317  160.3475 C   0  0  0  0  0  0  0  0  0  0  0  0
  152.1532  143.1976  160.1402 N   0  0  0  0  0  0  0  0  0  0  0  0
  152.2220  143.9152  158.8715 C   0  0  0  0  0  0  0  0  0  0  0  0
  151.5965  145.2782  159.1530 C   0  0  0  0  0  0  0  0  0  0  0  0
  152.0432  145.5511  160.5857 C   0  0  0  0  0  0  0  0  0  0  0  0
  152.0567  144.1623  161.2326 C   0  0  0  0  0  0  0  0  0  0  0  0
  146.2117  143.3508  154.2275 H   0  0  0  0  0  0  0  0  0  0  0  0
  146.1365  139.1295  154.0857 H   0  0  0  0  0  0  0  0  0  0  0  0
  147.1409  139.5150  152.6869 H   0  0  0  0  0  0  0  0  0  0  0  0
  148.1512  138.4270  154.9783 H   0  0  0  0  0  0  0  0  0  0  0  0
  150.2108  138.4791  155.7747 H   0  0  0  0  0  0  0  0  0  0  0  0
  151.3324  139.3139  154.7281 H   0  0  0  0  0  0  0  0  0  0  0  0
  150.4008  141.1743  156.6445 H   0  0  0  0  0  0  0  0  0  0  0  0
  151.3034  141.6861  158.3146 H   0  0  0  0  0  0  0  0  0  0  0  0
  153.5999  138.9009  159.1133 H   0  0  0  0  0  0  0  0  0  0  0  0
  155.0814  138.9209  161.1136 H   0  0  0  0  0  0  0  0  0  0  0  0
  155.1460  140.9816  162.5399 H   0  0  0  0  0  0  0  0  0  0  0  0
  153.2580  144.0501  158.5585 H   0  0  0  0  0  0  0  0  0  0  0  0
  151.6917  143.3805  158.0831 H   0  0  0  0  0  0  0  0  0  0  0  0
  151.9181  146.0473  158.4504 H   0  0  0  0  0  0  0  0  0  0  0  0
  150.5087  145.2080  159.1084 H   0  0  0  0  0  0  0  0  0  0  0  0
  153.0532  145.9637  160.5819 H   0  0  0  0  0  0  0  0  0  0  0  0
  151.3951  146.2551  161.1084 H   0  0  0  0  0  0  0  0  0  0  0  0
  151.1220  143.9947  161.7681 H   0  0  0  0  0  0  0  0  0  0  0  0
  152.8771  144.0630  161.9448 H   0  0  0  0  0  0  0  0  0  0  0  0
  1  2  3  0  0  0  0
  1 23  1  0  0  0  0
  2  3  1  0  0  0  0
  3  4  1  0  0  0  0
  3 24  1  0  0  0  0
  3 25  1  0  0  0  0
  4  5  1  0  0  0  0
  4 26  1  0  0  0  0
  5  6  2  0  0  0  0
  5  7  1  0  0  0  0
  7  8  1  0  0  0  0
  7 27  1  0  0  0  0
  7 28  1  0  0  0  0
  8  9  1  0  0  0  0
  8 29  1  0  0  0  0
  9 10  2  0  0  0  0
  9 11  1  0  0  0  0
 11 12  1  0  0  0  0
 11 30  1  0  0  0  0
 12 17  1  0  0  0  0
 12 13  2  0  0  0  0
 13 14  1  0  0  0  0
 13 31  1  0  0  0  0
 14 15  2  0  0  0  0
 14 32  1  0  0  0  0
 15 16  1  0  0  0  0
 15 33  1  0  0  0  0
 16 17  2  0  0  0  0
 17 18  1  0  0  0  0
 18 22  1  0  0  0  0
 18 19  1  0  0  0  0
 19 20  1  0  0  0  0
 19 34  1  0  0  0  0
 19 35  1  0  0  0  0
 20 21  1  0  0  0  0
 20 36  1  0  0  0  0
 20 37  1  0  0  0  0
 21 22  1  0  0  0  0
 21 38  1  0  0  0  0
 21 39  1  0  0  0  0
 22 40  1  0  0  0  0
 22 41  1  0  0  0  0
M  END
> <s_m_source_file>
AV-unprocessed.smi

> <i_m_source_file_index>
3001

> <i_lp_mmshare_version>
43012

> <i_f3d_flags>
0

> <s_epik_input>
W0NIXSNDW0NIMl1bTkhdQyg9TylbQ0gyXVtOSF1DKD1PKVtOSF1jMVtjSF1bY0hdW2NIXW5jMU4yW0NIMl1bQ0gyXVtDSDJdW0NIMl0y

> <s_epik_cmdline>
J2VwaWtfcHl0aG9uJywgJy1waCcsICc3LjAnLCAnLXRuJywgJzgnLCAnLW1hJywgJzIwMCcsICctbWV0YWxfYmluZGluZycsICctaW1hZScsICc8aW5maWxlLm1hZT4nLCAnLW9tYWUnLCAnPG91dGZpbGUubWFlPic=

> <r_lp_tautomer_probability>
1

> <r_epik_Ionization_Penalty>
0.243831

> <r_epik_Ionization_Penalty_Charging>
0

> <r_epik_Ionization_Penalty_Neutral>
0.243831

> <r_epik_State_Penalty>
0.234327

> <r_epik_Charging_Adjusted_Penalty>
0.234327

> <i_epik_Tot_Q>
0

> <i_epik_Tot_abs_Q>
0

> <r_epik_Metal_State_Penalty>
0.165313

> <b_epik_Metal_Only>
0

> <s_lp_Force_Field>
OPLS_2005

> <r_lp_Energy>
26.7815

> <b_lp_Chiralities_Consistent>
1

> <s_lp_Variant>
AV-unprocessed.smi:3001-1

> <Gold.Version>
5.8.1

> <Gold.Id.Protein>
6NUR|6NUR_protein|mol2

> <Gold.PLP.Fitness>
51.9870

> <Gold.PLP.PLP>
-46.0637

> <Gold.PLP.part.hbond>
-3.0553

> <Gold.PLP.part.metal>
0.0000

> <Gold.PLP.part.buried>
-4.8851

> <Gold.PLP.part.nonpolar>
-40.1304

> <Gold.PLP.part.repulsive>
1.9782

> <Gold.PLP.ligand.clash>
0.0000

> <Gold.PLP.ligand.torsion>
0.3237

> <Gold.PLP.Chemscore.Hbond>
2.0727

> <Gold.PLP.Chemscore.CHOScore>
0.0000

> <Gold.PLP.Chemscore.Metal>
0.0000

> <Gold.Chemscore.Hbonds>
donor molecule, donor type, donor heavy atom, donor atom, acceptor molecule, acceptor atom, score
      P1  H  7989  7998       L1     6  0.18
      P1  H  7997  8008       L1    10  0.63
      P1  H  8011  8017       L1     6  0.59

> <Gold.PLP.Chemscore.Internal.Correction>
0.3526

> <Gold.Rescore>
     Score         DG    S(hbond)    S(metal)    S(lipo)     H(rot)  DE(clash)    DE(int)     intcor
     13.37     -15.43       0.85        0.00     100.60       1.82       0.30       1.76       ----

> <Gold.Chemscore.Fitness>
13.3727

> <Gold.Chemscore.DG>
-15.4266

> <Gold.Chemscore.ZeroCoef>
-5.4800

> <Gold.Chemscore.Hbond>
0.8519

> <Gold.Chemscore.Metal>
0.0000

> <Gold.Chemscore.Lipo>
100.5968

> <Gold.Chemscore.Internal_Hbond>
0.0000

> <Gold.Chemscore.DEClash>
0.2950

> <Gold.Chemscore.DEInternal>
1.7588

> <Gold.Chemscore.Rot>
1.8236

> <Gold.Chemscore.Internal.Correction>
   9.000000E+99

> <Gold.Chemscore.Hbonds>
donor molecule, donor type, donor heavy atom, donor atom, acceptor molecule, acceptor atom, score
      P1  H  7989  7998       L1     6  0.04
      P1  H  7997  8008       L1    10  0.12
      P1  H  8011  8017       L1     6  0.59

> <Gold.Chemscore.Hbond.Weighted>
-2.8453

> <Gold.Chemscore.Metal.Weighted>
-0.0000

> <Gold.Chemscore.Lipo.Weighted>
-11.7698

> <Gold.Chemscore.Internal_Hbond.Weighted>
0.0000

> <Gold.Chemscore.DEClash.Weighted>
0.2950

> <Gold.Chemscore.DEInternal.Weighted>
1.7588

> <Gold.Chemscore.Rot.Weighted>
4.6685

> <Gold.Chemscore.Internal.Correction.Weighted>
   9.000000E+99

> <Gold.Protein.RotatedTorsions>
[ 6907 6896 6895 6894 ] final  127.37 input  -60.11 | X-H torsion
[ 7974 7965 7964 7962 ] final -109.21 input  175.53 | X-H torsion
[ 8008 7997 7996 7995 ] final  -78.01 input   59.86 | X-H torsion
[ 10167 10162 10161 10158 ] final  -61.49 input  -65.29 | X-H torsion
[ 10718 10713 10712 10709 ] final  -20.16 input   66.30 | X-H torsion
[ 10763 10752 10751 10750 ] final  -68.49 input  -60.55 | X-H torsion
[ 11005 11000 10999 10996 ] final   64.83 input  -57.11 | X-H torsion

> <Gold.Protein.ActiveResidues>
 VAL166  LYS551  ARG553  GLY616  TRP617  ASP618  TYR619  PRO620  LYS621  CYS622 
 ASP623  PHE694  ASN695  SER759  ASP760  ASP761  ALA762  ILE779  LEU786  VAL792 
 PHE793  MET794  SER795  GLU796  ALA797  LYS798  CYS799  TRP800  GLU811  SER814 

> <Gold.Protein.RotatedAtoms>
  152.3819  133.6558  159.6167 H   0  0  0  0  0  0  0  0  0  0  0  0  # atno 6907 bound_to 6896
  150.7748  133.9100  159.3375 H   0  0  0  0  0  0  0  0  0  0  0  0  # atno 6908 bound_to 6896
  151.6903  135.0949  160.0284 H   0  0  0  0  0  0  0  0  0  0  0  0  # atno 6909 bound_to 6896
  145.1833  140.8981  143.3467 H   0  0  0  0  0  0  0  0  0  0  0  0  # atno 7974 bound_to 7965
  154.5649  140.0701  156.8876 H   0  0  0  0  0  0  0  0  0  0  0  0  # atno 8008 bound_to 7997
  155.2742  140.3367  155.4245 H   0  0  0  0  0  0  0  0  0  0  0  0  # atno 8009 bound_to 7997
  156.2072  140.1745  156.7759 H   0  0  0  0  0  0  0  0  0  0  0  0  # atno 8010 bound_to 7997
  140.6002  143.2360  151.5945 H   0  0  0  0  0  0  0  0  0  0  0  0  # atno 10167 bound_to 10162
  156.5356  130.4666  149.6524 H   0  0  0  0  0  0  0  0  0  0  0  0  # atno 10718 bound_to 10713
  154.3897  135.6055  153.5836 H   0  0  0  0  0  0  0  0  0  0  0  0  # atno 10763 bound_to 10752
  152.9787  135.5880  154.4312 H   0  0  0  0  0  0  0  0  0  0  0  0  # atno 10764 bound_to 10752
  154.4094  135.2844  155.2024 H   0  0  0  0  0  0  0  0  0  0  0  0  # atno 10765 bound_to 10752
  139.9933  134.6556  156.0053 H   0  0  0  0  0  0  0  0  0  0  0  0  # atno 11005 bound_to 11000
  145.0114  139.3506  143.6118 LP  0  0  0  0  0  0  0  0  0  0  0  0  # atno 17320 bound_to 7965
  146.3449  139.9378  142.8745 LP  0  0  0  0  0  0  0  0  0  0  0  0  # atno 17321 bound_to 7965
  139.5286  144.2984  152.1094 LP  0  0  0  0  0  0  0  0  0  0  0  0  # atno 17342 bound_to 10162
  140.2163  144.4511  150.6362 LP  0  0  0  0  0  0  0  0  0  0  0  0  # atno 17343 bound_to 10162
  156.3019  130.7181  151.2055 LP  0  0  0  0  0  0  0  0  0  0  0  0  # atno 17370 bound_to 10713
  157.7414  131.0504  150.5098 LP  0  0  0  0  0  0  0  0  0  0  0  0  # atno 17371 bound_to 10713
  141.1584  133.6541  156.4237 LP  0  0  0  0  0  0  0  0  0  0  0  0  # atno 17394 bound_to 11000
  140.4865  134.6615  157.5193 LP  0  0  0  0  0  0  0  0  0  0  0  0  # atno 17395 bound_to 11000

$$$$
