AV-unprocessed.smi:1389|AV-procd|sdf|5650|dock1
  -GOLD-   22720 5273D 1   1.00000     0.00000
 Structure written by MMmdl.
 52 54  0  0  0  0  0  0  0  0  2 V2000
  149.2964  138.3814  154.3827 C   0  0  0  0  0  0  0  0  0  0  0  0
  150.4709  137.8260  155.2211 C   0  0  2  0  0  0  0  0  0  0  0  0
  150.1448  136.3549  155.5915 C   0  0  0  0  0  0  0  0  0  0  0  0
  149.6995  135.5924  154.4271 N   0  0  0  0  0  0  0  0  0  0  0  0
  149.3915  134.2883  154.4169 C   0  0  0  0  0  0  0  0  0  0  0  0
  149.5466  133.5362  155.3789 O   0  0  0  0  0  0  0  0  0  0  0  0
  148.8663  133.9262  153.2357 N   0  0  0  0  0  0  0  0  0  0  0  0
  148.3092  132.6642  152.8891 C   0  0  0  0  0  0  0  0  0  0  0  0
  148.8454  131.4506  153.3887 C   0  0  0  0  0  0  0  0  0  0  0  0
  148.2631  130.2238  153.0165 C   0  0  0  0  0  0  0  0  0  0  0  0
  147.1604  130.2291  152.1435 C   0  0  0  0  0  0  0  0  0  0  0  0
  146.6844  131.4010  151.6731 N   0  3  0  0  0  0  0  0  0  0  0  0
  147.2028  132.6111  151.9984 C   0  0  0  0  0  0  0  0  0  0  0  0
  146.6368  133.7724  151.4316 N   0  0  0  0  0  0  0  0  0  0  0  0
  145.8262  133.5270  150.2424 C   0  0  0  0  0  0  0  0  0  0  0  0
  144.6875  134.5477  150.2789 C   0  0  0  0  0  0  0  0  0  0  0  0
  144.5172  134.8204  151.7682 C   0  0  0  0  0  0  0  0  0  0  0  0
  145.9518  134.7403  152.2870 C   0  0  0  0  0  0  0  0  0  0  0  0
  150.8236  138.6702  156.3834 N   0  0  0  0  0  0  0  0  0  0  0  0
  151.3050  140.0004  156.0002 C   0  0  0  0  0  0  0  0  0  0  0  0
  151.6747  140.8658  157.2179 C   0  0  0  0  0  0  0  0  0  0  0  0
  152.6482  140.1957  158.0080 O   0  0  0  0  0  0  0  0  0  0  0  0
  152.1992  138.9218  158.4515 C   0  0  0  0  0  0  0  0  0  0  0  0
  151.8437  138.0508  157.2352 C   0  0  0  0  0  0  0  0  0  0  0  0
  148.9931  137.6748  153.6096 H   0  0  0  0  0  0  0  0  0  0  0  0
  149.5662  139.3002  153.8629 H   0  0  0  0  0  0  0  0  0  0  0  0
  148.4226  138.5889  155.0015 H   0  0  0  0  0  0  0  0  0  0  0  0
  151.3356  137.7945  154.5566 H   0  0  0  0  0  0  0  0  0  0  0  0
  151.0431  135.8690  155.9737 H   0  0  0  0  0  0  0  0  0  0  0  0
  149.4321  136.2928  156.4137 H   0  0  0  0  0  0  0  0  0  0  0  0
  149.5430  136.1209  153.5817 H   0  0  0  0  0  0  0  0  0  0  0  0
  148.7138  134.6706  152.5715 H   0  0  0  0  0  0  0  0  0  0  0  0
  149.7019  131.4440  154.0459 H   0  0  0  0  0  0  0  0  0  0  0  0
  148.6601  129.2925  153.3933 H   0  0  0  0  0  0  0  0  0  0  0  0
  146.6529  129.3382  151.8030 H   0  0  0  0  0  0  0  0  0  0  0  0
  146.4176  133.6287  149.3321 H   0  0  0  0  0  0  0  0  0  0  0  0
  145.4210  132.5137  150.2684 H   0  0  0  0  0  0  0  0  0  0  0  0
  144.9928  135.4632  149.7703 H   0  0  0  0  0  0  0  0  0  0  0  0
  143.7760  134.1848  149.8034 H   0  0  0  0  0  0  0  0  0  0  0  0
  144.0433  135.7800  151.9761 H   0  0  0  0  0  0  0  0  0  0  0  0
  143.9118  134.0353  152.2232 H   0  0  0  0  0  0  0  0  0  0  0  0
  145.9825  134.5104  153.3517 H   0  0  0  0  0  0  0  0  0  0  0  0
  146.4463  135.7035  152.1576 H   0  0  0  0  0  0  0  0  0  0  0  0
  152.1712  139.9066  155.3435 H   0  0  0  0  0  0  0  0  0  0  0  0
  150.5404  140.5369  155.4401 H   0  0  0  0  0  0  0  0  0  0  0  0
  152.0793  141.8242  156.8922 H   0  0  0  0  0  0  0  0  0  0  0  0
  150.7913  141.0800  157.8215 H   0  0  0  0  0  0  0  0  0  0  0  0
  152.9879  138.4504  159.0379 H   0  0  0  0  0  0  0  0  0  0  0  0
  151.3358  139.0375  159.1088 H   0  0  0  0  0  0  0  0  0  0  0  0
  151.5066  137.0871  157.6090 H   0  0  0  0  0  0  0  0  0  0  0  0
  152.7460  137.8599  156.6524 H   0  0  0  0  0  0  0  0  0  0  0  0
  145.8899  131.3736  151.0339 H   0  0  0  0  0  0  0  0  0  0  0  0
  1  2  1  0  0  0  0
  1 25  1  0  0  0  0
  1 26  1  0  0  0  0
  1 27  1  0  0  0  0
  2  3  1  0  0  0  0
  2 19  1  0  0  0  0
  2 28  1  0  0  0  0
  3  4  1  0  0  0  0
  3 29  1  0  0  0  0
  3 30  1  0  0  0  0
  4  5  1  0  0  0  0
  4 31  1  0  0  0  0
  5  6  2  0  0  0  0
  5  7  1  0  0  0  0
  7  8  1  0  0  0  0
  7 32  1  0  0  0  0
  8 13  1  0  0  0  0
  8  9  2  0  0  0  0
  9 10  1  0  0  0  0
  9 33  1  0  0  0  0
 10 11  2  0  0  0  0
 10 34  1  0  0  0  0
 11 12  1  0  0  0  0
 11 35  1  0  0  0  0
 12 13  2  0  0  0  0
 12 52  1  0  0  0  0
 13 14  1  0  0  0  0
 14 18  1  0  0  0  0
 14 15  1  0  0  0  0
 15 16  1  0  0  0  0
 15 36  1  0  0  0  0
 15 37  1  0  0  0  0
 16 17  1  0  0  0  0
 16 38  1  0  0  0  0
 16 39  1  0  0  0  0
 17 18  1  0  0  0  0
 17 40  1  0  0  0  0
 17 41  1  0  0  0  0
 18 42  1  0  0  0  0
 18 43  1  0  0  0  0
 19 24  1  0  0  0  0
 19 20  1  0  0  0  0
 20 21  1  0  0  0  0
 20 44  1  0  0  0  0
 20 45  1  0  0  0  0
 21 22  1  0  0  0  0
 21 46  1  0  0  0  0
 21 47  1  0  0  0  0
 22 23  1  0  0  0  0
 23 24  1  0  0  0  0
 23 48  1  0  0  0  0
 23 49  1  0  0  0  0
 24 50  1  0  0  0  0
 24 51  1  0  0  0  0
M  CHG  1  12   1
M  END
> <s_m_source_file>
AV-unprocessed.smi

> <i_m_source_file_index>
1389

> <i_lp_mmshare_version>
43012

> <i_f3d_flags>
0

> <s_epik_input>
W0NIMl0xW0NIMl1PW0NIMl1bQ0gyXU4xW0NASF0oW0NIM10pW0NIMl1bTkhdQyg9TylbTkhdYzJbY0hdW2NIXVtjSF1uYzJOM1tDSDJdW0NIMl1bQ0gyXVtDSDJdMw==

> <s_epik_cmdline>
J2VwaWtfcHl0aG9uJywgJy1waCcsICc3LjAnLCAnLXRuJywgJzgnLCAnLW1hJywgJzIwMCcsICctbWV0YWxfYmluZGluZycsICctaW1hZScsICc8aW5maWxlLm1hZT4nLCAnLW9tYWUnLCAnPG91dGZpbGUubWFlPic=

> <r_epik_Ionization_Penalty>
1.37675

> <r_epik_Ionization_Penalty_Charging>
1.11074

> <r_epik_Ionization_Penalty_Neutral>
0.26601

> <r_epik_State_Penalty>
1.46015

> <r_epik_Charging_Adjusted_Penalty>
2.57089

> <i_epik_Tot_Q>
1

> <i_epik_Tot_abs_Q>
1

> <r_epik_Metal_State_Penalty>
1.54223

> <b_epik_Metal_Only>
0

> <s_lp_Force_Field>
OPLS_2005

> <r_lp_Energy>
66.6842

> <b_lp_Chiralities_Consistent>
1

> <s_lp_Variant>
AV-unprocessed.smi:1389-5

> <Gold.Version>
5.8.1

> <Gold.Id.Protein>
6NUR|6NUR_protein|mol2

> <Gold.PLP.Fitness>
40.9726

> <Gold.PLP.PLP>
-35.1741

> <Gold.PLP.part.hbond>
-3.4244

> <Gold.PLP.part.metal>
0.0000

> <Gold.PLP.part.buried>
-3.8710

> <Gold.PLP.part.nonpolar>
-27.1219

> <Gold.PLP.part.repulsive>
0.2267

> <Gold.PLP.ligand.clash>
1.7157

> <Gold.PLP.ligand.torsion>
0.6475

> <Gold.PLP.Chemscore.Hbond>
2.8600

> <Gold.PLP.Chemscore.CHOScore>
0.0000

> <Gold.PLP.Chemscore.Metal>
0.0000

> <Gold.Chemscore.Hbonds>
donor molecule, donor type, donor heavy atom, donor atom, acceptor molecule, acceptor atom, score
      L1  H     4    31       P1  7948  1.00
      L1  H     7    32       P1  7948  0.60
      P1  H  7997  8008       L1    22  0.65

> <Gold.PLP.Chemscore.Internal.Correction>
0.2293

> <Gold.Rescore>
     Score         DG    S(hbond)    S(metal)    S(lipo)     H(rot)  DE(clash)    DE(int)     intcor
     13.51     -15.24       1.38        0.00      79.03       1.60       0.02       1.71       ----

> <Gold.Chemscore.Fitness>
13.5071

> <Gold.Chemscore.DG>
-15.2368

> <Gold.Chemscore.ZeroCoef>
-5.4800

> <Gold.Chemscore.Hbond>
1.3819

> <Gold.Chemscore.Metal>
0.0000

> <Gold.Chemscore.Lipo>
79.0282

> <Gold.Chemscore.Internal_Hbond>
0.0000

> <Gold.Chemscore.DEClash>
0.0212

> <Gold.Chemscore.DEInternal>
1.7085

> <Gold.Chemscore.Rot>
1.6035

> <Gold.Chemscore.Internal.Correction>
   9.000000E+99

> <Gold.Chemscore.Hbonds>
donor molecule, donor type, donor heavy atom, donor atom, acceptor molecule, acceptor atom, score
      L1  H     4    31       P1  7948  0.43
      L1  H     7    32       P1  7948  0.04
      P1  H  7997  8008       L1    22  0.40

> <Gold.Chemscore.Hbond.Weighted>
-4.6154

> <Gold.Chemscore.Metal.Weighted>
-0.0000

> <Gold.Chemscore.Lipo.Weighted>
-9.2463

> <Gold.Chemscore.Internal_Hbond.Weighted>
0.0000

> <Gold.Chemscore.DEClash.Weighted>
0.0212

> <Gold.Chemscore.DEInternal.Weighted>
1.7085

> <Gold.Chemscore.Rot.Weighted>
4.1049

> <Gold.Chemscore.Internal.Correction.Weighted>
   9.000000E+99

> <Gold.Protein.RotatedTorsions>
[ 6907 6896 6895 6894 ] final -164.20 input  -60.11 | X-H torsion
[ 7974 7965 7964 7962 ] final -165.63 input  175.53 | X-H torsion
[ 8008 7997 7996 7995 ] final  -81.43 input   59.86 | X-H torsion
[ 10167 10162 10161 10158 ] final -173.87 input  -65.29 | X-H torsion
[ 10718 10713 10712 10709 ] final  -17.60 input   66.30 | X-H torsion
[ 10763 10752 10751 10750 ] final  149.87 input  -60.55 | X-H torsion
[ 11005 11000 10999 10996 ] final -107.86 input  -57.11 | X-H torsion

> <Gold.Protein.ActiveResidues>
 VAL166  LYS551  ARG553  GLY616  TRP617  ASP618  TYR619  PRO620  LYS621  CYS622 
 ASP623  PHE694  ASN695  SER759  ASP760  ASP761  ALA762  ILE779  LEU786  VAL792 
 PHE793  MET794  SER795  GLU796  ALA797  LYS798  CYS799  TRP800  GLU811  SER814 

> <Gold.Protein.RotatedAtoms>
  151.4080  133.3736  159.2740 H   0  0  0  0  0  0  0  0  0  0  0  0  # atno 6907 bound_to 6896
  150.9384  134.8796  159.7607 H   0  0  0  0  0  0  0  0  0  0  0  0  # atno 6908 bound_to 6896
  152.5060  134.4029  159.9474 H   0  0  0  0  0  0  0  0  0  0  0  0  # atno 6909 bound_to 6896
  144.7265  140.2786  143.6239 H   0  0  0  0  0  0  0  0  0  0  0  0  # atno 7974 bound_to 7965
  154.5982  140.0648  156.9333 H   0  0  0  0  0  0  0  0  0  0  0  0  # atno 8008 bound_to 7997
  155.2177  140.3327  155.4301 H   0  0  0  0  0  0  0  0  0  0  0  0  # atno 8009 bound_to 7997
  156.2301  140.1837  156.7248 H   0  0  0  0  0  0  0  0  0  0  0  0  # atno 8010 bound_to 7997
  139.5664  144.1745  152.1319 H   0  0  0  0  0  0  0  0  0  0  0  0  # atno 10167 bound_to 10162
  156.5713  130.4750  149.6361 H   0  0  0  0  0  0  0  0  0  0  0  0  # atno 10718 bound_to 10713
  154.0781  135.2861  155.3295 H   0  0  0  0  0  0  0  0  0  0  0  0  # atno 10763 bound_to 10752
  154.6702  135.5302  153.8131 H   0  0  0  0  0  0  0  0  0  0  0  0  # atno 10764 bound_to 10752
  153.0459  135.6555  154.0958 H   0  0  0  0  0  0  0  0  0  0  0  0  # atno 10765 bound_to 10752
  141.0932  133.9018  157.2026 H   0  0  0  0  0  0  0  0  0  0  0  0  # atno 11005 bound_to 11000
  145.7972  139.1950  143.2069 LP  0  0  0  0  0  0  0  0  0  0  0  0  # atno 17320 bound_to 7965
  146.0707  140.7872  142.9689 LP  0  0  0  0  0  0  0  0  0  0  0  0  # atno 17321 bound_to 7965
  140.1269  144.5324  150.6827 LP  0  0  0  0  0  0  0  0  0  0  0  0  # atno 17342 bound_to 10162
  140.6948  143.2397  151.5032 LP  0  0  0  0  0  0  0  0  0  0  0  0  # atno 17343 bound_to 10162
  156.2712  130.7018  151.1816 LP  0  0  0  0  0  0  0  0  0  0  0  0  # atno 17370 bound_to 10713
  157.7347  131.0579  150.5508 LP  0  0  0  0  0  0  0  0  0  0  0  0  # atno 17371 bound_to 10713
  139.9762  135.0113  156.9638 LP  0  0  0  0  0  0  0  0  0  0  0  0  # atno 17394 bound_to 11000
  140.5202  134.0915  155.7290 LP  0  0  0  0  0  0  0  0  0  0  0  0  # atno 17395 bound_to 11000

$$$$
