#       Name:                AV-unprocessed.smi:2591
#       Creating user name   scv26
#       Creation time:       Fri Mar 27 14:16:53 2020


#       File generated by GOLD software.
#

@<TRIPOS>MOLECULE
AV-unprocessed.smi:2591
    40    41     1
SMALL
NO_CHARGES


@<TRIPOS>ATOM
      1 ****        -2.9126  -1.7378  -3.4864 C.3            1 S1                 0.0000
      2 ****        -2.3045  -0.9202  -2.4156 N.4            1 S1                 1.0000
      3 ****        -2.7117   0.5015  -2.4789 C.3            1 S1                 0.0000
      4 ****        -1.9902   1.3125  -1.3906 C.3            1 S1                 0.0000
      5 ****        -2.2508   0.7395  -0.1090 O.3            1 S1                 0.0000
      6 ****        -1.8497  -0.6276   0.0278 C.3            1 S1                 0.0000
      7 ****        -0.3132  -0.7442   0.0561 C.2            1 S1                 0.0000
      8 ****         0.2717  -1.4374  -0.7773 O.2            1 S1                 0.0000
      9 ****         0.2975  -0.0478   1.0335 N.am           1 S1                 0.0000
     10 ****         1.6874   0.0525   1.3065 C.ar           1 S1                 0.0000
     11 ****         2.0224   0.8590   2.4168 C.ar           1 S1                 0.0000
     12 ****         3.3770   1.0309   2.7740 C.ar           1 S1                 0.0000
     13 ****         3.7533   1.8899   3.9714 C.3            1 S1                 0.0000
     14 ****         5.0417   2.2323   3.9410 F              1 S1                 0.0000
     15 ****         3.0228   3.0051   3.9836 F              1 S1                 0.0000
     16 ****         3.5170   1.2088   5.0921 F              1 S1                 0.0000
     17 ****         4.3592   0.3756   2.0032 C.ar           1 S1                 0.0000
     18 ****         3.9395  -0.4094   0.9140 C.ar           1 S1                 0.0000
     19 ****         2.6438  -0.5666   0.5719 N.ar           1 S1                 0.0000
     20 ****        -2.5459  -1.4771  -1.0631 C.3            1 S1                 0.0000
     21 ****        -3.9992  -1.7602  -3.3943 H              1 S1                 0.0000
     22 ****        -2.5434  -2.7630  -3.4428 H              1 S1                 0.0000
     23 ****        -2.6600  -1.3344  -4.4676 H              1 S1                 0.0000
     24 ****        -2.4760   0.9106  -3.4622 H              1 S1                 0.0000
     25 ****        -3.7923   0.5798  -2.3488 H              1 S1                 0.0000
     26 ****        -0.9188   1.3615  -1.5888 H              1 S1                 0.0000
     27 ****        -2.3520   2.3407  -1.3915 H              1 S1                 0.0000
     28 ****        -2.2042  -0.9711   1.0006 H              1 S1                 0.0000
     29 ****        -0.3048   0.4763   1.6517 H              1 S1                 0.0000
     30 ****         1.2489   1.3433   2.9953 H              1 S1                 0.0000
     31 ****         5.4101   0.4655   2.2357 H              1 S1                 0.0000
     32 ****         4.6632  -0.9264   0.3012 H              1 S1                 0.0000
     33 ****        -3.6200  -1.5039  -0.8732 H              1 S1                 0.0000
     34 ****        -2.1993  -2.5109  -1.0210 H              1 S1                 0.0000
     35 ****        -1.3052  -0.9458  -2.5644 H              1 S1                 0.0000
     36 ****        -3.2345   0.7941   0.0624 LP             1 S1                 0.0000
     37 ****        -1.7624   1.2776   0.5779 LP             1 S1                 0.0000
     38 ****        -0.2506  -1.9271  -1.4756 LP             1 S1                 0.0000
     39 ****         1.2687  -1.5106  -0.7557 LP             1 S1                 0.0000
     40 ****         2.3923  -1.1325  -0.2134 LP             1 S1                 0.0000
@<TRIPOS>BOND
    1    1    2 1     
    2    1   21 1     
    3    1   22 1     
    4    1   23 1     
    5    2   20 1     
    6    2    3 1     
    7    2   35 1     
    8    3    4 1     
    9    3   24 1     
   10    3   25 1     
   11    4    5 1     
   12    4   26 1     
   13    4   27 1     
   14    5    6 1     
   15    6    7 1     
   16    6   20 1     
   17    6   28 1     
   18    7    8 2     
   19    7    9 am    
   20    9   10 1     
   21    9   29 1     
   22   10   19 ar    
   23   10   11 ar    
   24   11   12 ar    
   25   11   30 1     
   26   12   13 1     
   27   12   17 ar    
   28   13   14 1     
   29   13   15 1     
   30   13   16 1     
   31   17   18 ar    
   32   17   31 1     
   33   18   19 ar    
   34   18   32 1     
   35   20   33 1     
   36   20   34 1     
   37    5   36 1     
   38    5   37 1     
   39    8   38 1     
   40    8   39 1     
   41   19   40 1     
@<TRIPOS>SUBSTRUCTURE
      1 S1             1
@<TRIPOS>SET
LONE_PAIRS      STATIC     ATOMS    <user>   **** ""
5 36 37 38 39 40
DONOR_HYDROGENS      STATIC     ATOMS    <user>   **** ""
2 35 29
ATOM$BLUE        STATIC     ATOMS    COLORGROUP SYSTEM
5 36 37 38 39 40
ATOM$RED        STATIC     ATOMS    COLORGROUP SYSTEM
2 35 29
