AV-unprocessed.smi:2169|AV-procd|sdf|8823|dock10
  -GOLD-   2272012 13D 1   1.00000     0.00000
 Structure written by MMmdl.
 45 46  0  0  0  0  0  0  0  0  2 V2000
  137.0236  136.8062  156.9672 C   0  0  0  0  0  0  0  0  0  0  0  0
  137.6888  138.3761  156.2771 S   0  0  0  0  0  0  0  0  0  0  0  0
  136.5948  139.3584  156.2342 O   0  0  0  0  0  0  0  0  0  0  0  0
  138.9322  138.7008  156.9927 O   0  0  0  0  0  0  0  0  0  0  0  0
  138.1085  137.9749  154.6364 N   0  0  0  0  0  0  0  0  0  0  0  0
  138.3567  139.0496  153.6545 C   0  0  0  0  0  0  0  0  0  0  0  0
  139.8617  139.2724  153.4217 C   0  0  0  0  0  0  0  0  0  0  0  0
  140.5700  137.9626  153.0355 C   0  0  0  0  0  0  0  0  0  0  0  0
  142.0085  138.1679  152.8937 N   0  0  0  0  0  0  0  0  0  0  0  0
  142.9328  137.1978  152.9185 C   0  0  0  0  0  0  0  0  0  0  0  0
  142.6759  136.0009  153.0510 O   0  0  0  0  0  0  0  0  0  0  0  0
  144.1734  137.6876  152.7861 N   0  0  0  0  0  0  0  0  0  0  0  0
  145.3897  136.8835  152.7816 C   0  0  0  0  0  0  0  0  0  0  0  0
  145.9067  136.6455  151.3529 C   0  0  0  0  0  0  0  0  0  0  0  0
  145.4238  135.3266  150.7821 C   0  0  0  0  0  0  0  0  0  0  0  0
  146.2775  134.2019  150.7409 C   0  0  0  0  0  0  0  0  0  0  0  0
  145.7982  132.9895  150.2021 C   0  0  0  0  0  0  0  0  0  0  0  0
  144.4761  132.9296  149.7157 C   0  0  0  0  0  0  0  0  0  0  0  0
  143.6889  134.0265  149.7711 N   0  3  0  0  0  0  0  0  0  0  0  0
  144.1102  135.2054  150.2797 C   0  0  0  0  0  0  0  0  0  0  0  0
  140.3010  136.9035  154.1143 C   0  0  0  0  0  0  0  0  0  0  0  0
  138.7926  136.7001  154.3396 C   0  0  0  0  0  0  0  0  0  0  0  0
  136.7304  136.9696  158.0038 H   0  0  0  0  0  0  0  0  0  0  0  0
  137.7896  136.0334  156.9354 H   0  0  0  0  0  0  0  0  0  0  0  0
  136.1502  136.4910  156.3992 H   0  0  0  0  0  0  0  0  0  0  0  0
  137.8809  138.7715  152.7134 H   0  0  0  0  0  0  0  0  0  0  0  0
  137.8815  139.9758  153.9764 H   0  0  0  0  0  0  0  0  0  0  0  0
  139.9970  140.0175  152.6370 H   0  0  0  0  0  0  0  0  0  0  0  0
  140.3188  139.6908  154.3179 H   0  0  0  0  0  0  0  0  0  0  0  0
  140.1642  137.6011  152.0884 H   0  0  0  0  0  0  0  0  0  0  0  0
  142.3217  139.1208  152.7786 H   0  0  0  0  0  0  0  0  0  0  0  0
  144.2844  138.6857  152.6809 H   0  0  0  0  0  0  0  0  0  0  0  0
  146.1548  137.3666  153.3919 H   0  0  0  0  0  0  0  0  0  0  0  0
  145.1665  135.9296  153.2604 H   0  0  0  0  0  0  0  0  0  0  0  0
  145.5879  137.4585  150.6992 H   0  0  0  0  0  0  0  0  0  0  0  0
  146.9974  136.6504  151.3382 H   0  0  0  0  0  0  0  0  0  0  0  0
  147.2885  134.2655  151.1168 H   0  0  0  0  0  0  0  0  0  0  0  0
  146.4362  132.1184  150.1630 H   0  0  0  0  0  0  0  0  0  0  0  0
  144.0282  132.0446  149.2873 H   0  0  0  0  0  0  0  0  0  0  0  0
  143.3893  136.0102  150.2680 H   0  0  0  0  0  0  0  0  0  0  0  0
  140.7545  135.9547  153.8246 H   0  0  0  0  0  0  0  0  0  0  0  0
  140.7792  137.1952  155.0488 H   0  0  0  0  0  0  0  0  0  0  0  0
  138.6222  135.9811  155.1404 H   0  0  0  0  0  0  0  0  0  0  0  0
  138.3451  136.2715  153.4421 H   0  0  0  0  0  0  0  0  0  0  0  0
  142.7353  133.9618  149.4136 H   0  0  0  0  0  0  0  0  0  0  0  0
  1  2  1  0  0  0  0
  1 23  1  0  0  0  0
  1 24  1  0  0  0  0
  1 25  1  0  0  0  0
  2  3  2  0  0  0  0
  2  4  2  0  0  0  0
  2  5  1  0  0  0  0
  5 22  1  0  0  0  0
  5  6  1  0  0  0  0
  6  7  1  0  0  0  0
  6 26  1  0  0  0  0
  6 27  1  0  0  0  0
  7  8  1  0  0  0  0
  7 28  1  0  0  0  0
  7 29  1  0  0  0  0
  8  9  1  0  0  0  0
  8 21  1  0  0  0  0
  8 30  1  0  0  0  0
  9 10  1  0  0  0  0
  9 31  1  0  0  0  0
 10 11  2  0  0  0  0
 10 12  1  0  0  0  0
 12 13  1  0  0  0  0
 12 32  1  0  0  0  0
 13 14  1  0  0  0  0
 13 33  1  0  0  0  0
 13 34  1  0  0  0  0
 14 15  1  0  0  0  0
 14 35  1  0  0  0  0
 14 36  1  0  0  0  0
 15 20  1  0  0  0  0
 15 16  2  0  0  0  0
 16 17  1  0  0  0  0
 16 37  1  0  0  0  0
 17 18  2  0  0  0  0
 17 38  1  0  0  0  0
 18 19  1  0  0  0  0
 18 39  1  0  0  0  0
 19 20  2  0  0  0  0
 19 45  1  0  0  0  0
 20 40  1  0  0  0  0
 21 22  1  0  0  0  0
 21 41  1  0  0  0  0
 21 42  1  0  0  0  0
 22 43  1  0  0  0  0
 22 44  1  0  0  0  0
M  CHG  1  19   1
M  END
> <s_m_source_file>
AV-unprocessed.smi

> <i_m_source_file_index>
2169

> <i_lp_mmshare_version>
43012

> <i_f3d_flags>
0

> <s_epik_input>
W0NIM11TKD1PKSg9TylOMVtDSDJdW0NIMl1bQ0hdKFtDSDJdW0NIMl0xKVtOSF1DKD1PKVtOSF1bQ0gyXVtDSDJdYzJbY0hdW2NIXVtjSF1uW2NIXTI=

> <s_epik_cmdline>
J2VwaWtfcHl0aG9uJywgJy1waCcsICc3LjAnLCAnLXRuJywgJzgnLCAnLW1hJywgJzIwMCcsICctbWV0YWxfYmluZGluZycsICctaW1hZScsICc8aW5maWxlLm1hZT4nLCAnLW9tYWUnLCAnPG91dGZpbGUubWFlPic=

> <r_epik_Ionization_Penalty>
2.21124

> <r_epik_Ionization_Penalty_Charging>
2.21119

> <r_epik_Ionization_Penalty_Neutral>
4.90089e-05

> <r_epik_State_Penalty>
2.35542

> <r_epik_Charging_Adjusted_Penalty>
4.56661

> <i_epik_Tot_Q>
1

> <i_epik_Tot_abs_Q>
1

> <r_epik_Metal_State_Penalty>
2.36951

> <b_epik_Metal_Only>
0

> <s_lp_Force_Field>
OPLS_2005

> <r_lp_Energy>
3.64161

> <b_lp_Chiralities_Consistent>
1

> <s_lp_Variant>
AV-unprocessed.smi:2169-2

> <Gold.Version>
5.8.1

> <Gold.Id.Protein>
6NUR|6NUR_protein|mol2

> <Gold.PLP.Fitness>
46.5907

> <Gold.PLP.PLP>
-36.6610

> <Gold.PLP.part.hbond>
-3.6806

> <Gold.PLP.part.metal>
0.0000

> <Gold.PLP.part.buried>
-3.2367

> <Gold.PLP.part.nonpolar>
-30.8215

> <Gold.PLP.part.repulsive>
0.2426

> <Gold.PLP.ligand.clash>
0.0000

> <Gold.PLP.ligand.torsion>
2.0705

> <Gold.PLP.Chemscore.Hbond>
4.0000

> <Gold.PLP.Chemscore.CHOScore>
0.0000

> <Gold.PLP.Chemscore.Metal>
0.0000

> <Gold.Chemscore.Hbonds>
donor molecule, donor type, donor heavy atom, donor atom, acceptor molecule, acceptor atom, score
      L1  H     9    31       P1 10175  1.00
      L1  H    12    32       P1 10175  1.00
      L1  H    19    45       P1 10186  1.98

> <Gold.PLP.Chemscore.Internal.Correction>
2.0708

> <Gold.Rescore>
     Score         DG    S(hbond)    S(metal)    S(lipo)     H(rot)  DE(clash)    DE(int)     intcor
     16.61     -20.99       2.90        0.00      87.61       1.73       1.11       3.27       ----

> <Gold.Chemscore.Fitness>
16.6072

> <Gold.Chemscore.DG>
-20.9943

> <Gold.Chemscore.ZeroCoef>
-5.4800

> <Gold.Chemscore.Hbond>
2.9019

> <Gold.Chemscore.Metal>
0.0000

> <Gold.Chemscore.Lipo>
87.6070

> <Gold.Chemscore.Internal_Hbond>
0.0000

> <Gold.Chemscore.DEClash>
1.1150

> <Gold.Chemscore.DEInternal>
3.2722

> <Gold.Chemscore.Rot>
1.7297

> <Gold.Chemscore.Internal.Correction>
   9.000000E+99

> <Gold.Chemscore.Hbonds>
donor molecule, donor type, donor heavy atom, donor atom, acceptor molecule, acceptor atom, score
      L1  H     9    31       P1 10175  0.96
      L1  H    12    32       P1 10175  0.98
      L1  H    19    45       P1 10186  0.93

> <Gold.Chemscore.Hbond.Weighted>
-9.6922

> <Gold.Chemscore.Metal.Weighted>
-0.0000

> <Gold.Chemscore.Lipo.Weighted>
-10.2500

> <Gold.Chemscore.Internal_Hbond.Weighted>
0.0000

> <Gold.Chemscore.DEClash.Weighted>
1.1150

> <Gold.Chemscore.DEInternal.Weighted>
3.2722

> <Gold.Chemscore.Rot.Weighted>
4.4280

> <Gold.Chemscore.Internal.Correction.Weighted>
   9.000000E+99

> <Gold.Protein.RotatedTorsions>
[ 6907 6896 6895 6894 ] final -168.41 input  -60.11 | X-H torsion
[ 7974 7965 7964 7962 ] final -164.01 input  175.53 | X-H torsion
[ 8008 7997 7996 7995 ] final  -61.38 input   59.86 | X-H torsion
[ 10167 10162 10161 10158 ] final -164.64 input  -65.29 | X-H torsion
[ 10718 10713 10712 10709 ] final -170.04 input   66.30 | X-H torsion
[ 10763 10752 10751 10750 ] final  -56.36 input  -60.55 | X-H torsion
[ 11005 11000 10999 10996 ] final  -29.19 input  -57.11 | X-H torsion

> <Gold.Protein.ActiveResidues>
 VAL166  LYS551  ARG553  GLY616  TRP617  ASP618  TYR619  PRO620  LYS621  CYS622 
 ASP623  PHE694  ASN695  SER759  ASP760  ASP761  ALA762  ILE779  LEU786  VAL792 
 PHE793  MET794  SER795  GLU796  ALA797  LYS798  CYS799  TRP800  GLU811  SER814 

> <Gold.Protein.RotatedAtoms>
  151.4750  133.3560  159.2829 H   0  0  0  0  0  0  0  0  0  0  0  0  # atno 6907 bound_to 6896
  150.8935  134.8343  159.7321 H   0  0  0  0  0  0  0  0  0  0  0  0  # atno 6908 bound_to 6896
  152.4837  134.4663  159.9673 H   0  0  0  0  0  0  0  0  0  0  0  0  # atno 6909 bound_to 6896
  144.7309  140.3023  143.6202 H   0  0  0  0  0  0  0  0  0  0  0  0  # atno 7974 bound_to 7965
  154.4445  140.1019  156.6421 H   0  0  0  0  0  0  0  0  0  0  0  0  # atno 8008 bound_to 7997
  155.5490  140.3485  155.4445 H   0  0  0  0  0  0  0  0  0  0  0  0  # atno 8009 bound_to 7997
  156.0543  140.1311  157.0004 H   0  0  0  0  0  0  0  0  0  0  0  0  # atno 8010 bound_to 7997
  139.6237  144.0575  152.1955 H   0  0  0  0  0  0  0  0  0  0  0  0  # atno 10167 bound_to 10162
  156.7204  130.9268  151.3097 H   0  0  0  0  0  0  0  0  0  0  0  0  # atno 10718 bound_to 10713
  154.2054  135.6404  153.5099 H   0  0  0  0  0  0  0  0  0  0  0  0  # atno 10763 bound_to 10752
  153.0002  135.5461  154.6271 H   0  0  0  0  0  0  0  0  0  0  0  0  # atno 10764 bound_to 10752
  154.5695  135.2915  155.0815 H   0  0  0  0  0  0  0  0  0  0  0  0  # atno 10765 bound_to 10752
  140.9274  133.7360  156.0887 H   0  0  0  0  0  0  0  0  0  0  0  0  # atno 11005 bound_to 11000
  145.7747  139.1870  143.2192 LP  0  0  0  0  0  0  0  0  0  0  0  0  # atno 17320 bound_to 7965
  146.0882  140.7686  142.9608 LP  0  0  0  0  0  0  0  0  0  0  0  0  # atno 17321 bound_to 7965
  140.0223  144.6144  150.7556 LP  0  0  0  0  0  0  0  0  0  0  0  0  # atno 17342 bound_to 10162
  140.7397  143.2795  151.3640 LP  0  0  0  0  0  0  0  0  0  0  0  0  # atno 17343 bound_to 10162
  157.6900  130.9224  150.0489 LP  0  0  0  0  0  0  0  0  0  0  0  0  # atno 17370 bound_to 10713
  156.1599  130.3643  149.9315 LP  0  0  0  0  0  0  0  0  0  0  0  0  # atno 17371 bound_to 10713
  140.7907  134.3620  157.5465 LP  0  0  0  0  0  0  0  0  0  0  0  0  # atno 17394 bound_to 11000
  139.8788  134.9139  156.3094 LP  0  0  0  0  0  0  0  0  0  0  0  0  # atno 17395 bound_to 11000

$$$$
