AV-unprocessed.smi:2032|AV-procd|sdf|8245|dock3
  -GOLD-   2272010513D 1   1.00000     0.00000
 Structure written by MMmdl.
 41 42  0  0  0  0  0  0  0  0  2 V2000
  150.0846  141.1990  157.1913 C   0  0  0  0  0  0  0  0  0  0  0  0
  150.4630  141.3682  155.7098 C   0  0  2  0  0  0  0  0  0  0  0  0
  149.2437  141.5585  154.7857 C   0  0  0  0  0  0  0  0  0  0  0  0
  148.4744  140.3291  154.5610 N   0  0  0  0  0  0  0  0  0  0  0  0
  147.3251  140.5414  153.6484 C   0  0  2  0  0  0  0  0  0  0  0  0
  146.6319  141.9104  153.8699 C   0  0  0  0  0  0  0  0  0  0  0  0
  146.2533  139.4144  153.7314 C   0  0  0  0  0  0  0  0  0  0  0  0
  146.2721  138.5023  152.5899 N   0  0  0  0  0  0  0  0  0  0  0  0
  145.6264  137.3302  152.5072 C   0  0  0  0  0  0  0  0  0  0  0  0
  144.9265  136.9455  153.4470 O   0  0  0  0  0  0  0  0  0  0  0  0
  145.8366  136.6750  151.3428 N   0  5  0  0  0  0  0  0  0  0  0  0
  145.4192  135.4068  151.1988 C   0  0  0  0  0  0  0  0  0  0  0  0
  144.1384  135.0789  150.9927 N   0  0  0  0  0  0  0  0  0  0  0  0
  143.9317  133.7046  150.8601 C   0  0  0  0  0  0  0  0  0  0  0  0
  145.0829  132.9692  150.9586 C   0  0  0  0  0  0  0  0  0  0  0  0
  146.4695  133.9873  151.2241 S   0  0  0  0  0  0  0  0  0  0  0  0
  149.4013  139.3010  154.0793 C   0  0  0  0  0  0  0  0  0  0  0  0
  150.5878  139.0704  155.0329 C   0  0  1  0  0  0  0  0  0  0  0  0
  151.5879  138.0538  154.4718 C   0  0  0  0  0  0  0  0  0  0  0  0
  151.2790  140.2969  155.2425 O   0  0  0  0  0  0  0  0  0  0  0  0
  149.5675  142.0844  157.5617 H   0  0  0  0  0  0  0  0  0  0  0  0
  150.9731  141.0546  157.8058 H   0  0  0  0  0  0  0  0  0  0  0  0
  149.4238  140.3474  157.3515 H   0  0  0  0  0  0  0  0  0  0  0  0
  151.0758  142.2675  155.6414 H   0  0  0  0  0  0  0  0  0  0  0  0
  148.6203  142.3319  155.2303 H   0  0  0  0  0  0  0  0  0  0  0  0
  149.5865  141.9483  153.8259 H   0  0  0  0  0  0  0  0  0  0  0  0
  147.7081  140.5431  152.6269 H   0  0  0  0  0  0  0  0  0  0  0  0
  145.7583  142.0434  153.2326 H   0  0  0  0  0  0  0  0  0  0  0  0
  147.2833  142.7488  153.6285 H   0  0  0  0  0  0  0  0  0  0  0  0
  146.3031  142.0228  154.9032 H   0  0  0  0  0  0  0  0  0  0  0  0
  146.3745  138.7982  154.6214 H   0  0  0  0  0  0  0  0  0  0  0  0
  145.2578  139.8545  153.7941 H   0  0  0  0  0  0  0  0  0  0  0  0
  146.8324  138.7779  151.7968 H   0  0  0  0  0  0  0  0  0  0  0  0
  142.9299  133.3372  150.6952 H   0  0  0  0  0  0  0  0  0  0  0  0
  145.2003  131.8984  150.8900 H   0  0  0  0  0  0  0  0  0  0  0  0
  148.8946  138.3438  153.9774 H   0  0  0  0  0  0  0  0  0  0  0  0
  149.7705  139.5717  153.0888 H   0  0  0  0  0  0  0  0  0  0  0  0
  150.2187  138.6936  155.9871 H   0  0  0  0  0  0  0  0  0  0  0  0
  151.1127  137.0866  154.3058 H   0  0  0  0  0  0  0  0  0  0  0  0
  152.4179  137.9016  155.1621 H   0  0  0  0  0  0  0  0  0  0  0  0
  152.0021  138.3913  153.5212 H   0  0  0  0  0  0  0  0  0  0  0  0
  1  2  1  0  0  0  0
  1 21  1  0  0  0  0
  1 22  1  0  0  0  0
  1 23  1  0  0  0  0
  2 20  1  0  0  0  0
  2  3  1  0  0  0  0
  2 24  1  0  0  0  0
  3  4  1  0  0  0  0
  3 25  1  0  0  0  0
  3 26  1  0  0  0  0
  4  5  1  0  0  0  0
  4 17  1  0  0  0  0
  5  6  1  0  0  0  0
  5  7  1  0  0  0  0
  5 27  1  0  0  0  0
  6 28  1  0  0  0  0
  6 29  1  0  0  0  0
  6 30  1  0  0  0  0
  7  8  1  0  0  0  0
  7 31  1  0  0  0  0
  7 32  1  0  0  0  0
  8  9  1  0  0  0  0
  8 33  1  0  0  0  0
  9 10  2  0  0  0  0
  9 11  1  0  0  0  0
 11 12  1  0  0  0  0
 12 16  1  0  0  0  0
 12 13  2  0  0  0  0
 13 14  1  0  0  0  0
 14 15  2  0  0  0  0
 14 34  1  0  0  0  0
 15 16  1  0  0  0  0
 15 35  1  0  0  0  0
 17 18  1  0  0  0  0
 17 36  1  0  0  0  0
 17 37  1  0  0  0  0
 18 19  1  0  0  0  0
 18 20  1  0  0  0  0
 18 38  1  0  0  0  0
 19 39  1  0  0  0  0
 19 40  1  0  0  0  0
 19 41  1  0  0  0  0
M  CHG  1  11  -1
M  END
> <s_m_source_file>
AV-unprocessed.smi

> <i_m_source_file_index>
2032

> <i_lp_mmshare_version>
43012

> <i_f3d_flags>
0

> <s_epik_input>
W0NIM11bQ0BASF0xW0NIMl1OKFtDSDJdW0NASF0oTzEpW0NIM10pW0NASF0oW0NIM10pW0NIMl1bTkhdQyg9TylbTkhdYzJuW2NIXVtjSF1zMg==

> <s_epik_cmdline>
J2VwaWtfcHl0aG9uJywgJy1waCcsICc3LjAnLCAnLXRuJywgJzgnLCAnLW1hJywgJzIwMCcsICctbWV0YWxfYmluZGluZycsICctaW1hZScsICc8aW5maWxlLm1hZT4nLCAnLW9tYWUnLCAnPG91dGZpbGUubWFlPic=

> <r_lp_tautomer_probability>
0.999

> <r_epik_Ionization_Penalty>
7.22375

> <r_epik_Ionization_Penalty_Charging>
5.82415

> <r_epik_Ionization_Penalty_Neutral>
1.39959

> <r_epik_State_Penalty>
6.03347

> <r_epik_Charging_Adjusted_Penalty>
11.8576

> <i_epik_Tot_Q>
-1

> <i_epik_Tot_abs_Q>
1

> <r_epik_Metal_State_Penalty>
2.01024

> <b_epik_Metal_Only>
1

> <s_lp_Force_Field>
OPLS_2005

> <r_lp_Energy>
26.7208

> <b_lp_Chiralities_Consistent>
1

> <s_lp_Variant>
AV-unprocessed.smi:2032-15

> <Gold.Version>
5.8.1

> <Gold.Id.Protein>
6NUR|6NUR_protein|mol2

> <Gold.PLP.Fitness>
36.7168

> <Gold.PLP.PLP>
-34.2392

> <Gold.PLP.part.hbond>
-1.1416

> <Gold.PLP.part.metal>
0.0000

> <Gold.PLP.part.buried>
-4.9972

> <Gold.PLP.part.nonpolar>
-30.0919

> <Gold.PLP.part.repulsive>
0.8675

> <Gold.PLP.ligand.clash>
0.0000

> <Gold.PLP.ligand.torsion>
1.8159

> <Gold.PLP.Chemscore.Hbond>
1.0000

> <Gold.PLP.Chemscore.CHOScore>
0.9971

> <Gold.PLP.Chemscore.Metal>
0.0000

> <Gold.Chemscore.Hbonds>
donor molecule, donor type, donor heavy atom, donor atom, acceptor molecule, acceptor atom, score
      P1  H  7989  7998       L1    20  1.00
      L1  C    14    34       P1 10186  1.00

> <Gold.PLP.Chemscore.Internal.Correction>
0.1179

> <Gold.Rescore>
     Score         DG    S(hbond)    S(metal)    S(lipo)     H(rot)  DE(clash)    DE(int)     intcor
      9.51     -11.42       0.14        0.00      80.68       1.54       0.21       1.71       ----

> <Gold.Chemscore.Fitness>
9.5058

> <Gold.Chemscore.DG>
-11.4247

> <Gold.Chemscore.ZeroCoef>
-5.4800

> <Gold.Chemscore.Hbond>
0.1364

> <Gold.Chemscore.Metal>
0.0000

> <Gold.Chemscore.Lipo>
80.6793

> <Gold.Chemscore.Internal_Hbond>
0.0000

> <Gold.Chemscore.DEClash>
0.2100

> <Gold.Chemscore.DEInternal>
1.7089

> <Gold.Chemscore.Rot>
1.5431

> <Gold.Chemscore.Internal.Correction>
   9.000000E+99

> <Gold.Chemscore.Hbonds>
donor molecule, donor type, donor heavy atom, donor atom, acceptor molecule, acceptor atom, score
      P1  H  7989  7998       L1    20  0.11

> <Gold.Chemscore.Hbond.Weighted>
-0.4555

> <Gold.Chemscore.Metal.Weighted>
-0.0000

> <Gold.Chemscore.Lipo.Weighted>
-9.4395

> <Gold.Chemscore.Internal_Hbond.Weighted>
0.0000

> <Gold.Chemscore.DEClash.Weighted>
0.2100

> <Gold.Chemscore.DEInternal.Weighted>
1.7089

> <Gold.Chemscore.Rot.Weighted>
3.9503

> <Gold.Chemscore.Internal.Correction.Weighted>
   9.000000E+99

> <Gold.Protein.RotatedTorsions>
[ 6907 6896 6895 6894 ] final  162.02 input  -60.11 | X-H torsion
[ 7974 7965 7964 7962 ] final  -15.40 input  175.53 | X-H torsion
[ 8008 7997 7996 7995 ] final  -51.10 input   59.86 | X-H torsion
[ 10167 10162 10161 10158 ] final  179.12 input  -65.29 | X-H torsion
[ 10718 10713 10712 10709 ] final  102.45 input   66.30 | X-H torsion
[ 10763 10752 10751 10750 ] final  -95.17 input  -60.55 | X-H torsion
[ 11005 11000 10999 10996 ] final -113.83 input  -57.11 | X-H torsion

> <Gold.Protein.ActiveResidues>
 VAL166  LYS551  ARG553  GLY616  TRP617  ASP618  TYR619  PRO620  LYS621  CYS622 
 ASP623  PHE694  ASN695  SER759  ASP760  ASP761  ALA762  ILE779  LEU786  VAL792 
 PHE793  MET794  SER795  GLU796  ALA797  LYS798  CYS799  TRP800  GLU811  SER814 

> <Gold.Protein.RotatedAtoms>
  151.9468  133.3654  159.3984 H   0  0  0  0  0  0  0  0  0  0  0  0  # atno 6907 bound_to 6896
  150.6988  134.4382  159.5289 H   0  0  0  0  0  0  0  0  0  0  0  0  # atno 6908 bound_to 6896
  152.2048  134.8555  160.0554 H   0  0  0  0  0  0  0  0  0  0  0  0  # atno 6909 bound_to 6896
  146.2033  140.3488  142.8415 H   0  0  0  0  0  0  0  0  0  0  0  0  # atno 7974 bound_to 7965
  154.4075  140.1256  156.4774 H   0  0  0  0  0  0  0  0  0  0  0  0  # atno 8008 bound_to 7997
  155.7119  140.3493  155.4958 H   0  0  0  0  0  0  0  0  0  0  0  0  # atno 8009 bound_to 7997
  155.9292  140.1066  157.1135 H   0  0  0  0  0  0  0  0  0  0  0  0  # atno 8010 bound_to 7997
  139.5323  144.2599  152.0716 H   0  0  0  0  0  0  0  0  0  0  0  0  # atno 10167 bound_to 10162
  157.6802  131.0753  150.5405 H   0  0  0  0  0  0  0  0  0  0  0  0  # atno 10718 bound_to 10713
  154.7123  135.5130  153.8685 H   0  0  0  0  0  0  0  0  0  0  0  0  # atno 10763 bound_to 10752
  153.0791  135.6626  154.0091 H   0  0  0  0  0  0  0  0  0  0  0  0  # atno 10764 bound_to 10752
  153.9931  135.3018  155.3389 H   0  0  0  0  0  0  0  0  0  0  0  0  # atno 10765 bound_to 10752
  141.0590  133.9566  157.2702 H   0  0  0  0  0  0  0  0  0  0  0  0  # atno 11005 bound_to 11000
  144.8734  140.7303  143.6032 LP  0  0  0  0  0  0  0  0  0  0  0  0  # atno 17320 bound_to 7965
  145.3407  139.1733  143.4487 LP  0  0  0  0  0  0  0  0  0  0  0  0  # atno 17321 bound_to 7965
  140.2064  144.4607  150.6406 LP  0  0  0  0  0  0  0  0  0  0  0  0  # atno 17342 bound_to 10162
  140.6508  143.2224  151.6081 LP  0  0  0  0  0  0  0  0  0  0  0  0  # atno 17343 bound_to 10162
  156.5712  130.4280  149.6018 LP  0  0  0  0  0  0  0  0  0  0  0  0  # atno 17370 bound_to 10713
  156.2739  130.7032  151.1838 LP  0  0  0  0  0  0  0  0  0  0  0  0  # atno 17371 bound_to 10713
  139.9415  135.0190  156.8724 LP  0  0  0  0  0  0  0  0  0  0  0  0  # atno 17394 bound_to 11000
  140.5907  134.0265  155.7498 LP  0  0  0  0  0  0  0  0  0  0  0  0  # atno 17395 bound_to 11000

$$$$
