AV-unprocessed.smi:3292|AV-procd|sdf|12624|dock1
  -GOLD-   2272018553D 1   1.00000     0.00000
 Structure written by MMmdl.
 39 40  0  0  0  0  0  0  0  0  2 V2000
  145.6854  133.7561  154.2483 C   0  0  0  0  0  0  0  0  0  0  0  0
  146.9488  133.2683  153.5209 C   0  0  1  0  0  0  0  0  0  0  0  0
  146.6897  132.8827  152.0481 C   0  0  0  0  0  0  0  0  0  0  0  0
  145.6438  133.6970  151.4230 N   0  0  0  0  0  0  0  0  0  0  0  0
  145.6678  135.0513  151.2099 C   0  0  0  0  0  0  0  0  0  0  0  0
  144.4801  135.3728  150.6051 C   0  0  0  0  0  0  0  0  0  0  0  0
  143.7805  134.2027  150.4781 N   0  3  0  0  0  0  0  0  0  0  0  0
  144.4885  133.1849  150.9789 C   0  0  0  0  0  0  0  0  0  0  0  0
  147.9777  134.3015  153.5961 N   0  0  0  0  0  0  0  0  0  0  0  0
  148.5696  134.7161  154.7256 C   0  0  0  0  0  0  0  0  0  0  0  0
  148.3053  134.2718  155.8431 O   0  0  0  0  0  0  0  0  0  0  0  0
  149.4908  135.6604  154.4887 N   0  0  0  0  0  0  0  0  0  0  0  0
  150.3252  136.2981  155.5024 C   0  0  0  0  0  0  0  0  0  0  0  0
  150.1254  137.8254  155.5332 C   0  0  1  0  0  0  0  0  0  0  0  0
  151.1446  138.5577  156.3812 C   0  0  0  0  0  0  0  0  0  0  0  0
  151.0048  139.9911  155.8769 C   0  0  0  0  0  0  0  0  0  0  0  0
  150.6299  139.8869  154.5065 O   0  0  0  0  0  0  0  0  0  0  0  0
  150.3062  138.5366  154.1902 C   0  0  0  0  0  0  0  0  0  0  0  0
  144.9242  132.9771  154.2939 H   0  0  0  0  0  0  0  0  0  0  0  0
  145.2484  134.6210  153.7482 H   0  0  0  0  0  0  0  0  0  0  0  0
  145.9118  134.0450  155.2751 H   0  0  0  0  0  0  0  0  0  0  0  0
  147.3094  132.3860  154.0536 H   0  0  0  0  0  0  0  0  0  0  0  0
  147.6026  132.9792  151.4579 H   0  0  0  0  0  0  0  0  0  0  0  0
  146.3738  131.8413  151.9709 H   0  0  0  0  0  0  0  0  0  0  0  0
  146.5076  135.6680  151.4966 H   0  0  0  0  0  0  0  0  0  0  0  0
  144.0904  136.3216  150.2659 H   0  0  0  0  0  0  0  0  0  0  0  0
  144.1870  132.1530  151.0136 H   0  0  0  0  0  0  0  0  0  0  0  0
  148.2622  134.7272  152.7258 H   0  0  0  0  0  0  0  0  0  0  0  0
  149.6326  135.9571  153.5340 H   0  0  0  0  0  0  0  0  0  0  0  0
  150.0477  135.8769  156.4690 H   0  0  0  0  0  0  0  0  0  0  0  0
  151.3773  136.0489  155.3530 H   0  0  0  0  0  0  0  0  0  0  0  0
  149.1301  138.0529  155.9193 H   0  0  0  0  0  0  0  0  0  0  0  0
  150.9583  138.4652  157.4516 H   0  0  0  0  0  0  0  0  0  0  0  0
  152.1496  138.1861  156.1757 H   0  0  0  0  0  0  0  0  0  0  0  0
  150.2085  140.5072  156.4144 H   0  0  0  0  0  0  0  0  0  0  0  0
  151.9229  140.5663  155.9974 H   0  0  0  0  0  0  0  0  0  0  0  0
  151.1407  138.1066  153.6346 H   0  0  0  0  0  0  0  0  0  0  0  0
  149.4166  138.4790  153.5627 H   0  0  0  0  0  0  0  0  0  0  0  0
  142.8596  134.1172  150.0663 H   0  0  0  0  0  0  0  0  0  0  0  0
  1  2  1  0  0  0  0
  1 19  1  0  0  0  0
  1 20  1  0  0  0  0
  1 21  1  0  0  0  0
  2  3  1  0  0  0  0
  2  9  1  0  0  0  0
  2 22  1  0  0  0  0
  3  4  1  0  0  0  0
  3 23  1  0  0  0  0
  3 24  1  0  0  0  0
  4  8  1  0  0  0  0
  4  5  1  0  0  0  0
  5  6  2  0  0  0  0
  5 25  1  0  0  0  0
  6  7  1  0  0  0  0
  6 26  1  0  0  0  0
  7  8  2  0  0  0  0
  7 39  1  0  0  0  0
  8 27  1  0  0  0  0
  9 10  1  0  0  0  0
  9 28  1  0  0  0  0
 10 11  2  0  0  0  0
 10 12  1  0  0  0  0
 12 13  1  0  0  0  0
 12 29  1  0  0  0  0
 13 14  1  0  0  0  0
 13 30  1  0  0  0  0
 13 31  1  0  0  0  0
 14 18  1  0  0  0  0
 14 15  1  0  0  0  0
 14 32  1  0  0  0  0
 15 16  1  0  0  0  0
 15 33  1  0  0  0  0
 15 34  1  0  0  0  0
 16 17  1  0  0  0  0
 16 35  1  0  0  0  0
 16 36  1  0  0  0  0
 17 18  1  0  0  0  0
 18 37  1  0  0  0  0
 18 38  1  0  0  0  0
M  CHG  1   7   1
M  END
> <s_m_source_file>
AV-unprocessed.smi

> <i_m_source_file_index>
3292

> <i_lp_mmshare_version>
43012

> <i_f3d_flags>
0

> <s_epik_input>
W2NIXTFuW2NIXVtjSF1uMVtDSDJdW0NAQEhdKFtDSDNdKVtOSF1DKD1PKVtOSF1bQ0gyXVtDQEBIXTJbQ0gyXVtDSDJdT1tDSDJdMg==

> <s_epik_cmdline>
J2VwaWtfcHl0aG9uJywgJy1waCcsICc3LjAnLCAnLXRuJywgJzgnLCAnLW1hJywgJzIwMCcsICctbWV0YWxfYmluZGluZycsICctaW1hZScsICc8aW5maWxlLm1hZT4nLCAnLW9tYWUnLCAnPG91dGZpbGUubWFlPic=

> <r_lp_tautomer_probability>
1

> <r_epik_Ionization_Penalty>
0.255703

> <r_epik_Ionization_Penalty_Charging>
0

> <r_epik_Ionization_Penalty_Neutral>
0.255703

> <r_epik_State_Penalty>
0.247169

> <r_epik_Charging_Adjusted_Penalty>
0.247169

> <i_epik_Tot_Q>
1

> <i_epik_Tot_abs_Q>
1

> <r_epik_Metal_State_Penalty>
0.536791

> <b_epik_Metal_Only>
0

> <s_lp_Force_Field>
OPLS_2005

> <r_lp_Energy>
19.2817

> <b_lp_Chiralities_Consistent>
1

> <s_lp_Variant>
AV-unprocessed.smi:3292-4

> <Gold.Version>
5.8.1

> <Gold.Id.Protein>
6NUR|6NUR_protein|mol2

> <Gold.PLP.Fitness>
45.8572

> <Gold.PLP.PLP>
-29.2512

> <Gold.PLP.part.hbond>
-4.0017

> <Gold.PLP.part.metal>
0.0000

> <Gold.PLP.part.buried>
-4.9780

> <Gold.PLP.part.nonpolar>
-20.4949

> <Gold.PLP.part.repulsive>
0.1909

> <Gold.PLP.ligand.clash>
0.0000

> <Gold.PLP.ligand.torsion>
0.4596

> <Gold.PLP.Chemscore.Hbond>
4.7736

> <Gold.PLP.Chemscore.CHOScore>
1.0000

> <Gold.PLP.Chemscore.Metal>
0.0000

> <Gold.Chemscore.Hbonds>
donor molecule, donor type, donor heavy atom, donor atom, acceptor molecule, acceptor atom, score
      L1  H     7    39       P1 10186  2.00
      L1  H     9    28       P1  7948  0.98
      L1  H    12    29       P1  7948  1.00
      P1  H  7989  7998       L1    17  1.00
      L1  C     5    25       P1  7948  1.00

> <Gold.PLP.Chemscore.Internal.Correction>
0.2043

> <Gold.Rescore>
     Score         DG    S(hbond)    S(metal)    S(lipo)     H(rot)  DE(clash)    DE(int)     intcor
     14.94     -15.40       2.99        0.00      48.36       2.24       0.00       0.45       ----

> <Gold.Chemscore.Fitness>
14.9445

> <Gold.Chemscore.DG>
-15.4003

> <Gold.Chemscore.ZeroCoef>
-5.4800

> <Gold.Chemscore.Hbond>
2.9903

> <Gold.Chemscore.Metal>
0.0000

> <Gold.Chemscore.Lipo>
48.3633

> <Gold.Chemscore.Internal_Hbond>
0.0000

> <Gold.Chemscore.DEClash>
0.0029

> <Gold.Chemscore.DEInternal>
0.4529

> <Gold.Chemscore.Rot>
2.2367

> <Gold.Chemscore.Internal.Correction>
   9.000000E+99

> <Gold.Chemscore.Hbonds>
donor molecule, donor type, donor heavy atom, donor atom, acceptor molecule, acceptor atom, score
      L1  H     7    39       P1 10186  0.97
      L1  H     9    28       P1  7948  0.47
      L1  H    12    29       P1  7948  0.24
      P1  H  7989  7998       L1    17  0.81

> <Gold.Chemscore.Hbond.Weighted>
-9.9876

> <Gold.Chemscore.Metal.Weighted>
-0.0000

> <Gold.Chemscore.Lipo.Weighted>
-5.6585

> <Gold.Chemscore.Internal_Hbond.Weighted>
0.0000

> <Gold.Chemscore.DEClash.Weighted>
0.0029

> <Gold.Chemscore.DEInternal.Weighted>
0.4529

> <Gold.Chemscore.Rot.Weighted>
5.7259

> <Gold.Chemscore.Internal.Correction.Weighted>
   9.000000E+99

> <Gold.Protein.RotatedTorsions>
[ 6907 6896 6895 6894 ] final  -94.61 input  -60.11 | X-H torsion
[ 7974 7965 7964 7962 ] final   90.03 input  175.53 | X-H torsion
[ 8008 7997 7996 7995 ] final  -70.75 input   59.86 | X-H torsion
[ 10167 10162 10161 10158 ] final   53.58 input  -65.29 | X-H torsion
[ 10718 10713 10712 10709 ] final   84.30 input   66.30 | X-H torsion
[ 10763 10752 10751 10750 ] final   42.65 input  -60.55 | X-H torsion
[ 11005 11000 10999 10996 ] final   73.84 input  -57.11 | X-H torsion

> <Gold.Protein.ActiveResidues>
 VAL166  LYS551  ARG553  GLY616  TRP617  ASP618  TYR619  PRO620  LYS621  CYS622 
 ASP623  PHE694  ASN695  SER759  ASP760  ASP761  ALA762  ILE779  LEU786  VAL792 
 PHE793  MET794  SER795  GLU796  ALA797  LYS798  CYS799  TRP800  GLU811  SER814 

> <Gold.Protein.RotatedAtoms>
  150.6945  134.1786  159.4239 H   0  0  0  0  0  0  0  0  0  0  0  0  # atno 6907 bound_to 6896
  151.9761  135.0050  160.0564 H   0  0  0  0  0  0  0  0  0  0  0  0  # atno 6908 bound_to 6896
  152.1798  133.4664  159.4989 H   0  0  0  0  0  0  0  0  0  0  0  0  # atno 6909 bound_to 6896
  145.5244  139.2280  143.2654 H   0  0  0  0  0  0  0  0  0  0  0  0  # atno 7974 bound_to 7965
  154.5035  140.0828  156.7847 H   0  0  0  0  0  0  0  0  0  0  0  0  # atno 8008 bound_to 7997
  155.3947  140.3434  155.4235 H   0  0  0  0  0  0  0  0  0  0  0  0  # atno 8009 bound_to 7997
  156.1486  140.1551  156.8793 H   0  0  0  0  0  0  0  0  0  0  0  0  # atno 8010 bound_to 7997
  140.2393  144.3601  150.6386 H   0  0  0  0  0  0  0  0  0  0  0  0  # atno 10167 bound_to 10162
  157.6895  131.0127  150.2653 H   0  0  0  0  0  0  0  0  0  0  0  0  # atno 10718 bound_to 10713
  152.9878  135.6125  154.2983 H   0  0  0  0  0  0  0  0  0  0  0  0  # atno 10763 bound_to 10752
  154.2705  135.2779  155.2742 H   0  0  0  0  0  0  0  0  0  0  0  0  # atno 10764 bound_to 10752
  154.5126  135.5836  153.6674 H   0  0  0  0  0  0  0  0  0  0  0  0  # atno 10765 bound_to 10752
  139.9420  134.7381  156.1075 H   0  0  0  0  0  0  0  0  0  0  0  0  # atno 11005 bound_to 11000
  146.2085  140.6057  142.9070 LP  0  0  0  0  0  0  0  0  0  0  0  0  # atno 17320 bound_to 7965
  144.7659  140.5529  143.6703 LP  0  0  0  0  0  0  0  0  0  0  0  0  # atno 17321 bound_to 7965
  140.6126  143.2170  151.6856 LP  0  0  0  0  0  0  0  0  0  0  0  0  # atno 17342 bound_to 10162
  139.5083  144.3617  152.0556 LP  0  0  0  0  0  0  0  0  0  0  0  0  # atno 17343 bound_to 10162
  156.3225  130.3788  149.7562 LP  0  0  0  0  0  0  0  0  0  0  0  0  # atno 17370 bound_to 10713
  156.5128  130.8180  151.3175 LP  0  0  0  0  0  0  0  0  0  0  0  0  # atno 17371 bound_to 10713
  141.1058  133.6660  156.2861 LP  0  0  0  0  0  0  0  0  0  0  0  0  # atno 17394 bound_to 11000
  140.5927  134.5634  157.5503 LP  0  0  0  0  0  0  0  0  0  0  0  0  # atno 17395 bound_to 11000

$$$$
