AV-unprocessed.smi:1340|AV-procd|sdf|5504|dock7
  -GOLD-   22720 5 83D 1   1.00000     0.00000
 Structure written by MMmdl.
 40 41  0  0  0  0  0  0  0  0  1 V2000
  144.8954  144.7312  154.0545 C   0  0  0  0  0  0  0  0  0  0  0  0
  145.7140  143.5221  154.5201 C   0  0  0  0  0  0  0  0  0  0  0  0
  145.7881  143.4168  156.0535 C   0  0  0  0  0  0  0  0  0  0  0  0
  146.6045  142.2109  156.5569 C   0  0  1  0  0  0  0  0  0  0  0  0
  146.2248  140.9239  155.8059 C   0  0  0  0  0  0  0  0  0  0  0  0
  148.0352  142.4736  156.4153 N   0  0  0  0  0  0  0  0  0  0  0  0
  149.0195  141.6105  156.7121 C   0  0  0  0  0  0  0  0  0  0  0  0
  148.8123  140.4728  157.1369 O   0  0  0  0  0  0  0  0  0  0  0  0
  150.4486  142.1139  156.4746 C   0  0  0  0  0  0  0  0  0  0  0  0
  151.0663  142.6499  157.7355 C   0  0  0  0  0  0  0  0  0  0  0  0
  150.9069  143.9102  158.2579 C   0  0  0  0  0  0  0  0  0  0  0  0
  151.7992  144.1222  159.7386 S   0  0  0  0  0  0  0  0  0  0  0  0
  152.3627  142.4543  159.5980 C   0  0  0  0  0  0  0  0  0  0  0  0
  153.2292  141.7748  160.5049 N   0  0  0  0  0  0  0  0  0  0  0  0
  153.4617  142.2685  161.8586 C   0  0  0  0  0  0  0  0  0  0  0  0
  154.4260  141.2502  162.4592 C   0  0  0  0  0  0  0  0  0  0  0  0
  154.6103  140.3250  161.3661 N   0  0  0  0  0  0  0  0  0  0  0  0
  153.9225  140.6435  160.2671 C   0  0  0  0  0  0  0  0  0  0  0  0
  153.9464  139.9869  159.2278 O   0  0  0  0  0  0  0  0  0  0  0  0
  151.8928  141.8304  158.5122 N   0  0  0  0  0  0  0  0  0  0  0  0
  144.8626  144.7819  152.9659 H   0  0  0  0  0  0  0  0  0  0  0  0
  145.3288  145.6634  154.4176 H   0  0  0  0  0  0  0  0  0  0  0  0
  143.8684  144.6748  154.4162 H   0  0  0  0  0  0  0  0  0  0  0  0
  145.2735  142.6158  154.1034 H   0  0  0  0  0  0  0  0  0  0  0  0
  146.7218  143.5924  154.1093 H   0  0  0  0  0  0  0  0  0  0  0  0
  146.2330  144.3323  156.4459 H   0  0  0  0  0  0  0  0  0  0  0  0
  144.7782  143.3720  156.4636 H   0  0  0  0  0  0  0  0  0  0  0  0
  146.3736  142.0698  157.6146 H   0  0  0  0  0  0  0  0  0  0  0  0
  145.1610  140.7096  155.9096 H   0  0  0  0  0  0  0  0  0  0  0  0
  146.7695  140.0620  156.1926 H   0  0  0  0  0  0  0  0  0  0  0  0
  146.4449  141.0059  154.7410 H   0  0  0  0  0  0  0  0  0  0  0  0
  148.2963  143.3850  156.0679 H   0  0  0  0  0  0  0  0  0  0  0  0
  151.0417  141.2880  156.0811 H   0  0  0  0  0  0  0  0  0  0  0  0
  150.4413  142.8832  155.7007 H   0  0  0  0  0  0  0  0  0  0  0  0
  150.3242  144.7267  157.8580 H   0  0  0  0  0  0  0  0  0  0  0  0
  153.9006  143.2670  161.8349 H   0  0  0  0  0  0  0  0  0  0  0  0
  152.5267  142.3112  162.4191 H   0  0  0  0  0  0  0  0  0  0  0  0
  155.3763  141.7028  162.7445 H   0  0  0  0  0  0  0  0  0  0  0  0
  153.9994  140.7415  163.3241 H   0  0  0  0  0  0  0  0  0  0  0  0
  155.2083  139.5145  161.4385 H   0  0  0  0  0  0  0  0  0  0  0  0
  1  2  1  0  0  0  0
  1 21  1  0  0  0  0
  1 22  1  0  0  0  0
  1 23  1  0  0  0  0
  2  3  1  0  0  0  0
  2 24  1  0  0  0  0
  2 25  1  0  0  0  0
  3  4  1  0  0  0  0
  3 26  1  0  0  0  0
  3 27  1  0  0  0  0
  4  5  1  0  0  0  0
  4  6  1  0  0  0  0
  4 28  1  0  0  0  0
  5 29  1  0  0  0  0
  5 30  1  0  0  0  0
  5 31  1  0  0  0  0
  6  7  1  0  0  0  0
  6 32  1  0  0  0  0
  7  8  2  0  0  0  0
  7  9  1  0  0  0  0
  9 10  1  0  0  0  0
  9 33  1  0  0  0  0
  9 34  1  0  0  0  0
 10 20  1  0  0  0  0
 10 11  2  0  0  0  0
 11 12  1  0  0  0  0
 11 35  1  0  0  0  0
 12 13  1  0  0  0  0
 13 14  1  0  0  0  0
 13 20  2  0  0  0  0
 14 18  1  0  0  0  0
 14 15  1  0  0  0  0
 15 16  1  0  0  0  0
 15 36  1  0  0  0  0
 15 37  1  0  0  0  0
 16 17  1  0  0  0  0
 16 38  1  0  0  0  0
 16 39  1  0  0  0  0
 17 18  1  0  0  0  0
 17 40  1  0  0  0  0
 18 19  2  0  0  0  0
M  END
> <s_m_source_file>
AV-unprocessed.smi

> <i_m_source_file_index>
1340

> <i_lp_mmshare_version>
43012

> <i_f3d_flags>
0

> <s_epik_input>
W0NIM11bQ0gyXVtDSDJdW0NASF0oW0NIM10pW05IXUMoPU8pW0NIMl1jMVtjSF1zYyhuMSlOMltDSDJdW0NIMl1bTkhdQzI9Tw==

> <s_epik_cmdline>
J2VwaWtfcHl0aG9uJywgJy1waCcsICc3LjAnLCAnLXRuJywgJzgnLCAnLW1hJywgJzIwMCcsICctbWV0YWxfYmluZGluZycsICctaW1hZScsICc8aW5maWxlLm1hZT4nLCAnLW9tYWUnLCAnPG91dGZpbGUubWFlPic=

> <r_lp_tautomer_probability>
1

> <r_epik_Ionization_Penalty>
0.00012151

> <r_epik_Ionization_Penalty_Charging>
0

> <r_epik_Ionization_Penalty_Neutral>
0.00012151

> <r_epik_State_Penalty>
-0

> <r_epik_Charging_Adjusted_Penalty>
0

> <i_epik_Tot_Q>
0

> <i_epik_Tot_abs_Q>
0

> <r_epik_Metal_State_Penalty>
-0

> <b_epik_Metal_Only>
0

> <s_lp_Force_Field>
OPLS_2005

> <r_lp_Energy>
32.5305

> <b_lp_Chiralities_Consistent>
1

> <s_lp_Variant>
AV-unprocessed.smi:1340-2

> <Gold.Version>
5.8.1

> <Gold.Id.Protein>
6NUR|6NUR_protein|mol2

> <Gold.PLP.Fitness>
49.5418

> <Gold.PLP.PLP>
-42.3411

> <Gold.PLP.part.hbond>
-2.0000

> <Gold.PLP.part.metal>
0.0000

> <Gold.PLP.part.buried>
-3.8221

> <Gold.PLP.part.nonpolar>
-35.9446

> <Gold.PLP.part.repulsive>
0.0900

> <Gold.PLP.ligand.clash>
0.0000

> <Gold.PLP.ligand.torsion>
0.9365

> <Gold.PLP.Chemscore.Hbond>
1.9440

> <Gold.PLP.Chemscore.CHOScore>
1.0624

> <Gold.PLP.Chemscore.Metal>
0.0000

> <Gold.Chemscore.Hbonds>
donor molecule, donor type, donor heavy atom, donor atom, acceptor molecule, acceptor atom, score
      L1  H     6    32       P1  8028  0.93
      P1  H  7997  8008       L1    19  0.60
      L1  C    11    35       P1  8028  0.68
      L1  C    11    35       P1  8029  0.18

> <Gold.PLP.Chemscore.Internal.Correction>
0.0545

> <Gold.Rescore>
     Score         DG    S(hbond)    S(metal)    S(lipo)     H(rot)  DE(clash)    DE(int)     intcor
     13.08     -16.66       1.88        0.00      83.79       1.92       0.03       3.55       ----

> <Gold.Chemscore.Fitness>
13.0779

> <Gold.Chemscore.DG>
-16.6576

> <Gold.Chemscore.ZeroCoef>
-5.4800

> <Gold.Chemscore.Hbond>
1.8813

> <Gold.Chemscore.Metal>
0.0000

> <Gold.Chemscore.Lipo>
83.7866

> <Gold.Chemscore.Internal_Hbond>
0.0000

> <Gold.Chemscore.DEClash>
0.0259

> <Gold.Chemscore.DEInternal>
3.5537

> <Gold.Chemscore.Rot>
1.9176

> <Gold.Chemscore.Internal.Correction>
   9.000000E+99

> <Gold.Chemscore.Hbonds>
donor molecule, donor type, donor heavy atom, donor atom, acceptor molecule, acceptor atom, score
      L1  H     6    32       P1  8028  0.58
      P1  H  7997  8008       L1    19  0.58

> <Gold.Chemscore.Hbond.Weighted>
-6.2837

> <Gold.Chemscore.Metal.Weighted>
-0.0000

> <Gold.Chemscore.Lipo.Weighted>
-9.8030

> <Gold.Chemscore.Internal_Hbond.Weighted>
0.0000

> <Gold.Chemscore.DEClash.Weighted>
0.0259

> <Gold.Chemscore.DEInternal.Weighted>
3.5537

> <Gold.Chemscore.Rot.Weighted>
4.9091

> <Gold.Chemscore.Internal.Correction.Weighted>
   9.000000E+99

> <Gold.Protein.RotatedTorsions>
[ 6907 6896 6895 6894 ] final  -90.05 input  -60.11 | X-H torsion
[ 7974 7965 7964 7962 ] final   91.72 input  175.53 | X-H torsion
[ 8008 7997 7996 7995 ] final -113.61 input   59.86 | X-H torsion
[ 10167 10162 10161 10158 ] final  -18.82 input  -65.29 | X-H torsion
[ 10718 10713 10712 10709 ] final  -28.65 input   66.30 | X-H torsion
[ 10763 10752 10751 10750 ] final   29.08 input  -60.55 | X-H torsion
[ 11005 11000 10999 10996 ] final -144.01 input  -57.11 | X-H torsion

> <Gold.Protein.ActiveResidues>
 VAL166  LYS551  ARG553  GLY616  TRP617  ASP618  TYR619  PRO620  LYS621  CYS622 
 ASP623  PHE694  ASN695  SER759  ASP760  ASP761  ALA762  ILE779  LEU786  VAL792 
 PHE793  MET794  SER795  GLU796  ALA797  LYS798  CYS799  TRP800  GLU811  SER814 

> <Gold.Protein.RotatedAtoms>
  150.6878  134.2492  159.4503 H   0  0  0  0  0  0  0  0  0  0  0  0  # atno 6907 bound_to 6896
  152.0430  134.9697  160.0583 H   0  0  0  0  0  0  0  0  0  0  0  0  # atno 6908 bound_to 6896
  152.1191  133.4308  159.4704 H   0  0  0  0  0  0  0  0  0  0  0  0  # atno 6909 bound_to 6896
  145.5019  139.2276  143.2772 H   0  0  0  0  0  0  0  0  0  0  0  0  # atno 7974 bound_to 7965
  155.0234  140.0393  157.2446 H   0  0  0  0  0  0  0  0  0  0  0  0  # atno 8008 bound_to 7997
  154.7358  140.2739  155.6392 H   0  0  0  0  0  0  0  0  0  0  0  0  # atno 8009 bound_to 7997
  156.2852  140.2675  156.2071 H   0  0  0  0  0  0  0  0  0  0  0  0  # atno 8010 bound_to 7997
  140.7262  143.4879  151.0030 H   0  0  0  0  0  0  0  0  0  0  0  0  # atno 10167 bound_to 10162
  156.4225  130.4429  149.7174 H   0  0  0  0  0  0  0  0  0  0  0  0  # atno 10718 bound_to 10713
  153.0452  135.6497  154.0836 H   0  0  0  0  0  0  0  0  0  0  0  0  # atno 10763 bound_to 10752
  154.0535  135.2893  155.3338 H   0  0  0  0  0  0  0  0  0  0  0  0  # atno 10764 bound_to 10752
  154.6704  135.5358  153.8197 H   0  0  0  0  0  0  0  0  0  0  0  0  # atno 10765 bound_to 10752
  140.8068  134.2792  157.4957 H   0  0  0  0  0  0  0  0  0  0  0  0  # atno 11005 bound_to 11000
  146.2220  140.5821  142.9013 LP  0  0  0  0  0  0  0  0  0  0  0  0  # atno 17320 bound_to 7965
  144.7775  140.5770  143.6628 LP  0  0  0  0  0  0  0  0  0  0  0  0  # atno 17321 bound_to 7965
  139.8582  143.7349  152.3175 LP  0  0  0  0  0  0  0  0  0  0  0  0  # atno 17342 bound_to 10162
  139.7555  144.7522  151.0441 LP  0  0  0  0  0  0  0  0  0  0  0  0  # atno 17343 bound_to 10162
  156.4109  130.7721  151.2734 LP  0  0  0  0  0  0  0  0  0  0  0  0  # atno 17370 bound_to 10713
  157.7508  131.0212  150.3739 LP  0  0  0  0  0  0  0  0  0  0  0  0  # atno 17371 bound_to 10713
  139.8717  134.9460  156.3927 LP  0  0  0  0  0  0  0  0  0  0  0  0  # atno 17394 bound_to 11000
  140.9239  133.7626  155.9940 LP  0  0  0  0  0  0  0  0  0  0  0  0  # atno 17395 bound_to 11000

$$$$
