AV-unprocessed.smi:1912|AV-procd|sdf|7748|dock8
  -GOLD-   22720 9483D 1   1.00000     0.00000
 Structure written by MMmdl.
 43 45  0  0  0  0  0  0  0  0  1 V2000
  155.3350  133.5027  161.3145 C   0  0  0  0  0  0  0  0  0  0  0  0
  154.5605  134.3776  160.5072 O   0  0  0  0  0  0  0  0  0  0  0  0
  154.5341  135.7155  160.8387 C   0  0  0  0  0  0  0  0  0  0  0  0
  154.8904  136.0552  162.1568 C   0  0  0  0  0  0  0  0  0  0  0  0
  154.9026  137.3970  162.5785 C   0  0  0  0  0  0  0  0  0  0  0  0
  154.5491  138.4378  161.6848 C   0  0  0  0  0  0  0  0  0  0  0  0
  154.5587  139.7735  162.0338 O   0  0  0  0  0  0  0  0  0  0  0  0
  155.1943  140.1536  163.2449 C   0  0  0  0  0  0  0  0  0  0  0  0
  154.1724  138.1035  160.3608 C   0  0  0  0  0  0  0  0  0  0  0  0
  153.7910  139.2072  159.3777 C   0  0  2  0  0  0  0  0  0  0  0  0
  154.8251  140.1528  159.1753 O   0  0  0  0  0  0  0  0  0  0  0  0
  152.5042  139.9272  159.8265 C   0  0  0  0  0  0  0  0  0  0  0  0
  152.1363  141.0238  158.9422 N   0  0  0  0  0  0  0  0  0  0  0  0
  151.7705  140.9518  157.6388 C   0  0  0  0  0  0  0  0  0  0  0  0
  151.6923  139.6463  156.9115 C   0  0  0  0  0  0  0  0  0  0  0  0
  151.4820  142.1128  157.0507 N   0  0  0  0  0  0  0  0  0  0  0  0
  151.6758  143.0250  158.0704 C   0  0  0  0  0  0  0  0  0  0  0  0
  151.5304  144.4307  158.0847 C   0  0  0  0  0  0  0  0  0  0  0  0
  151.7869  145.1629  159.2627 C   0  0  0  0  0  0  0  0  0  0  0  0
  152.1930  144.5019  160.4400 C   0  0  0  0  0  0  0  0  0  0  0  0
  152.3449  143.1020  160.4472 C   0  0  0  0  0  0  0  0  0  0  0  0
  152.0858  142.3754  159.2696 C   0  0  0  0  0  0  0  0  0  0  0  0
  154.1773  136.7527  159.9436 C   0  0  0  0  0  0  0  0  0  0  0  0
  155.2478  132.4866  160.9300 H   0  0  0  0  0  0  0  0  0  0  0  0
  154.9821  133.4950  162.3467 H   0  0  0  0  0  0  0  0  0  0  0  0
  156.3917  133.7729  161.2953 H   0  0  0  0  0  0  0  0  0  0  0  0
  155.1650  135.2767  162.8536 H   0  0  0  0  0  0  0  0  0  0  0  0
  155.1919  137.6007  163.5979 H   0  0  0  0  0  0  0  0  0  0  0  0
  155.1215  141.2346  163.3633 H   0  0  0  0  0  0  0  0  0  0  0  0
  156.2537  139.8937  163.2385 H   0  0  0  0  0  0  0  0  0  0  0  0
  154.7128  139.6942  164.1091 H   0  0  0  0  0  0  0  0  0  0  0  0
  153.6249  138.7528  158.4011 H   0  0  0  0  0  0  0  0  0  0  0  0
  154.9016  140.6831  159.9537 H   0  0  0  0  0  0  0  0  0  0  0  0
  151.6726  139.2233  159.8666 H   0  0  0  0  0  0  0  0  0  0  0  0
  152.6185  140.3137  160.8401 H   0  0  0  0  0  0  0  0  0  0  0  0
  151.4030  139.8043  155.8719 H   0  0  0  0  0  0  0  0  0  0  0  0
  150.9507  138.9975  157.3776 H   0  0  0  0  0  0  0  0  0  0  0  0
  152.6592  139.1438  156.9240 H   0  0  0  0  0  0  0  0  0  0  0  0
  151.2204  144.9463  157.1878 H   0  0  0  0  0  0  0  0  0  0  0  0
  151.6718  146.2370  159.2628 H   0  0  0  0  0  0  0  0  0  0  0  0
  152.3882  145.0700  161.3378 H   0  0  0  0  0  0  0  0  0  0  0  0
  152.6591  142.5931  161.3463 H   0  0  0  0  0  0  0  0  0  0  0  0
  153.9067  136.5269  158.9237 H   0  0  0  0  0  0  0  0  0  0  0  0
  1  2  1  0  0  0  0
  1 24  1  0  0  0  0
  1 25  1  0  0  0  0
  1 26  1  0  0  0  0
  2  3  1  0  0  0  0
  3 23  1  0  0  0  0
  3  4  2  0  0  0  0
  4  5  1  0  0  0  0
  4 27  1  0  0  0  0
  5  6  2  0  0  0  0
  5 28  1  0  0  0  0
  6  7  1  0  0  0  0
  6  9  1  0  0  0  0
  7  8  1  0  0  0  0
  8 29  1  0  0  0  0
  8 30  1  0  0  0  0
  8 31  1  0  0  0  0
  9 10  1  0  0  0  0
  9 23  2  0  0  0  0
 10 11  1  0  0  0  0
 10 12  1  0  0  0  0
 10 32  1  0  0  0  0
 11 33  1  0  0  0  0
 12 13  1  0  0  0  0
 12 34  1  0  0  0  0
 12 35  1  0  0  0  0
 13 22  1  0  0  0  0
 13 14  1  0  0  0  0
 14 15  1  0  0  0  0
 14 16  2  0  0  0  0
 15 36  1  0  0  0  0
 15 37  1  0  0  0  0
 15 38  1  0  0  0  0
 16 17  1  0  0  0  0
 17 22  2  0  0  0  0
 17 18  1  0  0  0  0
 18 19  2  0  0  0  0
 18 39  1  0  0  0  0
 19 20  1  0  0  0  0
 19 40  1  0  0  0  0
 20 21  2  0  0  0  0
 20 41  1  0  0  0  0
 21 22  1  0  0  0  0
 21 42  1  0  0  0  0
 23 43  1  0  0  0  0
M  END
> <s_m_source_file>
AV-unprocessed.smi

> <i_m_source_file_index>
1912

> <i_lp_mmshare_version>
43012

> <i_f3d_flags>
0

> <s_epik_input>
W0NIM11PYzFbY0hdW2NIXWMoT1tDSDNdKWMoW2NIXTEpW0NASF0oW09IXSlbQ0gyXW4oYyhuMilbQ0gzXSljKGMyMylbY0hdW2NIXVtjSF1bY0hdMw==

> <s_epik_cmdline>
J2VwaWtfcHl0aG9uJywgJy1waCcsICc3LjAnLCAnLXRuJywgJzgnLCAnLW1hJywgJzIwMCcsICctbWV0YWxfYmluZGluZycsICctaW1hZScsICc8aW5maWxlLm1hZT4nLCAnLW9tYWUnLCAnPG91dGZpbGUubWFlPic=

> <r_lp_tautomer_probability>
1

> <r_epik_Ionization_Penalty>
0.129663

> <r_epik_Ionization_Penalty_Charging>
0

> <r_epik_Ionization_Penalty_Neutral>
0.129663

> <r_epik_State_Penalty>
0.119073

> <r_epik_Charging_Adjusted_Penalty>
0.119073

> <i_epik_Tot_Q>
0

> <i_epik_Tot_abs_Q>
0

> <r_epik_Metal_State_Penalty>
0.000131867

> <b_epik_Metal_Only>
0

> <s_lp_Force_Field>
OPLS_2005

> <r_lp_Energy>
18.8247

> <b_lp_Chiralities_Consistent>
1

> <s_lp_Variant>
AV-unprocessed.smi:1912-1

> <Gold.Version>
5.8.1

> <Gold.Id.Protein>
6NUR|6NUR_protein|mol2

> <Gold.PLP.Fitness>
44.0731

> <Gold.PLP.PLP>
-40.3293

> <Gold.PLP.part.hbond>
-2.0000

> <Gold.PLP.part.metal>
0.0000

> <Gold.PLP.part.buried>
-2.2966

> <Gold.PLP.part.nonpolar>
-35.8501

> <Gold.PLP.part.repulsive>
0.0626

> <Gold.PLP.ligand.clash>
0.9265

> <Gold.PLP.ligand.torsion>
0.4904

> <Gold.PLP.Chemscore.Hbond>
1.8640

> <Gold.PLP.Chemscore.CHOScore>
0.0000

> <Gold.PLP.Chemscore.Metal>
0.0000

> <Gold.Chemscore.Hbonds>
donor molecule, donor type, donor heavy atom, donor atom, acceptor molecule, acceptor atom, score
      P1  H  6896  6907       L1     2  0.77
      P1  H  7997  8008       L1    11  0.93

> <Gold.PLP.Chemscore.Internal.Correction>
0.0592

> <Gold.Rescore>
     Score         DG    S(hbond)    S(metal)    S(lipo)     H(rot)  DE(clash)    DE(int)     intcor
     17.55     -18.54       1.01        0.00     130.25       2.17       0.08       0.91       ----

> <Gold.Chemscore.Fitness>
17.5517

> <Gold.Chemscore.DG>
-18.5357

> <Gold.Chemscore.ZeroCoef>
-5.4800

> <Gold.Chemscore.Hbond>
1.0088

> <Gold.Chemscore.Metal>
0.0000

> <Gold.Chemscore.Lipo>
130.2472

> <Gold.Chemscore.Internal_Hbond>
0.0000

> <Gold.Chemscore.DEClash>
0.0762

> <Gold.Chemscore.DEInternal>
0.9077

> <Gold.Chemscore.Rot>
2.1690

> <Gold.Chemscore.Internal.Correction>
   9.000000E+99

> <Gold.Chemscore.Hbonds>
donor molecule, donor type, donor heavy atom, donor atom, acceptor molecule, acceptor atom, score
      P1  H  6896  6907       L1     2  0.11
      P1  H  7997  8008       L1    11  0.50

> <Gold.Chemscore.Hbond.Weighted>
-3.3693

> <Gold.Chemscore.Metal.Weighted>
-0.0000

> <Gold.Chemscore.Lipo.Weighted>
-15.2389

> <Gold.Chemscore.Internal_Hbond.Weighted>
0.0000

> <Gold.Chemscore.DEClash.Weighted>
0.0762

> <Gold.Chemscore.DEInternal.Weighted>
0.9077

> <Gold.Chemscore.Rot.Weighted>
5.5526

> <Gold.Chemscore.Internal.Correction.Weighted>
   9.000000E+99

> <Gold.Protein.RotatedTorsions>
[ 6907 6896 6895 6894 ] final   85.54 input  -60.11 | X-H torsion
[ 7974 7965 7964 7962 ] final -107.07 input  175.53 | X-H torsion
[ 8008 7997 7996 7995 ] final -129.74 input   59.86 | X-H torsion
[ 10167 10162 10161 10158 ] final  140.72 input  -65.29 | X-H torsion
[ 10718 10713 10712 10709 ] final   11.33 input   66.30 | X-H torsion
[ 10763 10752 10751 10750 ] final  156.07 input  -60.55 | X-H torsion
[ 11005 11000 10999 10996 ] final -147.06 input  -57.11 | X-H torsion

> <Gold.Protein.ActiveResidues>
 VAL166  LYS551  ARG553  GLY616  TRP617  ASP618  TYR619  PRO620  LYS621  CYS622 
 ASP623  PHE694  ASN695  SER759  ASP760  ASP761  ALA762  ILE779  LEU786  VAL792 
 PHE793  MET794  SER795  GLU796  ALA797  LYS798  CYS799  TRP800  GLU811  SER814 

> <Gold.Protein.RotatedAtoms>
  152.5376  134.2571  159.8920 H   0  0  0  0  0  0  0  0  0  0  0  0  # atno 6907 bound_to 6896
  151.2532  133.4333  159.2620 H   0  0  0  0  0  0  0  0  0  0  0  0  # atno 6908 bound_to 6896
  151.0520  134.9693  159.8272 H   0  0  0  0  0  0  0  0  0  0  0  0  # atno 6909 bound_to 6896
  145.2100  140.9092  143.3320 H   0  0  0  0  0  0  0  0  0  0  0  0  # atno 7974 bound_to 7965
  155.2842  140.0445  157.3018 H   0  0  0  0  0  0  0  0  0  0  0  0  # atno 8008 bound_to 7997
  154.5579  140.2337  155.8349 H   0  0  0  0  0  0  0  0  0  0  0  0  # atno 8009 bound_to 7997
  156.2022  140.3022  155.9559 H   0  0  0  0  0  0  0  0  0  0  0  0  # atno 8010 bound_to 7997
  139.5040  144.6216  151.6037 H   0  0  0  0  0  0  0  0  0  0  0  0  # atno 10167 bound_to 10162
  156.9940  130.6054  149.5689 H   0  0  0  0  0  0  0  0  0  0  0  0  # atno 10718 bound_to 10713
  154.1785  135.2801  155.3059 H   0  0  0  0  0  0  0  0  0  0  0  0  # atno 10763 bound_to 10752
  154.6021  135.5526  153.7388 H   0  0  0  0  0  0  0  0  0  0  0  0  # atno 10764 bound_to 10752
  153.0144  135.6394  154.1924 H   0  0  0  0  0  0  0  0  0  0  0  0  # atno 10765 bound_to 10752
  140.7756  134.3138  157.5061 H   0  0  0  0  0  0  0  0  0  0  0  0  # atno 11005 bound_to 11000
  144.9865  139.3731  143.6236 LP  0  0  0  0  0  0  0  0  0  0  0  0  # atno 17320 bound_to 7965
  146.3399  139.9029  142.8791 LP  0  0  0  0  0  0  0  0  0  0  0  0  # atno 17321 bound_to 7965
  140.5920  143.9762  150.6331 LP  0  0  0  0  0  0  0  0  0  0  0  0  # atno 17342 bound_to 10162
  140.2946  143.3301  152.1030 LP  0  0  0  0  0  0  0  0  0  0  0  0  # atno 17343 bound_to 10162
  156.0196  130.5291  150.8237 LP  0  0  0  0  0  0  0  0  0  0  0  0  # atno 17370 bound_to 10713
  157.5438  131.0941  150.9791 LP  0  0  0  0  0  0  0  0  0  0  0  0  # atno 17371 bound_to 10713
  139.8749  134.9287  156.3458 LP  0  0  0  0  0  0  0  0  0  0  0  0  # atno 17394 bound_to 11000
  140.9532  133.7437  156.0300 LP  0  0  0  0  0  0  0  0  0  0  0  0  # atno 17395 bound_to 11000

$$$$
