AV-unprocessed.smi:281|AV-procd|sdf|2116|dock9
  -GOLD-   2262021413D 1   1.00000     0.00000
 Structure written by MMmdl.
 55 59  0  0  0  0  0  0  0  0  1 V2000
  149.1402  141.6323  154.1191 C   0  0  0  0  0  0  0  0  0  0  0  0
  149.2545  140.3722  154.9824 C   0  0  1  0  0  0  0  0  0  0  0  0
  148.3919  139.2215  154.4413 C   0  0  0  0  0  0  0  0  0  0  0  0
  148.6173  138.0298  155.2449 N   0  0  0  0  0  0  0  0  0  0  0  0
  147.7751  137.0026  155.0093 C   0  0  0  0  0  0  0  0  0  0  0  0
  147.8365  135.9521  155.8632 N   0  0  0  0  0  0  0  0  0  0  0  0
  147.0373  134.8965  155.6810 C   0  0  0  0  0  0  0  0  0  0  0  0
  146.1282  134.6923  154.7253 N   0  0  0  0  0  0  0  0  0  0  0  0
  146.0695  135.7464  153.8612 C   0  0  0  0  0  0  0  0  0  0  0  0
  146.8545  136.9320  153.9254 C   0  0  0  0  0  0  0  0  0  0  0  0
  146.5325  137.7706  152.8651 N   0  0  0  0  0  0  0  0  0  0  0  0
  145.6056  137.1212  152.2156 C   0  0  0  0  0  0  0  0  0  0  0  0
  145.2581  135.9008  152.7501 N   0  0  0  0  0  0  0  0  0  0  0  0
  144.2645  134.9711  152.2342 C   0  0  0  0  0  0  0  0  0  0  0  0
  144.6534  134.3267  150.8809 C   0  0  2  0  0  0  0  0  0  0  0  0
  144.4795  135.2795  149.8485 O   0  0  0  0  0  0  0  0  0  0  0  0
  143.8106  133.0894  150.5643 C   0  0  0  0  0  0  0  0  0  0  0  0
  144.7823  131.9333  150.7653 C   0  0  0  0  0  0  0  0  0  0  0  0
  146.0072  132.4799  150.3113 O   0  0  0  0  0  0  0  0  0  0  0  0
  146.1004  133.7940  150.8423 C   0  0  0  0  0  0  0  0  0  0  0  0
  150.0162  137.6294  155.2815 C   0  0  0  0  0  0  0  0  0  0  0  0
  150.9114  138.7941  155.7658 C   0  0  1  0  0  0  0  0  0  0  0  0
  150.7721  139.0875  157.2662 C   0  0  0  0  0  0  0  0  0  0  0  0
  152.0647  138.5627  157.8759 C   0  0  0  0  0  0  0  0  0  0  0  0
  153.0100  138.8200  156.8551 O   0  0  0  0  0  0  0  0  0  0  0  0
  152.4093  138.4250  155.6305 C   0  0  2  0  0  0  0  0  0  0  0  0
  153.1526  139.0532  154.4428 C   0  0  0  0  0  0  0  0  0  0  0  0
  150.6245  139.9676  154.9926 O   0  0  0  0  0  0  0  0  0  0  0  0
  148.1116  141.9918  154.0827 H   0  0  0  0  0  0  0  0  0  0  0  0
  149.4650  141.4400  153.0960 H   0  0  0  0  0  0  0  0  0  0  0  0
  149.7590  142.4355  154.5197 H   0  0  0  0  0  0  0  0  0  0  0  0
  148.9341  140.6197  155.9949 H   0  0  0  0  0  0  0  0  0  0  0  0
  147.3360  139.4942  154.4688 H   0  0  0  0  0  0  0  0  0  0  0  0
  148.6522  139.0267  153.4006 H   0  0  0  0  0  0  0  0  0  0  0  0
  147.1421  134.1011  156.4040 H   0  0  0  0  0  0  0  0  0  0  0  0
  145.1483  137.5195  151.3216 H   0  0  0  0  0  0  0  0  0  0  0  0
  144.1033  134.1961  152.9848 H   0  0  0  0  0  0  0  0  0  0  0  0
  143.3171  135.5038  152.1394 H   0  0  0  0  0  0  0  0  0  0  0  0
  144.8272  134.9194  149.0470 H   0  0  0  0  0  0  0  0  0  0  0  0
  142.9202  132.9971  151.1873 H   0  0  0  0  0  0  0  0  0  0  0  0
  143.4808  133.0953  149.5240 H   0  0  0  0  0  0  0  0  0  0  0  0
  144.8642  131.6666  151.8202 H   0  0  0  0  0  0  0  0  0  0  0  0
  144.5023  131.0430  150.2018 H   0  0  0  0  0  0  0  0  0  0  0  0
  146.7793  134.4131  150.2543 H   0  0  0  0  0  0  0  0  0  0  0  0
  146.5170  133.7109  151.8462 H   0  0  0  0  0  0  0  0  0  0  0  0
  150.1402  136.7615  155.9311 H   0  0  0  0  0  0  0  0  0  0  0  0
  150.3212  137.3228  154.2797 H   0  0  0  0  0  0  0  0  0  0  0  0
  150.7241  140.1634  157.4381 H   0  0  0  0  0  0  0  0  0  0  0  0
  149.8862  138.6417  157.7199 H   0  0  0  0  0  0  0  0  0  0  0  0
  152.3268  139.0655  158.8070 H   0  0  0  0  0  0  0  0  0  0  0  0
  152.0046  137.4898  158.0648 H   0  0  0  0  0  0  0  0  0  0  0  0
  152.5125  137.3398  155.5687 H   0  0  0  0  0  0  0  0  0  0  0  0
  152.6879  138.7718  153.4975 H   0  0  0  0  0  0  0  0  0  0  0  0
  154.1900  138.7192  154.4160 H   0  0  0  0  0  0  0  0  0  0  0  0
  153.1596  140.1416  154.5057 H   0  0  0  0  0  0  0  0  0  0  0  0
  1  2  1  0  0  0  0
  1 29  1  0  0  0  0
  1 30  1  0  0  0  0
  1 31  1  0  0  0  0
  2 28  1  0  0  0  0
  2  3  1  0  0  0  0
  2 32  1  0  0  0  0
  3  4  1  0  0  0  0
  3 33  1  0  0  0  0
  3 34  1  0  0  0  0
  4  5  1  0  0  0  0
  4 21  1  0  0  0  0
  5 10  1  0  0  0  0
  5  6  2  0  0  0  0
  6  7  1  0  0  0  0
  7  8  2  0  0  0  0
  7 35  1  0  0  0  0
  8  9  1  0  0  0  0
  9 13  1  0  0  0  0
  9 10  2  0  0  0  0
 10 11  1  0  0  0  0
 11 12  2  0  0  0  0
 12 13  1  0  0  0  0
 12 36  1  0  0  0  0
 13 14  1  0  0  0  0
 14 15  1  0  0  0  0
 14 37  1  0  0  0  0
 14 38  1  0  0  0  0
 15 20  1  0  0  0  0
 15 16  1  0  0  0  0
 15 17  1  0  0  0  0
 16 39  1  0  0  0  0
 17 18  1  0  0  0  0
 17 40  1  0  0  0  0
 17 41  1  0  0  0  0
 18 19  1  0  0  0  0
 18 42  1  0  0  0  0
 18 43  1  0  0  0  0
 19 20  1  0  0  0  0
 20 44  1  0  0  0  0
 20 45  1  0  0  0  0
 21 22  1  0  0  0  0
 21 46  1  0  0  0  0
 21 47  1  0  0  0  0
 22 26  1  0  0  0  0
 22 23  1  0  0  0  0
 22 28  1  0  0  0  0
 23 24  1  0  0  0  0
 23 48  1  0  0  0  0
 23 49  1  0  0  0  0
 24 25  1  0  0  0  0
 24 50  1  0  0  0  0
 24 51  1  0  0  0  0
 25 26  1  0  0  0  0
 26 27  1  0  0  0  0
 26 52  1  0  0  0  0
 27 53  1  0  0  0  0
 27 54  1  0  0  0  0
 27 55  1  0  0  0  0
M  END
> <s_m_source_file>
AV-unprocessed.smi

> <i_m_source_file_index>
281

> <i_lp_mmshare_version>
43012

> <i_f3d_flags>
0

> <s_epik_input>
W0NIM11bQ0BASF0xT1tDSDJdW0NIMl1bQ0BAXTEyW0NIMl1OKFtDSDJdW0NASF0oTzIpW0NIM10pYyhuW2NIXW4zKWMoYzM0KW5bY0hdbjRbQ0gyXVtDQEBdNShbT0hdKVtDSDJdW0NIMl1PW0NIMl01

> <s_epik_cmdline>
J2VwaWtfcHl0aG9uJywgJy1waCcsICc3LjAnLCAnLXRuJywgJzgnLCAnLW1hJywgJzIwMCcsICctbWV0YWxfYmluZGluZycsICctaW1hZScsICc8aW5maWxlLm1hZT4nLCAnLW9tYWUnLCAnPG91dGZpbGUubWFlPic=

> <r_lp_tautomer_probability>
1

> <r_epik_Ionization_Penalty>
0.00571331

> <r_epik_Ionization_Penalty_Charging>
0

> <r_epik_Ionization_Penalty_Neutral>
0.00571331

> <r_epik_State_Penalty>
0.00399586

> <r_epik_Charging_Adjusted_Penalty>
0.00399586

> <i_epik_Tot_Q>
0

> <i_epik_Tot_abs_Q>
0

> <r_epik_Metal_State_Penalty>
-0

> <b_epik_Metal_Only>
0

> <s_lp_Force_Field>
OPLS_2005

> <r_lp_Energy>
55.1206

> <b_lp_Chiralities_Consistent>
1

> <s_lp_Variant>
AV-unprocessed.smi:281-16

> <Gold.Version>
5.8.1

> <Gold.Id.Protein>
6NUR|6NUR_protein|mol2

> <Gold.PLP.Fitness>
42.2513

> <Gold.PLP.PLP>
-30.7708

> <Gold.PLP.part.hbond>
-3.0000

> <Gold.PLP.part.metal>
0.0000

> <Gold.PLP.part.buried>
-1.7376

> <Gold.PLP.part.nonpolar>
-26.0554

> <Gold.PLP.part.repulsive>
1.2498

> <Gold.PLP.ligand.clash>
0.0000

> <Gold.PLP.ligand.torsion>
0.3251

> <Gold.PLP.Chemscore.Hbond>
2.9913

> <Gold.PLP.Chemscore.CHOScore>
1.0000

> <Gold.PLP.Chemscore.Metal>
0.0000

> <Gold.Chemscore.Hbonds>
donor molecule, donor type, donor heavy atom, donor atom, acceptor molecule, acceptor atom, score
      L1  H    16    39       P1  7921  1.00
      P1  H  7989  7998       L1    28  1.00
      P1  H  7997  8010       L1    25  1.00
      L1  C    12    36       P1 10171  1.00

> <Gold.PLP.Chemscore.Internal.Correction>
0.1570

> <Gold.Rescore>
     Score         DG    S(hbond)    S(metal)    S(lipo)     H(rot)  DE(clash)    DE(int)     intcor
     15.81     -20.27       2.89        0.00      89.70       2.09       2.91       1.55       ----

> <Gold.Chemscore.Fitness>
15.8070

> <Gold.Chemscore.DG>
-20.2673

> <Gold.Chemscore.ZeroCoef>
-5.4800

> <Gold.Chemscore.Hbond>
2.8891

> <Gold.Chemscore.Metal>
0.0000

> <Gold.Chemscore.Lipo>
89.7001

> <Gold.Chemscore.Internal_Hbond>
0.0000

> <Gold.Chemscore.DEClash>
2.9078

> <Gold.Chemscore.DEInternal>
1.5525

> <Gold.Chemscore.Rot>
2.0927

> <Gold.Chemscore.Internal.Correction>
   9.000000E+99

> <Gold.Chemscore.Hbonds>
donor molecule, donor type, donor heavy atom, donor atom, acceptor molecule, acceptor atom, score
      L1  H    16    39       P1  7921  0.96
      P1  H  7989  7998       L1    28  0.70
      P1  H  7997  8010       L1    25  0.88

> <Gold.Chemscore.Hbond.Weighted>
-9.6497

> <Gold.Chemscore.Metal.Weighted>
-0.0000

> <Gold.Chemscore.Lipo.Weighted>
-10.4949

> <Gold.Chemscore.Internal_Hbond.Weighted>
0.0000

> <Gold.Chemscore.DEClash.Weighted>
2.9078

> <Gold.Chemscore.DEInternal.Weighted>
1.5525

> <Gold.Chemscore.Rot.Weighted>
5.3573

> <Gold.Chemscore.Internal.Correction.Weighted>
   9.000000E+99

> <Gold.Protein.RotatedTorsions>
[ 6907 6896 6895 6894 ] final  -25.55 input  -60.11 | X-H torsion
[ 7974 7965 7964 7962 ] final  132.79 input  175.53 | X-H torsion
[ 8008 7997 7996 7995 ] final   57.74 input   59.86 | X-H torsion
[ 10167 10162 10161 10158 ] final -114.45 input  -65.29 | X-H torsion
[ 10718 10713 10712 10709 ] final -128.42 input   66.30 | X-H torsion
[ 10763 10752 10751 10750 ] final -168.88 input  -60.55 | X-H torsion
[ 11005 11000 10999 10996 ] final  105.27 input  -57.11 | X-H torsion

> <Gold.Protein.ActiveResidues>
 VAL166  LYS551  ARG553  GLY616  TRP617  ASP618  TYR619  PRO620  LYS621  CYS622 
 ASP623  PHE694  ASN695  SER759  ASP760  ASP761  ALA762  ILE779  LEU786  VAL792 
 PHE793  MET794  SER795  GLU796  ALA797  LYS798  CYS799  TRP800  GLU811  SER814 

> <Gold.Protein.RotatedAtoms>
  151.1736  135.0329  159.8761 H   0  0  0  0  0  0  0  0  0  0  0  0  # atno 6907 bound_to 6896
  152.5448  134.1142  159.8382 H   0  0  0  0  0  0  0  0  0  0  0  0  # atno 6908 bound_to 6896
  151.1251  133.5030  159.2633 H   0  0  0  0  0  0  0  0  0  0  0  0  # atno 6909 bound_to 6896
  144.9932  139.4385  143.5329 H   0  0  0  0  0  0  0  0  0  0  0  0  # atno 7974 bound_to 7965
  155.5387  140.3484  155.4442 H   0  0  0  0  0  0  0  0  0  0  0  0  # atno 8008 bound_to 7997
  156.0666  140.1353  156.9904 H   0  0  0  0  0  0  0  0  0  0  0  0  # atno 8009 bound_to 7997
  154.4506  140.0974  156.6581 H   0  0  0  0  0  0  0  0  0  0  0  0  # atno 8010 bound_to 7997
  140.1009  143.4614  152.1813 H   0  0  0  0  0  0  0  0  0  0  0  0  # atno 10167 bound_to 10162
  156.1949  130.6820  151.0470 H   0  0  0  0  0  0  0  0  0  0  0  0  # atno 10718 bound_to 10713
  154.6582  135.2921  154.9901 H   0  0  0  0  0  0  0  0  0  0  0  0  # atno 10763 bound_to 10752
  154.0970  135.6582  153.4866 H   0  0  0  0  0  0  0  0  0  0  0  0  # atno 10764 bound_to 10752
  153.0414  135.5233  154.7520 H   0  0  0  0  0  0  0  0  0  0  0  0  # atno 10765 bound_to 10752
  139.8800  134.9330  156.5488 H   0  0  0  0  0  0  0  0  0  0  0  0  # atno 11005 bound_to 11000
  146.3436  139.9276  142.8758 LP  0  0  0  0  0  0  0  0  0  0  0  0  # atno 17320 bound_to 7965
  145.2256  140.9953  143.4020 LP  0  0  0  0  0  0  0  0  0  0  0  0  # atno 17321 bound_to 7965
  139.5672  144.7442  151.3990 LP  0  0  0  0  0  0  0  0  0  0  0  0  # atno 17342 bound_to 10162
  140.6978  143.7705  150.7355 LP  0  0  0  0  0  0  0  0  0  0  0  0  # atno 17343 bound_to 10162
  157.6952  131.0796  150.6991 LP  0  0  0  0  0  0  0  0  0  0  0  0  # atno 17370 bound_to 10713
  156.7048  130.4634  149.5563 LP  0  0  0  0  0  0  0  0  0  0  0  0  # atno 17371 bound_to 10713
  140.8255  133.8320  155.8935 LP  0  0  0  0  0  0  0  0  0  0  0  0  # atno 17394 bound_to 11000
  140.9378  134.1940  157.4819 LP  0  0  0  0  0  0  0  0  0  0  0  0  # atno 17395 bound_to 11000

$$$$
