AV-unprocessed.smi:3191|AV-procd|sdf|12197|dock7
  -GOLD-   2272018 33D 1   1.00000     0.00000
 Structure written by MMmdl.
 36 37  0  0  0  0  0  0  0  0  2 V2000
  146.5819  141.8759  153.7151 C   0  0  0  0  0  0  0  0  0  0  0  0
  147.3768  140.6459  153.6904 N   0  0  0  0  0  0  0  0  0  0  0  0
  147.1742  139.6857  152.7797 C   0  0  0  0  0  0  0  0  0  0  0  0
  148.0574  138.7183  153.0353 N   0  3  0  0  0  0  0  0  0  0  0  0
  148.8283  139.0602  154.1121 C   0  0  0  0  0  0  0  0  0  0  0  0
  148.4012  140.2950  154.5400 C   0  0  0  0  0  0  0  0  0  0  0  0
  148.8567  141.1770  155.6621 C   0  0  0  0  0  0  0  0  0  0  0  0
  150.3628  141.4910  155.6059 C   0  0  0  0  0  0  0  0  0  0  0  0
  150.6788  142.7270  156.3122 N   0  0  0  0  0  0  0  0  0  0  0  0
  151.3635  142.8038  157.4638 C   0  0  0  0  0  0  0  0  0  0  0  0
  151.8020  141.8097  158.0440 O   0  0  0  0  0  0  0  0  0  0  0  0
  151.5505  144.2046  157.9597 C   0  0  2  0  0  0  0  0  0  0  0  0
  152.9589  144.7613  157.9980 C   0  0  0  0  0  0  0  0  0  0  0  0
  152.2403  144.4696  159.2965 C   0  0  0  0  0  0  0  0  0  0  0  0
  151.7274  145.6209  160.1438 C   0  0  0  0  0  0  0  0  0  0  0  0
  152.7535  143.3556  160.2007 C   0  0  0  0  0  0  0  0  0  0  0  0
  150.7582  144.9019  157.6903 H   0  0  0  0  0  0  0  0  0  0  0  0
  145.8132  141.8447  152.9417 H   0  0  0  0  0  0  0  0  0  0  0  0
  147.2383  142.7282  153.5382 H   0  0  0  0  0  0  0  0  0  0  0  0
  146.1072  141.9763  154.6915 H   0  0  0  0  0  0  0  0  0  0  0  0
  146.4425  139.6894  151.9913 H   0  0  0  0  0  0  0  0  0  0  0  0
  149.6088  138.4135  154.4861 H   0  0  0  0  0  0  0  0  0  0  0  0
  148.2798  142.1020  155.6282 H   0  0  0  0  0  0  0  0  0  0  0  0
  148.6157  140.6902  156.6079 H   0  0  0  0  0  0  0  0  0  0  0  0
  150.9313  140.6849  156.0705 H   0  0  0  0  0  0  0  0  0  0  0  0
  150.7042  141.5602  154.5716 H   0  0  0  0  0  0  0  0  0  0  0  0
  150.3510  143.5879  155.8978 H   0  0  0  0  0  0  0  0  0  0  0  0
  153.7855  144.1097  157.7201 H   0  0  0  0  0  0  0  0  0  0  0  0
  153.0836  145.8012  157.7027 H   0  0  0  0  0  0  0  0  0  0  0  0
  152.5276  146.0220  160.7664 H   0  0  0  0  0  0  0  0  0  0  0  0
  150.9168  145.2839  160.7905 H   0  0  0  0  0  0  0  0  0  0  0  0
  151.3503  146.4275  159.5144 H   0  0  0  0  0  0  0  0  0  0  0  0
  153.4053  143.7629  160.9740 H   0  0  0  0  0  0  0  0  0  0  0  0
  153.3328  142.6199  159.6443 H   0  0  0  0  0  0  0  0  0  0  0  0
  151.9189  142.8481  160.6849 H   0  0  0  0  0  0  0  0  0  0  0  0
  148.1427  137.8592  152.5065 H   0  0  0  0  0  0  0  0  0  0  0  0
  1  2  1  0  0  0  0
  1 18  1  0  0  0  0
  1 19  1  0  0  0  0
  1 20  1  0  0  0  0
  2  6  1  0  0  0  0
  2  3  1  0  0  0  0
  3  4  2  0  0  0  0
  3 21  1  0  0  0  0
  4  5  1  0  0  0  0
  4 36  1  0  0  0  0
  5  6  2  0  0  0  0
  5 22  1  0  0  0  0
  6  7  1  0  0  0  0
  7  8  1  0  0  0  0
  7 23  1  0  0  0  0
  7 24  1  0  0  0  0
  8  9  1  0  0  0  0
  8 25  1  0  0  0  0
  8 26  1  0  0  0  0
  9 10  1  0  0  0  0
  9 27  1  0  0  0  0
 10 11  2  0  0  0  0
 10 12  1  0  0  0  0
 12 17  1  0  0  0  0
 12 14  1  0  0  0  0
 12 13  1  0  0  0  0
 13 14  1  0  0  0  0
 13 28  1  0  0  0  0
 13 29  1  0  0  0  0
 14 15  1  0  0  0  0
 14 16  1  0  0  0  0
 15 30  1  0  0  0  0
 15 31  1  0  0  0  0
 15 32  1  0  0  0  0
 16 33  1  0  0  0  0
 16 34  1  0  0  0  0
 16 35  1  0  0  0  0
M  CHG  1   4   1
M  END
> <s_m_source_file>
AV-unprocessed.smi

> <i_m_source_file_index>
3191

> <i_lp_mmshare_version>
43012

> <i_f3d_flags>
0

> <s_epik_input>
W0NIM11uMVtjSF1uW2NIXWMxW0NIMl1bQ0gyXVtOSF1DKD1PKVtDQEBIXShbQ0gyXTIpQzIoW0NIM10pW0NIM10=

> <s_epik_cmdline>
J2VwaWtfcHl0aG9uJywgJy1waCcsICc3LjAnLCAnLXRuJywgJzgnLCAnLW1hJywgJzIwMCcsICctbWV0YWxfYmluZGluZycsICctaW1hZScsICc8aW5maWxlLm1hZT4nLCAnLW9tYWUnLCAnPG91dGZpbGUubWFlPic=

> <r_lp_tautomer_probability>
1

> <r_epik_Ionization_Penalty>
0.153817

> <r_epik_Ionization_Penalty_Charging>
0

> <r_epik_Ionization_Penalty_Neutral>
0.153817

> <r_epik_State_Penalty>
0.14311

> <r_epik_Charging_Adjusted_Penalty>
0.14311

> <i_epik_Tot_Q>
1

> <i_epik_Tot_abs_Q>
1

> <r_epik_Metal_State_Penalty>
0.464688

> <b_epik_Metal_Only>
0

> <s_lp_Force_Field>
OPLS_2005

> <r_lp_Energy>
13.3662

> <b_lp_Chiralities_Consistent>
1

> <s_lp_Variant>
AV-unprocessed.smi:3191-2

> <Gold.Version>
5.8.1

> <Gold.Id.Protein>
6NUR|6NUR_protein|mol2

> <Gold.PLP.Fitness>
52.8140

> <Gold.PLP.PLP>
-43.2355

> <Gold.PLP.part.hbond>
-3.0000

> <Gold.PLP.part.metal>
0.0000

> <Gold.PLP.part.buried>
-4.2304

> <Gold.PLP.part.nonpolar>
-36.4817

> <Gold.PLP.part.repulsive>
0.1560

> <Gold.PLP.ligand.clash>
0.0000

> <Gold.PLP.ligand.torsion>
0.2380

> <Gold.PLP.Chemscore.Hbond>
2.9440

> <Gold.PLP.Chemscore.CHOScore>
0.3760

> <Gold.PLP.Chemscore.Metal>
0.0000

> <Gold.Chemscore.Hbonds>
donor molecule, donor type, donor heavy atom, donor atom, acceptor molecule, acceptor atom, score
      L1  H     4    36       P1  7948  2.00
      L1  H     9    27       P1  8028  0.93
      L1  C     3    21       P1 10175  0.07

> <Gold.PLP.Chemscore.Internal.Correction>
0.0944

> <Gold.Rescore>
     Score         DG    S(hbond)    S(metal)    S(lipo)     H(rot)  DE(clash)    DE(int)     intcor
     17.31     -18.89       1.94        0.00      97.59       1.76       0.03       1.55       ----

> <Gold.Chemscore.Fitness>
17.3077

> <Gold.Chemscore.DG>
-18.8853

> <Gold.Chemscore.ZeroCoef>
-5.4800

> <Gold.Chemscore.Hbond>
1.9412

> <Gold.Chemscore.Metal>
0.0000

> <Gold.Chemscore.Lipo>
97.5850

> <Gold.Chemscore.Internal_Hbond>
0.0000

> <Gold.Chemscore.DEClash>
0.0261

> <Gold.Chemscore.DEInternal>
1.5515

> <Gold.Chemscore.Rot>
1.7561

> <Gold.Chemscore.Internal.Correction>
   9.000000E+99

> <Gold.Chemscore.Hbonds>
donor molecule, donor type, donor heavy atom, donor atom, acceptor molecule, acceptor atom, score
      L1  H     4    36       P1  7948  0.99
      L1  H     9    27       P1  8028  0.91

> <Gold.Chemscore.Hbond.Weighted>
-6.4835

> <Gold.Chemscore.Metal.Weighted>
-0.0000

> <Gold.Chemscore.Lipo.Weighted>
-11.4174

> <Gold.Chemscore.Internal_Hbond.Weighted>
0.0000

> <Gold.Chemscore.DEClash.Weighted>
0.0261

> <Gold.Chemscore.DEInternal.Weighted>
1.5515

> <Gold.Chemscore.Rot.Weighted>
4.4956

> <Gold.Chemscore.Internal.Correction.Weighted>
   9.000000E+99

> <Gold.Protein.RotatedTorsions>
[ 6907 6896 6895 6894 ] final -116.53 input  -60.11 | X-H torsion
[ 7974 7965 7964 7962 ] final   11.25 input  175.53 | X-H torsion
[ 8008 7997 7996 7995 ] final    1.07 input   59.86 | X-H torsion
[ 10167 10162 10161 10158 ] final -116.01 input  -65.29 | X-H torsion
[ 10718 10713 10712 10709 ] final    5.99 input   66.30 | X-H torsion
[ 10763 10752 10751 10750 ] final  157.03 input  -60.55 | X-H torsion
[ 11005 11000 10999 10996 ] final  -36.02 input  -57.11 | X-H torsion

> <Gold.Protein.ActiveResidues>
 VAL166  LYS551  ARG553  GLY616  TRP617  ASP618  TYR619  PRO620  LYS621  CYS622 
 ASP623  PHE694  ASN695  SER759  ASP760  ASP761  ALA762  ILE779  LEU786  VAL792 
 PHE793  MET794  SER795  GLU796  ALA797  LYS798  CYS799  TRP800  GLU811  SER814 

> <Gold.Protein.RotatedAtoms>
  150.8063  133.8504  159.3203 H   0  0  0  0  0  0  0  0  0  0  0  0  # atno 6907 bound_to 6896
  151.6302  135.1022  160.0129 H   0  0  0  0  0  0  0  0  0  0  0  0  # atno 6908 bound_to 6896
  152.4154  133.6990  159.6469 H   0  0  0  0  0  0  0  0  0  0  0  0  # atno 6909 bound_to 6896
  146.2374  139.9513  142.8470 H   0  0  0  0  0  0  0  0  0  0  0  0  # atno 7974 bound_to 7965
  154.6754  140.2621  155.6963 H   0  0  0  0  0  0  0  0  0  0  0  0  # atno 8008 bound_to 7997
  156.2676  140.2821  156.1201 H   0  0  0  0  0  0  0  0  0  0  0  0  # atno 8009 bound_to 7997
  155.1107  140.0375  157.2713 H   0  0  0  0  0  0  0  0  0  0  0  0  # atno 8010 bound_to 7997
  140.0838  143.4763  152.1910 H   0  0  0  0  0  0  0  0  0  0  0  0  # atno 10167 bound_to 10162
  156.9155  130.5772  149.5647 H   0  0  0  0  0  0  0  0  0  0  0  0  # atno 10718 bound_to 10713
  154.1938  135.2793  155.3013 H   0  0  0  0  0  0  0  0  0  0  0  0  # atno 10763 bound_to 10752
  154.5908  135.5560  153.7280 H   0  0  0  0  0  0  0  0  0  0  0  0  # atno 10764 bound_to 10752
  153.0105  135.6368  154.2077 H   0  0  0  0  0  0  0  0  0  0  0  0  # atno 10765 bound_to 10752
  140.9842  133.7040  156.1736 H   0  0  0  0  0  0  0  0  0  0  0  0  # atno 11005 bound_to 11000
  145.1858  140.9789  143.4239 LP  0  0  0  0  0  0  0  0  0  0  0  0  # atno 17320 bound_to 7965
  144.9901  139.3698  143.6219 LP  0  0  0  0  0  0  0  0  0  0  0  0  # atno 17321 bound_to 7965
  139.5764  144.7489  151.3755 LP  0  0  0  0  0  0  0  0  0  0  0  0  # atno 17342 bound_to 10162
  140.7064  143.7503  150.7489 LP  0  0  0  0  0  0  0  0  0  0  0  0  # atno 17343 bound_to 10162
  156.0515  130.5584  150.9000 LP  0  0  0  0  0  0  0  0  0  0  0  0  # atno 17370 bound_to 10713
  157.5940  131.0943  150.9071 LP  0  0  0  0  0  0  0  0  0  0  0  0  # atno 17371 bound_to 10713
  140.7140  134.4430  157.5579 LP  0  0  0  0  0  0  0  0  0  0  0  0  # atno 17394 bound_to 11000
  139.8963  134.8663  156.2093 LP  0  0  0  0  0  0  0  0  0  0  0  0  # atno 17395 bound_to 11000

$$$$
