AV-unprocessed.smi:576|AV-procd|sdf|2978|dock10
  -GOLD-   2262023483D 1   1.00000     0.00000
 Structure written by MMmdl.
 35 36  0  0  0  0  0  0  0  0  1 V2000
  148.4509  139.0622  154.7679 C   0  0  0  0  0  0  0  0  0  0  0  0
  149.3887  140.2472  154.4854 C   0  0  2  0  0  0  0  0  0  0  0  0
  150.6337  140.0816  155.2290 N   0  0  0  0  0  0  0  0  0  0  0  0
  150.7537  140.1016  156.5656 C   0  0  0  0  0  0  0  0  0  0  0  0
  149.7982  140.2557  157.3274 O   0  0  0  0  0  0  0  0  0  0  0  0
  152.1721  139.8974  157.1166 C   0  0  0  0  0  0  0  0  0  0  0  0
  152.4489  140.7046  158.3166 N   0  0  0  0  0  0  0  0  0  0  0  0
  152.0398  142.0526  158.2928 C   0  0  0  0  0  0  0  0  0  0  0  0
  152.2265  142.8937  159.3281 C   0  0  0  0  0  0  0  0  0  0  0  0
  151.8292  144.3596  159.2495 C   0  0  0  0  0  0  0  0  0  0  0  0
  152.5399  144.9710  158.3028 F   0  0  0  0  0  0  0  0  0  0  0  0
  150.5369  144.4917  158.9497 F   0  0  0  0  0  0  0  0  0  0  0  0
  152.0567  144.9833  160.4062 F   0  0  0  0  0  0  0  0  0  0  0  0
  152.9103  142.3504  160.4853 C   0  0  0  0  0  0  0  0  0  0  0  0
  153.3194  141.0671  160.5194 C   0  0  0  0  0  0  0  0  0  0  0  0
  153.0942  140.1603  159.3915 C   0  0  0  0  0  0  0  0  0  0  0  0
  153.4632  138.9857  159.4109 O   0  0  0  0  0  0  0  0  0  0  0  0
  148.7011  141.5639  154.7935 C   0  0  0  0  0  0  0  0  0  0  0  0
  147.4044  141.6037  155.5664 C   0  0  0  0  0  0  0  0  0  0  0  0
  147.4215  141.9589  154.0964 C   0  0  0  0  0  0  0  0  0  0  0  0
  147.5270  139.1496  154.1959 H   0  0  0  0  0  0  0  0  0  0  0  0
  148.1842  139.0107  155.8241 H   0  0  0  0  0  0  0  0  0  0  0  0
  148.9142  138.1134  154.4950 H   0  0  0  0  0  0  0  0  0  0  0  0
  149.6210  140.2463  153.4185 H   0  0  0  0  0  0  0  0  0  0  0  0
  151.4718  139.9441  154.6827 H   0  0  0  0  0  0  0  0  0  0  0  0
  152.3026  138.8357  157.3302 H   0  0  0  0  0  0  0  0  0  0  0  0
  152.9028  140.1224  156.3373 H   0  0  0  0  0  0  0  0  0  0  0  0
  151.5717  142.3634  157.3699 H   0  0  0  0  0  0  0  0  0  0  0  0
  153.0955  142.9819  161.3417 H   0  0  0  0  0  0  0  0  0  0  0  0
  153.8245  140.6959  161.3991 H   0  0  0  0  0  0  0  0  0  0  0  0
  149.3946  142.3762  155.0039 H   0  0  0  0  0  0  0  0  0  0  0  0
  146.9506  140.6555  155.8476 H   0  0  0  0  0  0  0  0  0  0  0  0
  147.2705  142.4146  156.2794 H   0  0  0  0  0  0  0  0  0  0  0  0
  147.2985  143.0066  153.8297 H   0  0  0  0  0  0  0  0  0  0  0  0
  146.9816  141.2461  153.4017 H   0  0  0  0  0  0  0  0  0  0  0  0
  1  2  1  0  0  0  0
  1 21  1  0  0  0  0
  1 22  1  0  0  0  0
  1 23  1  0  0  0  0
  2  3  1  0  0  0  0
  2 18  1  0  0  0  0
  2 24  1  0  0  0  0
  3  4  1  0  0  0  0
  3 25  1  0  0  0  0
  4  5  2  0  0  0  0
  4  6  1  0  0  0  0
  6  7  1  0  0  0  0
  6 26  1  0  0  0  0
  6 27  1  0  0  0  0
  7 16  1  0  0  0  0
  7  8  1  0  0  0  0
  8  9  2  0  0  0  0
  8 28  1  0  0  0  0
  9 10  1  0  0  0  0
  9 14  1  0  0  0  0
 10 11  1  0  0  0  0
 10 12  1  0  0  0  0
 10 13  1  0  0  0  0
 14 15  2  0  0  0  0
 14 29  1  0  0  0  0
 15 16  1  0  0  0  0
 15 30  1  0  0  0  0
 16 17  2  0  0  0  0
 18 20  1  0  0  0  0
 18 19  1  0  0  0  0
 18 31  1  0  0  0  0
 19 20  1  0  0  0  0
 19 32  1  0  0  0  0
 19 33  1  0  0  0  0
 20 34  1  0  0  0  0
 20 35  1  0  0  0  0
M  END
> <s_m_source_file>
AV-unprocessed.smi

> <i_m_source_file_index>
576

> <i_lp_mmshare_version>
43012

> <i_f3d_flags>
0

> <s_epik_input>
W0NIMl0xW0NIMl1bQ0hdMVtDQEhdKFtDSDNdKVtOSF1DKD1PKVtDSDJdbjJbY0hdYyhDKEYpKEYpRilbY0hdW2NIXWMyPU8=

> <s_epik_cmdline>
J2VwaWtfcHl0aG9uJywgJy1waCcsICc3LjAnLCAnLXRuJywgJzgnLCAnLW1hJywgJzIwMCcsICctbWV0YWxfYmluZGluZycsICctaW1hZScsICc8aW5maWxlLm1hZT4nLCAnLW9tYWUnLCAnPG91dGZpbGUubWFlPic=

> <r_lp_tautomer_probability>
1

> <r_epik_Ionization_Penalty>
3.84201e-08

> <r_epik_Ionization_Penalty_Charging>
1.91184e-08

> <r_epik_Ionization_Penalty_Neutral>
1.93017e-08

> <r_epik_State_Penalty>
-0

> <r_epik_Charging_Adjusted_Penalty>
1.91184e-08

> <i_epik_Tot_Q>
0

> <i_epik_Tot_abs_Q>
0

> <r_epik_Metal_State_Penalty>
-0

> <b_epik_Metal_Only>
0

> <s_lp_Force_Field>
OPLS_2005

> <r_lp_Energy>
24.7521

> <b_lp_Chiralities_Consistent>
1

> <s_lp_Variant>
AV-unprocessed.smi:576-1

> <Gold.Version>
5.8.1

> <Gold.Id.Protein>
6NUR|6NUR_protein|mol2

> <Gold.PLP.Fitness>
44.1900

> <Gold.PLP.PLP>
-45.7319

> <Gold.PLP.part.hbond>
0.0000

> <Gold.PLP.part.metal>
0.0000

> <Gold.PLP.part.buried>
-6.0340

> <Gold.PLP.part.nonpolar>
-39.9278

> <Gold.PLP.part.repulsive>
0.3680

> <Gold.PLP.ligand.clash>
0.0000

> <Gold.PLP.ligand.torsion>
1.3253

> <Gold.PLP.Chemscore.Hbond>
0.0000

> <Gold.PLP.Chemscore.CHOScore>
0.0000

> <Gold.PLP.Chemscore.Metal>
0.0000

> <Gold.PLP.Chemscore.Internal.Correction>
1.1087

> <Gold.Rescore>
     Score         DG    S(hbond)    S(metal)    S(lipo)     H(rot)  DE(clash)    DE(int)     intcor
      8.48     -11.15       0.00        0.00      87.05       1.77       0.13       2.53       ----

> <Gold.Chemscore.Fitness>
8.4826

> <Gold.Chemscore.DG>
-11.1452

> <Gold.Chemscore.ZeroCoef>
-5.4800

> <Gold.Chemscore.Hbond>
0.0000

> <Gold.Chemscore.Metal>
0.0000

> <Gold.Chemscore.Lipo>
87.0456

> <Gold.Chemscore.Internal_Hbond>
0.0000

> <Gold.Chemscore.DEClash>
0.1298

> <Gold.Chemscore.DEInternal>
2.5327

> <Gold.Chemscore.Rot>
1.7653

> <Gold.Chemscore.Internal.Correction>
   9.000000E+99

> <Gold.Chemscore.Hbond.Weighted>
-0.0000

> <Gold.Chemscore.Metal.Weighted>
-0.0000

> <Gold.Chemscore.Lipo.Weighted>
-10.1843

> <Gold.Chemscore.Internal_Hbond.Weighted>
0.0000

> <Gold.Chemscore.DEClash.Weighted>
0.1298

> <Gold.Chemscore.DEInternal.Weighted>
2.5327

> <Gold.Chemscore.Rot.Weighted>
4.5191

> <Gold.Chemscore.Internal.Correction.Weighted>
   9.000000E+99

> <Gold.Protein.RotatedTorsions>
[ 6907 6896 6895 6894 ] final   50.95 input  -60.11 | X-H torsion
[ 7974 7965 7964 7962 ] final   62.27 input  175.53 | X-H torsion
[ 8008 7997 7996 7995 ] final -111.99 input   59.86 | X-H torsion
[ 10167 10162 10161 10158 ] final  122.55 input  -65.29 | X-H torsion
[ 10718 10713 10712 10709 ] final  139.35 input   66.30 | X-H torsion
[ 10763 10752 10751 10750 ] final  114.76 input  -60.55 | X-H torsion
[ 11005 11000 10999 10996 ] final  150.86 input  -57.11 | X-H torsion

> <Gold.Protein.ActiveResidues>
 VAL166  LYS551  ARG553  GLY616  TRP617  ASP618  TYR619  PRO620  LYS621  CYS622 
 ASP623  PHE694  ASN695  SER759  ASP760  ASP761  ALA762  ILE779  LEU786  VAL792 
 PHE793  MET794  SER795  GLU796  ALA797  LYS798  CYS799  TRP800  GLU811  SER814 

> <Gold.Protein.RotatedAtoms>
  152.3074  134.7539  160.0344 H   0  0  0  0  0  0  0  0  0  0  0  0  # atno 6907 bound_to 6896
  151.8031  133.3367  159.3541 H   0  0  0  0  0  0  0  0  0  0  0  0  # atno 6908 bound_to 6896
  150.7303  134.5664  159.5913 H   0  0  0  0  0  0  0  0  0  0  0  0  # atno 6909 bound_to 6896
  145.8753  139.3406  143.0738 H   0  0  0  0  0  0  0  0  0  0  0  0  # atno 7974 bound_to 7965
  154.9983  140.0394  157.2349 H   0  0  0  0  0  0  0  0  0  0  0  0  # atno 8008 bound_to 7997
  154.7566  140.2777  155.6225 H   0  0  0  0  0  0  0  0  0  0  0  0  # atno 8009 bound_to 7997
  156.2896  140.2636  156.2334 H   0  0  0  0  0  0  0  0  0  0  0  0  # atno 8010 bound_to 7997
  139.5852  144.7003  151.3428 H   0  0  0  0  0  0  0  0  0  0  0  0  # atno 10167 bound_to 10162
  157.4154  131.1032  151.0410 H   0  0  0  0  0  0  0  0  0  0  0  0  # atno 10718 bound_to 10713
  153.5121  135.3615  155.2591 H   0  0  0  0  0  0  0  0  0  0  0  0  # atno 10763 bound_to 10752
  154.8741  135.4025  154.3357 H   0  0  0  0  0  0  0  0  0  0  0  0  # atno 10764 bound_to 10752
  153.4012  135.7075  153.6492 H   0  0  0  0  0  0  0  0  0  0  0  0  # atno 10765 bound_to 10752
  140.1168  134.8889  157.2015 H   0  0  0  0  0  0  0  0  0  0  0  0  # atno 11005 bound_to 11000
  145.9088  140.9194  143.0465 LP  0  0  0  0  0  0  0  0  0  0  0  0  # atno 17320 bound_to 7965
  144.6726  140.1132  143.7454 LP  0  0  0  0  0  0  0  0  0  0  0  0  # atno 17321 bound_to 7965
  140.7124  143.7354  150.7592 LP  0  0  0  0  0  0  0  0  0  0  0  0  # atno 17342 bound_to 10162
  140.0897  143.4890  152.2485 LP  0  0  0  0  0  0  0  0  0  0  0  0  # atno 17343 bound_to 10162
  157.1360  130.6122  149.5542 LP  0  0  0  0  0  0  0  0  0  0  0  0  # atno 17370 bound_to 10713
  155.9863  130.4897  150.7074 LP  0  0  0  0  0  0  0  0  0  0  0  0  # atno 17371 bound_to 10713
  140.3018  134.3123  155.7288 LP  0  0  0  0  0  0  0  0  0  0  0  0  # atno 17394 bound_to 11000
  141.2143  133.7597  156.9652 LP  0  0  0  0  0  0  0  0  0  0  0  0  # atno 17395 bound_to 11000

$$$$
