AV-unprocessed.smi:287|AV-procd|sdf|2188|dock7
  -GOLD-   2262021573D 1   1.00000     0.00000
 Structure written by MMmdl.
 55 58  0  0  0  0  0  0  0  0  1 V2000
  144.2133  132.3911  150.0816 C   0  0  0  0  0  0  0  0  0  0  0  0
  143.8761  133.5708  150.9271 C   0  0  0  0  0  0  0  0  0  0  0  0
  144.5061  134.7507  151.1964 C   0  0  0  0  0  0  0  0  0  0  0  0
  143.6679  135.4881  152.0855 C   0  0  0  0  0  0  0  0  0  0  0  0
  143.9600  136.8637  152.6685 C   0  0  2  0  0  0  0  0  0  0  0  0
  143.8755  136.8030  154.2023 C   0  0  0  0  0  0  0  0  0  0  0  0
  143.0104  137.8360  152.2751 O   0  0  0  0  0  0  0  0  0  0  0  0
  145.3361  137.4175  152.2341 C   0  0  0  0  0  0  0  0  0  0  0  0
  145.7551  138.5778  153.0102 N   0  0  0  0  0  0  0  0  0  0  0  0
  146.8114  138.5084  153.8475 C   0  0  0  0  0  0  0  0  0  0  0  0
  147.2984  137.2640  154.0700 N   0  0  0  0  0  0  0  0  0  0  0  0
  148.3442  137.0859  154.8823 C   0  0  0  0  0  0  0  0  0  0  0  0
  149.0381  138.0008  155.5618 N   0  0  0  0  0  0  0  0  0  0  0  0
  148.5511  139.2566  155.3447 C   0  0  0  0  0  0  0  0  0  0  0  0
  147.4499  139.5993  154.5097 C   0  0  0  0  0  0  0  0  0  0  0  0
  147.2603  140.9769  154.5501 N   0  0  0  0  0  0  0  0  0  0  0  0
  148.1882  141.4117  155.3588 C   0  0  0  0  0  0  0  0  0  0  0  0
  149.0060  140.4375  155.8889 N   0  0  0  0  0  0  0  0  0  0  0  0
  150.1653  140.5737  156.8317 C   0  0  1  0  0  0  0  0  0  0  0  0
  150.0008  139.6545  157.8697 O   0  0  0  0  0  0  0  0  0  0  0  0
  150.8166  138.5133  157.6297 C   0  0  2  0  0  0  0  0  0  0  0  0
  151.0226  137.6862  158.9105 C   0  0  0  0  0  0  0  0  0  0  0  0
  152.0551  136.7435  158.7148 O   0  0  0  0  0  0  0  0  0  0  0  0
  152.0822  139.1437  157.0368 C   0  0  2  0  0  0  0  0  0  0  0  0
  152.9083  139.6750  158.0573 O   0  0  0  0  0  0  0  0  0  0  0  0
  151.5264  140.2601  156.1594 C   0  0  1  0  0  0  0  0  0  0  0  0
  151.4227  139.8044  154.8210 O   0  0  0  0  0  0  0  0  0  0  0  0
  142.5858  134.6704  152.3048 C   0  0  0  0  0  0  0  0  0  0  0  0
  141.3516  134.7874  153.1365 C   0  0  0  0  0  0  0  0  0  0  0  0
  142.7003  133.5098  151.6008 O   0  0  0  0  0  0  0  0  0  0  0  0
  150.0869  141.5925  157.2130 H   0  0  0  0  0  0  0  0  0  0  0  0
  150.3526  137.8954  156.8582 H   0  0  0  0  0  0  0  0  0  0  0  0
  152.6702  138.4180  156.4732 H   0  0  0  0  0  0  0  0  0  0  0  0
  152.1565  141.1504  156.1737 H   0  0  0  0  0  0  0  0  0  0  0  0
  145.1145  132.5763  149.4967 H   0  0  0  0  0  0  0  0  0  0  0  0
  143.4019  132.1666  149.3891 H   0  0  0  0  0  0  0  0  0  0  0  0
  144.3859  131.5100  150.6996 H   0  0  0  0  0  0  0  0  0  0  0  0
  145.4614  135.0551  150.7952 H   0  0  0  0  0  0  0  0  0  0  0  0
  144.6000  136.0964  154.6089 H   0  0  0  0  0  0  0  0  0  0  0  0
  142.8859  136.4843  154.5327 H   0  0  0  0  0  0  0  0  0  0  0  0
  144.0778  137.7751  154.6541 H   0  0  0  0  0  0  0  0  0  0  0  0
  143.3119  138.6829  152.5656 H   0  0  0  0  0  0  0  0  0  0  0  0
  146.0973  136.6370  152.2805 H   0  0  0  0  0  0  0  0  0  0  0  0
  145.2679  137.7328  151.1922 H   0  0  0  0  0  0  0  0  0  0  0  0
  145.1940  139.4093  152.8916 H   0  0  0  0  0  0  0  0  0  0  0  0
  148.6698  136.0637  155.0066 H   0  0  0  0  0  0  0  0  0  0  0  0
  148.2972  142.4623  155.5853 H   0  0  0  0  0  0  0  0  0  0  0  0
  151.3254  138.3366  159.7320 H   0  0  0  0  0  0  0  0  0  0  0  0
  150.1042  137.1828  159.2141 H   0  0  0  0  0  0  0  0  0  0  0  0
  152.7424  137.1509  158.2100 H   0  0  0  0  0  0  0  0  0  0  0  0
  153.0141  139.0189  158.7291 H   0  0  0  0  0  0  0  0  0  0  0  0
  151.0127  138.9525  154.8285 H   0  0  0  0  0  0  0  0  0  0  0  0
  141.5946  135.1238  154.1446 H   0  0  0  0  0  0  0  0  0  0  0  0
  140.8393  133.8284  153.2193 H   0  0  0  0  0  0  0  0  0  0  0  0
  140.6572  135.5036  152.6973 H   0  0  0  0  0  0  0  0  0  0  0  0
  1  2  1  0  0  0  0
  1 35  1  0  0  0  0
  1 36  1  0  0  0  0
  1 37  1  0  0  0  0
  2 30  1  0  0  0  0
  2  3  2  0  0  0  0
  3  4  1  0  0  0  0
  3 38  1  0  0  0  0
  4  5  1  0  0  0  0
  4 28  2  0  0  0  0
  5  6  1  0  0  0  0
  5  7  1  0  0  0  0
  5  8  1  0  0  0  0
  6 39  1  0  0  0  0
  6 40  1  0  0  0  0
  6 41  1  0  0  0  0
  7 42  1  0  0  0  0
  8  9  1  0  0  0  0
  8 43  1  0  0  0  0
  8 44  1  0  0  0  0
  9 10  1  0  0  0  0
  9 45  1  0  0  0  0
 10 15  1  0  0  0  0
 10 11  2  0  0  0  0
 11 12  1  0  0  0  0
 12 13  2  0  0  0  0
 12 46  1  0  0  0  0
 13 14  1  0  0  0  0
 14 18  1  0  0  0  0
 14 15  2  0  0  0  0
 15 16  1  0  0  0  0
 16 17  2  0  0  0  0
 17 18  1  0  0  0  0
 17 47  1  0  0  0  0
 18 19  1  0  0  0  0
 19 31  1  0  0  0  0
 19 26  1  0  0  0  0
 19 20  1  0  0  0  0
 20 21  1  0  0  0  0
 21 32  1  0  0  0  0
 21 22  1  0  0  0  0
 21 24  1  0  0  0  0
 22 23  1  0  0  0  0
 22 48  1  0  0  0  0
 22 49  1  0  0  0  0
 23 50  1  0  0  0  0
 24 33  1  0  0  0  0
 24 25  1  0  0  0  0
 24 26  1  0  0  0  0
 25 51  1  0  0  0  0
 26 34  1  0  0  0  0
 26 27  1  0  0  0  0
 27 52  1  0  0  0  0
 28 29  1  0  0  0  0
 28 30  1  0  0  0  0
 29 53  1  0  0  0  0
 29 54  1  0  0  0  0
 29 55  1  0  0  0  0
M  END
> <s_m_source_file>
AV-unprocessed.smi

> <i_m_source_file_index>
287

> <i_lp_mmshare_version>
43012

> <i_f3d_flags>
0

> <s_epik_input>
W0NIM11jMVtjSF1jKGMobzEpW0NIM10pW0NAQF0oW0NIM10pKFtPSF0pW0NIMl1bTkhdYyhuW2NIXW4yKWMoYzIzKW5bY0hdbjNbQ0BASF00T1tDQEhdKFtDSDJdW09IXSlbQ0BASF0oW09IXSlbQ0BIXTRbT0hd

> <s_epik_cmdline>
J2VwaWtfcHl0aG9uJywgJy1waCcsICc3LjAnLCAnLXRuJywgJzgnLCAnLW1hJywgJzIwMCcsICctbWV0YWxfYmluZGluZycsICctaW1hZScsICc8aW5maWxlLm1hZT4nLCAnLW9tYWUnLCAnPG91dGZpbGUubWFlPic=

> <r_lp_tautomer_probability>
1

> <r_epik_Ionization_Penalty>
0.000992612

> <r_epik_Ionization_Penalty_Charging>
0

> <r_epik_Ionization_Penalty_Neutral>
0.000992612

> <r_epik_State_Penalty>
-0

> <r_epik_Charging_Adjusted_Penalty>
0

> <i_epik_Tot_Q>
0

> <i_epik_Tot_abs_Q>
0

> <r_epik_Metal_State_Penalty>
-0

> <b_epik_Metal_Only>
0

> <s_epik_Chemistry_Notes>
This compound contains an acetal/aminal-like group ( X-CH(R)-Y where X, Y are N, S, or O) that may be acid/base labile, releasing an aldehyde.

> <s_lp_Force_Field>
OPLS_2005

> <r_lp_Energy>
43.0869

> <b_lp_Chiralities_Consistent>
1

> <s_lp_Variant>
AV-unprocessed.smi:287-12

> <Gold.Version>
5.8.1

> <Gold.Id.Protein>
6NUR|6NUR_protein|mol2

> <Gold.PLP.Fitness>
53.1704

> <Gold.PLP.PLP>
-38.0909

> <Gold.PLP.part.hbond>
-6.0000

> <Gold.PLP.part.metal>
0.0000

> <Gold.PLP.part.buried>
-9.2750

> <Gold.PLP.part.nonpolar>
-26.3057

> <Gold.PLP.part.repulsive>
2.1389

> <Gold.PLP.ligand.clash>
1.0004

> <Gold.PLP.ligand.torsion>
0.4547

> <Gold.PLP.Chemscore.Hbond>
4.6134

> <Gold.PLP.Chemscore.CHOScore>
1.0000

> <Gold.PLP.Chemscore.Metal>
0.0000

> <Gold.Chemscore.Hbonds>
donor molecule, donor type, donor heavy atom, donor atom, acceptor molecule, acceptor atom, score
      L1  H     7    42       P1 10175  1.00
      L1  H     9    45       P1 10175  1.00
      P1  H  6896  6907       L1    23  0.71
      P1  H  7989  7998       L1    27  1.00
      P1  H  7997  8010       L1    25  0.99
      L1  C    17    47       P1  8028  1.00

> <Gold.PLP.Chemscore.Internal.Correction>
0.1491

> <Gold.Rescore>
     Score         DG    S(hbond)    S(metal)    S(lipo)     H(rot)  DE(clash)    DE(int)     intcor
      8.77     -13.57       3.88        0.00      73.52       5.27       0.48       4.32       ----

> <Gold.Chemscore.Fitness>
8.7711

> <Gold.Chemscore.DG>
-13.5717

> <Gold.Chemscore.ZeroCoef>
-5.4800

> <Gold.Chemscore.Hbond>
3.8845

> <Gold.Chemscore.Metal>
0.0000

> <Gold.Chemscore.Lipo>
73.5152

> <Gold.Chemscore.Internal_Hbond>
0.0000

> <Gold.Chemscore.DEClash>
0.4758

> <Gold.Chemscore.DEInternal>
4.3249

> <Gold.Chemscore.Rot>
5.2672

> <Gold.Chemscore.Internal.Correction>
   9.000000E+99

> <Gold.Chemscore.Hbonds>
donor molecule, donor type, donor heavy atom, donor atom, acceptor molecule, acceptor atom, score
      L1  H     7    42       P1 10175  0.99
      L1  H     9    45       P1 10175  0.99
      P1  H  6896  6907       L1    23  0.37
      P1  H  7989  7998       L1    27  0.98
      P1  H  7997  8010       L1    25  0.28

> <Gold.Chemscore.Hbond.Weighted>
-12.9744

> <Gold.Chemscore.Metal.Weighted>
-0.0000

> <Gold.Chemscore.Lipo.Weighted>
-8.6013

> <Gold.Chemscore.Internal_Hbond.Weighted>
0.0000

> <Gold.Chemscore.DEClash.Weighted>
0.4758

> <Gold.Chemscore.DEInternal.Weighted>
4.3249

> <Gold.Chemscore.Rot.Weighted>
13.4839

> <Gold.Chemscore.Internal.Correction.Weighted>
   9.000000E+99

> <Gold.Protein.RotatedTorsions>
[ 6907 6896 6895 6894 ] final    2.12 input  -60.11 | X-H torsion
[ 7974 7965 7964 7962 ] final  152.22 input  175.53 | X-H torsion
[ 8008 7997 7996 7995 ] final   27.81 input   59.86 | X-H torsion
[ 10167 10162 10161 10158 ] final  -78.58 input  -65.29 | X-H torsion
[ 10718 10713 10712 10709 ] final  121.72 input   66.30 | X-H torsion
[ 10763 10752 10751 10750 ] final  -99.20 input  -60.55 | X-H torsion
[ 11005 11000 10999 10996 ] final  139.88 input  -57.11 | X-H torsion

> <Gold.Protein.ActiveResidues>
 VAL166  LYS551  ARG553  GLY616  TRP617  ASP618  TYR619  PRO620  LYS621  CYS622 
 ASP623  PHE694  ASN695  SER759  ASP760  ASP761  ALA762  ILE779  LEU786  VAL792 
 PHE793  MET794  SER795  GLU796  ALA797  LYS798  CYS799  TRP800  GLU811  SER814 

> <Gold.Protein.RotatedAtoms>
  151.6036  135.1045  160.0065 H   0  0  0  0  0  0  0  0  0  0  0  0  # atno 6907 bound_to 6896
  152.4245  133.7167  159.6520 H   0  0  0  0  0  0  0  0  0  0  0  0  # atno 6908 bound_to 6896
  150.8133  133.8310  159.3194 H   0  0  0  0  0  0  0  0  0  0  0  0  # atno 6909 bound_to 6896
  144.8238  139.6639  143.6089 H   0  0  0  0  0  0  0  0  0  0  0  0  # atno 7974 bound_to 7965
  155.0488  140.3177  155.4699 H   0  0  0  0  0  0  0  0  0  0  0  0  # atno 8008 bound_to 7997
  156.2839  140.2150  156.5557 H   0  0  0  0  0  0  0  0  0  0  0  0  # atno 8009 bound_to 7997
  154.7228  140.0488  157.0643 H   0  0  0  0  0  0  0  0  0  0  0  0  # atno 8010 bound_to 7997
  140.4670  143.2437  151.8263 H   0  0  0  0  0  0  0  0  0  0  0  0  # atno 10167 bound_to 10162
  157.5797  131.1076  150.8211 H   0  0  0  0  0  0  0  0  0  0  0  0  # atno 10718 bound_to 10713
  154.7478  135.4981  153.9235 H   0  0  0  0  0  0  0  0  0  0  0  0  # atno 10763 bound_to 10752
  153.1110  135.6709  153.9508 H   0  0  0  0  0  0  0  0  0  0  0  0  # atno 10764 bound_to 10752
  153.9267  135.3082  155.3425 H   0  0  0  0  0  0  0  0  0  0  0  0  # atno 10765 bound_to 10752
  140.0287  134.9362  157.0619 H   0  0  0  0  0  0  0  0  0  0  0  0  # atno 11005 bound_to 11000
  146.2543  139.6268  142.9405 LP  0  0  0  0  0  0  0  0  0  0  0  0  # atno 17320 bound_to 7965
  145.5046  141.0437  143.2521 LP  0  0  0  0  0  0  0  0  0  0  0  0  # atno 17321 bound_to 7965
  139.4813  144.4939  151.9149 LP  0  0  0  0  0  0  0  0  0  0  0  0  # atno 17342 bound_to 10162
  140.4024  144.2476  150.5892 LP  0  0  0  0  0  0  0  0  0  0  0  0  # atno 17343 bound_to 10162
  156.8661  130.5130  149.5300 LP  0  0  0  0  0  0  0  0  0  0  0  0  # atno 17370 bound_to 10713
  156.0842  130.5845  150.9618 LP  0  0  0  0  0  0  0  0  0  0  0  0  # atno 17371 bound_to 10713
  140.4263  134.1828  155.7166 LP  0  0  0  0  0  0  0  0  0  0  0  0  # atno 17394 bound_to 11000
  141.1818  133.8398  157.1231 LP  0  0  0  0  0  0  0  0  0  0  0  0  # atno 17395 bound_to 11000

$$$$
