AV-unprocessed.smi:3294|AV-procd|sdf|12634|dock10
  -GOLD-   2272018573D 1   1.00000     0.00000
 Structure written by MMmdl.
 38 40  0  0  0  0  0  0  0  0  2 V2000
  147.6821  139.3479  152.0041 C   0  0  0  0  0  0  0  0  0  0  0  0
  148.8350  139.5380  152.9671 C   0  0  0  0  0  0  0  0  0  0  0  0
  148.9635  140.6907  153.7713 C   0  0  0  0  0  0  0  0  0  0  0  0
  150.0698  140.8069  154.6510 C   0  0  0  0  0  0  0  0  0  0  0  0
  150.2782  141.9168  155.5141 N   0  0  0  0  0  0  0  0  0  0  0  0
  150.7926  141.9211  156.7560 C   0  0  0  0  0  0  0  0  0  0  0  0
  151.1464  140.9195  157.3774 O   0  0  0  0  0  0  0  0  0  0  0  0
  150.8540  143.1673  157.2505 N   0  0  0  0  0  0  0  0  0  0  0  0
  151.3420  143.5601  158.5718 C   0  0  0  0  0  0  0  0  0  0  0  0
  151.1850  145.0442  158.8702 C   0  0  0  0  0  0  0  0  0  0  0  0
  151.7236  145.6489  160.1449 C   0  0  0  0  0  0  0  0  0  0  0  0
  150.2306  145.5304  159.9341 C   0  0  0  0  0  0  0  0  0  0  0  0
  152.7607  143.0947  158.8648 C   0  0  0  0  0  0  0  0  0  0  0  0
  153.0309  141.7246  159.4382 C   0  0  0  0  0  0  0  0  0  0  0  0
  153.2631  142.9579  160.2824 C   0  0  0  0  0  0  0  0  0  0  0  0
  150.9980  139.7444  154.7127 C   0  0  0  0  0  0  0  0  0  0  0  0
  150.8194  138.6172  153.8857 C   0  0  0  0  0  0  0  0  0  0  0  0
  149.7595  138.5561  153.0517 N   0  3  0  0  0  0  0  0  0  0  0  0
  147.0683  140.2471  151.9432 H   0  0  0  0  0  0  0  0  0  0  0  0
  147.0477  138.5235  152.3307 H   0  0  0  0  0  0  0  0  0  0  0  0
  148.0533  139.1222  151.0040 H   0  0  0  0  0  0  0  0  0  0  0  0
  148.2076  141.4589  153.7105 H   0  0  0  0  0  0  0  0  0  0  0  0
  149.9434  142.8047  155.1696 H   0  0  0  0  0  0  0  0  0  0  0  0
  150.5321  143.9195  156.6591 H   0  0  0  0  0  0  0  0  0  0  0  0
  150.6897  143.0310  159.2680 H   0  0  0  0  0  0  0  0  0  0  0  0
  151.2689  145.6780  157.9894 H   0  0  0  0  0  0  0  0  0  0  0  0
  152.1791  144.9823  160.8742 H   0  0  0  0  0  0  0  0  0  0  0  0
  152.1646  146.6415  160.0813 H   0  0  0  0  0  0  0  0  0  0  0  0
  149.6764  146.4442  159.7301 H   0  0  0  0  0  0  0  0  0  0  0  0
  149.6996  144.7831  160.5203 H   0  0  0  0  0  0  0  0  0  0  0  0
  153.4953  143.4576  158.1482 H   0  0  0  0  0  0  0  0  0  0  0  0
  152.1750  141.1002  159.6869 H   0  0  0  0  0  0  0  0  0  0  0  0
  153.9061  141.1920  159.0720 H   0  0  0  0  0  0  0  0  0  0  0  0
  154.2933  143.2477  160.4790 H   0  0  0  0  0  0  0  0  0  0  0  0
  152.5629  143.1465  161.0937 H   0  0  0  0  0  0  0  0  0  0  0  0
  151.8451  139.7925  155.3817 H   0  0  0  0  0  0  0  0  0  0  0  0
  151.4863  137.7677  153.8680 H   0  0  0  0  0  0  0  0  0  0  0  0
  149.6485  137.7301  152.4630 H   0  0  0  0  0  0  0  0  0  0  0  0
  1  2  1  0  0  0  0
  1 19  1  0  0  0  0
  1 20  1  0  0  0  0
  1 21  1  0  0  0  0
  2 18  1  0  0  0  0
  2  3  2  0  0  0  0
  3  4  1  0  0  0  0
  3 22  1  0  0  0  0
  4  5  1  0  0  0  0
  4 16  2  0  0  0  0
  5  6  1  0  0  0  0
  5 23  1  0  0  0  0
  6  7  2  0  0  0  0
  6  8  1  0  0  0  0
  8  9  1  0  0  0  0
  8 24  1  0  0  0  0
  9 10  1  0  0  0  0
  9 13  1  0  0  0  0
  9 25  1  0  0  0  0
 10 12  1  0  0  0  0
 10 11  1  0  0  0  0
 10 26  1  0  0  0  0
 11 12  1  0  0  0  0
 11 27  1  0  0  0  0
 11 28  1  0  0  0  0
 12 29  1  0  0  0  0
 12 30  1  0  0  0  0
 13 15  1  0  0  0  0
 13 14  1  0  0  0  0
 13 31  1  0  0  0  0
 14 15  1  0  0  0  0
 14 32  1  0  0  0  0
 14 33  1  0  0  0  0
 15 34  1  0  0  0  0
 15 35  1  0  0  0  0
 16 17  1  0  0  0  0
 16 36  1  0  0  0  0
 17 18  2  0  0  0  0
 17 37  1  0  0  0  0
 18 38  1  0  0  0  0
M  CHG  1  18   1
M  END
> <s_m_source_file>
AV-unprocessed.smi

> <i_m_source_file_index>
3294

> <i_lp_mmshare_version>
43012

> <i_f3d_flags>
0

> <s_epik_input>
W0NIM11jMVtjSF1jKFtjSF1bY0hdbjEpW05IXUMoPU8pW05IXVtDSF0oW0NIXTJbQ0gyXVtDSDJdMilbQ0hdM1tDSDJdW0NIMl0z

> <s_epik_cmdline>
J2VwaWtfcHl0aG9uJywgJy1waCcsICc3LjAnLCAnLXRuJywgJzgnLCAnLW1hJywgJzIwMCcsICctbWV0YWxfYmluZGluZycsICctaW1hZScsICc8aW5maWxlLm1hZT4nLCAnLW9tYWUnLCAnPG91dGZpbGUubWFlPic=

> <r_epik_Ionization_Penalty>
0.432398

> <r_epik_Ionization_Penalty_Charging>
0.432376

> <r_epik_Ionization_Penalty_Neutral>
2.18467e-05

> <r_epik_State_Penalty>
0.433859

> <r_epik_Charging_Adjusted_Penalty>
0.866235

> <i_epik_Tot_Q>
1

> <i_epik_Tot_abs_Q>
1

> <r_epik_Metal_State_Penalty>
0.667026

> <b_epik_Metal_Only>
0

> <s_lp_Force_Field>
OPLS_2005

> <r_lp_Energy>
34.1615

> <b_lp_Chiralities_Consistent>
1

> <s_lp_Variant>
AV-unprocessed.smi:3294-2

> <Gold.Version>
5.8.1

> <Gold.Id.Protein>
6NUR|6NUR_protein|mol2

> <Gold.PLP.Fitness>
53.6781

> <Gold.PLP.PLP>
-42.7112

> <Gold.PLP.part.hbond>
-4.0000

> <Gold.PLP.part.metal>
0.0000

> <Gold.PLP.part.buried>
0.0583

> <Gold.PLP.part.nonpolar>
-39.8342

> <Gold.PLP.part.repulsive>
0.2255

> <Gold.PLP.ligand.clash>
0.0000

> <Gold.PLP.ligand.torsion>
1.6004

> <Gold.PLP.Chemscore.Hbond>
4.0000

> <Gold.PLP.Chemscore.CHOScore>
0.0000

> <Gold.PLP.Chemscore.Metal>
0.0000

> <Gold.Chemscore.Hbonds>
donor molecule, donor type, donor heavy atom, donor atom, acceptor molecule, acceptor atom, score
      L1  H     5    23       P1  8028  0.46
      L1  H     8    24       P1  8028  0.84
      L1  H    18    38       P1  7948  2.00

> <Gold.PLP.Chemscore.Internal.Correction>
2.1676

> <Gold.Rescore>
     Score         DG    S(hbond)    S(metal)    S(lipo)     H(rot)  DE(clash)    DE(int)     intcor
     22.40     -25.98       2.90        0.00     121.23       1.31       0.80       2.78       ----

> <Gold.Chemscore.Fitness>
22.3950

> <Gold.Chemscore.DG>
-25.9840

> <Gold.Chemscore.ZeroCoef>
-5.4800

> <Gold.Chemscore.Hbond>
2.8972

> <Gold.Chemscore.Metal>
0.0000

> <Gold.Chemscore.Lipo>
121.2296

> <Gold.Chemscore.Internal_Hbond>
0.0000

> <Gold.Chemscore.DEClash>
0.8041

> <Gold.Chemscore.DEInternal>
2.7849

> <Gold.Chemscore.Rot>
1.3111

> <Gold.Chemscore.Internal.Correction>
   9.000000E+99

> <Gold.Chemscore.Hbonds>
donor molecule, donor type, donor heavy atom, donor atom, acceptor molecule, acceptor atom, score
      L1  H     5    23       P1  8028  0.45
      L1  H     8    24       P1  8028  0.78
      L1  H    18    38       P1  7948  0.40

> <Gold.Chemscore.Hbond.Weighted>
-9.6766

> <Gold.Chemscore.Metal.Weighted>
-0.0000

> <Gold.Chemscore.Lipo.Weighted>
-14.1839

> <Gold.Chemscore.Internal_Hbond.Weighted>
0.0000

> <Gold.Chemscore.DEClash.Weighted>
0.8041

> <Gold.Chemscore.DEInternal.Weighted>
2.7849

> <Gold.Chemscore.Rot.Weighted>
3.3564

> <Gold.Chemscore.Internal.Correction.Weighted>
   9.000000E+99

> <Gold.Protein.RotatedTorsions>
[ 6907 6896 6895 6894 ] final -108.31 input  -60.11 | X-H torsion
[ 7974 7965 7964 7962 ] final   -7.50 input  175.53 | X-H torsion
[ 8008 7997 7996 7995 ] final  111.80 input   59.86 | X-H torsion
[ 10167 10162 10161 10158 ] final   64.05 input  -65.29 | X-H torsion
[ 10718 10713 10712 10709 ] final  -87.37 input   66.30 | X-H torsion
[ 10763 10752 10751 10750 ] final   50.40 input  -60.55 | X-H torsion
[ 11005 11000 10999 10996 ] final  -43.01 input  -57.11 | X-H torsion

> <Gold.Protein.ActiveResidues>
 VAL166  LYS551  ARG553  GLY616  TRP617  ASP618  TYR619  PRO620  LYS621  CYS622 
 ASP623  PHE694  ASN695  SER759  ASP760  ASP761  ALA762  ILE779  LEU786  VAL792 
 PHE793  MET794  SER795  GLU796  ALA797  LYS798  CYS799  TRP800  GLU811  SER814 

> <Gold.Protein.RotatedAtoms>
  150.7494  133.9696  159.3541 H   0  0  0  0  0  0  0  0  0  0  0  0  # atno 6907 bound_to 6896
  151.7629  135.0803  160.0357 H   0  0  0  0  0  0  0  0  0  0  0  0  # atno 6908 bound_to 6896
  152.3391  133.6009  159.5899 H   0  0  0  0  0  0  0  0  0  0  0  0  # atno 6909 bound_to 6896
  146.2305  140.2329  142.8341 H   0  0  0  0  0  0  0  0  0  0  0  0  # atno 7974 bound_to 7965
  156.2148  140.3012  155.9815 H   0  0  0  0  0  0  0  0  0  0  0  0  # atno 8008 bound_to 7997
  155.2632  140.0430  157.3016 H   0  0  0  0  0  0  0  0  0  0  0  0  # atno 8009 bound_to 7997
  154.5752  140.2359  155.8141 H   0  0  0  0  0  0  0  0  0  0  0  0  # atno 8010 bound_to 7997
  140.1264  144.4683  150.6890 H   0  0  0  0  0  0  0  0  0  0  0  0  # atno 10167 bound_to 10162
  155.9986  130.4797  150.4857 H   0  0  0  0  0  0  0  0  0  0  0  0  # atno 10718 bound_to 10713
  152.9785  135.5880  154.4246 H   0  0  0  0  0  0  0  0  0  0  0  0  # atno 10763 bound_to 10752
  154.3866  135.2767  155.2181 H   0  0  0  0  0  0  0  0  0  0  0  0  # atno 10764 bound_to 10752
  154.4072  135.6090  153.5985 H   0  0  0  0  0  0  0  0  0  0  0  0  # atno 10765 bound_to 10752
  141.0354  133.6802  156.2673 H   0  0  0  0  0  0  0  0  0  0  0  0  # atno 11005 bound_to 11000
  144.9544  140.8211  143.5552 LP  0  0  0  0  0  0  0  0  0  0  0  0  # atno 17320 bound_to 7965
  145.2293  139.2122  143.5051 LP  0  0  0  0  0  0  0  0  0  0  0  0  # atno 17321 bound_to 7965
  140.6842  143.2342  151.5304 LP  0  0  0  0  0  0  0  0  0  0  0  0  # atno 17342 bound_to 10162
  139.5542  144.2318  152.1583 LP  0  0  0  0  0  0  0  0  0  0  0  0  # atno 17343 bound_to 10162
  157.2857  131.0616  151.2168 LP  0  0  0  0  0  0  0  0  0  0  0  0  # atno 17370 bound_to 10713
  157.3198  130.6931  149.6263 LP  0  0  0  0  0  0  0  0  0  0  0  0  # atno 17371 bound_to 10713
  140.6331  134.5244  157.5561 LP  0  0  0  0  0  0  0  0  0  0  0  0  # atno 17394 bound_to 11000
  139.9237  134.8098  156.1132 LP  0  0  0  0  0  0  0  0  0  0  0  0  # atno 17395 bound_to 11000

$$$$
