AV-unprocessed.smi:3122|AV-procd|sdf|11897|dock3
  -GOLD-   2272017283D 1   1.00000     0.00000
 Structure written by MMmdl.
 30 31  0  0  0  0  0  0  0  0  2 V2000
  152.2737  143.9236  158.3198 C   0  0  0  0  0  0  0  0  0  0  0  0
  152.0138  142.5023  158.8411 C   0  0  0  0  0  0  0  0  0  0  0  0
  153.0833  142.0466  159.8433 C   0  0  0  0  0  0  0  0  0  0  0  0
  151.8533  141.5179  157.7254 C   0  0  0  0  0  0  0  0  0  0  0  0
  152.5349  140.3843  157.5361 N   0  0  0  0  0  0  0  0  0  0  0  0
  151.9737  139.7869  156.4308 N   0  0  0  0  0  0  0  0  0  0  0  0
  150.9590  140.5755  156.0667 C   0  0  0  0  0  0  0  0  0  0  0  0
  150.0535  140.4153  154.8879 C   0  0  1  0  0  0  0  0  0  0  0  0
  149.9519  138.9493  154.4261 C   0  0  0  0  0  0  0  0  0  0  0  0
  148.9729  138.8315  153.3279 N   0  3  0  0  0  0  0  0  0  0  0  0
  147.6615  139.3913  153.7108 C   0  0  0  0  0  0  0  0  0  0  0  0
  147.8274  140.8402  154.2020 C   0  0  0  0  0  0  0  0  0  0  0  0
  148.7621  140.8796  155.2753 O   0  0  0  0  0  0  0  0  0  0  0  0
  150.8342  141.6838  156.8420 O   0  0  0  0  0  0  0  0  0  0  0  0
  151.4722  144.2507  157.6568 H   0  0  0  0  0  0  0  0  0  0  0  0
  153.2100  143.9785  157.7634 H   0  0  0  0  0  0  0  0  0  0  0  0
  152.3340  144.6382  159.1412 H   0  0  0  0  0  0  0  0  0  0  0  0
  151.0641  142.5311  159.3770 H   0  0  0  0  0  0  0  0  0  0  0  0
  152.8412  141.0670  160.2565 H   0  0  0  0  0  0  0  0  0  0  0  0
  153.1649  142.7449  160.6765 H   0  0  0  0  0  0  0  0  0  0  0  0
  154.0635  141.9760  159.3707 H   0  0  0  0  0  0  0  0  0  0  0  0
  150.4349  141.0411  154.0789 H   0  0  0  0  0  0  0  0  0  0  0  0
  150.9212  138.5831  154.0867 H   0  0  0  0  0  0  0  0  0  0  0  0
  149.6372  138.3108  155.2531 H   0  0  0  0  0  0  0  0  0  0  0  0
  149.3210  139.3398  152.5274 H   0  0  0  0  0  0  0  0  0  0  0  0
  146.9860  139.3493  152.8562 H   0  0  0  0  0  0  0  0  0  0  0  0
  147.2247  138.7750  154.4978 H   0  0  0  0  0  0  0  0  0  0  0  0
  148.1605  141.4900  153.3914 H   0  0  0  0  0  0  0  0  0  0  0  0
  146.8714  141.2312  154.5506 H   0  0  0  0  0  0  0  0  0  0  0  0
  148.8634  137.8589  153.0779 H   0  0  0  0  0  0  0  0  0  0  0  0
  1  2  1  0  0  0  0
  1 15  1  0  0  0  0
  1 16  1  0  0  0  0
  1 17  1  0  0  0  0
  2  3  1  0  0  0  0
  2  4  1  0  0  0  0
  2 18  1  0  0  0  0
  3 19  1  0  0  0  0
  3 20  1  0  0  0  0
  3 21  1  0  0  0  0
  4 14  1  0  0  0  0
  4  5  2  0  0  0  0
  5  6  1  0  0  0  0
  6  7  2  0  0  0  0
  7  8  1  0  0  0  0
  7 14  1  0  0  0  0
  8 13  1  0  0  0  0
  8  9  1  0  0  0  0
  8 22  1  0  0  0  0
  9 10  1  0  0  0  0
  9 23  1  0  0  0  0
  9 24  1  0  0  0  0
 10 11  1  0  0  0  0
 10 25  1  0  0  0  0
 10 30  1  0  0  0  0
 11 12  1  0  0  0  0
 11 26  1  0  0  0  0
 11 27  1  0  0  0  0
 12 13  1  0  0  0  0
 12 28  1  0  0  0  0
 12 29  1  0  0  0  0
M  CHG  1  10   1
M  END
> <s_m_source_file>
AV-unprocessed.smi

> <i_m_source_file_index>
3122

> <i_lp_mmshare_version>
43012

> <i_f3d_flags>
0

> <s_epik_input>
W0NIM11bQ0hdKFtDSDNdKWMxbm5jKG8xKVtDQEBIXTJbQ0gyXVtOSF1bQ0gyXVtDSDJdTzI=

> <s_epik_cmdline>
J2VwaWtfcHl0aG9uJywgJy1waCcsICc3LjAnLCAnLXRuJywgJzgnLCAnLW1hJywgJzIwMCcsICctbWV0YWxfYmluZGluZycsICctaW1hZScsICc8aW5maWxlLm1hZT4nLCAnLW9tYWUnLCAnPG91dGZpbGUubWFlPic=

> <r_lp_tautomer_probability>
1

> <r_epik_Ionization_Penalty>
0.0380945

> <r_epik_Ionization_Penalty_Charging>
0.0380945

> <r_epik_Ionization_Penalty_Neutral>
3.26791e-13

> <r_epik_State_Penalty>
0.0319257

> <r_epik_Charging_Adjusted_Penalty>
0.0700202

> <i_epik_Tot_Q>
1

> <i_epik_Tot_abs_Q>
1

> <r_epik_Metal_State_Penalty>
0.0319257

> <b_epik_Metal_Only>
0

> <s_lp_Force_Field>
OPLS_2005

> <r_lp_Energy>
10.6757

> <b_lp_Chiralities_Consistent>
1

> <s_lp_Variant>
AV-unprocessed.smi:3122-2

> <Gold.Version>
5.8.1

> <Gold.Id.Protein>
6NUR|6NUR_protein|mol2

> <Gold.PLP.Fitness>
37.0203

> <Gold.PLP.PLP>
-27.4658

> <Gold.PLP.part.hbond>
-3.0000

> <Gold.PLP.part.metal>
0.0000

> <Gold.PLP.part.buried>
-1.7437

> <Gold.PLP.part.nonpolar>
-21.9564

> <Gold.PLP.part.repulsive>
0.2489

> <Gold.PLP.ligand.clash>
0.0000

> <Gold.PLP.ligand.torsion>
0.6924

> <Gold.PLP.Chemscore.Hbond>
3.6098

> <Gold.PLP.Chemscore.CHOScore>
0.0000

> <Gold.PLP.Chemscore.Metal>
0.0000

> <Gold.Chemscore.Hbonds>
donor molecule, donor type, donor heavy atom, donor atom, acceptor molecule, acceptor atom, score
      L1  H    10    25       P1  7957  1.00
      L1  H    10    30       P1  7948  2.00
      P1  H  7997  8010       L1     5  0.53

> <Gold.PLP.Chemscore.Internal.Correction>
0.1099

> <Gold.Rescore>
     Score         DG    S(hbond)    S(metal)    S(lipo)     H(rot)  DE(clash)    DE(int)     intcor
     15.43     -16.12       2.02        0.00      60.98       1.26       0.05       0.64       ----

> <Gold.Chemscore.Fitness>
15.4312

> <Gold.Chemscore.DG>
-16.1244

> <Gold.Chemscore.ZeroCoef>
-5.4800

> <Gold.Chemscore.Hbond>
2.0186

> <Gold.Chemscore.Metal>
0.0000

> <Gold.Chemscore.Lipo>
60.9759

> <Gold.Chemscore.Internal_Hbond>
0.0000

> <Gold.Chemscore.DEClash>
0.0504

> <Gold.Chemscore.DEInternal>
0.6428

> <Gold.Chemscore.Rot>
1.2625

> <Gold.Chemscore.Internal.Correction>
   9.000000E+99

> <Gold.Chemscore.Hbonds>
donor molecule, donor type, donor heavy atom, donor atom, acceptor molecule, acceptor atom, score
      L1  H    10    25       P1  7957  0.96
      L1  H    10    30       P1  7948  0.93
      P1  H  7997  8010       L1     5  0.05

> <Gold.Chemscore.Hbond.Weighted>
-6.7422

> <Gold.Chemscore.Metal.Weighted>
-0.0000

> <Gold.Chemscore.Lipo.Weighted>
-7.1342

> <Gold.Chemscore.Internal_Hbond.Weighted>
0.0000

> <Gold.Chemscore.DEClash.Weighted>
0.0504

> <Gold.Chemscore.DEInternal.Weighted>
0.6428

> <Gold.Chemscore.Rot.Weighted>
3.2320

> <Gold.Chemscore.Internal.Correction.Weighted>
   9.000000E+99

> <Gold.Protein.RotatedTorsions>
[ 6907 6896 6895 6894 ] final  173.17 input  -60.11 | X-H torsion
[ 7974 7965 7964 7962 ] final  -65.40 input  175.53 | X-H torsion
[ 8008 7997 7996 7995 ] final   43.71 input   59.86 | X-H torsion
[ 10167 10162 10161 10158 ] final  157.86 input  -65.29 | X-H torsion
[ 10718 10713 10712 10709 ] final -179.22 input   66.30 | X-H torsion
[ 10763 10752 10751 10750 ] final  -36.67 input  -60.55 | X-H torsion
[ 11005 11000 10999 10996 ] final -160.26 input  -57.11 | X-H torsion

> <Gold.Protein.ActiveResidues>
 VAL166  LYS551  ARG553  GLY616  TRP617  ASP618  TYR619  PRO620  LYS621  CYS622 
 ASP623  PHE694  ASN695  SER759  ASP760  ASP761  ALA762  ILE779  LEU786  VAL792 
 PHE793  MET794  SER795  GLU796  ALA797  LYS798  CYS799  TRP800  GLU811  SER814 

> <Gold.Protein.RotatedAtoms>
  151.7726  133.3342  159.3448 H   0  0  0  0  0  0  0  0  0  0  0  0  # atno 6907 bound_to 6896
  150.7456  134.6004  159.6043 H   0  0  0  0  0  0  0  0  0  0  0  0  # atno 6908 bound_to 6896
  152.3331  134.7235  160.0335 H   0  0  0  0  0  0  0  0  0  0  0  0  # atno 6909 bound_to 6896
  145.7547  140.8891  143.0461 H   0  0  0  0  0  0  0  0  0  0  0  0  # atno 7974 bound_to 7965
  155.3072  140.3389  155.4245 H   0  0  0  0  0  0  0  0  0  0  0  0  # atno 8008 bound_to 7997
  156.1973  140.1719  156.8010 H   0  0  0  0  0  0  0  0  0  0  0  0  # atno 8009 bound_to 7997
  154.5515  140.0705  156.8658 H   0  0  0  0  0  0  0  0  0  0  0  0  # atno 8010 bound_to 7997
  139.4824  144.4879  151.8351 H   0  0  0  0  0  0  0  0  0  0  0  0  # atno 10167 bound_to 10162
  156.8559  130.9735  151.3088 H   0  0  0  0  0  0  0  0  0  0  0  0  # atno 10718 bound_to 10713
  153.8836  135.6819  153.4765 H   0  0  0  0  0  0  0  0  0  0  0  0  # atno 10763 bound_to 10752
  153.1220  135.4735  154.9208 H   0  0  0  0  0  0  0  0  0  0  0  0  # atno 10764 bound_to 10752
  154.7657  135.3223  154.8244 H   0  0  0  0  0  0  0  0  0  0  0  0  # atno 10765 bound_to 10752
  140.6335  134.4627  157.5230 H   0  0  0  0  0  0  0  0  0  0  0  0  # atno 11005 bound_to 11000
  144.6842  139.9640  143.7481 LP  0  0  0  0  0  0  0  0  0  0  0  0  # atno 17320 bound_to 7965
  146.0322  139.3345  143.0748 LP  0  0  0  0  0  0  0  0  0  0  0  0  # atno 17321 bound_to 7965
  140.4360  144.2051  150.5889 LP  0  0  0  0  0  0  0  0  0  0  0  0  # atno 17342 bound_to 10162
  140.4731  143.2405  151.9061 LP  0  0  0  0  0  0  0  0  0  0  0  0  # atno 17343 bound_to 10162
  157.6277  130.8704  149.9218 LP  0  0  0  0  0  0  0  0  0  0  0  0  # atno 17370 bound_to 10713
  156.0803  130.3674  150.0595 LP  0  0  0  0  0  0  0  0  0  0  0  0  # atno 17371 bound_to 10713
  139.9107  134.8351  156.1539 LP  0  0  0  0  0  0  0  0  0  0  0  0  # atno 17394 bound_to 11000
  141.0658  133.6820  156.2043 LP  0  0  0  0  0  0  0  0  0  0  0  0  # atno 17395 bound_to 11000

$$$$
