#       Name:                AV-unprocessed.smi:1237
#       Creating user name   scv26
#       Creation time:       Fri Mar 27 04:26:28 2020


#       File generated by GOLD software.
#

@<TRIPOS>MOLECULE
AV-unprocessed.smi:1237
    51    52     1
SMALL
NO_CHARGES


@<TRIPOS>ATOM
      1 ****        -3.5509  -3.5207   0.5098 C.3            1 S1                 0.0000
      2 ****        -2.1495  -3.3175   0.5407 O.3            1 S1                 0.0000
      3 ****        -1.4224  -4.5345   0.4888 C.3            1 S1                 0.0000
      4 ****         0.0849  -4.2312   0.5045 C.3            1 S1                 0.0000
      5 ****         0.5115  -3.5256  -0.7090 N.am           1 S1                 0.0000
      6 ****         0.6057  -2.1521  -0.5580 N.2            1 S1                 0.0000
      7 ****         0.9480  -1.4092  -1.5604 C.2            1 S1                 0.0000
      8 ****         1.0507   0.0717  -1.4418 C.2            1 S1                 0.0000
      9 ****         1.3607   0.7808  -2.4007 O.2            1 S1                 0.0000
     10 ****         0.7773   0.5709  -0.2222 N.am           1 S1                 0.0000
     11 ****         0.8080   1.9842   0.1493 C.3            1 S1                 0.0000
     12 ****         1.2385   2.0792   1.6288 C.3            1 S1                 0.0000
     13 ****         1.0062   3.4225   2.3446 C.3            1 S1                 0.0000
     14 ****         1.1784   4.6831   1.4827 C.3            1 S1                 0.0000
     15 ****        -0.1024   5.0550   0.7168 C.3            1 S1                 0.0000
     16 ****        -0.4177   4.1537  -0.4857 C.3            1 S1                 0.0000
     17 ****        -0.5476   2.6529  -0.1685 C.3            1 S1                 0.0000
     18 ****         1.2471  -1.9984  -2.8549 C.2            1 S1                 0.0000
     19 ****         1.1534  -3.3399  -2.9863 C.2            1 S1                 0.0000
     20 ****         0.7613  -4.2022  -1.8704 C.2            1 S1                 0.0000
     21 ****         0.6601  -5.4250  -1.9681 O.2            1 S1                 0.0000
     22 ****        -4.0615  -2.5584   0.5465 H              1 S1                 0.0000
     23 ****        -3.8826  -4.1117   1.3645 H              1 S1                 0.0000
     24 ****        -3.8555  -4.0279  -0.4065 H              1 S1                 0.0000
     25 ****        -1.6789  -5.1481   1.3534 H              1 S1                 0.0000
     26 ****        -1.6922  -5.1035  -0.4024 H              1 S1                 0.0000
     27 ****         0.3300  -3.6441   1.3915 H              1 S1                 0.0000
     28 ****         0.6462  -5.1611   0.6109 H              1 S1                 0.0000
     29 ****         0.5284  -0.0832   0.5060 H              1 S1                 0.0000
     30 ****         1.5806   2.4700  -0.4498 H              1 S1                 0.0000
     31 ****         0.7348   1.3055   2.2104 H              1 S1                 0.0000
     32 ****         2.3003   1.8349   1.6834 H              1 S1                 0.0000
     33 ****         0.0110   3.4262   2.7909 H              1 S1                 0.0000
     34 ****         1.6953   3.4743   3.1882 H              1 S1                 0.0000
     35 ****         1.4165   5.5140   2.1478 H              1 S1                 0.0000
     36 ****         2.0310   4.5880   0.8093 H              1 S1                 0.0000
     37 ****        -0.9523   5.0670   1.4003 H              1 S1                 0.0000
     38 ****        -0.0045   6.0790   0.3545 H              1 S1                 0.0000
     39 ****        -1.3543   4.4959  -0.9271 H              1 S1                 0.0000
     40 ****         0.3386   4.2984  -1.2580 H              1 S1                 0.0000
     41 ****        -0.9816   2.1816  -1.0516 H              1 S1                 0.0000
     42 ****        -1.2635   2.4838   0.6370 H              1 S1                 0.0000
     43 ****         1.5386  -1.3861  -3.6959 H              1 S1                 0.0000
     44 ****         1.3729  -3.7912  -3.9427 H              1 S1                 0.0000
     45 ****        -1.9135  -2.8389   1.3864 LP             1 S1                 0.0000
     46 ****        -1.8897  -2.7551  -0.2443 LP             1 S1                 0.0000
     47 ****         0.4086  -1.7334   0.3284 LP             1 S1                 0.0000
     48 ****         1.5515   0.3642  -3.2896 LP             1 S1                 0.0000
     49 ****         1.4215   1.7728  -2.2900 LP             1 S1                 0.0000
     50 ****         0.3843  -5.9688  -1.1755 LP             1 S1                 0.0000
     51 ****         0.8538  -5.8747  -2.8401 LP             1 S1                 0.0000
@<TRIPOS>BOND
    1    1    2 1     
    2    1   22 1     
    3    1   23 1     
    4    1   24 1     
    5    2    3 1     
    6    3    4 1     
    7    3   25 1     
    8    3   26 1     
    9    4    5 1     
   10    4   27 1     
   11    4   28 1     
   12    5   20 am    
   13    5    6 1     
   14    6    7 2     
   15    7    8 1     
   16    7   18 1     
   17    8    9 2     
   18    8   10 am    
   19   10   11 1     
   20   10   29 1     
   21   11   17 1     
   22   11   12 1     
   23   11   30 1     
   24   12   13 1     
   25   12   31 1     
   26   12   32 1     
   27   13   14 1     
   28   13   33 1     
   29   13   34 1     
   30   14   15 1     
   31   14   35 1     
   32   14   36 1     
   33   15   16 1     
   34   15   37 1     
   35   15   38 1     
   36   16   17 1     
   37   16   39 1     
   38   16   40 1     
   39   17   41 1     
   40   17   42 1     
   41   18   19 2     
   42   18   43 1     
   43   19   20 1     
   44   19   44 1     
   45   20   21 2     
   46    2   45 1     
   47    2   46 1     
   48    6   47 1     
   49    9   48 1     
   50    9   49 1     
   51   21   50 1     
   52   21   51 1     
@<TRIPOS>SUBSTRUCTURE
      1 S1             1
@<TRIPOS>SET
LONE_PAIRS      STATIC     ATOMS    <user>   **** ""
7 45 46 47 48 49 50 51
DONOR_HYDROGENS      STATIC     ATOMS    <user>   **** ""
1 29
ATOM$BLUE        STATIC     ATOMS    COLORGROUP SYSTEM
7 45 46 47 48 49 50 51
ATOM$RED        STATIC     ATOMS    COLORGROUP SYSTEM
1 29
