AV-unprocessed.smi:2521|AV-procd|sdf|9916|dock1
  -GOLD-   2272013553D 1   1.00000     0.00000
 Structure written by MMmdl.
 36 37  0  0  0  0  0  0  0  0  1 V2000
  146.7354  131.8497  162.3146 C   0  0  0  0  0  0  0  0  0  0  0  0
  146.8266  133.2098  163.0217 C   0  0  0  0  0  0  0  0  0  0  0  0
  145.4724  133.7077  163.5476 C   0  0  0  0  0  0  0  0  0  0  0  0
  147.5184  134.2374  162.1812 C   0  0  0  0  0  0  0  0  0  0  0  0
  147.8075  135.4685  162.6244 N   0  0  0  0  0  0  0  0  0  0  0  0
  148.4485  136.2388  161.6648 N   0  0  0  0  0  0  0  0  0  0  0  0
  148.6250  135.5655  160.5200 C   0  0  0  0  0  0  0  0  0  0  0  0
  149.2522  136.1141  159.3703 N   0  0  0  0  0  0  0  0  0  0  0  0
  149.6175  135.4842  158.2398 C   0  0  0  0  0  0  0  0  0  0  0  0
  149.4580  134.2856  158.0079 O   0  0  0  0  0  0  0  0  0  0  0  0
  150.1838  136.3351  157.3722 N   0  0  0  0  0  0  0  0  0  0  0  0
  150.6722  135.9757  156.0451 C   0  0  0  0  0  0  0  0  0  0  0  0
  151.2780  137.1841  155.3062 C   0  0  1  0  0  0  0  0  0  0  0  0
  150.3421  138.3660  155.1445 C   0  0  0  0  0  0  0  0  0  0  0  0
  151.3198  139.4991  154.8520 C   0  0  0  0  0  0  0  0  0  0  0  0
  152.5085  139.1792  155.5691 O   0  0  0  0  0  0  0  0  0  0  0  0
  152.4521  137.8344  156.0373 C   0  0  0  0  0  0  0  0  0  0  0  0
  148.0154  133.9198  160.5222 S   0  0  0  0  0  0  0  0  0  0  0  0
  147.7245  131.4875  162.0324 H   0  0  0  0  0  0  0  0  0  0  0  0
  146.1324  131.9128  161.4082 H   0  0  0  0  0  0  0  0  0  0  0  0
  146.2818  131.0996  162.9630 H   0  0  0  0  0  0  0  0  0  0  0  0
  147.4565  133.0565  163.8988 H   0  0  0  0  0  0  0  0  0  0  0  0
  145.5880  134.6312  164.1157 H   0  0  0  0  0  0  0  0  0  0  0  0
  145.0116  132.9705  164.2057 H   0  0  0  0  0  0  0  0  0  0  0  0
  144.7769  133.9030  162.7308 H   0  0  0  0  0  0  0  0  0  0  0  0
  149.4422  137.1043  159.4125 H   0  0  0  0  0  0  0  0  0  0  0  0
  150.2768  137.3029  157.6443 H   0  0  0  0  0  0  0  0  0  0  0  0
  151.4221  135.1931  156.1632 H   0  0  0  0  0  0  0  0  0  0  0  0
  149.8636  135.5397  155.4561 H   0  0  0  0  0  0  0  0  0  0  0  0
  151.6203  136.8749  154.3170 H   0  0  0  0  0  0  0  0  0  0  0  0
  149.6063  138.2273  154.3519 H   0  0  0  0  0  0  0  0  0  0  0  0
  149.8099  138.5620  156.0765 H   0  0  0  0  0  0  0  0  0  0  0  0
  151.5553  139.5316  153.7874 H   0  0  0  0  0  0  0  0  0  0  0  0
  150.9276  140.4739  155.1424 H   0  0  0  0  0  0  0  0  0  0  0  0
  152.2754  137.8555  157.1136 H   0  0  0  0  0  0  0  0  0  0  0  0
  153.3927  137.3120  155.8608 H   0  0  0  0  0  0  0  0  0  0  0  0
  1  2  1  0  0  0  0
  1 19  1  0  0  0  0
  1 20  1  0  0  0  0
  1 21  1  0  0  0  0
  2  3  1  0  0  0  0
  2  4  1  0  0  0  0
  2 22  1  0  0  0  0
  3 23  1  0  0  0  0
  3 24  1  0  0  0  0
  3 25  1  0  0  0  0
  4 18  1  0  0  0  0
  4  5  2  0  0  0  0
  5  6  1  0  0  0  0
  6  7  2  0  0  0  0
  7  8  1  0  0  0  0
  7 18  1  0  0  0  0
  8  9  1  0  0  0  0
  8 26  1  0  0  0  0
  9 10  2  0  0  0  0
  9 11  1  0  0  0  0
 11 12  1  0  0  0  0
 11 27  1  0  0  0  0
 12 13  1  0  0  0  0
 12 28  1  0  0  0  0
 12 29  1  0  0  0  0
 13 17  1  0  0  0  0
 13 14  1  0  0  0  0
 13 30  1  0  0  0  0
 14 15  1  0  0  0  0
 14 31  1  0  0  0  0
 14 32  1  0  0  0  0
 15 16  1  0  0  0  0
 15 33  1  0  0  0  0
 15 34  1  0  0  0  0
 16 17  1  0  0  0  0
 17 35  1  0  0  0  0
 17 36  1  0  0  0  0
M  END
> <s_m_source_file>
AV-unprocessed.smi

> <i_m_source_file_index>
2521

> <i_lp_mmshare_version>
43012

> <i_f3d_flags>
0

> <s_epik_input>
W0NIM11bQ0hdKFtDSDNdKWMxbm5jKHMxKVtOSF1DKD1PKVtOSF1bQ0gyXVtDQEBIXTJbQ0gyXVtDSDJdT1tDSDJdMg==

> <s_epik_cmdline>
J2VwaWtfcHl0aG9uJywgJy1waCcsICc3LjAnLCAnLXRuJywgJzgnLCAnLW1hJywgJzIwMCcsICctbWV0YWxfYmluZGluZycsICctaW1hZScsICc8aW5maWxlLm1hZT4nLCAnLW9tYWUnLCAnPG91dGZpbGUubWFlPic=

> <r_lp_tautomer_probability>
1

> <r_epik_Ionization_Penalty>
0.000452582

> <r_epik_Ionization_Penalty_Charging>
0

> <r_epik_Ionization_Penalty_Neutral>
0.000452582

> <r_epik_State_Penalty>
-0

> <r_epik_Charging_Adjusted_Penalty>
0

> <i_epik_Tot_Q>
0

> <i_epik_Tot_abs_Q>
0

> <r_epik_Metal_State_Penalty>
0.207746

> <b_epik_Metal_Only>
0

> <s_lp_Force_Field>
OPLS_2005

> <r_lp_Energy>
10.682

> <b_lp_Chiralities_Consistent>
1

> <s_lp_Variant>
AV-unprocessed.smi:2521-2

> <Gold.Version>
5.8.1

> <Gold.Id.Protein>
6NUR|6NUR_protein|mol2

> <Gold.PLP.Fitness>
37.9231

> <Gold.PLP.PLP>
-26.4319

> <Gold.PLP.part.hbond>
-4.0000

> <Gold.PLP.part.metal>
0.0000

> <Gold.PLP.part.buried>
-2.2864

> <Gold.PLP.part.nonpolar>
-20.6947

> <Gold.PLP.part.repulsive>
0.2560

> <Gold.PLP.ligand.clash>
0.0000

> <Gold.PLP.ligand.torsion>
0.0585

> <Gold.PLP.Chemscore.Hbond>
3.8400

> <Gold.PLP.Chemscore.CHOScore>
0.0000

> <Gold.PLP.Chemscore.Metal>
0.0000

> <Gold.Chemscore.Hbonds>
donor molecule, donor type, donor heavy atom, donor atom, acceptor molecule, acceptor atom, score
      P1  H  6896  6907       L1    10  0.30
      P1  H  6931  6943       L1     6  0.83
      P1  H  7997  8008       L1    16  0.63

> <Gold.PLP.Chemscore.Internal.Correction>
0.0882

> <Gold.Rescore>
     Score         DG    S(hbond)    S(metal)    S(lipo)     H(rot)  DE(clash)    DE(int)     intcor
     16.73     -18.33       2.73        0.00      63.48       1.45       0.12       1.48       ----

> <Gold.Chemscore.Fitness>
16.7304

> <Gold.Chemscore.DG>
-18.3321

> <Gold.Chemscore.ZeroCoef>
-5.4800

> <Gold.Chemscore.Hbond>
2.7325

> <Gold.Chemscore.Metal>
0.0000

> <Gold.Chemscore.Lipo>
63.4813

> <Gold.Chemscore.Internal_Hbond>
0.0000

> <Gold.Chemscore.DEClash>
0.1201

> <Gold.Chemscore.DEInternal>
1.4816

> <Gold.Chemscore.Rot>
1.4461

> <Gold.Chemscore.Internal.Correction>
   9.000000E+99

> <Gold.Chemscore.Hbonds>
donor molecule, donor type, donor heavy atom, donor atom, acceptor molecule, acceptor atom, score
      P1  H  6931  6943       L1     6  0.80
      P1  H  7997  8008       L1    16  0.55

> <Gold.Chemscore.Hbond.Weighted>
-9.1267

> <Gold.Chemscore.Metal.Weighted>
-0.0000

> <Gold.Chemscore.Lipo.Weighted>
-7.4273

> <Gold.Chemscore.Internal_Hbond.Weighted>
0.0000

> <Gold.Chemscore.DEClash.Weighted>
0.1201

> <Gold.Chemscore.DEInternal.Weighted>
1.4816

> <Gold.Chemscore.Rot.Weighted>
3.7019

> <Gold.Chemscore.Internal.Correction.Weighted>
   9.000000E+99

> <Gold.Protein.RotatedTorsions>
[ 6907 6896 6895 6894 ] final -106.11 input  -60.11 | X-H torsion
[ 7974 7965 7964 7962 ] final  -30.73 input  175.53 | X-H torsion
[ 8008 7997 7996 7995 ] final  -24.91 input   59.86 | X-H torsion
[ 10167 10162 10161 10158 ] final  -37.78 input  -65.29 | X-H torsion
[ 10718 10713 10712 10709 ] final  119.14 input   66.30 | X-H torsion
[ 10763 10752 10751 10750 ] final -120.73 input  -60.55 | X-H torsion
[ 11005 11000 10999 10996 ] final  175.07 input  -57.11 | X-H torsion

> <Gold.Protein.ActiveResidues>
 VAL166  LYS551  ARG553  GLY616  TRP617  ASP618  TYR619  PRO620  LYS621  CYS622 
 ASP623  PHE694  ASN695  SER759  ASP760  ASP761  ALA762  ILE779  LEU786  VAL792 
 PHE793  MET794  SER795  GLU796  ALA797  LYS798  CYS799  TRP800  GLU811  SER814 

> <Gold.Protein.RotatedAtoms>
  150.7372  134.0025  159.3642 H   0  0  0  0  0  0  0  0  0  0  0  0  # atno 6907 bound_to 6896
  151.7980  135.0715  160.0405 H   0  0  0  0  0  0  0  0  0  0  0  0  # atno 6908 bound_to 6896
  152.3161  133.5767  159.5749 H   0  0  0  0  0  0  0  0  0  0  0  0  # atno 6909 bound_to 6896
  146.1121  140.5577  142.8773 H   0  0  0  0  0  0  0  0  0  0  0  0  # atno 7974 bound_to 7965
  154.4504  140.1941  156.0537 H   0  0  0  0  0  0  0  0  0  0  0  0  # atno 8008 bound_to 7997
  156.0635  140.3294  155.7462 H   0  0  0  0  0  0  0  0  0  0  0  0  # atno 8009 bound_to 7997
  155.5375  140.0583  157.2867 H   0  0  0  0  0  0  0  0  0  0  0  0  # atno 8010 bound_to 7997
  140.7109  143.3320  151.2548 H   0  0  0  0  0  0  0  0  0  0  0  0  # atno 10167 bound_to 10162
  157.5982  131.1055  150.7854 H   0  0  0  0  0  0  0  0  0  0  0  0  # atno 10718 bound_to 10713
  154.8651  135.4192  154.2507 H   0  0  0  0  0  0  0  0  0  0  0  0  # atno 10763 bound_to 10752
  153.3454  135.6996  153.6838 H   0  0  0  0  0  0  0  0  0  0  0  0  # atno 10764 bound_to 10752
  153.5800  135.3575  155.2844 H   0  0  0  0  0  0  0  0  0  0  0  0  # atno 10765 bound_to 10752
  140.3582  134.7135  157.4314 H   0  0  0  0  0  0  0  0  0  0  0  0  # atno 11005 bound_to 11000
  144.7520  140.5216  143.6795 LP  0  0  0  0  0  0  0  0  0  0  0  0  # atno 17320 bound_to 7965
  145.5642  139.1480  143.3324 LP  0  0  0  0  0  0  0  0  0  0  0  0  # atno 17321 bound_to 7965
  139.6804  143.9864  152.2805 LP  0  0  0  0  0  0  0  0  0  0  0  0  # atno 17342 bound_to 10162
  139.9492  144.6631  150.8189 LP  0  0  0  0  0  0  0  0  0  0  0  0  # atno 17343 bound_to 10162
  156.8260  130.5000  149.5337 LP  0  0  0  0  0  0  0  0  0  0  0  0  # atno 17370 bound_to 10713
  156.1049  130.5997  150.9955 LP  0  0  0  0  0  0  0  0  0  0  0  0  # atno 17371 bound_to 10713
  140.0648  134.5945  155.8708 LP  0  0  0  0  0  0  0  0  0  0  0  0  # atno 17394 bound_to 11000
  141.1992  133.6605  156.5831 LP  0  0  0  0  0  0  0  0  0  0  0  0  # atno 17395 bound_to 11000

$$$$
