AV-unprocessed.smi:3208|AV-procd|sdf|12267|dock10
  -GOLD-   2272018103D 1   1.00000     0.00000
 Structure written by MMmdl.
 29 29  0  0  0  0  0  0  0  0  2 V2000
  150.7736  136.7035  155.1830 C   0  0  0  0  0  0  0  0  0  0  0  0
  151.3348  137.6521  154.4184 C   0  0  0  0  0  0  0  0  0  0  0  0
  150.8363  139.0766  154.3141 C   0  0  0  0  0  0  0  0  0  0  0  0
  150.8778  139.7061  155.5890 O   0  0  0  0  0  0  0  0  0  0  0  0
  150.7936  141.1295  155.5730 C   0  0  1  0  0  0  0  0  0  0  0  0
  149.4586  141.5070  154.9141 C   0  0  0  0  0  0  0  0  0  0  0  0
  150.8905  141.6921  157.0004 C   0  0  0  0  0  0  0  0  0  0  0  0
  149.9636  142.3637  157.4557 O   0  0  0  0  0  0  0  0  0  0  0  0
  152.0151  141.3818  157.6712 N   0  0  0  0  0  0  0  0  0  0  0  0
  152.4004  141.7562  158.9880 C   0  0  0  0  0  0  0  0  0  0  0  0
  151.8799  142.8321  159.6305 N   0  0  0  0  0  0  0  0  0  0  0  0
  152.3017  143.1251  160.8778 C   0  0  0  0  0  0  0  0  0  0  0  0
  153.2670  142.3668  161.5634 C   0  0  0  0  0  0  0  0  0  0  0  0
  153.8146  141.2485  160.9114 C   0  0  0  0  0  0  0  0  0  0  0  0
  153.3791  140.9351  159.6081 C   0  0  0  0  0  0  0  0  0  0  0  0
  153.9130  139.8460  158.9738 O   0  5  0  0  0  0  0  0  0  0  0  0
  149.9030  136.9122  155.7876 H   0  0  0  0  0  0  0  0  0  0  0  0
  151.1798  135.7033  155.2127 H   0  0  0  0  0  0  0  0  0  0  0  0
  152.2044  137.4073  153.8261 H   0  0  0  0  0  0  0  0  0  0  0  0
  151.4408  139.6214  153.5875 H   0  0  0  0  0  0  0  0  0  0  0  0
  149.8122  139.0535  153.9393 H   0  0  0  0  0  0  0  0  0  0  0  0
  151.6022  141.5319  154.9596 H   0  0  0  0  0  0  0  0  0  0  0  0
  149.3236  142.5889  154.8848 H   0  0  0  0  0  0  0  0  0  0  0  0
  148.6109  141.0771  155.4489 H   0  0  0  0  0  0  0  0  0  0  0  0
  149.4184  141.1426  153.8875 H   0  0  0  0  0  0  0  0  0  0  0  0
  152.6894  140.8112  157.1817 H   0  0  0  0  0  0  0  0  0  0  0  0
  151.8559  143.9917  161.3431 H   0  0  0  0  0  0  0  0  0  0  0  0
  153.5788  142.6352  162.5616 H   0  0  0  0  0  0  0  0  0  0  0  0
  154.5588  140.6413  161.4057 H   0  0  0  0  0  0  0  0  0  0  0  0
  1  2  2  0  0  0  0
  1 17  1  0  0  0  0
  1 18  1  0  0  0  0
  2  3  1  0  0  0  0
  2 19  1  0  0  0  0
  3  4  1  0  0  0  0
  3 20  1  0  0  0  0
  3 21  1  0  0  0  0
  4  5  1  0  0  0  0
  5  6  1  0  0  0  0
  5  7  1  0  0  0  0
  5 22  1  0  0  0  0
  6 23  1  0  0  0  0
  6 24  1  0  0  0  0
  6 25  1  0  0  0  0
  7  8  2  0  0  0  0
  7  9  1  0  0  0  0
  9 26  1  0  0  0  0
  9 10  1  0  0  0  0
 10 15  2  0  0  0  0
 10 11  1  0  0  0  0
 11 12  2  0  0  0  0
 12 27  1  0  0  0  0
 12 13  1  0  0  0  0
 13 28  1  0  0  0  0
 13 14  2  0  0  0  0
 14 15  1  0  0  0  0
 14 29  1  0  0  0  0
 15 16  1  0  0  0  0
M  CHG  1  16  -1
M  END
> <s_m_source_file>
AV-unprocessed.smi

> <i_m_source_file_index>
3208

> <i_lp_mmshare_version>
43012

> <i_f3d_flags>
0

> <s_epik_input>
W0NIMl09W0NIXVtDSDJdT1tDQEhdKFtDSDNdKUMoPU8pW05IXWMxbltjSF1bY0hdW2NIXWMxW09IXQ==

> <s_epik_cmdline>
J2VwaWtfcHl0aG9uJywgJy1waCcsICc3LjAnLCAnLXRuJywgJzgnLCAnLW1hJywgJzIwMCcsICctbWV0YWxfYmluZGluZycsICctaW1hZScsICc8aW5maWxlLm1hZT4nLCAnLW9tYWUnLCAnPG91dGZpbGUubWFlPic=

> <r_epik_Ionization_Penalty>
4.05889

> <r_epik_Ionization_Penalty_Charging>
2.07983

> <r_epik_Ionization_Penalty_Neutral>
1.97905

> <r_epik_State_Penalty>
2.65143

> <r_epik_Charging_Adjusted_Penalty>
4.73126

> <i_epik_Tot_Q>
-1

> <i_epik_Tot_abs_Q>
1

> <r_epik_Metal_State_Penalty>
0.650759

> <b_epik_Metal_Only>
0

> <s_lp_Force_Field>
OPLS_2005

> <r_lp_Energy>
4.10408

> <b_lp_Chiralities_Consistent>
1

> <s_lp_Variant>
AV-unprocessed.smi:3208-8

> <Gold.Version>
5.8.1

> <Gold.Id.Protein>
6NUR|6NUR_protein|mol2

> <Gold.PLP.Fitness>
39.5819

> <Gold.PLP.PLP>
-33.9137

> <Gold.PLP.part.hbond>
-1.0000

> <Gold.PLP.part.metal>
0.0000

> <Gold.PLP.part.buried>
-3.3052

> <Gold.PLP.part.nonpolar>
-28.6491

> <Gold.PLP.part.repulsive>
0.2309

> <Gold.PLP.ligand.clash>
0.0000

> <Gold.PLP.ligand.torsion>
0.1714

> <Gold.PLP.Chemscore.Hbond>
2.0000

> <Gold.PLP.Chemscore.CHOScore>
0.0000

> <Gold.PLP.Chemscore.Metal>
0.0000

> <Gold.Chemscore.Hbonds>
donor molecule, donor type, donor heavy atom, donor atom, acceptor molecule, acceptor atom, score
      P1  H  7997  8008       L1    16  2.00

> <Gold.PLP.Chemscore.Internal.Correction>
0.0110

> <Gold.Rescore>
     Score         DG    S(hbond)    S(metal)    S(lipo)     H(rot)  DE(clash)    DE(int)     intcor
     12.31     -13.77       0.97        0.00      79.29       1.65       0.02       1.44       ----

> <Gold.Chemscore.Fitness>
12.3131

> <Gold.Chemscore.DG>
-13.7719

> <Gold.Chemscore.ZeroCoef>
-5.4800

> <Gold.Chemscore.Hbond>
0.9723

> <Gold.Chemscore.Metal>
0.0000

> <Gold.Chemscore.Lipo>
79.2881

> <Gold.Chemscore.Internal_Hbond>
0.0000

> <Gold.Chemscore.DEClash>
0.0175

> <Gold.Chemscore.DEInternal>
1.4413

> <Gold.Chemscore.Rot>
1.6533

> <Gold.Chemscore.Internal.Correction>
   9.000000E+99

> <Gold.Chemscore.Hbonds>
donor molecule, donor type, donor heavy atom, donor atom, acceptor molecule, acceptor atom, score
      P1  H  7997  8008       L1    16  0.94

> <Gold.Chemscore.Hbond.Weighted>
-3.2475

> <Gold.Chemscore.Metal.Weighted>
-0.0000

> <Gold.Chemscore.Lipo.Weighted>
-9.2767

> <Gold.Chemscore.Internal_Hbond.Weighted>
0.0000

> <Gold.Chemscore.DEClash.Weighted>
0.0175

> <Gold.Chemscore.DEInternal.Weighted>
1.4413

> <Gold.Chemscore.Rot.Weighted>
4.2324

> <Gold.Chemscore.Internal.Correction.Weighted>
   9.000000E+99

> <Gold.Protein.RotatedTorsions>
[ 6907 6896 6895 6894 ] final  125.19 input  -60.11 | X-H torsion
[ 7974 7965 7964 7962 ] final  -80.42 input  175.53 | X-H torsion
[ 8008 7997 7996 7995 ] final -109.40 input   59.86 | X-H torsion
[ 10167 10162 10161 10158 ] final   72.38 input  -65.29 | X-H torsion
[ 10718 10713 10712 10709 ] final -128.29 input   66.30 | X-H torsion
[ 10763 10752 10751 10750 ] final  -75.29 input  -60.55 | X-H torsion
[ 11005 11000 10999 10996 ] final   55.48 input  -57.11 | X-H torsion

> <Gold.Protein.ActiveResidues>
 VAL166  LYS551  ARG553  GLY616  TRP617  ASP618  TYR619  PRO620  LYS621  CYS622 
 ASP623  PHE694  ASN695  SER759  ASP760  ASP761  ALA762  ILE779  LEU786  VAL792 
 PHE793  MET794  SER795  GLU796  ALA797  LYS798  CYS799  TRP800  GLU811  SER814 

> <Gold.Protein.RotatedAtoms>
  152.4013  133.6822  159.6318 H   0  0  0  0  0  0  0  0  0  0  0  0  # atno 6907 bound_to 6896
  150.7904  133.8786  159.3288 H   0  0  0  0  0  0  0  0  0  0  0  0  # atno 6908 bound_to 6896
  151.6551  135.0998  160.0220 H   0  0  0  0  0  0  0  0  0  0  0  0  # atno 6909 bound_to 6896
  145.5602  140.9483  143.1451 H   0  0  0  0  0  0  0  0  0  0  0  0  # atno 7974 bound_to 7965
  154.9588  140.0399  157.2180 H   0  0  0  0  0  0  0  0  0  0  0  0  # atno 8008 bound_to 7997
  154.7908  140.2835  155.5971 H   0  0  0  0  0  0  0  0  0  0  0  0  # atno 8009 bound_to 7997
  156.2949  140.2573  156.2755 H   0  0  0  0  0  0  0  0  0  0  0  0  # atno 8010 bound_to 7997
  140.0359  144.5428  150.7471 H   0  0  0  0  0  0  0  0  0  0  0  0  # atno 10167 bound_to 10162
  156.1937  130.6812  151.0456 H   0  0  0  0  0  0  0  0  0  0  0  0  # atno 10718 bound_to 10713
  154.4846  135.5836  153.6414 H   0  0  0  0  0  0  0  0  0  0  0  0  # atno 10763 bound_to 10752
  152.9852  135.6098  154.3203 H   0  0  0  0  0  0  0  0  0  0  0  0  # atno 10764 bound_to 10752
  154.3097  135.2845  155.2551 H   0  0  0  0  0  0  0  0  0  0  0  0  # atno 10765 bound_to 10752
  140.0604  134.5611  155.9159 H   0  0  0  0  0  0  0  0  0  0  0  0  # atno 11005 bound_to 11000
  144.7487  139.7252  143.7282 LP  0  0  0  0  0  0  0  0  0  0  0  0  # atno 17320 bound_to 7965
  146.1856  139.5070  142.9838 LP  0  0  0  0  0  0  0  0  0  0  0  0  # atno 17321 bound_to 7965
  140.7281  143.2659  151.4048 LP  0  0  0  0  0  0  0  0  0  0  0  0  # atno 17342 bound_to 10162
  139.6045  144.1225  152.2234 LP  0  0  0  0  0  0  0  0  0  0  0  0  # atno 17343 bound_to 10162
  157.6945  131.0799  150.7011 LP  0  0  0  0  0  0  0  0  0  0  0  0  # atno 17370 bound_to 10713
  156.7068  130.4640  149.5558 LP  0  0  0  0  0  0  0  0  0  0  0  0  # atno 17371 bound_to 10713
  141.1970  133.6594  156.5722 LP  0  0  0  0  0  0  0  0  0  0  0  0  # atno 17394 bound_to 11000
  140.3779  134.7549  157.4642 LP  0  0  0  0  0  0  0  0  0  0  0  0  # atno 17395 bound_to 11000

$$$$
