AV-unprocessed.smi:66|AV-procd|sdf|628|dock9
  -GOLD-   2262016523D 1   1.00000     0.00000
 Structure written by MMmdl.
 27 29  0  0  0  0  0  0  0  0  3 V2000
  152.2391  136.5195  156.3944 O   0  0  0  0  0  0  0  0  0  0  0  0
  151.8108  137.5618  156.9368 C   0  0  0  0  0  0  0  0  0  0  0  0
  151.0851  137.5994  157.9558 O   0  5  0  0  0  0  0  0  0  0  0  0
  152.2027  138.8959  156.2801 C   0  0  1  0  0  0  0  0  0  0  0  0
  151.7023  139.0044  154.8294 C   0  0  0  0  0  0  0  0  0  0  0  0
  150.3953  139.7859  154.9540 C   0  0  2  0  0  0  0  0  0  0  0  0
  150.0557  140.4647  153.7627 O   0  0  0  0  0  0  0  0  0  0  0  0
  150.6732  140.7445  156.1133 C   0  0  0  0  0  0  0  0  0  0  0  0
  151.6048  140.0362  156.9809 N   0  0  0  0  0  0  0  0  0  0  0  0
  152.2339  140.6434  158.0952 C   0  0  0  0  0  0  0  0  0  0  0  0
  153.2188  139.9396  158.7113 N   0  0  0  0  0  0  0  0  0  0  0  0
  153.8271  140.4886  159.7669 C   0  0  0  0  0  0  0  0  0  0  0  0
  153.5793  141.6856  160.3032 N   0  0  0  0  0  0  0  0  0  0  0  0
  152.6049  142.4028  159.7087 C   0  0  0  0  0  0  0  0  0  0  0  0
  152.1058  143.5997  159.9721 N   0  5  0  0  0  0  0  0  0  0  0  0
  151.1318  143.8401  159.0594 C   0  0  0  0  0  0  0  0  0  0  0  0
  150.9595  142.8330  158.1804 N   0  0  0  0  0  0  0  0  0  0  0  0
  151.8975  141.9309  158.6007 C   0  0  0  0  0  0  0  0  0  0  0  0
  153.2907  138.9764  156.2784 H   0  0  0  0  0  0  0  0  0  0  0  0
  152.4265  139.5747  154.2457 H   0  0  0  0  0  0  0  0  0  0  0  0
  151.5701  138.0407  154.3352 H   0  0  0  0  0  0  0  0  0  0  0  0
  149.5855  139.1065  155.2235 H   0  0  0  0  0  0  0  0  0  0  0  0
  149.9505  139.8234  153.0770 H   0  0  0  0  0  0  0  0  0  0  0  0
  151.1437  141.6634  155.7596 H   0  0  0  0  0  0  0  0  0  0  0  0
  149.7481  140.9990  156.6308 H   0  0  0  0  0  0  0  0  0  0  0  0
  154.6044  139.9021  160.2339 H   0  0  0  0  0  0  0  0  0  0  0  0
  150.5819  144.7727  159.0916 H   0  0  0  0  0  0  0  0  0  0  0  0
  1  2  2  0  0  0  0
  2  3  1  0  0  0  0
  2  4  1  0  0  0  0
  4  5  1  0  0  0  0
  4 19  1  0  0  0  0
  4  9  1  0  0  0  0
  5  6  1  0  0  0  0
  5 20  1  0  0  0  0
  5 21  1  0  0  0  0
  6  7  1  0  0  0  0
  6  8  1  0  0  0  0
  6 22  1  0  0  0  0
  7 23  1  0  0  0  0
  8 24  1  0  0  0  0
  8 25  1  0  0  0  0
  8  9  1  0  0  0  0
  9 10  1  0  0  0  0
 10 11  1  0  0  0  0
 10 18  2  0  0  0  0
 11 12  2  0  0  0  0
 12 26  1  0  0  0  0
 12 13  1  0  0  0  0
 13 14  2  0  0  0  0
 14 15  1  0  0  0  0
 14 18  1  0  0  0  0
 15 16  1  0  0  0  0
 16 17  2  0  0  0  0
 16 27  1  0  0  0  0
 17 18  1  0  0  0  0
M  CHG  1   3  -1
M  CHG  1  15  -1
M  END
> <s_m_source_file>
AV-unprocessed.smi

> <i_m_source_file_index>
66

> <i_lp_mmshare_version>
43012

> <i_f3d_flags>
0

> <s_epik_input>
Tz1DKFtPSF0pW0NAQEhdMVtDSDJdW0NAQEhdKFtPSF0pW0NIMl1OMWMobltjSF1uMiljKGMyMylbbkhdW2NIXW4z

> <s_epik_cmdline>
J2VwaWtfcHl0aG9uJywgJy1waCcsICc3LjAnLCAnLXRuJywgJzgnLCAnLW1hJywgJzIwMCcsICctbWV0YWxfYmluZGluZycsICctaW1hZScsICc8aW5maWxlLm1hZT4nLCAnLW9tYWUnLCAnPG91dGZpbGUubWFlPic=

> <r_lp_tautomer_probability>
0.955585

> <r_epik_Ionization_Penalty>
7.65809

> <r_epik_Ionization_Penalty_Charging>
3.4974

> <r_epik_Ionization_Penalty_Neutral>
4.16069

> <r_epik_State_Penalty>
3.51624

> <r_epik_Charging_Adjusted_Penalty>
7.01364

> <i_epik_Tot_Q>
-2

> <i_epik_Tot_abs_Q>
2

> <r_epik_Metal_State_Penalty>
0.522662

> <b_epik_Metal_Only>
1

> <s_lp_Force_Field>
OPLS_2005

> <r_lp_Energy>
43.3227

> <b_lp_Chiralities_Consistent>
1

> <s_lp_Variant>
AV-unprocessed.smi:66-12

> <Gold.Version>
5.8.1

> <Gold.Id.Protein>
6NUR|6NUR_protein|mol2

> <Gold.PLP.Fitness>
43.6338

> <Gold.PLP.PLP>
-31.5148

> <Gold.PLP.part.hbond>
-3.6394

> <Gold.PLP.part.metal>
0.0000

> <Gold.PLP.part.buried>
-4.0332

> <Gold.PLP.part.nonpolar>
-23.1959

> <Gold.PLP.part.repulsive>
0.1032

> <Gold.PLP.ligand.clash>
0.0000

> <Gold.PLP.ligand.torsion>
0.0831

> <Gold.PLP.Chemscore.Hbond>
4.0441

> <Gold.PLP.Chemscore.CHOScore>
0.0000

> <Gold.PLP.Chemscore.Metal>
0.0000

> <Gold.Chemscore.Hbonds>
donor molecule, donor type, donor heavy atom, donor atom, acceptor molecule, acceptor atom, score
      L1  H     7    23       P1  7957  0.62
      P1  H  7989  7998       L1     7  0.38
      P1  H  7997  8010       L1    11  0.63
      P1  H  8011  8017       L1     7  0.01
      P1  H 10752 10765       L1     1  1.92

> <Gold.PLP.Chemscore.Internal.Correction>
0.1532

> <Gold.Rescore>
     Score         DG    S(hbond)    S(metal)    S(lipo)     H(rot)  DE(clash)    DE(int)     intcor
     10.91     -12.24       2.09        0.00      37.08       1.78       0.16       1.18       ----

> <Gold.Chemscore.Fitness>
10.9051

> <Gold.Chemscore.DG>
-12.2417

> <Gold.Chemscore.ZeroCoef>
-5.4800

> <Gold.Chemscore.Hbond>
2.0862

> <Gold.Chemscore.Metal>
0.0000

> <Gold.Chemscore.Lipo>
37.0836

> <Gold.Chemscore.Internal_Hbond>
0.0000

> <Gold.Chemscore.DEClash>
0.1595

> <Gold.Chemscore.DEInternal>
1.1770

> <Gold.Chemscore.Rot>
1.7754

> <Gold.Chemscore.Internal.Correction>
   9.000000E+99

> <Gold.Chemscore.Hbonds>
donor molecule, donor type, donor heavy atom, donor atom, acceptor molecule, acceptor atom, score
      L1  H     7    23       P1  7957  0.61
      P1  H  7989  7998       L1     7  0.01
      P1  H  7997  8010       L1    11  0.06
      P1  H  8011  8017       L1     7  0.01
      P1  H 10752 10765       L1     1  0.90

> <Gold.Chemscore.Hbond.Weighted>
-6.9679

> <Gold.Chemscore.Metal.Weighted>
-0.0000

> <Gold.Chemscore.Lipo.Weighted>
-4.3388

> <Gold.Chemscore.Internal_Hbond.Weighted>
0.0000

> <Gold.Chemscore.DEClash.Weighted>
0.1595

> <Gold.Chemscore.DEInternal.Weighted>
1.1770

> <Gold.Chemscore.Rot.Weighted>
4.5451

> <Gold.Chemscore.Internal.Correction.Weighted>
   9.000000E+99

> <Gold.Protein.RotatedTorsions>
[ 6907 6896 6895 6894 ] final    9.57 input  -60.11 | X-H torsion
[ 7974 7965 7964 7962 ] final  -17.38 input  175.53 | X-H torsion
[ 8008 7997 7996 7995 ] final   21.28 input   59.86 | X-H torsion
[ 10167 10162 10161 10158 ] final -145.85 input  -65.29 | X-H torsion
[ 10718 10713 10712 10709 ] final   35.65 input   66.30 | X-H torsion
[ 10763 10752 10751 10750 ] final -125.37 input  -60.55 | X-H torsion
[ 11005 11000 10999 10996 ] final  151.36 input  -57.11 | X-H torsion

> <Gold.Protein.ActiveResidues>
 VAL166  LYS551  ARG553  GLY616  TRP617  ASP618  TYR619  PRO620  LYS621  CYS622 
 ASP623  PHE694  ASN695  SER759  ASP760  ASP761  ALA762  ILE779  LEU786  VAL792 
 PHE793  MET794  SER795  GLU796  ALA797  LYS798  CYS799  TRP800  GLU811  SER814 

> <Gold.Protein.RotatedAtoms>
  151.7243  135.0888  160.0289 H   0  0  0  0  0  0  0  0  0  0  0  0  # atno 6907 bound_to 6896
  152.3582  133.6259  159.6003 H   0  0  0  0  0  0  0  0  0  0  0  0  # atno 6908 bound_to 6896
  150.7586  133.9383  159.3489 H   0  0  0  0  0  0  0  0  0  0  0  0  # atno 6909 bound_to 6896
  146.1944  140.3771  142.8446 H   0  0  0  0  0  0  0  0  0  0  0  0  # atno 7974 bound_to 7965
  154.9482  140.3062  155.5088 H   0  0  0  0  0  0  0  0  0  0  0  0  # atno 8008 bound_to 7997
  156.2989  140.2324  156.4495 H   0  0  0  0  0  0  0  0  0  0  0  0  # atno 8009 bound_to 7997
  154.8080  140.0430  157.1310 H   0  0  0  0  0  0  0  0  0  0  0  0  # atno 8010 bound_to 7997
  139.7767  143.8159  152.2633 H   0  0  0  0  0  0  0  0  0  0  0  0  # atno 10167 bound_to 10162
  157.3252  130.7469  149.6811 H   0  0  0  0  0  0  0  0  0  0  0  0  # atno 10718 bound_to 10713
  154.8735  135.4032  154.3258 H   0  0  0  0  0  0  0  0  0  0  0  0  # atno 10763 bound_to 10752
  153.4079  135.7020  153.6385 H   0  0  0  0  0  0  0  0  0  0  0  0  # atno 10764 bound_to 10752
  153.5100  135.3709  155.2552 H   0  0  0  0  0  0  0  0  0  0  0  0  # atno 10765 bound_to 10752
  140.1212  134.8862  157.2075 H   0  0  0  0  0  0  0  0  0  0  0  0  # atno 11005 bound_to 11000
  144.8550  140.7056  143.6144 LP  0  0  0  0  0  0  0  0  0  0  0  0  # atno 17320 bound_to 7965
  145.3692  139.1663  143.4341 LP  0  0  0  0  0  0  0  0  0  0  0  0  # atno 17321 bound_to 7965
  139.8210  144.7296  150.9573 LP  0  0  0  0  0  0  0  0  0  0  0  0  # atno 17342 bound_to 10162
  140.7816  143.4159  151.0918 LP  0  0  0  0  0  0  0  0  0  0  0  0  # atno 17343 bound_to 10162
  155.9690  130.4211  150.4455 LP  0  0  0  0  0  0  0  0  0  0  0  0  # atno 17370 bound_to 10713
  157.2477  131.0539  151.2398 LP  0  0  0  0  0  0  0  0  0  0  0  0  # atno 17371 bound_to 10713
  140.2962  134.3184  155.7302 LP  0  0  0  0  0  0  0  0  0  0  0  0  # atno 17394 bound_to 11000
  141.2152  133.7564  156.9575 LP  0  0  0  0  0  0  0  0  0  0  0  0  # atno 17395 bound_to 11000

$$$$
