AV-unprocessed.smi:287|AV-procd|sdf|2194|dock4
  -GOLD-   2262021593D 1   1.00000     0.00000
 Structure written by MMmdl.
 55 58  0  0  0  0  0  0  0  0  1 V2000
  142.3145  134.9484  163.0608 C   0  0  0  0  0  0  0  0  0  0  0  0
  143.7214  135.0303  162.5761 C   0  0  0  0  0  0  0  0  0  0  0  0
  144.5302  136.0606  162.1943 C   0  0  0  0  0  0  0  0  0  0  0  0
  145.7916  135.5010  161.8319 C   0  0  0  0  0  0  0  0  0  0  0  0
  147.0046  136.2805  161.3431 C   0  0  2  0  0  0  0  0  0  0  0  0
  147.8866  136.6747  162.5392 C   0  0  0  0  0  0  0  0  0  0  0  0
  146.6602  137.5001  160.7142 O   0  0  0  0  0  0  0  0  0  0  0  0
  147.8328  135.4823  160.3110 C   0  0  0  0  0  0  0  0  0  0  0  0
  147.0020  134.7649  159.3518 N   0  0  0  0  0  0  0  0  0  0  0  0
  147.5159  134.3024  158.1930 C   0  0  0  0  0  0  0  0  0  0  0  0
  148.8617  134.1484  158.1723 N   0  0  0  0  0  0  0  0  0  0  0  0
  149.4712  133.7000  157.0711 C   0  0  0  0  0  0  0  0  0  0  0  0
  148.9314  133.3538  155.9010 N   0  0  0  0  0  0  0  0  0  0  0  0
  147.5762  133.5068  155.9146 C   0  0  0  0  0  0  0  0  0  0  0  0
  146.7913  133.9676  157.0104 C   0  0  0  0  0  0  0  0  0  0  0  0
  145.4499  133.9744  156.6392 N   0  0  0  0  0  0  0  0  0  0  0  0
  145.4503  133.5480  155.4055 C   0  0  0  0  0  0  0  0  0  0  0  0
  146.6919  133.2467  154.8926 N   0  0  0  0  0  0  0  0  0  0  0  0
  147.0478  132.7325  153.5355 C   0  0  2  0  0  0  0  0  0  0  0  0
  146.3622  133.4856  152.5925 O   0  0  0  0  0  0  0  0  0  0  0  0
  146.2754  132.7135  151.4071 C   0  0  2  0  0  0  0  0  0  0  0  0
  145.1724  133.2866  150.5036 C   0  0  0  0  0  0  0  0  0  0  0  0
  145.5147  134.5857  150.0702 O   0  0  0  0  0  0  0  0  0  0  0  0
  146.0149  131.2862  151.9170 C   0  0  1  0  0  0  0  0  0  0  0  0
  146.6585  130.3470  151.0789 O   0  0  0  0  0  0  0  0  0  0  0  0
  146.6326  131.2637  153.3171 C   0  0  2  0  0  0  0  0  0  0  0  0
  145.7004  130.7817  154.2692 O   0  0  0  0  0  0  0  0  0  0  0  0
  145.6404  134.1474  162.0161 C   0  0  0  0  0  0  0  0  0  0  0  0
  146.5353  132.9672  161.8262 C   0  0  0  0  0  0  0  0  0  0  0  0
  144.3897  133.8547  162.4699 O   0  0  0  0  0  0  0  0  0  0  0  0
  148.1223  132.8952  153.4321 H   0  0  0  0  0  0  0  0  0  0  0  0
  147.2462  132.7769  150.9101 H   0  0  0  0  0  0  0  0  0  0  0  0
  144.9441  131.0792  151.9570 H   0  0  0  0  0  0  0  0  0  0  0  0
  147.5325  130.6491  153.3686 H   0  0  0  0  0  0  0  0  0  0  0  0
  141.9490  135.9306  163.3611 H   0  0  0  0  0  0  0  0  0  0  0  0
  142.2382  134.2830  163.9211 H   0  0  0  0  0  0  0  0  0  0  0  0
  141.6584  134.5681  162.2777 H   0  0  0  0  0  0  0  0  0  0  0  0
  144.2508  137.1037  162.1808 H   0  0  0  0  0  0  0  0  0  0  0  0
  148.2432  135.7944  163.0752 H   0  0  0  0  0  0  0  0  0  0  0  0
  147.3361  137.2908  163.2516 H   0  0  0  0  0  0  0  0  0  0  0  0
  148.7634  137.2399  162.2208 H   0  0  0  0  0  0  0  0  0  0  0  0
  146.1739  137.3052  159.9279 H   0  0  0  0  0  0  0  0  0  0  0  0
  148.5376  136.1325  159.7907 H   0  0  0  0  0  0  0  0  0  0  0  0
  148.4226  134.7389  160.8485 H   0  0  0  0  0  0  0  0  0  0  0  0
  146.0465  134.6047  159.6370 H   0  0  0  0  0  0  0  0  0  0  0  0
  150.5452  133.6067  157.1370 H   0  0  0  0  0  0  0  0  0  0  0  0
  144.5391  133.4373  154.8355 H   0  0  0  0  0  0  0  0  0  0  0  0
  144.9983  132.6433  149.6405 H   0  0  0  0  0  0  0  0  0  0  0  0
  144.2329  133.3484  151.0536 H   0  0  0  0  0  0  0  0  0  0  0  0
  145.7129  134.5519  149.1465 H   0  0  0  0  0  0  0  0  0  0  0  0
  147.5111  130.6856  150.8502 H   0  0  0  0  0  0  0  0  0  0  0  0
  145.1322  130.1597  153.8402 H   0  0  0  0  0  0  0  0  0  0  0  0
  146.9465  132.9523  160.8167 H   0  0  0  0  0  0  0  0  0  0  0  0
  145.9947  132.0330  161.9804 H   0  0  0  0  0  0  0  0  0  0  0  0
  147.3656  132.9958  162.5319 H   0  0  0  0  0  0  0  0  0  0  0  0
  1  2  1  0  0  0  0
  1 35  1  0  0  0  0
  1 36  1  0  0  0  0
  1 37  1  0  0  0  0
  2 30  1  0  0  0  0
  2  3  2  0  0  0  0
  3  4  1  0  0  0  0
  3 38  1  0  0  0  0
  4  5  1  0  0  0  0
  4 28  2  0  0  0  0
  5  6  1  0  0  0  0
  5  7  1  0  0  0  0
  5  8  1  0  0  0  0
  6 39  1  0  0  0  0
  6 40  1  0  0  0  0
  6 41  1  0  0  0  0
  7 42  1  0  0  0  0
  8  9  1  0  0  0  0
  8 43  1  0  0  0  0
  8 44  1  0  0  0  0
  9 10  1  0  0  0  0
  9 45  1  0  0  0  0
 10 15  1  0  0  0  0
 10 11  2  0  0  0  0
 11 12  1  0  0  0  0
 12 13  2  0  0  0  0
 12 46  1  0  0  0  0
 13 14  1  0  0  0  0
 14 18  1  0  0  0  0
 14 15  2  0  0  0  0
 15 16  1  0  0  0  0
 16 17  2  0  0  0  0
 17 18  1  0  0  0  0
 17 47  1  0  0  0  0
 18 19  1  0  0  0  0
 19 31  1  0  0  0  0
 19 26  1  0  0  0  0
 19 20  1  0  0  0  0
 20 21  1  0  0  0  0
 21 32  1  0  0  0  0
 21 22  1  0  0  0  0
 21 24  1  0  0  0  0
 22 23  1  0  0  0  0
 22 48  1  0  0  0  0
 22 49  1  0  0  0  0
 23 50  1  0  0  0  0
 24 33  1  0  0  0  0
 24 25  1  0  0  0  0
 24 26  1  0  0  0  0
 25 51  1  0  0  0  0
 26 34  1  0  0  0  0
 26 27  1  0  0  0  0
 27 52  1  0  0  0  0
 28 29  1  0  0  0  0
 28 30  1  0  0  0  0
 29 53  1  0  0  0  0
 29 54  1  0  0  0  0
 29 55  1  0  0  0  0
M  END
> <s_m_source_file>
AV-unprocessed.smi

> <i_m_source_file_index>
287

> <i_lp_mmshare_version>
43012

> <i_f3d_flags>
0

> <s_epik_input>
W0NIM11jMVtjSF1jKGMobzEpW0NIM10pW0NAQF0oW0NIM10pKFtPSF0pW0NIMl1bTkhdYyhuW2NIXW4yKWMoYzIzKW5bY0hdbjNbQ0BASF00T1tDQEhdKFtDSDJdW09IXSlbQ0BASF0oW09IXSlbQ0BIXTRbT0hd

> <s_epik_cmdline>
J2VwaWtfcHl0aG9uJywgJy1waCcsICc3LjAnLCAnLXRuJywgJzgnLCAnLW1hJywgJzIwMCcsICctbWV0YWxfYmluZGluZycsICctaW1hZScsICc8aW5maWxlLm1hZT4nLCAnLW9tYWUnLCAnPG91dGZpbGUubWFlPic=

> <r_lp_tautomer_probability>
1

> <r_epik_Ionization_Penalty>
0.000992612

> <r_epik_Ionization_Penalty_Charging>
0

> <r_epik_Ionization_Penalty_Neutral>
0.000992612

> <r_epik_State_Penalty>
-0

> <r_epik_Charging_Adjusted_Penalty>
0

> <i_epik_Tot_Q>
0

> <i_epik_Tot_abs_Q>
0

> <r_epik_Metal_State_Penalty>
-0

> <b_epik_Metal_Only>
0

> <s_epik_Chemistry_Notes>
This compound contains an acetal/aminal-like group ( X-CH(R)-Y where X, Y are N, S, or O) that may be acid/base labile, releasing an aldehyde.

> <s_lp_Force_Field>
OPLS_2005

> <r_lp_Energy>
43.2107

> <b_lp_Chiralities_Consistent>
1

> <s_lp_Variant>
AV-unprocessed.smi:287-18

> <Gold.Version>
5.8.1

> <Gold.Id.Protein>
6NUR|6NUR_protein|mol2

> <Gold.PLP.Fitness>
51.0836

> <Gold.PLP.PLP>
-39.4059

> <Gold.PLP.part.hbond>
-4.7006

> <Gold.PLP.part.metal>
0.0000

> <Gold.PLP.part.buried>
-6.1083

> <Gold.PLP.part.nonpolar>
-29.5397

> <Gold.PLP.part.repulsive>
0.2782

> <Gold.PLP.ligand.clash>
0.0000

> <Gold.PLP.ligand.torsion>
1.8661

> <Gold.PLP.Chemscore.Hbond>
4.1062

> <Gold.PLP.Chemscore.CHOScore>
1.0000

> <Gold.PLP.Chemscore.Metal>
0.0000

> <Gold.Chemscore.Hbonds>
donor molecule, donor type, donor heavy atom, donor atom, acceptor molecule, acceptor atom, score
      L1  H    23    50       P1  7921  1.00
      L1  H    25    51       P1 10747  1.00
      L1  H    27    52       P1 10956  0.22
      P1  H  6896  6909       L1    11  0.45
      P1  H  6934  6947       L1     7  1.00
      L1  C    17    47       P1 10957  1.00

> <Gold.PLP.Chemscore.Internal.Correction>
0.0914

> <Gold.Rescore>
     Score         DG    S(hbond)    S(metal)    S(lipo)     H(rot)  DE(clash)    DE(int)     intcor
     10.33     -13.99       3.31        0.00      93.43       5.27       0.02       3.63       ----

> <Gold.Chemscore.Fitness>
10.3269

> <Gold.Chemscore.DG>
-13.9856

> <Gold.Chemscore.ZeroCoef>
-5.4800

> <Gold.Chemscore.Hbond>
3.3109

> <Gold.Chemscore.Metal>
0.0000

> <Gold.Chemscore.Lipo>
93.4291

> <Gold.Chemscore.Internal_Hbond>
0.0000

> <Gold.Chemscore.DEClash>
0.0249

> <Gold.Chemscore.DEInternal>
3.6339

> <Gold.Chemscore.Rot>
5.2672

> <Gold.Chemscore.Internal.Correction>
   9.000000E+99

> <Gold.Chemscore.Hbonds>
donor molecule, donor type, donor heavy atom, donor atom, acceptor molecule, acceptor atom, score
      L1  H    23    50       P1  7921  0.89
      L1  H    25    51       P1 10747  0.97
      L1  H    27    52       P1 10956  0.03
      P1  H  6896  6909       L1    11  0.04
      P1  H  6934  6947       L1     7  0.94

> <Gold.Chemscore.Hbond.Weighted>
-11.0583

> <Gold.Chemscore.Metal.Weighted>
-0.0000

> <Gold.Chemscore.Lipo.Weighted>
-10.9312

> <Gold.Chemscore.Internal_Hbond.Weighted>
0.0000

> <Gold.Chemscore.DEClash.Weighted>
0.0249

> <Gold.Chemscore.DEInternal.Weighted>
3.6339

> <Gold.Chemscore.Rot.Weighted>
13.4839

> <Gold.Chemscore.Internal.Correction.Weighted>
   9.000000E+99

> <Gold.Protein.RotatedTorsions>
[ 6907 6896 6895 6894 ] final   17.25 input  -60.11 | X-H torsion
[ 7974 7965 7964 7962 ] final  -47.35 input  175.53 | X-H torsion
[ 8008 7997 7996 7995 ] final  135.26 input   59.86 | X-H torsion
[ 10167 10162 10161 10158 ] final   48.46 input  -65.29 | X-H torsion
[ 10718 10713 10712 10709 ] final   85.33 input   66.30 | X-H torsion
[ 10763 10752 10751 10750 ] final   10.54 input  -60.55 | X-H torsion
[ 11005 11000 10999 10996 ] final  -91.16 input  -57.11 | X-H torsion

> <Gold.Protein.ActiveResidues>
 VAL166  LYS551  ARG553  GLY616  TRP617  ASP618  TYR619  PRO620  LYS621  CYS622 
 ASP623  PHE694  ASN695  SER759  ASP760  ASP761  ALA762  ILE779  LEU786  VAL792 
 PHE793  MET794  SER795  GLU796  ALA797  LYS798  CYS799  TRP800  GLU811  SER814 

> <Gold.Protein.RotatedAtoms>
  151.8466  135.0572  160.0453 H   0  0  0  0  0  0  0  0  0  0  0  0  # atno 6907 bound_to 6896
  152.2768  133.5429  159.5481 H   0  0  0  0  0  0  0  0  0  0  0  0  # atno 6908 bound_to 6896
  150.7173  134.0536  159.3849 H   0  0  0  0  0  0  0  0  0  0  0  0  # atno 6909 bound_to 6896
  145.9625  140.7464  142.9450 H   0  0  0  0  0  0  0  0  0  0  0  0  # atno 7974 bound_to 7965
  156.3002  140.2475  156.3552 H   0  0  0  0  0  0  0  0  0  0  0  0  # atno 8008 bound_to 7997
  154.8928  140.0408  157.1868 H   0  0  0  0  0  0  0  0  0  0  0  0  # atno 8009 bound_to 7997
  154.8580  140.2916  155.5561 H   0  0  0  0  0  0  0  0  0  0  0  0  # atno 8010 bound_to 7997
  140.2930  144.3023  150.6236 H   0  0  0  0  0  0  0  0  0  0  0  0  # atno 10167 bound_to 10162
  157.6913  131.0170  150.2806 H   0  0  0  0  0  0  0  0  0  0  0  0  # atno 10718 bound_to 10713
  153.2021  135.6857  153.8218 H   0  0  0  0  0  0  0  0  0  0  0  0  # atno 10763 bound_to 10752
  153.7481  135.3228  155.3317 H   0  0  0  0  0  0  0  0  0  0  0  0  # atno 10764 bound_to 10752
  154.8177  135.4674  154.0792 H   0  0  0  0  0  0  0  0  0  0  0  0  # atno 10765 bound_to 10752
  141.1550  133.7738  156.9840 H   0  0  0  0  0  0  0  0  0  0  0  0  # atno 11005 bound_to 11000
  144.6818  140.2615  143.7318 LP  0  0  0  0  0  0  0  0  0  0  0  0  # atno 17320 bound_to 7965
  145.8019  139.1968  143.2043 LP  0  0  0  0  0  0  0  0  0  0  0  0  # atno 17321 bound_to 7965
  140.5716  143.2180  151.7589 LP  0  0  0  0  0  0  0  0  0  0  0  0  # atno 17342 bound_to 10162
  139.4933  144.4209  151.9979 LP  0  0  0  0  0  0  0  0  0  0  0  0  # atno 17343 bound_to 10162
  156.3353  130.3807  149.7455 LP  0  0  0  0  0  0  0  0  0  0  0  0  # atno 17370 bound_to 10713
  156.4982  130.8116  151.3122 LP  0  0  0  0  0  0  0  0  0  0  0  0  # atno 17371 bound_to 10713
  140.1047  134.9514  157.1975 LP  0  0  0  0  0  0  0  0  0  0  0  0  # atno 17394 bound_to 11000
  140.3272  134.2850  155.7234 LP  0  0  0  0  0  0  0  0  0  0  0  0  # atno 17395 bound_to 11000

$$$$
