AV-unprocessed.smi:1718|AV-procd|sdf|6929|dock7
  -GOLD-   22720 8143D 1   1.00000     0.00000
 Structure written by MMmdl.
 39 40  0  0  0  0  0  0  0  0  2 V2000
  148.6129  140.6631  155.5703 C   0  0  0  0  0  0  0  0  0  0  0  0
  149.4826  140.2397  156.7635 C   0  0  1  0  0  0  0  0  0  0  0  0
  149.7079  141.3965  157.5640 O   0  0  0  0  0  0  0  0  0  0  0  0
  150.7658  142.2423  157.1277 C   0  0  0  0  0  0  0  0  0  0  0  0
  151.4244  142.8807  158.3559 C   0  0  1  0  0  0  0  0  0  0  0  0
  152.2602  144.1209  158.0400 C   0  0  0  0  0  0  0  0  0  0  0  0
  152.2111  144.8644  159.3548 C   0  0  0  0  0  0  0  0  0  0  0  0
  150.7774  144.6002  159.8041 C   0  0  0  0  0  0  0  0  0  0  0  0
  150.4332  143.3195  159.2818 O   0  0  0  0  0  0  0  0  0  0  0  0
  148.7964  139.1454  157.5971 C   0  0  0  0  0  0  0  0  0  0  0  0
  147.7661  139.4128  158.2155 O   0  0  0  0  0  0  0  0  0  0  0  0
  149.4029  137.9424  157.5797 N   0  0  0  0  0  0  0  0  0  0  0  0
  149.0686  136.7650  158.2693 C   0  0  0  0  0  0  0  0  0  0  0  0
  148.4629  136.7255  159.4883 C   0  0  0  0  0  0  0  0  0  0  0  0
  148.1548  135.4725  160.1660 C   0  0  0  0  0  0  0  0  0  0  0  0
  147.3878  135.3876  161.4737 C   0  0  0  0  0  0  0  0  0  0  0  0
  147.1671  134.1187  161.8186 F   0  0  0  0  0  0  0  0  0  0  0  0
  148.0869  135.9673  162.4483 F   0  0  0  0  0  0  0  0  0  0  0  0
  146.2119  136.0086  161.3795 F   0  0  0  0  0  0  0  0  0  0  0  0
  148.5421  134.3696  159.4297 C   0  0  0  0  0  0  0  0  0  0  0  0
  149.1719  134.3222  158.2353 N   0  5  0  0  0  0  0  0  0  0  0  0
  149.4539  135.5001  157.6101 C   0  0  0  0  0  0  0  0  0  0  0  0
  150.0193  135.5299  156.5164 O   0  0  0  0  0  0  0  0  0  0  0  0
  148.3841  139.8138  154.9257 H   0  0  0  0  0  0  0  0  0  0  0  0
  149.1274  141.4076  154.9628 H   0  0  0  0  0  0  0  0  0  0  0  0
  147.6689  141.1013  155.8966 H   0  0  0  0  0  0  0  0  0  0  0  0
  150.4364  139.8735  156.3784 H   0  0  0  0  0  0  0  0  0  0  0  0
  151.5124  141.6965  156.5499 H   0  0  0  0  0  0  0  0  0  0  0  0
  150.3601  143.0211  156.4804 H   0  0  0  0  0  0  0  0  0  0  0  0
  152.0451  142.1458  158.8709 H   0  0  0  0  0  0  0  0  0  0  0  0
  153.2743  143.8799  157.7202 H   0  0  0  0  0  0  0  0  0  0  0  0
  151.7884  144.7173  157.2576 H   0  0  0  0  0  0  0  0  0  0  0  0
  152.9157  144.4235  160.0614 H   0  0  0  0  0  0  0  0  0  0  0  0
  152.4397  145.9260  159.2584 H   0  0  0  0  0  0  0  0  0  0  0  0
  150.6685  144.6317  160.8884 H   0  0  0  0  0  0  0  0  0  0  0  0
  150.1024  145.3411  159.3738 H   0  0  0  0  0  0  0  0  0  0  0  0
  150.1971  137.8511  156.9626 H   0  0  0  0  0  0  0  0  0  0  0  0
  148.2093  137.6344  160.0089 H   0  0  0  0  0  0  0  0  0  0  0  0
  148.3051  133.3747  159.8636 H   0  0  0  0  0  0  0  0  0  0  0  0
  1  2  1  0  0  0  0
  1 24  1  0  0  0  0
  1 25  1  0  0  0  0
  1 26  1  0  0  0  0
  2  3  1  0  0  0  0
  2 10  1  0  0  0  0
  2 27  1  0  0  0  0
  3  4  1  0  0  0  0
  4  5  1  0  0  0  0
  4 28  1  0  0  0  0
  4 29  1  0  0  0  0
  5  9  1  0  0  0  0
  5  6  1  0  0  0  0
  5 30  1  0  0  0  0
  6  7  1  0  0  0  0
  6 31  1  0  0  0  0
  6 32  1  0  0  0  0
  7  8  1  0  0  0  0
  7 33  1  0  0  0  0
  7 34  1  0  0  0  0
  8  9  1  0  0  0  0
  8 35  1  0  0  0  0
  8 36  1  0  0  0  0
 10 11  2  0  0  0  0
 10 12  1  0  0  0  0
 12 13  1  0  0  0  0
 12 37  1  0  0  0  0
 13 22  1  0  0  0  0
 13 14  2  0  0  0  0
 14 15  1  0  0  0  0
 14 38  1  0  0  0  0
 15 16  1  0  0  0  0
 15 20  2  0  0  0  0
 16 17  1  0  0  0  0
 16 18  1  0  0  0  0
 16 19  1  0  0  0  0
 20 21  1  0  0  0  0
 20 39  1  0  0  0  0
 21 22  1  0  0  0  0
 22 23  2  0  0  0  0
M  CHG  1  21  -1
M  END
> <s_m_source_file>
AV-unprocessed.smi

> <i_m_source_file_index>
1718

> <i_lp_mmshare_version>
43012

> <i_f3d_flags>
0

> <s_epik_input>
TzFbQ0gyXVtDSDJdW0NIMl1bQ0BIXTFbQ0gyXU9bQ0BASF0oW0NIM10pQyg9TylbTkhdYzJbY0hdYyhDKEYpKEYpRilbY0hdW25IXWMyPU8=

> <s_epik_cmdline>
J2VwaWtfcHl0aG9uJywgJy1waCcsICc3LjAnLCAnLXRuJywgJzgnLCAnLW1hJywgJzIwMCcsICctbWV0YWxfYmluZGluZycsICctaW1hZScsICc8aW5maWxlLm1hZT4nLCAnLW9tYWUnLCAnPG91dGZpbGUubWFlPic=

> <r_epik_Ionization_Penalty>
2.5466

> <r_epik_Ionization_Penalty_Charging>
0.0575837

> <r_epik_Ionization_Penalty_Neutral>
2.48901

> <r_epik_State_Penalty>
2.6532

> <r_epik_Charging_Adjusted_Penalty>
2.71078

> <i_epik_Tot_Q>
-1

> <i_epik_Tot_abs_Q>
1

> <r_epik_Metal_State_Penalty>
0.516196

> <b_epik_Metal_Only>
0

> <s_lp_Force_Field>
OPLS_2005

> <r_lp_Energy>
35.9934

> <b_lp_Chiralities_Consistent>
1

> <s_lp_Variant>
AV-unprocessed.smi:1718-8

> <Gold.Version>
5.8.1

> <Gold.Id.Protein>
6NUR|6NUR_protein|mol2

> <Gold.PLP.Fitness>
45.5888

> <Gold.PLP.PLP>
-41.3033

> <Gold.PLP.part.hbond>
-2.0000

> <Gold.PLP.part.metal>
0.0000

> <Gold.PLP.part.buried>
-3.9600

> <Gold.PLP.part.nonpolar>
-35.2449

> <Gold.PLP.part.repulsive>
0.2844

> <Gold.PLP.ligand.clash>
0.0000

> <Gold.PLP.ligand.torsion>
0.9227

> <Gold.PLP.Chemscore.Hbond>
2.0000

> <Gold.PLP.Chemscore.CHOScore>
0.0000

> <Gold.PLP.Chemscore.Metal>
0.0000

> <Gold.Chemscore.Hbonds>
donor molecule, donor type, donor heavy atom, donor atom, acceptor molecule, acceptor atom, score
      P1  H  6896  6908       L1    21  0.20

> <Gold.PLP.Chemscore.Internal.Correction>
0.1310

> <Gold.Rescore>
     Score         DG    S(hbond)    S(metal)    S(lipo)     H(rot)  DE(clash)    DE(int)     intcor
     10.94     -12.86       0.42        0.00      91.37       1.85       0.24       1.68       ----

> <Gold.Chemscore.Fitness>
10.9373

> <Gold.Chemscore.DG>
-12.8588

> <Gold.Chemscore.ZeroCoef>
-5.4800

> <Gold.Chemscore.Hbond>
0.4230

> <Gold.Chemscore.Metal>
0.0000

> <Gold.Chemscore.Lipo>
91.3715

> <Gold.Chemscore.Internal_Hbond>
0.0000

> <Gold.Chemscore.DEClash>
0.2411

> <Gold.Chemscore.DEInternal>
1.6804

> <Gold.Chemscore.Rot>
1.8455

> <Gold.Chemscore.Internal.Correction>
   9.000000E+99

> <Gold.Chemscore.Hbond.Weighted>
-1.4128

> <Gold.Chemscore.Metal.Weighted>
-0.0000

> <Gold.Chemscore.Lipo.Weighted>
-10.6905

> <Gold.Chemscore.Internal_Hbond.Weighted>
0.0000

> <Gold.Chemscore.DEClash.Weighted>
0.2411

> <Gold.Chemscore.DEInternal.Weighted>
1.6804

> <Gold.Chemscore.Rot.Weighted>
4.7245

> <Gold.Chemscore.Internal.Correction.Weighted>
   9.000000E+99

> <Gold.Protein.RotatedTorsions>
[ 6907 6896 6895 6894 ] final  135.47 input  -60.11 | X-H torsion
[ 7974 7965 7964 7962 ] final   77.97 input  175.53 | X-H torsion
[ 8008 7997 7996 7995 ] final   24.43 input   59.86 | X-H torsion
[ 10167 10162 10161 10158 ] final -164.36 input  -65.29 | X-H torsion
[ 10718 10713 10712 10709 ] final  171.99 input   66.30 | X-H torsion
[ 10763 10752 10751 10750 ] final -143.04 input  -60.55 | X-H torsion
[ 11005 11000 10999 10996 ] final  -20.15 input  -57.11 | X-H torsion

> <Gold.Protein.ActiveResidues>
 VAL166  LYS551  ARG553  GLY616  TRP617  ASP618  TYR619  PRO620  LYS621  CYS622 
 ASP623  PHE694  ASN695  SER759  ASP760  ASP761  ALA762  ILE779  LEU786  VAL792 
 PHE793  MET794  SER795  GLU796  ALA797  LYS798  CYS799  TRP800  GLU811  SER814 

> <Gold.Protein.RotatedAtoms>
  152.3000  133.5646  159.5612 H   0  0  0  0  0  0  0  0  0  0  0  0  # atno 6907 bound_to 6896
  150.7273  134.0305  159.3740 H   0  0  0  0  0  0  0  0  0  0  0  0  # atno 6908 bound_to 6896
  151.8205  135.0653  160.0475 H   0  0  0  0  0  0  0  0  0  0  0  0  # atno 6909 bound_to 6896
  145.6832  139.2530  143.1802 H   0  0  0  0  0  0  0  0  0  0  0  0  # atno 7974 bound_to 7965
  154.9962  140.3119  155.4886 H   0  0  0  0  0  0  0  0  0  0  0  0  # atno 8008 bound_to 7997
  156.2932  140.2240  156.5010 H   0  0  0  0  0  0  0  0  0  0  0  0  # atno 8009 bound_to 7997
  154.7659  140.0456  157.1000 H   0  0  0  0  0  0  0  0  0  0  0  0  # atno 8010 bound_to 7997
  139.6256  144.0539  152.1972 H   0  0  0  0  0  0  0  0  0  0  0  0  # atno 10167 bound_to 10162
  156.9855  131.0132  151.2870 H   0  0  0  0  0  0  0  0  0  0  0  0  # atno 10718 bound_to 10713
  154.8485  135.3479  154.6125 H   0  0  0  0  0  0  0  0  0  0  0  0  # atno 10763 bound_to 10752
  153.6733  135.6984  153.5145 H   0  0  0  0  0  0  0  0  0  0  0  0  # atno 10764 bound_to 10752
  153.2725  135.4288  155.0958 H   0  0  0  0  0  0  0  0  0  0  0  0  # atno 10765 bound_to 10752
  140.8436  133.7908  155.9888 H   0  0  0  0  0  0  0  0  0  0  0  0  # atno 11005 bound_to 11000
  146.0946  140.7615  142.9578 LP  0  0  0  0  0  0  0  0  0  0  0  0  # atno 17320 bound_to 7965
  144.7019  140.3691  143.7149 LP  0  0  0  0  0  0  0  0  0  0  0  0  # atno 17321 bound_to 7965
  140.0191  144.6166  150.7581 LP  0  0  0  0  0  0  0  0  0  0  0  0  # atno 17342 bound_to 10162
  140.7409  143.2810  151.3598 LP  0  0  0  0  0  0  0  0  0  0  0  0  # atno 17343 bound_to 10162
  157.5496  130.8173  149.8128 LP  0  0  0  0  0  0  0  0  0  0  0  0  # atno 17370 bound_to 10713
  156.0227  130.3790  150.1913 LP  0  0  0  0  0  0  0  0  0  0  0  0  # atno 17371 bound_to 10713
  140.8868  134.2544  157.5116 LP  0  0  0  0  0  0  0  0  0  0  0  0  # atno 17394 bound_to 11000
  139.8703  134.9642  156.4487 LP  0  0  0  0  0  0  0  0  0  0  0  0  # atno 17395 bound_to 11000

$$$$
