AV-unprocessed.smi:506|AV-procd|sdf|2751|dock5
  -GOLD-   2262023213D 1   1.00000     0.00000
 Structure written by MMmdl.
 41 43  0  0  0  0  0  0  0  0  2 V2000
  148.3100  133.0580  153.2453 C   0  0  0  0  0  0  0  0  0  0  0  0
  149.2260  132.9137  154.3209 O   0  0  0  0  0  0  0  0  0  0  0  0
  149.6668  134.0557  154.9545 C   0  0  0  0  0  0  0  0  0  0  0  0
  150.7799  133.9267  155.8079 C   0  0  0  0  0  0  0  0  0  0  0  0
  151.2977  135.0432  156.4908 C   0  0  0  0  0  0  0  0  0  0  0  0
  150.7149  136.3164  156.3373 C   0  0  0  0  0  0  0  0  0  0  0  0
  151.2881  137.3564  157.0370 O   0  0  0  0  0  0  0  0  0  0  0  0
  150.7751  138.6651  156.8347 C   0  0  0  0  0  0  0  0  0  0  0  0
  151.9300  139.6650  156.9659 C   0  0  0  0  0  0  0  0  0  0  0  0
  151.4489  141.0513  157.0154 N   0  0  0  0  0  0  0  0  0  0  0  0
  150.5743  141.7098  156.2020 C   0  0  0  0  0  0  0  0  0  0  0  0
  149.8681  141.1421  155.0118 C   0  0  0  0  0  0  0  0  0  0  0  0
  149.0361  142.0775  154.3583 O   0  0  0  0  0  0  0  0  0  0  0  0
  150.4642  142.9828  156.6795 N   0  3  0  0  0  0  0  0  0  0  0  0
  151.2683  143.1370  157.8092 C   0  0  0  0  0  0  0  0  0  0  0  0
  151.4833  144.2379  158.6327 C   0  0  0  0  0  0  0  0  0  0  0  0
  152.3699  144.0553  159.7144 C   0  0  0  0  0  0  0  0  0  0  0  0
  153.0021  142.8159  159.9448 C   0  0  0  0  0  0  0  0  0  0  0  0
  152.7769  141.7070  159.1024 C   0  0  0  0  0  0  0  0  0  0  0  0
  151.9013  141.8974  158.0336 C   0  0  0  0  0  0  0  0  0  0  0  0
  149.5918  136.4505  155.4841 C   0  0  0  0  0  0  0  0  0  0  0  0
  149.0743  135.3332  154.8000 C   0  0  0  0  0  0  0  0  0  0  0  0
  148.0624  132.0732  152.8493 H   0  0  0  0  0  0  0  0  0  0  0  0
  148.7405  133.6424  152.4308 H   0  0  0  0  0  0  0  0  0  0  0  0
  147.3801  133.5245  153.5733 H   0  0  0  0  0  0  0  0  0  0  0  0
  151.2446  132.9605  155.9394 H   0  0  0  0  0  0  0  0  0  0  0  0
  152.1537  134.9205  157.1380 H   0  0  0  0  0  0  0  0  0  0  0  0
  150.3314  138.7488  155.8414 H   0  0  0  0  0  0  0  0  0  0  0  0
  150.0033  138.8850  157.5740 H   0  0  0  0  0  0  0  0  0  0  0  0
  152.5283  139.4634  157.8551 H   0  0  0  0  0  0  0  0  0  0  0  0
  152.6035  139.5757  156.1130 H   0  0  0  0  0  0  0  0  0  0  0  0
  150.6074  140.7684  154.3029 H   0  0  0  0  0  0  0  0  0  0  0  0
  149.2612  140.2928  155.3269 H   0  0  0  0  0  0  0  0  0  0  0  0
  148.8888  142.8070  154.9412 H   0  0  0  0  0  0  0  0  0  0  0  0
  150.9986  145.1876  158.4594 H   0  0  0  0  0  0  0  0  0  0  0  0
  152.5685  144.8817  160.3815 H   0  0  0  0  0  0  0  0  0  0  0  0
  153.6735  142.7134  160.7849 H   0  0  0  0  0  0  0  0  0  0  0  0
  153.2646  140.7616  159.2886 H   0  0  0  0  0  0  0  0  0  0  0  0
  149.1070  137.4031  155.3350 H   0  0  0  0  0  0  0  0  0  0  0  0
  148.2190  135.4843  154.1591 H   0  0  0  0  0  0  0  0  0  0  0  0
  149.8744  143.6897  156.2590 H   0  0  0  0  0  0  0  0  0  0  0  0
  1  2  1  0  0  0  0
  1 23  1  0  0  0  0
  1 24  1  0  0  0  0
  1 25  1  0  0  0  0
  2  3  1  0  0  0  0
  3 22  1  0  0  0  0
  3  4  2  0  0  0  0
  4  5  1  0  0  0  0
  4 26  1  0  0  0  0
  5  6  2  0  0  0  0
  5 27  1  0  0  0  0
  6  7  1  0  0  0  0
  6 21  1  0  0  0  0
  7  8  1  0  0  0  0
  8  9  1  0  0  0  0
  8 28  1  0  0  0  0
  8 29  1  0  0  0  0
  9 10  1  0  0  0  0
  9 30  1  0  0  0  0
  9 31  1  0  0  0  0
 10 20  1  0  0  0  0
 10 11  1  0  0  0  0
 11 12  1  0  0  0  0
 11 14  2  0  0  0  0
 12 13  1  0  0  0  0
 12 32  1  0  0  0  0
 12 33  1  0  0  0  0
 13 34  1  0  0  0  0
 14 15  1  0  0  0  0
 14 41  1  0  0  0  0
 15 20  2  0  0  0  0
 15 16  1  0  0  0  0
 16 17  2  0  0  0  0
 16 35  1  0  0  0  0
 17 18  1  0  0  0  0
 17 36  1  0  0  0  0
 18 19  2  0  0  0  0
 18 37  1  0  0  0  0
 19 20  1  0  0  0  0
 19 38  1  0  0  0  0
 21 22  2  0  0  0  0
 21 39  1  0  0  0  0
 22 40  1  0  0  0  0
M  CHG  1  14   1
M  END
> <s_m_source_file>
AV-unprocessed.smi

> <i_m_source_file_index>
506

> <i_lp_mmshare_version>
43012

> <i_f3d_flags>
0

> <s_epik_input>
W0NIM11PYzFbY0hdW2NIXWMoW2NIXVtjSF0xKU9bQ0gyXVtDSDJdbihjKG4yKVtDSDJdW09IXSljKGMyMylbY0hdW2NIXVtjSF1bY0hdMw==

> <s_epik_cmdline>
J2VwaWtfcHl0aG9uJywgJy1waCcsICc3LjAnLCAnLXRuJywgJzgnLCAnLW1hJywgJzIwMCcsICctbWV0YWxfYmluZGluZycsICctaW1hZScsICc8aW5maWxlLm1hZT4nLCAnLW9tYWUnLCAnPG91dGZpbGUubWFlPic=

> <r_lp_tautomer_probability>
1

> <r_epik_Ionization_Penalty>
1.51027

> <r_epik_Ionization_Penalty_Charging>
1.50942

> <r_epik_Ionization_Penalty_Neutral>
0.000855784

> <r_epik_State_Penalty>
1.60032

> <r_epik_Charging_Adjusted_Penalty>
3.10973

> <i_epik_Tot_Q>
1

> <i_epik_Tot_abs_Q>
1

> <r_epik_Metal_State_Penalty>
5.65193

> <b_epik_Metal_Only>
0

> <s_lp_Force_Field>
OPLS_2005

> <r_lp_Energy>
22.2088

> <b_lp_Chiralities_Consistent>
1

> <s_lp_Variant>
AV-unprocessed.smi:506-2

> <Gold.Version>
5.8.1

> <Gold.Id.Protein>
6NUR|6NUR_protein|mol2

> <Gold.PLP.Fitness>
51.6578

> <Gold.PLP.PLP>
-43.0692

> <Gold.PLP.part.hbond>
-3.0000

> <Gold.PLP.part.metal>
0.0000

> <Gold.PLP.part.buried>
-4.3780

> <Gold.PLP.part.nonpolar>
-35.3286

> <Gold.PLP.part.repulsive>
0.1386

> <Gold.PLP.ligand.clash>
0.0000

> <Gold.PLP.ligand.torsion>
0.5177

> <Gold.PLP.Chemscore.Hbond>
3.2020

> <Gold.PLP.Chemscore.CHOScore>
0.0000

> <Gold.PLP.Chemscore.Metal>
0.0000

> <Gold.Chemscore.Hbonds>
donor molecule, donor type, donor heavy atom, donor atom, acceptor molecule, acceptor atom, score
      L1  H    13    34       P1  8028  1.00
      L1  H    14    41       P1  8028  2.00
      P1  H  8011  8017       L1    13  0.21

> <Gold.PLP.Chemscore.Internal.Correction>
0.0179

> <Gold.Rescore>
     Score         DG    S(hbond)    S(metal)    S(lipo)     H(rot)  DE(clash)    DE(int)     intcor
     19.05     -19.68       2.18        0.00     114.87       2.54       0.18       0.46       ----

> <Gold.Chemscore.Fitness>
19.0521

> <Gold.Chemscore.DG>
-19.6835

> <Gold.Chemscore.ZeroCoef>
-5.4800

> <Gold.Chemscore.Hbond>
2.1777

> <Gold.Chemscore.Metal>
0.0000

> <Gold.Chemscore.Lipo>
114.8727

> <Gold.Chemscore.Internal_Hbond>
0.0000

> <Gold.Chemscore.DEClash>
0.1763

> <Gold.Chemscore.DEInternal>
0.4550

> <Gold.Chemscore.Rot>
2.5431

> <Gold.Chemscore.Internal.Correction>
   9.000000E+99

> <Gold.Chemscore.Hbonds>
donor molecule, donor type, donor heavy atom, donor atom, acceptor molecule, acceptor atom, score
      L1  H    13    34       P1  8028  0.93
      L1  H    14    41       P1  8028  0.94
      P1  H  8011  8017       L1    13  0.15

> <Gold.Chemscore.Hbond.Weighted>
-7.2737

> <Gold.Chemscore.Metal.Weighted>
-0.0000

> <Gold.Chemscore.Lipo.Weighted>
-13.4401

> <Gold.Chemscore.Internal_Hbond.Weighted>
0.0000

> <Gold.Chemscore.DEClash.Weighted>
0.1763

> <Gold.Chemscore.DEInternal.Weighted>
0.4550

> <Gold.Chemscore.Rot.Weighted>
6.5103

> <Gold.Chemscore.Internal.Correction.Weighted>
   9.000000E+99

> <Gold.Protein.RotatedTorsions>
[ 6907 6896 6895 6894 ] final   26.81 input  -60.11 | X-H torsion
[ 7974 7965 7964 7962 ] final  148.67 input  175.53 | X-H torsion
[ 8008 7997 7996 7995 ] final   94.17 input   59.86 | X-H torsion
[ 10167 10162 10161 10158 ] final  -36.72 input  -65.29 | X-H torsion
[ 10718 10713 10712 10709 ] final  -89.59 input   66.30 | X-H torsion
[ 10763 10752 10751 10750 ] final   49.26 input  -60.55 | X-H torsion
[ 11005 11000 10999 10996 ] final  110.25 input  -57.11 | X-H torsion

> <Gold.Protein.ActiveResidues>
 VAL166  LYS551  ARG553  GLY616  TRP617  ASP618  TYR619  PRO620  LYS621  CYS622 
 ASP623  PHE694  ASN695  SER759  ASP760  ASP761  ALA762  ILE779  LEU786  VAL792 
 PHE793  MET794  SER795  GLU796  ALA797  LYS798  CYS799  TRP800  GLU811  SER814 

> <Gold.Protein.RotatedAtoms>
  151.9929  134.9969  160.0561 H   0  0  0  0  0  0  0  0  0  0  0  0  # atno 6907 bound_to 6896
  152.1591  133.4565  159.4860 H   0  0  0  0  0  0  0  0  0  0  0  0  # atno 6908 bound_to 6896
  150.6885  134.2012  159.4366 H   0  0  0  0  0  0  0  0  0  0  0  0  # atno 6909 bound_to 6896
  144.8496  139.6183  143.5980 H   0  0  0  0  0  0  0  0  0  0  0  0  # atno 7974 bound_to 7965
  156.0549  140.3303  155.7394 H   0  0  0  0  0  0  0  0  0  0  0  0  # atno 8008 bound_to 7997
  155.5544  140.0613  157.2860 H   0  0  0  0  0  0  0  0  0  0  0  0  # atno 8009 bound_to 7997
  154.4453  140.1888  156.0707 H   0  0  0  0  0  0  0  0  0  0  0  0  # atno 8010 bound_to 7997
  140.7136  143.3390  151.2399 H   0  0  0  0  0  0  0  0  0  0  0  0  # atno 10167 bound_to 10162
  155.9985  130.4878  150.5194 H   0  0  0  0  0  0  0  0  0  0  0  0  # atno 10718 bound_to 10713
  152.9787  135.5917  154.4060 H   0  0  0  0  0  0  0  0  0  0  0  0  # atno 10763 bound_to 10752
  154.3700  135.2767  155.2273 H   0  0  0  0  0  0  0  0  0  0  0  0  # atno 10764 bound_to 10752
  154.4233  135.6054  153.6078 H   0  0  0  0  0  0  0  0  0  0  0  0  # atno 10765 bound_to 10752
  139.8878  134.9479  156.6250 H   0  0  0  0  0  0  0  0  0  0  0  0  # atno 11005 bound_to 11000
  146.2774  139.6787  142.9253 LP  0  0  0  0  0  0  0  0  0  0  0  0  # atno 17320 bound_to 7965
  145.4526  141.0429  143.2796 LP  0  0  0  0  0  0  0  0  0  0  0  0  # atno 17321 bound_to 7965
  139.6892  143.9720  152.2850 LP  0  0  0  0  0  0  0  0  0  0  0  0  # atno 17342 bound_to 10162
  139.9376  144.6702  150.8299 LP  0  0  0  0  0  0  0  0  0  0  0  0  # atno 17343 bound_to 10162
  157.3157  131.0672  151.1969 LP  0  0  0  0  0  0  0  0  0  0  0  0  # atno 17370 bound_to 10713
  157.2899  130.6791  149.6109 LP  0  0  0  0  0  0  0  0  0  0  0  0  # atno 17371 bound_to 10713
  140.7710  133.8738  155.8491 LP  0  0  0  0  0  0  0  0  0  0  0  0  # atno 17394 bound_to 11000
  140.9842  134.1365  157.4467 LP  0  0  0  0  0  0  0  0  0  0  0  0  # atno 17395 bound_to 11000

$$$$
