AV-unprocessed.smi:1007|AV-procd|sdf|4408|dock5
  -GOLD-   22720 2353D 1   1.00000     0.00000
 Structure written by MMmdl.
 57 59  0  0  0  0  0  0  0  0  3 V2000
  153.3439  131.0845  164.5839 C   0  0  0  0  0  0  0  0  0  0  0  0
  154.5500  131.6923  165.0127 O   0  0  0  0  0  0  0  0  0  0  0  0
  154.5003  133.1077  164.9451 C   0  0  0  0  0  0  0  0  0  0  0  0
  155.9351  133.6479  164.8443 C   0  0  0  0  0  0  0  0  0  0  0  0
  156.1074  134.5945  163.7130 N   0  3  2  0  0  0  0  0  0  0  0  0
  155.9803  136.0105  164.1395 C   0  0  0  0  0  0  0  0  0  0  0  0
  156.2651  136.9706  162.9685 C   0  0  0  0  0  0  0  0  0  0  0  0
  155.3821  136.6980  161.8072 N   0  3  2  0  0  0  0  0  0  0  0  0
  153.9916  137.1904  161.9996 C   0  0  0  0  0  0  0  0  0  0  0  0
  153.3366  137.6706  160.6851 C   0  0  2  0  0  0  0  0  0  0  0  0
  153.2834  136.5869  159.7801 O   0  0  0  0  0  0  0  0  0  0  0  0
  154.1005  138.8222  160.0016 C   0  0  0  0  0  0  0  0  0  0  0  0
  153.9126  140.0906  160.6821 N   0  0  0  0  0  0  0  0  0  0  0  0
  154.4604  140.4701  161.8524 C   0  0  0  0  0  0  0  0  0  0  0  0
  154.1749  141.6929  162.2893 N   0  0  0  0  0  0  0  0  0  0  0  0
  153.3345  142.1578  161.2924 C   0  0  0  0  0  0  0  0  0  0  0  0
  152.6817  143.4014  161.1482 C   0  0  0  0  0  0  0  0  0  0  0  0
  151.8661  143.6659  160.0248 C   0  0  0  0  0  0  0  0  0  0  0  0
  151.1832  145.0175  159.9099 C   0  0  0  0  0  0  0  0  0  0  0  0
  151.6928  142.6767  159.0234 C   0  0  0  0  0  0  0  0  0  0  0  0
  150.8202  142.9377  157.8084 C   0  0  0  0  0  0  0  0  0  0  0  0
  152.3360  141.4284  159.1530 C   0  0  0  0  0  0  0  0  0  0  0  0
  153.1467  141.1780  160.2743 C   0  0  0  0  0  0  0  0  0  0  0  0
  155.4878  135.2757  161.3857 C   0  0  0  0  0  0  0  0  0  0  0  0
  155.2299  134.2973  162.5509 C   0  0  0  0  0  0  0  0  0  0  0  0
  153.4340  130.0005  164.6559 H   0  0  0  0  0  0  0  0  0  0  0  0
  153.1231  131.3352  163.5455 H   0  0  0  0  0  0  0  0  0  0  0  0
  152.5027  131.3944  165.2056 H   0  0  0  0  0  0  0  0  0  0  0  0
  153.8897  133.4330  164.1026 H   0  0  0  0  0  0  0  0  0  0  0  0
  154.0299  133.4987  165.8485 H   0  0  0  0  0  0  0  0  0  0  0  0
  156.2286  134.1307  165.7776 H   0  0  0  0  0  0  0  0  0  0  0  0
  156.6056  132.7968  164.7159 H   0  0  0  0  0  0  0  0  0  0  0  0
  154.9819  136.1841  164.5443 H   0  0  0  0  0  0  0  0  0  0  0  0
  156.6860  136.2139  164.9460 H   0  0  0  0  0  0  0  0  0  0  0  0
  156.1648  138.0085  163.2888 H   0  0  0  0  0  0  0  0  0  0  0  0
  157.3011  136.8528  162.6476 H   0  0  0  0  0  0  0  0  0  0  0  0
  153.4004  136.4044  162.4660 H   0  0  0  0  0  0  0  0  0  0  0  0
  153.9901  138.0224  162.7055 H   0  0  0  0  0  0  0  0  0  0  0  0
  152.3154  138.0034  160.8671 H   0  0  0  0  0  0  0  0  0  0  0  0
  154.1613  136.2669  159.6351 H   0  0  0  0  0  0  0  0  0  0  0  0
  155.1688  138.6047  159.9617 H   0  0  0  0  0  0  0  0  0  0  0  0
  153.7680  138.9367  158.9687 H   0  0  0  0  0  0  0  0  0  0  0  0
  155.1144  139.8151  162.4101 H   0  0  0  0  0  0  0  0  0  0  0  0
  152.8130  144.1548  161.9113 H   0  0  0  0  0  0  0  0  0  0  0  0
  150.1018  144.8962  159.8439 H   0  0  0  0  0  0  0  0  0  0  0  0
  151.5278  145.5453  159.0206 H   0  0  0  0  0  0  0  0  0  0  0  0
  151.3955  145.6461  160.7752 H   0  0  0  0  0  0  0  0  0  0  0  0
  150.8201  142.0858  157.1280 H   0  0  0  0  0  0  0  0  0  0  0  0
  151.1806  143.8062  157.2566 H   0  0  0  0  0  0  0  0  0  0  0  0
  149.7896  143.1233  158.1120 H   0  0  0  0  0  0  0  0  0  0  0  0
  152.2107  140.6668  158.3976 H   0  0  0  0  0  0  0  0  0  0  0  0
  154.8177  135.0590  160.5551 H   0  0  0  0  0  0  0  0  0  0  0  0
  156.4963  135.1142  161.0026 H   0  0  0  0  0  0  0  0  0  0  0  0
  155.4067  133.2821  162.1976 H   0  0  0  0  0  0  0  0  0  0  0  0
  154.1848  134.3373  162.8608 H   0  0  0  0  0  0  0  0  0  0  0  0
  155.7482  137.2525  161.0454 H   0  0  0  0  0  0  0  0  0  0  0  0
  157.0615  134.4823  163.3993 H   0  0  0  0  0  0  0  0  0  0  0  0
  1  2  1  0  0  0  0
  1 26  1  0  0  0  0
  1 27  1  0  0  0  0
  1 28  1  0  0  0  0
  2  3  1  0  0  0  0
  3  4  1  0  0  0  0
  3 29  1  0  0  0  0
  3 30  1  0  0  0  0
  4  5  1  0  0  0  0
  4 31  1  0  0  0  0
  4 32  1  0  0  0  0
  5 25  1  0  0  0  0
  5  6  1  0  0  0  0
  5 57  1  0  0  0  0
  6  7  1  0  0  0  0
  6 33  1  0  0  0  0
  6 34  1  0  0  0  0
  7  8  1  0  0  0  0
  7 35  1  0  0  0  0
  7 36  1  0  0  0  0
  8  9  1  0  0  0  0
  8 24  1  0  0  0  0
  8 56  1  0  0  0  0
  9 10  1  0  0  0  0
  9 37  1  0  0  0  0
  9 38  1  0  0  0  0
 10 11  1  0  0  0  0
 10 12  1  0  0  0  0
 10 39  1  0  0  0  0
 11 40  1  0  0  0  0
 12 13  1  0  0  0  0
 12 41  1  0  0  0  0
 12 42  1  0  0  0  0
 13 23  1  0  0  0  0
 13 14  1  0  0  0  0
 14 15  2  0  0  0  0
 14 43  1  0  0  0  0
 15 16  1  0  0  0  0
 16 23  2  0  0  0  0
 16 17  1  0  0  0  0
 17 18  2  0  0  0  0
 17 44  1  0  0  0  0
 18 19  1  0  0  0  0
 18 20  1  0  0  0  0
 19 45  1  0  0  0  0
 19 46  1  0  0  0  0
 19 47  1  0  0  0  0
 20 21  1  0  0  0  0
 20 22  2  0  0  0  0
 21 48  1  0  0  0  0
 21 49  1  0  0  0  0
 21 50  1  0  0  0  0
 22 23  1  0  0  0  0
 22 51  1  0  0  0  0
 24 25  1  0  0  0  0
 24 52  1  0  0  0  0
 24 53  1  0  0  0  0
 25 54  1  0  0  0  0
 25 55  1  0  0  0  0
M  CHG  1   5   1
M  CHG  1   8   1
M  END
> <s_m_source_file>
AV-unprocessed.smi

> <i_m_source_file_index>
1007

> <i_lp_mmshare_version>
43012

> <i_f3d_flags>
0

> <s_epik_input>
W0NIM11PW0NIMl1bQ0gyXU4xW0NIMl1bQ0gyXU4oW0NIMl1bQ0gyXTEpW0NIMl1bQ0BIXShbT0hdKVtDSDJdbihbY0hdbjIpYyhjMjMpW2NIXWMoW0NIM10pYyhbY0hdMylbQ0gzXQ==

> <s_epik_cmdline>
J2VwaWtfcHl0aG9uJywgJy1waCcsICc3LjAnLCAnLXRuJywgJzgnLCAnLW1hJywgJzIwMCcsICctbWV0YWxfYmluZGluZycsICctaW1hZScsICc8aW5maWxlLm1hZT4nLCAnLW9tYWUnLCAnPG91dGZpbGUubWFlPic=

> <r_epik_Ionization_Penalty>
3.88944

> <r_epik_Ionization_Penalty_Charging>
3.80608

> <r_epik_Ionization_Penalty_Neutral>
0.0833653

> <r_epik_State_Penalty>
2.70739

> <r_epik_Charging_Adjusted_Penalty>
6.51347

> <i_epik_Tot_Q>
2

> <i_epik_Tot_abs_Q>
2

> <r_epik_Metal_State_Penalty>
2.62239

> <b_epik_Metal_Only>
0

> <s_lp_Force_Field>
OPLS_2005

> <r_lp_Energy>
30.4149

> <b_lp_Chiralities_Consistent>
1

> <s_lp_Variant>
AV-unprocessed.smi:1007-11

> <Gold.Version>
5.8.1

> <Gold.Id.Protein>
6NUR|6NUR_protein|mol2

> <Gold.PLP.Fitness>
52.5706

> <Gold.PLP.PLP>
-52.4068

> <Gold.PLP.part.hbond>
-2.0000

> <Gold.PLP.part.metal>
0.0000

> <Gold.PLP.part.buried>
-7.1560

> <Gold.PLP.part.nonpolar>
-43.5264

> <Gold.PLP.part.repulsive>
0.0588

> <Gold.PLP.ligand.clash>
0.0000

> <Gold.PLP.ligand.torsion>
1.5314

> <Gold.PLP.Chemscore.Hbond>
1.0000

> <Gold.PLP.Chemscore.CHOScore>
0.0000

> <Gold.PLP.Chemscore.Metal>
0.0000

> <Gold.Chemscore.Hbonds>
donor molecule, donor type, donor heavy atom, donor atom, acceptor molecule, acceptor atom, score
      P1  H  6896  6907       L1    11  1.00

> <Gold.PLP.Chemscore.Internal.Correction>
0.2267

> <Gold.Rescore>
     Score         DG    S(hbond)    S(metal)    S(lipo)     H(rot)  DE(clash)    DE(int)     intcor
     17.31     -19.47       0.80        0.00     154.35       2.63       0.06       2.10       ----

> <Gold.Chemscore.Fitness>
17.3091

> <Gold.Chemscore.DG>
-19.4659

> <Gold.Chemscore.ZeroCoef>
-5.4800

> <Gold.Chemscore.Hbond>
0.7999

> <Gold.Chemscore.Metal>
0.0000

> <Gold.Chemscore.Lipo>
154.3510

> <Gold.Chemscore.Internal_Hbond>
0.0000

> <Gold.Chemscore.DEClash>
0.0618

> <Gold.Chemscore.DEInternal>
2.0951

> <Gold.Chemscore.Rot>
2.6347

> <Gold.Chemscore.Internal.Correction>
   9.000000E+99

> <Gold.Chemscore.Hbonds>
donor molecule, donor type, donor heavy atom, donor atom, acceptor molecule, acceptor atom, score
      P1  H  6896  6907       L1    11  0.76

> <Gold.Chemscore.Hbond.Weighted>
-2.6716

> <Gold.Chemscore.Metal.Weighted>
-0.0000

> <Gold.Chemscore.Lipo.Weighted>
-18.0591

> <Gold.Chemscore.Internal_Hbond.Weighted>
0.0000

> <Gold.Chemscore.DEClash.Weighted>
0.0618

> <Gold.Chemscore.DEInternal.Weighted>
2.0951

> <Gold.Chemscore.Rot.Weighted>
6.7448

> <Gold.Chemscore.Internal.Correction.Weighted>
   9.000000E+99

> <Gold.Protein.RotatedTorsions>
[ 6907 6896 6895 6894 ] final   19.97 input  -60.11 | X-H torsion
[ 7974 7965 7964 7962 ] final  -13.36 input  175.53 | X-H torsion
[ 8008 7997 7996 7995 ] final  -78.68 input   59.86 | X-H torsion
[ 10167 10162 10161 10158 ] final  150.52 input  -65.29 | X-H torsion
[ 10718 10713 10712 10709 ] final  148.57 input   66.30 | X-H torsion
[ 10763 10752 10751 10750 ] final -102.29 input  -60.55 | X-H torsion
[ 11005 11000 10999 10996 ] final   90.10 input  -57.11 | X-H torsion

> <Gold.Protein.ActiveResidues>
 VAL166  LYS551  ARG553  GLY616  TRP617  ASP618  TYR619  PRO620  LYS621  CYS622 
 ASP623  PHE694  ASN695  SER759  ASP760  ASP761  ALA762  ILE779  LEU786  VAL792 
 PHE793  MET794  SER795  GLU796  ALA797  LYS798  CYS799  TRP800  GLU811  SER814 

> <Gold.Protein.RotatedAtoms>
  151.8891  135.0423  160.0495 H   0  0  0  0  0  0  0  0  0  0  0  0  # atno 6907 bound_to 6896
  152.2451  133.5163  159.5301 H   0  0  0  0  0  0  0  0  0  0  0  0  # atno 6908 bound_to 6896
  150.7065  134.0953  159.3989 H   0  0  0  0  0  0  0  0  0  0  0  0  # atno 6909 bound_to 6896
  146.2117  140.3191  142.8389 H   0  0  0  0  0  0  0  0  0  0  0  0  # atno 7974 bound_to 7965
  154.5713  140.0690  156.8968 H   0  0  0  0  0  0  0  0  0  0  0  0  # atno 8008 bound_to 7997
  155.2630  140.3360  155.4253 H   0  0  0  0  0  0  0  0  0  0  0  0  # atno 8009 bound_to 7997
  156.2120  140.1763  156.7659 H   0  0  0  0  0  0  0  0  0  0  0  0  # atno 8010 bound_to 7997
  139.4849  144.5515  151.7392 H   0  0  0  0  0  0  0  0  0  0  0  0  # atno 10167 bound_to 10162
  157.3070  131.0881  151.1346 H   0  0  0  0  0  0  0  0  0  0  0  0  # atno 10718 bound_to 10713
  154.7722  135.4866  153.9672 H   0  0  0  0  0  0  0  0  0  0  0  0  # atno 10763 bound_to 10752
  153.1383  135.6767  153.9075 H   0  0  0  0  0  0  0  0  0  0  0  0  # atno 10764 bound_to 10752
  153.8758  135.3138  155.3422 H   0  0  0  0  0  0  0  0  0  0  0  0  # atno 10765 bound_to 10752
  139.8862  134.8593  156.3237 H   0  0  0  0  0  0  0  0  0  0  0  0  # atno 11005 bound_to 11000
  144.8933  140.7551  143.5913 LP  0  0  0  0  0  0  0  0  0  0  0  0  # atno 17320 bound_to 7965
  145.3114  139.1817  143.4636 LP  0  0  0  0  0  0  0  0  0  0  0  0  # atno 17321 bound_to 7965
  140.5070  144.1083  150.5985 LP  0  0  0  0  0  0  0  0  0  0  0  0  # atno 17342 bound_to 10162
  140.3996  143.2711  151.9964 LP  0  0  0  0  0  0  0  0  0  0  0  0  # atno 17343 bound_to 10162
  157.2683  130.6692  149.6007 LP  0  0  0  0  0  0  0  0  0  0  0  0  # atno 17370 bound_to 10713
  155.9675  130.4487  150.5629 LP  0  0  0  0  0  0  0  0  0  0  0  0  # atno 17371 bound_to 10713
  140.9769  133.7291  156.0616 LP  0  0  0  0  0  0  0  0  0  0  0  0  # atno 17394 bound_to 11000
  140.7799  134.3737  157.5489 LP  0  0  0  0  0  0  0  0  0  0  0  0  # atno 17395 bound_to 11000

$$$$
