AV-unprocessed.smi:34|AV-procd|sdf|237|dock5
  -GOLD-   2262015583D 1   1.00000     0.00000
 Structure written by MMmdl.
 54 58  0  0  0  0  0  0  0  0  2 V2000
  150.4448  141.6017  156.2281 O   0  0  0  0  0  0  0  0  0  0  0  0
  151.3682  141.1692  156.9212 C   0  0  0  0  0  0  0  0  0  0  0  0
  152.1199  140.0593  156.7096 N   0  5  0  0  0  0  0  0  0  0  0  0
  151.5936  139.0074  156.0646 C   0  0  0  0  0  0  0  0  0  0  0  0
  152.1356  138.5767  154.8968 N   0  0  0  0  0  0  0  0  0  0  0  0
  151.6156  137.5215  154.2590 C   0  0  0  0  0  0  0  0  0  0  0  0
  150.5757  136.7581  154.6075 N   0  0  0  0  0  0  0  0  0  0  0  0
  150.0261  137.1765  155.7844 C   0  0  0  0  0  0  0  0  0  0  0  0
  150.4782  138.2806  156.5640 C   0  0  0  0  0  0  0  0  0  0  0  0
  149.7015  138.4292  157.7038 N   0  0  0  0  0  0  0  0  0  0  0  0
  148.8317  137.4307  157.5683 C   0  0  0  0  0  0  0  0  0  0  0  0
  148.9461  136.6508  156.4750 N   0  0  0  0  0  0  0  0  0  0  0  0
  148.1045  135.4745  156.1060 C   0  0  2  0  0  0  0  0  0  0  0  0
  148.0839  134.6072  157.1958 O   0  0  0  0  0  0  0  0  0  0  0  0
  148.0191  133.2789  156.7049 C   0  0  2  0  0  0  0  0  0  0  0  0
  148.4317  132.2745  157.7883 C   0  0  0  0  0  0  0  0  0  0  0  0
  147.8963  132.6846  159.0360 O   0  0  0  0  0  0  0  0  0  0  0  0
  146.5830  132.5263  159.2921 C   0  0  0  0  0  0  0  0  0  0  0  0
  145.8392  131.8065  158.6223 O   0  0  0  0  0  0  0  0  0  0  0  0
  146.1222  133.3184  160.4689 C   0  0  0  0  0  0  0  0  0  0  0  0
  147.0554  134.1054  161.1832 C   0  0  0  0  0  0  0  0  0  0  0  0
  146.6502  134.8619  162.3000 C   0  0  0  0  0  0  0  0  0  0  0  0
  145.3063  134.8410  162.7161 C   0  0  0  0  0  0  0  0  0  0  0  0
  144.3679  134.0626  162.0137 C   0  0  0  0  0  0  0  0  0  0  0  0
  144.7715  133.3051  160.8967 C   0  0  0  0  0  0  0  0  0  0  0  0
  148.9191  133.3103  155.4673 C   0  0  2  0  0  0  0  0  0  0  0  0
  150.2011  133.1572  155.8029 F   0  0  0  0  0  0  0  0  0  0  0  0
  148.7036  134.7124  154.9087 C   0  0  1  0  0  0  0  0  0  0  0  0
  147.8067  134.6575  153.8179 O   0  0  0  0  0  0  0  0  0  0  0  0
  151.8007  141.9585  158.1281 C   0  0  0  0  0  0  0  0  0  0  0  0
  151.5263  143.3436  158.1944 C   0  0  0  0  0  0  0  0  0  0  0  0
  151.8998  144.0946  159.3260 C   0  0  0  0  0  0  0  0  0  0  0  0
  152.5437  143.4663  160.4084 C   0  0  0  0  0  0  0  0  0  0  0  0
  152.8095  142.0851  160.3602 C   0  0  0  0  0  0  0  0  0  0  0  0
  152.4361  141.3333  159.2290 C   0  0  0  0  0  0  0  0  0  0  0  0
  152.1047  137.2486  153.3358 H   0  0  0  0  0  0  0  0  0  0  0  0
  148.0651  137.2564  158.3088 H   0  0  0  0  0  0  0  0  0  0  0  0
  147.1085  135.8788  155.9168 H   0  0  0  0  0  0  0  0  0  0  0  0
  146.9881  133.0902  156.3995 H   0  0  0  0  0  0  0  0  0  0  0  0
  148.0844  131.2727  157.5312 H   0  0  0  0  0  0  0  0  0  0  0  0
  149.5191  132.2324  157.8620 H   0  0  0  0  0  0  0  0  0  0  0  0
  148.0933  134.1354  160.8833 H   0  0  0  0  0  0  0  0  0  0  0  0
  147.3721  135.4586  162.8380 H   0  0  0  0  0  0  0  0  0  0  0  0
  144.9958  135.4208  163.5728 H   0  0  0  0  0  0  0  0  0  0  0  0
  143.3357  134.0462  162.3316 H   0  0  0  0  0  0  0  0  0  0  0  0
  144.0251  132.7196  160.3799 H   0  0  0  0  0  0  0  0  0  0  0  0
  148.6873  132.5138  154.7589 H   0  0  0  0  0  0  0  0  0  0  0  0
  149.6406  135.1635  154.5777 H   0  0  0  0  0  0  0  0  0  0  0  0
  148.1907  135.1241  153.0910 H   0  0  0  0  0  0  0  0  0  0  0  0
  151.0311  143.8408  157.3727 H   0  0  0  0  0  0  0  0  0  0  0  0
  151.6902  145.1533  159.3631 H   0  0  0  0  0  0  0  0  0  0  0  0
  152.8296  144.0418  161.2763 H   0  0  0  0  0  0  0  0  0  0  0  0
  153.2969  141.5994  161.1926 H   0  0  0  0  0  0  0  0  0  0  0  0
  152.6388  140.2721  159.2173 H   0  0  0  0  0  0  0  0  0  0  0  0
  1  2  2  0  0  0  0
  2  3  1  0  0  0  0
  2 30  1  0  0  0  0
  3  4  1  0  0  0  0
  4  9  1  0  0  0  0
  4  5  2  0  0  0  0
  5  6  1  0  0  0  0
  6  7  2  0  0  0  0
  6 36  1  0  0  0  0
  7  8  1  0  0  0  0
  8 12  1  0  0  0  0
  8  9  2  0  0  0  0
  9 10  1  0  0  0  0
 10 11  2  0  0  0  0
 11 12  1  0  0  0  0
 11 37  1  0  0  0  0
 12 13  1  0  0  0  0
 13 28  1  0  0  0  0
 13 14  1  0  0  0  0
 13 38  1  0  0  0  0
 14 15  1  0  0  0  0
 15 16  1  0  0  0  0
 15 26  1  0  0  0  0
 15 39  1  0  0  0  0
 16 17  1  0  0  0  0
 16 40  1  0  0  0  0
 16 41  1  0  0  0  0
 17 18  1  0  0  0  0
 18 19  2  0  0  0  0
 18 20  1  0  0  0  0
 20 25  1  0  0  0  0
 20 21  2  0  0  0  0
 21 22  1  0  0  0  0
 21 42  1  0  0  0  0
 22 23  2  0  0  0  0
 22 43  1  0  0  0  0
 23 24  1  0  0  0  0
 23 44  1  0  0  0  0
 24 25  2  0  0  0  0
 24 45  1  0  0  0  0
 25 46  1  0  0  0  0
 26 27  1  0  0  0  0
 26 28  1  0  0  0  0
 26 47  1  0  0  0  0
 28 29  1  0  0  0  0
 28 48  1  0  0  0  0
 29 49  1  0  0  0  0
 30 35  1  0  0  0  0
 30 31  2  0  0  0  0
 31 32  1  0  0  0  0
 31 50  1  0  0  0  0
 32 33  2  0  0  0  0
 32 51  1  0  0  0  0
 33 34  1  0  0  0  0
 33 52  1  0  0  0  0
 34 35  2  0  0  0  0
 34 53  1  0  0  0  0
 35 54  1  0  0  0  0
M  CHG  1   3  -1
M  END
> <s_m_source_file>
AV-unprocessed.smi

> <i_m_source_file_index>
34

> <i_lp_mmshare_version>
43012

> <i_f3d_flags>
0

> <s_epik_input>
W2NIXTFbY0hdW2NIXVtjSF1bY0hdYzFDKD1PKVtOSF1jKG5bY0hdbjIpYyhjMjMpbltjSF1uM1tDQEBIXTRPW0NASF0oW0NAQEhdKEYpW0NASF00W09IXSlbQ0gyXU9DKD1PKWM1W2NIXVtjSF1bY0hdW2NIXVtjSF01

> <s_epik_cmdline>
J2VwaWtfcHl0aG9uJywgJy1waCcsICc3LjAnLCAnLXRuJywgJzgnLCAnLW1hJywgJzIwMCcsICctbWV0YWxfYmluZGluZycsICctaW1hZScsICc8aW5maWxlLm1hZT4nLCAnLW9tYWUnLCAnPG91dGZpbGUubWFlPic=

> <r_lp_tautomer_probability>
1

> <r_epik_Ionization_Penalty>
4.33227

> <r_epik_Ionization_Penalty_Charging>
3.41027

> <r_epik_Ionization_Penalty_Neutral>
0.922001

> <r_epik_State_Penalty>
3.41358

> <r_epik_Charging_Adjusted_Penalty>
6.82385

> <i_epik_Tot_Q>
-1

> <i_epik_Tot_abs_Q>
1

> <r_epik_Metal_State_Penalty>
0.496292

> <b_epik_Metal_Only>
1

> <s_epik_Chemistry_Notes>
This compound has an ester and may undergo hydrolysis at high or low pH. This compound contains an acetal/aminal-like group ( X-CH(R)-Y where X, Y are N, S, or O) that may be acid/base labile, releasing an aldehyde.

> <s_lp_Force_Field>
OPLS_2005

> <r_lp_Energy>
44.3344

> <b_lp_Chiralities_Consistent>
1

> <s_lp_Variant>
AV-unprocessed.smi:34-23

> <Gold.Version>
5.8.1

> <Gold.Id.Protein>
6NUR|6NUR_protein|mol2

> <Gold.PLP.Fitness>
58.6395

> <Gold.PLP.PLP>
-49.5712

> <Gold.PLP.part.hbond>
-2.1134

> <Gold.PLP.part.metal>
0.0000

> <Gold.PLP.part.buried>
-6.2684

> <Gold.PLP.part.nonpolar>
-40.5872

> <Gold.PLP.part.repulsive>
0.3257

> <Gold.PLP.ligand.clash>
0.0000

> <Gold.PLP.ligand.torsion>
1.6116

> <Gold.PLP.Chemscore.Hbond>
2.9825

> <Gold.PLP.Chemscore.CHOScore>
0.8495

> <Gold.PLP.Chemscore.Metal>
0.0000

> <Gold.Chemscore.Hbonds>
donor molecule, donor type, donor heavy atom, donor atom, acceptor molecule, acceptor atom, score
      L1  H    29    49       P1  7948  1.00
      P1  H  7997  8008       L1     3  1.01
      L1  C     6    36       P1  7949  0.96

> <Gold.PLP.Chemscore.Internal.Correction>
0.7956

> <Gold.Rescore>
     Score         DG    S(hbond)    S(metal)    S(lipo)     H(rot)  DE(clash)    DE(int)     intcor
     16.55     -19.57       1.89        0.00     125.51       2.69       0.10       2.92       ----

> <Gold.Chemscore.Fitness>
16.5520

> <Gold.Chemscore.DG>
-19.5722

> <Gold.Chemscore.ZeroCoef>
-5.4800

> <Gold.Chemscore.Hbond>
1.8879

> <Gold.Chemscore.Metal>
0.0000

> <Gold.Chemscore.Lipo>
125.5053

> <Gold.Chemscore.Internal_Hbond>
0.0000

> <Gold.Chemscore.DEClash>
0.0990

> <Gold.Chemscore.DEInternal>
2.9212

> <Gold.Chemscore.Rot>
2.6944

> <Gold.Chemscore.Internal.Correction>
   9.000000E+99

> <Gold.Chemscore.Hbonds>
donor molecule, donor type, donor heavy atom, donor atom, acceptor molecule, acceptor atom, score
      L1  H    29    49       P1  7948  0.96
      P1  H  7997  8008       L1     3  0.39

> <Gold.Chemscore.Hbond.Weighted>
-6.3057

> <Gold.Chemscore.Metal.Weighted>
-0.0000

> <Gold.Chemscore.Lipo.Weighted>
-14.6841

> <Gold.Chemscore.Internal_Hbond.Weighted>
0.0000

> <Gold.Chemscore.DEClash.Weighted>
0.0990

> <Gold.Chemscore.DEInternal.Weighted>
2.9212

> <Gold.Chemscore.Rot.Weighted>
6.8975

> <Gold.Chemscore.Internal.Correction.Weighted>
   9.000000E+99

> <Gold.Protein.RotatedTorsions>
[ 6907 6896 6895 6894 ] final  150.84 input  -60.11 | X-H torsion
[ 7974 7965 7964 7962 ] final  -61.51 input  175.53 | X-H torsion
[ 8008 7997 7996 7995 ] final  -48.99 input   59.86 | X-H torsion
[ 10167 10162 10161 10158 ] final  115.00 input  -65.29 | X-H torsion
[ 10718 10713 10712 10709 ] final  -34.35 input   66.30 | X-H torsion
[ 10763 10752 10751 10750 ] final  127.67 input  -60.55 | X-H torsion
[ 11005 11000 10999 10996 ] final  -58.87 input  -57.11 | X-H torsion

> <Gold.Protein.ActiveResidues>
 VAL166  LYS551  ARG553  GLY616  TRP617  ASP618  TYR619  PRO620  LYS621  CYS622 
 ASP623  PHE694  ASN695  SER759  ASP760  ASP761  ALA762  ILE779  LEU786  VAL792 
 PHE793  MET794  SER795  GLU796  ALA797  LYS798  CYS799  TRP800  GLU811  SER814 

> <Gold.Protein.RotatedAtoms>
  152.1089  133.4290  159.4621 H   0  0  0  0  0  0  0  0  0  0  0  0  # atno 6907 bound_to 6896
  150.6866  134.2672  159.4582 H   0  0  0  0  0  0  0  0  0  0  0  0  # atno 6908 bound_to 6896
  152.0539  134.9636  160.0625 H   0  0  0  0  0  0  0  0  0  0  0  0  # atno 6909 bound_to 6896
  145.8026  140.8646  143.0223 H   0  0  0  0  0  0  0  0  0  0  0  0  # atno 7974 bound_to 7965
  154.4037  140.1308  156.4429 H   0  0  0  0  0  0  0  0  0  0  0  0  # atno 8008 bound_to 7997
  155.7441  140.3489  155.5098 H   0  0  0  0  0  0  0  0  0  0  0  0  # atno 8009 bound_to 7997
  155.9011  140.1019  157.1339 H   0  0  0  0  0  0  0  0  0  0  0  0  # atno 8010 bound_to 7997
  139.6348  144.7119  151.2357 H   0  0  0  0  0  0  0  0  0  0  0  0  # atno 10167 bound_to 10162
  156.3516  130.4309  149.7699 H   0  0  0  0  0  0  0  0  0  0  0  0  # atno 10718 bound_to 10713
  153.7131  135.3265  155.3250 H   0  0  0  0  0  0  0  0  0  0  0  0  # atno 10763 bound_to 10752
  154.8379  135.4481  154.1293 H   0  0  0  0  0  0  0  0  0  0  0  0  # atno 10764 bound_to 10752
  153.2393  135.6969  153.7881 H   0  0  0  0  0  0  0  0  0  0  0  0  # atno 10765 bound_to 10752
  141.1225  133.6614  156.4986 H   0  0  0  0  0  0  0  0  0  0  0  0  # atno 11005 bound_to 11000
  144.6767  140.0281  143.7483 LP  0  0  0  0  0  0  0  0  0  0  0  0  # atno 17320 bound_to 7965
  145.9862  139.2979  143.1012 LP  0  0  0  0  0  0  0  0  0  0  0  0  # atno 17321 bound_to 7965
  140.7459  143.6415  150.8331 LP  0  0  0  0  0  0  0  0  0  0  0  0  # atno 17342 bound_to 10162
  140.0045  143.5709  152.2863 LP  0  0  0  0  0  0  0  0  0  0  0  0  # atno 17343 bound_to 10162
  156.4897  130.8079  151.3090 LP  0  0  0  0  0  0  0  0  0  0  0  0  # atno 17370 bound_to 10713
  157.7462  130.9979  150.2833 LP  0  0  0  0  0  0  0  0  0  0  0  0  # atno 17371 bound_to 10713
  140.4465  134.6968  157.5018 LP  0  0  0  0  0  0  0  0  0  0  0  0  # atno 17394 bound_to 11000
  140.0194  134.6569  155.9261 LP  0  0  0  0  0  0  0  0  0  0  0  0  # atno 17395 bound_to 11000

$$$$
