AV-unprocessed.smi:2835|AV-procd|sdf|10918|dock3
  -GOLD-   2272015363D 1   1.00000     0.00000
 Structure written by MMmdl.
 34 35  0  0  0  0  0  0  0  0  2 V2000
  153.7096  140.0504  158.8881 O   0  0  0  0  0  0  0  0  0  0  0  0
  153.0259  141.0682  158.9815 C   0  0  0  0  0  0  0  0  0  0  0  0
  153.6150  142.2697  159.7398 C   0  0  0  0  0  0  0  0  0  0  0  0
  152.8493  143.5002  159.5946 N   0  0  0  0  0  0  0  0  0  0  0  0
  152.6254  144.2409  158.4524 C   0  0  0  0  0  0  0  0  0  0  0  0
  151.8715  145.3217  158.8098 C   0  0  0  0  0  0  0  0  0  0  0  0
  151.6807  145.1524  160.2097 C   0  0  0  0  0  0  0  0  0  0  0  0
  152.2625  144.0593  160.6756 N   0  0  0  0  0  0  0  0  0  0  0  0
  151.7873  141.2066  158.4657 N   0  0  0  0  0  0  0  0  0  0  0  0
  150.9216  140.3034  157.6918 C   0  0  0  0  0  0  0  0  0  0  0  0
  151.6613  140.1052  156.3433 C   0  0  0  0  0  0  0  0  0  0  0  0
  151.0833  140.4721  155.2957 O   0  0  0  0  0  0  0  0  0  0  0  0
  152.7809  139.5459  156.3691 O   0  5  0  0  0  0  0  0  0  0  0  0
  150.6199  138.9331  158.3791 C   0  0  0  0  0  0  0  0  0  0  0  0
  149.5835  138.0852  157.6154 C   0  0  0  0  0  0  0  0  0  0  0  0
  148.2720  138.8585  157.4176 C   0  0  0  0  0  0  0  0  0  0  0  0
  148.5206  140.2065  156.7257 C   0  0  0  0  0  0  0  0  0  0  0  0
  149.5681  141.0428  157.4870 C   0  0  0  0  0  0  0  0  0  0  0  0
  153.6746  142.0244  160.8006 H   0  0  0  0  0  0  0  0  0  0  0  0
  154.6361  142.4438  159.3972 H   0  0  0  0  0  0  0  0  0  0  0  0
  153.0233  143.9433  157.4931 H   0  0  0  0  0  0  0  0  0  0  0  0
  151.5143  146.1148  158.1699 H   0  0  0  0  0  0  0  0  0  0  0  0
  151.1400  145.7870  160.8963 H   0  0  0  0  0  0  0  0  0  0  0  0
  151.3757  142.1173  158.6106 H   0  0  0  0  0  0  0  0  0  0  0  0
  151.5318  138.3507  158.5194 H   0  0  0  0  0  0  0  0  0  0  0  0
  150.2186  139.1086  159.3778 H   0  0  0  0  0  0  0  0  0  0  0  0
  149.9817  137.7810  156.6468 H   0  0  0  0  0  0  0  0  0  0  0  0
  149.3872  137.1642  158.1646 H   0  0  0  0  0  0  0  0  0  0  0  0
  147.5723  138.2619  156.8315 H   0  0  0  0  0  0  0  0  0  0  0  0
  147.7995  139.0278  158.3859 H   0  0  0  0  0  0  0  0  0  0  0  0
  148.8478  140.0379  155.6993 H   0  0  0  0  0  0  0  0  0  0  0  0
  147.5852  140.7625  156.6583 H   0  0  0  0  0  0  0  0  0  0  0  0
  149.1571  141.3043  158.4633 H   0  0  0  0  0  0  0  0  0  0  0  0
  149.7140  141.9952  156.9748 H   0  0  0  0  0  0  0  0  0  0  0  0
  1  2  2  0  0  0  0
  2  3  1  0  0  0  0
  2  9  1  0  0  0  0
  3  4  1  0  0  0  0
  3 19  1  0  0  0  0
  3 20  1  0  0  0  0
  4  8  1  0  0  0  0
  4  5  1  0  0  0  0
  5  6  2  0  0  0  0
  5 21  1  0  0  0  0
  6  7  1  0  0  0  0
  6 22  1  0  0  0  0
  7  8  2  0  0  0  0
  7 23  1  0  0  0  0
  9 10  1  0  0  0  0
  9 24  1  0  0  0  0
 10 18  1  0  0  0  0
 10 11  1  0  0  0  0
 10 14  1  0  0  0  0
 11 12  2  0  0  0  0
 11 13  1  0  0  0  0
 14 15  1  0  0  0  0
 14 25  1  0  0  0  0
 14 26  1  0  0  0  0
 15 16  1  0  0  0  0
 15 27  1  0  0  0  0
 15 28  1  0  0  0  0
 16 17  1  0  0  0  0
 16 29  1  0  0  0  0
 16 30  1  0  0  0  0
 17 18  1  0  0  0  0
 17 31  1  0  0  0  0
 17 32  1  0  0  0  0
 18 33  1  0  0  0  0
 18 34  1  0  0  0  0
M  CHG  1  13  -1
M  END
> <s_m_source_file>
AV-unprocessed.smi

> <i_m_source_file_index>
2835

> <i_lp_mmshare_version>
43012

> <i_f3d_flags>
0

> <s_epik_input>
bjFbY0hdW2NIXVtjSF1uMVtDSDJdQyg9TylbTkhdQzIoQyg9TylbT0hdKVtDSDJdW0NIMl1bQ0gyXVtDSDJdW0NIMl0y

> <s_epik_cmdline>
J2VwaWtfcHl0aG9uJywgJy1waCcsICc3LjAnLCAnLXRuJywgJzgnLCAnLW1hJywgJzIwMCcsICctbWV0YWxfYmluZGluZycsICctaW1hZScsICc8aW5maWxlLm1hZT4nLCAnLW9tYWUnLCAnPG91dGZpbGUubWFlPic=

> <r_lp_tautomer_probability>
1

> <r_epik_Ionization_Penalty>
0.000342313

> <r_epik_Ionization_Penalty_Charging>
0.000323848

> <r_epik_Ionization_Penalty_Neutral>
1.84652e-05

> <r_epik_State_Penalty>
0.000195685

> <r_epik_Charging_Adjusted_Penalty>
0.000519533

> <i_epik_Tot_Q>
-1

> <i_epik_Tot_abs_Q>
1

> <r_epik_Metal_State_Penalty>
-0

> <b_epik_Metal_Only>
0

> <s_lp_Force_Field>
OPLS_2005

> <r_lp_Energy>
5.56985

> <b_lp_Chiralities_Consistent>
1

> <s_lp_Variant>
AV-unprocessed.smi:2835-1

> <Gold.Version>
5.8.1

> <Gold.Id.Protein>
6NUR|6NUR_protein|mol2

> <Gold.PLP.Fitness>
45.0044

> <Gold.PLP.PLP>
-36.4211

> <Gold.PLP.part.hbond>
-3.0000

> <Gold.PLP.part.metal>
0.0000

> <Gold.PLP.part.buried>
-6.0941

> <Gold.PLP.part.nonpolar>
-27.7492

> <Gold.PLP.part.repulsive>
0.2387

> <Gold.PLP.ligand.clash>
0.0000

> <Gold.PLP.ligand.torsion>
0.1756

> <Gold.PLP.Chemscore.Hbond>
2.9600

> <Gold.PLP.Chemscore.CHOScore>
0.0000

> <Gold.PLP.Chemscore.Metal>
0.0000

> <Gold.Chemscore.Hbonds>
donor molecule, donor type, donor heavy atom, donor atom, acceptor molecule, acceptor atom, score
      P1  H  7989  7998       L1    12  0.96
      P1  H  7997  8009       L1    13  2.00

> <Gold.PLP.Chemscore.Internal.Correction>
0.0545

> <Gold.Rescore>
     Score         DG    S(hbond)    S(metal)    S(lipo)     H(rot)  DE(clash)    DE(int)     intcor
     11.98     -14.73       1.96        0.00      67.64       2.03       0.07       2.68       ----

> <Gold.Chemscore.Fitness>
11.9782

> <Gold.Chemscore.DG>
-14.7252

> <Gold.Chemscore.ZeroCoef>
-5.4800

> <Gold.Chemscore.Hbond>
1.9573

> <Gold.Chemscore.Metal>
0.0000

> <Gold.Chemscore.Lipo>
67.6431

> <Gold.Chemscore.Internal_Hbond>
0.0000

> <Gold.Chemscore.DEClash>
0.0673

> <Gold.Chemscore.DEInternal>
2.6797

> <Gold.Chemscore.Rot>
2.0338

> <Gold.Chemscore.Internal.Correction>
   9.000000E+99

> <Gold.Chemscore.Hbonds>
donor molecule, donor type, donor heavy atom, donor atom, acceptor molecule, acceptor atom, score
      P1  H  7989  7998       L1    12  0.92
      P1  H  7997  8009       L1    13  1.00

> <Gold.Chemscore.Hbond.Weighted>
-6.5375

> <Gold.Chemscore.Metal.Weighted>
-0.0000

> <Gold.Chemscore.Lipo.Weighted>
-7.9142

> <Gold.Chemscore.Internal_Hbond.Weighted>
0.0000

> <Gold.Chemscore.DEClash.Weighted>
0.0673

> <Gold.Chemscore.DEInternal.Weighted>
2.6797

> <Gold.Chemscore.Rot.Weighted>
5.2066

> <Gold.Chemscore.Internal.Correction.Weighted>
   9.000000E+99

> <Gold.Protein.RotatedTorsions>
[ 6907 6896 6895 6894 ] final  144.37 input  -60.11 | X-H torsion
[ 7974 7965 7964 7962 ] final -113.81 input  175.53 | X-H torsion
[ 8008 7997 7996 7995 ] final -165.39 input   59.86 | X-H torsion
[ 10167 10162 10161 10158 ] final -171.50 input  -65.29 | X-H torsion
[ 10718 10713 10712 10709 ] final  -24.10 input   66.30 | X-H torsion
[ 10763 10752 10751 10750 ] final -157.95 input  -60.55 | X-H torsion
[ 11005 11000 10999 10996 ] final -137.35 input  -57.11 | X-H torsion

> <Gold.Protein.ActiveResidues>
 VAL166  LYS551  ARG553  GLY616  TRP617  ASP618  TYR619  PRO620  LYS621  CYS622 
 ASP623  PHE694  ASN695  SER759  ASP760  ASP761  ALA762  ILE779  LEU786  VAL792 
 PHE793  MET794  SER795  GLU796  ALA797  LYS798  CYS799  TRP800  GLU811  SER814 

> <Gold.Protein.RotatedAtoms>
  152.1945  133.4797  159.5025 H   0  0  0  0  0  0  0  0  0  0  0  0  # atno 6907 bound_to 6896
  150.6957  134.1670  159.4207 H   0  0  0  0  0  0  0  0  0  0  0  0  # atno 6908 bound_to 6896
  151.9585  135.0134  160.0597 H   0  0  0  0  0  0  0  0  0  0  0  0  # atno 6909 bound_to 6896
  145.1276  140.8705  143.3777 H   0  0  0  0  0  0  0  0  0  0  0  0  # atno 7974 bound_to 7965
  155.8491  140.0960  157.1686 H   0  0  0  0  0  0  0  0  0  0  0  0  # atno 8008 bound_to 7997
  154.3984  140.1386  156.3883 H   0  0  0  0  0  0  0  0  0  0  0  0  # atno 8009 bound_to 7997
  155.7981  140.3453  155.5389 H   0  0  0  0  0  0  0  0  0  0  0  0  # atno 8010 bound_to 7997
  139.5799  144.1448  152.1500 H   0  0  0  0  0  0  0  0  0  0  0  0  # atno 10167 bound_to 10162
  156.4821  130.4547  149.6805 H   0  0  0  0  0  0  0  0  0  0  0  0  # atno 10718 bound_to 10713
  154.7596  135.3114  154.8405 H   0  0  0  0  0  0  0  0  0  0  0  0  # atno 10763 bound_to 10752
  153.9169  135.6800  153.4753 H   0  0  0  0  0  0  0  0  0  0  0  0  # atno 10764 bound_to 10752
  153.1195  135.4829  154.9103 H   0  0  0  0  0  0  0  0  0  0  0  0  # atno 10765 bound_to 10752
  140.8720  134.2039  157.4645 H   0  0  0  0  0  0  0  0  0  0  0  0  # atno 11005 bound_to 11000
  145.0671  139.3060  143.5851 LP  0  0  0  0  0  0  0  0  0  0  0  0  # atno 17320 bound_to 7965
  146.3516  140.0133  142.8665 LP  0  0  0  0  0  0  0  0  0  0  0  0  # atno 17321 bound_to 7965
  140.0999  144.5549  150.6996 LP  0  0  0  0  0  0  0  0  0  0  0  0  # atno 17342 bound_to 10162
  140.7078  143.2481  151.4674 LP  0  0  0  0  0  0  0  0  0  0  0  0  # atno 17343 bound_to 10162
  156.3511  130.7432  151.2392 LP  0  0  0  0  0  0  0  0  0  0  0  0  # atno 17370 bound_to 10713
  157.7482  131.0377  150.4467 LP  0  0  0  0  0  0  0  0  0  0  0  0  # atno 17371 bound_to 10713
  139.8713  134.9778  156.4974 LP  0  0  0  0  0  0  0  0  0  0  0  0  # atno 17394 bound_to 11000
  140.8562  133.8094  155.9219 LP  0  0  0  0  0  0  0  0  0  0  0  0  # atno 17395 bound_to 11000

$$$$
