#       Name:                AV-unprocessed.smi:1622
#       Creating user name   scv26
#       Creation time:       Fri Mar 27 07:16:09 2020


#       File generated by GOLD software.
#

@<TRIPOS>MOLECULE
AV-unprocessed.smi:1622
    45    46     1
SMALL
NO_CHARGES


@<TRIPOS>ATOM
      1 ****        -1.1935   0.5014  -3.2049 C.3            1 S1                 0.0000
      2 ****        -1.5328  -0.0311  -1.8045 C.3            1 S1                 0.0000
      3 ****        -0.8211  -1.3598  -1.4306 C.3            1 S1                 0.0000
      4 ****         0.7264  -1.2104  -1.4053 C.3            1 S1                 0.0000
      5 ****         1.2171  -0.4872  -0.2326 N.am           1 S1                 0.0000
      6 ****         1.5196   0.8181  -0.1904 C.2            1 S1                 0.0000
      7 ****         1.4061   1.5724  -1.1555 O.2            1 S1                 0.0000
      8 ****         1.9477   1.1771   1.0304 N.am           1 S1                 0.0000
      9 ****         2.3658   2.4598   1.4646 C.2            1 S1                 0.0000
     10 ****         2.7509   2.5972   2.7363 N.2            1 S1                 0.0000
     11 ****         3.1380   3.8995   3.0227 N.2            1 S1                 0.0000
     12 ****         3.0336   4.7083   1.9605 C.2            1 S1                 0.0000
     13 ****         3.3961   6.1532   2.0079 C.3            1 S1                 0.0000
     14 ****         2.4421   3.9322   0.4968 S.3            1 S1                 0.0000
     15 ****        -1.3224  -1.9094  -0.1337 N.4            1 S1                 1.0000
     16 ****        -2.7902  -2.0349   0.0030 C.3            1 S1                 0.0000
     17 ****        -2.9977  -3.0271   1.1410 C.3            1 S1                 0.0000
     18 ****        -1.8666  -4.0275   0.9367 C.3            1 S1                 0.0000
     19 ****        -0.7503  -3.2246   0.2548 C.3            1 S1                 0.0000
     20 ****        -1.8111   1.3673  -3.4440 H              1 S1                 0.0000
     21 ****        -1.3763  -0.2542  -3.9694 H              1 S1                 0.0000
     22 ****        -0.1553   0.8195  -3.2853 H              1 S1                 0.0000
     23 ****        -1.3230   0.7358  -1.0587 H              1 S1                 0.0000
     24 ****        -2.6132  -0.1688  -1.7918 H              1 S1                 0.0000
     25 ****        -1.0719  -2.0858  -2.2058 H              1 S1                 0.0000
     26 ****         1.1895  -2.1966  -1.3805 H              1 S1                 0.0000
     27 ****         1.1008  -0.7612  -2.3249 H              1 S1                 0.0000
     28 ****         1.3565  -1.0286   0.6082 H              1 S1                 0.0000
     29 ****         1.9863   0.4510   1.7304 H              1 S1                 0.0000
     30 ****         3.3667   6.5224   3.0335 H              1 S1                 0.0000
     31 ****         2.6965   6.7354   1.4081 H              1 S1                 0.0000
     32 ****         4.4014   6.2967   1.6118 H              1 S1                 0.0000
     33 ****        -3.2661  -1.0769   0.2141 H              1 S1                 0.0000
     34 ****        -3.2143  -2.4356  -0.9194 H              1 S1                 0.0000
     35 ****        -2.8769  -2.5213   2.1000 H              1 S1                 0.0000
     36 ****        -3.9846  -3.4907   1.1261 H              1 S1                 0.0000
     37 ****        -1.5427  -4.4842   1.8728 H              1 S1                 0.0000
     38 ****        -2.1992  -4.8289   0.2752 H              1 S1                 0.0000
     39 ****        -0.3846  -3.7765  -0.6123 H              1 S1                 0.0000
     40 ****         0.0930  -3.0664   0.9278 H              1 S1                 0.0000
     41 ****        -1.0389  -1.2603   0.5864 H              1 S1                 0.0000
     42 ****         1.0728   1.2192  -2.0297 LP             1 S1                 0.0000
     43 ****         1.6470   2.5388  -1.0658 LP             1 S1                 0.0000
     44 ****         2.7593   1.8514   3.4024 LP             1 S1                 0.0000
     45 ****         3.4586   4.1997   3.9211 LP             1 S1                 0.0000
@<TRIPOS>BOND
    1    1    2 1     
    2    1   20 1     
    3    1   21 1     
    4    1   22 1     
    5    2    3 1     
    6    2   23 1     
    7    2   24 1     
    8    3    4 1     
    9    3   15 1     
   10    3   25 1     
   11    4    5 1     
   12    4   26 1     
   13    4   27 1     
   14    5    6 am    
   15    5   28 1     
   16    6    7 2     
   17    6    8 am    
   18    8    9 1     
   19    8   29 1     
   20    9   14 1     
   21    9   10 2     
   22   10   11 1     
   23   11   12 2     
   24   12   13 1     
   25   12   14 1     
   26   13   30 1     
   27   13   31 1     
   28   13   32 1     
   29   15   19 1     
   30   15   16 1     
   31   15   41 1     
   32   16   17 1     
   33   16   33 1     
   34   16   34 1     
   35   17   18 1     
   36   17   35 1     
   37   17   36 1     
   38   18   19 1     
   39   18   37 1     
   40   18   38 1     
   41   19   39 1     
   42   19   40 1     
   43    7   42 1     
   44    7   43 1     
   45   10   44 1     
   46   11   45 1     
@<TRIPOS>SUBSTRUCTURE
      1 S1             1
@<TRIPOS>SET
LONE_PAIRS      STATIC     ATOMS    <user>   **** ""
4 42 43 44 45
DONOR_HYDROGENS      STATIC     ATOMS    <user>   **** ""
3 28 29 41
ATOM$BLUE        STATIC     ATOMS    COLORGROUP SYSTEM
4 42 43 44 45
ATOM$RED        STATIC     ATOMS    COLORGROUP SYSTEM
3 28 29 41
