AV-unprocessed.smi:910|AV-procd|sdf|4119|dock10
  -GOLD-   22720 2 23D 1   1.00000     0.00000
 Structure written by MMmdl.
 46 47  0  0  0  0  0  0  0  0  1 V2000
  148.0125  133.3007  161.0792 C   0  0  0  0  0  0  0  0  0  0  0  0
  148.6029  134.6751  161.1243 C   0  0  0  0  0  0  0  0  0  0  0  0
  149.3777  135.1804  160.0898 N   0  0  0  0  0  0  0  0  0  0  0  0
  149.7125  136.4081  160.4907 C   0  0  0  0  0  0  0  0  0  0  0  0
  150.5096  137.3402  159.7808 N   0  0  0  0  0  0  0  0  0  0  0  0
  151.8249  137.5698  159.9262 C   0  0  0  0  0  0  0  0  0  0  0  0
  152.5700  136.9690  160.7009 O   0  0  0  0  0  0  0  0  0  0  0  0
  152.2361  138.5585  159.1199 N   0  0  0  0  0  0  0  0  0  0  0  0
  153.5847  139.1156  159.0901 C   0  0  0  0  0  0  0  0  0  0  0  0
  153.6363  140.5044  159.7440 C   0  0  0  0  0  0  0  0  0  0  0  0
  152.9575  141.4256  158.9029 O   0  0  0  0  0  0  0  0  0  0  0  0
  152.1375  142.3610  159.5901 C   0  0  1  0  0  0  0  0  0  0  0  0
  152.9395  142.9955  160.7446 C   0  0  0  0  0  0  0  0  0  0  0  0
  152.1470  144.1184  161.4298 C   0  0  0  0  0  0  0  0  0  0  0  0
  151.7086  145.1830  160.4141 C   0  0  0  0  0  0  0  0  0  0  0  0
  150.9005  144.5539  159.2689 C   0  0  0  0  0  0  0  0  0  0  0  0
  151.6850  143.4270  158.5673 C   0  0  2  0  0  0  0  0  0  0  0  0
  150.8510  142.8070  157.4333 C   0  0  0  0  0  0  0  0  0  0  0  0
  149.2141  136.7437  161.7102 O   0  0  0  0  0  0  0  0  0  0  0  0
  148.5113  135.6350  162.1003 C   0  0  0  0  0  0  0  0  0  0  0  0
  147.8268  135.6756  163.4242 C   0  0  0  0  0  0  0  0  0  0  0  0
  148.0414  132.8269  162.0605 H   0  0  0  0  0  0  0  0  0  0  0  0
  148.5543  132.6557  160.3866 H   0  0  0  0  0  0  0  0  0  0  0  0
  146.9716  133.3324  160.7570 H   0  0  0  0  0  0  0  0  0  0  0  0
  150.0207  137.9084  159.1049 H   0  0  0  0  0  0  0  0  0  0  0  0
  151.5552  138.9930  158.5147 H   0  0  0  0  0  0  0  0  0  0  0  0
  154.2808  138.4363  159.5845 H   0  0  0  0  0  0  0  0  0  0  0  0
  153.9018  139.1853  158.0493 H   0  0  0  0  0  0  0  0  0  0  0  0
  153.1701  140.4691  160.7298 H   0  0  0  0  0  0  0  0  0  0  0  0
  154.6723  140.8124  159.8864 H   0  0  0  0  0  0  0  0  0  0  0  0
  151.2468  141.8710  159.9882 H   0  0  0  0  0  0  0  0  0  0  0  0
  153.2074  142.2395  161.4826 H   0  0  0  0  0  0  0  0  0  0  0  0
  153.8780  143.3971  160.3601 H   0  0  0  0  0  0  0  0  0  0  0  0
  151.2692  143.6990  161.9228 H   0  0  0  0  0  0  0  0  0  0  0  0
  152.7526  144.5775  162.2118 H   0  0  0  0  0  0  0  0  0  0  0  0
  151.1138  145.9492  160.9120 H   0  0  0  0  0  0  0  0  0  0  0  0
  152.5867  145.6871  160.0084 H   0  0  0  0  0  0  0  0  0  0  0  0
  149.9622  144.1597  159.6623 H   0  0  0  0  0  0  0  0  0  0  0  0
  150.6310  145.3260  158.5474 H   0  0  0  0  0  0  0  0  0  0  0  0
  152.5768  143.8688  158.1200 H   0  0  0  0  0  0  0  0  0  0  0  0
  149.9482  142.3322  157.8188 H   0  0  0  0  0  0  0  0  0  0  0  0
  151.4171  142.0490  156.8908 H   0  0  0  0  0  0  0  0  0  0  0  0
  150.5462  143.5646  156.7112 H   0  0  0  0  0  0  0  0  0  0  0  0
  146.8378  135.2212  163.3630 H   0  0  0  0  0  0  0  0  0  0  0  0
  147.7049  136.7020  163.7710 H   0  0  0  0  0  0  0  0  0  0  0  0
  148.4032  135.1314  164.1724 H   0  0  0  0  0  0  0  0  0  0  0  0
  1  2  1  0  0  0  0
  1 22  1  0  0  0  0
  1 23  1  0  0  0  0
  1 24  1  0  0  0  0
  2 20  2  0  0  0  0
  2  3  1  0  0  0  0
  3  4  2  0  0  0  0
  4  5  1  0  0  0  0
  4 19  1  0  0  0  0
  5  6  1  0  0  0  0
  5 25  1  0  0  0  0
  6  7  2  0  0  0  0
  6  8  1  0  0  0  0
  8  9  1  0  0  0  0
  8 26  1  0  0  0  0
  9 10  1  0  0  0  0
  9 27  1  0  0  0  0
  9 28  1  0  0  0  0
 10 11  1  0  0  0  0
 10 29  1  0  0  0  0
 10 30  1  0  0  0  0
 11 12  1  0  0  0  0
 12 17  1  0  0  0  0
 12 13  1  0  0  0  0
 12 31  1  0  0  0  0
 13 14  1  0  0  0  0
 13 32  1  0  0  0  0
 13 33  1  0  0  0  0
 14 15  1  0  0  0  0
 14 34  1  0  0  0  0
 14 35  1  0  0  0  0
 15 16  1  0  0  0  0
 15 36  1  0  0  0  0
 15 37  1  0  0  0  0
 16 17  1  0  0  0  0
 16 38  1  0  0  0  0
 16 39  1  0  0  0  0
 17 18  1  0  0  0  0
 17 40  1  0  0  0  0
 18 41  1  0  0  0  0
 18 42  1  0  0  0  0
 18 43  1  0  0  0  0
 19 20  1  0  0  0  0
 20 21  1  0  0  0  0
 21 44  1  0  0  0  0
 21 45  1  0  0  0  0
 21 46  1  0  0  0  0
M  END
> <s_m_source_file>
AV-unprocessed.smi

> <i_m_source_file_index>
910

> <i_lp_mmshare_version>
43012

> <i_f3d_flags>
0

> <s_epik_input>
W0NIM11jMW5jKG9jMVtDSDNdKVtOSF1DKD1PKVtOSF1bQ0gyXVtDSDJdT1tDQEBIXTJbQ0gyXVtDSDJdW0NIMl1bQ0gyXVtDQEhdMltDSDNd

> <s_epik_cmdline>
J2VwaWtfcHl0aG9uJywgJy1waCcsICc3LjAnLCAnLXRuJywgJzgnLCAnLW1hJywgJzIwMCcsICctbWV0YWxfYmluZGluZycsICctaW1hZScsICc8aW5maWxlLm1hZT4nLCAnLW9tYWUnLCAnPG91dGZpbGUubWFlPic=

> <r_lp_tautomer_probability>
0.785861

> <r_epik_Ionization_Penalty>
4.15957e-05

> <r_epik_Ionization_Penalty_Charging>
0

> <r_epik_Ionization_Penalty_Neutral>
4.15957e-05

> <r_epik_State_Penalty>
0.0240523

> <r_epik_Charging_Adjusted_Penalty>
0.0240523

> <i_epik_Tot_Q>
0

> <i_epik_Tot_abs_Q>
0

> <r_epik_Metal_State_Penalty>
0.057053

> <b_epik_Metal_Only>
0

> <s_lp_Force_Field>
OPLS_2005

> <r_lp_Energy>
8.26637

> <b_lp_Chiralities_Consistent>
1

> <s_lp_Variant>
AV-unprocessed.smi:910-4

> <Gold.Version>
5.8.1

> <Gold.Id.Protein>
6NUR|6NUR_protein|mol2

> <Gold.PLP.Fitness>
49.3236

> <Gold.PLP.PLP>
-42.7251

> <Gold.PLP.part.hbond>
-3.2160

> <Gold.PLP.part.metal>
0.0000

> <Gold.PLP.part.buried>
-4.0011

> <Gold.PLP.part.nonpolar>
-36.8010

> <Gold.PLP.part.repulsive>
0.2991

> <Gold.PLP.ligand.clash>
0.0000

> <Gold.PLP.ligand.torsion>
1.1974

> <Gold.PLP.Chemscore.Hbond>
2.9920

> <Gold.PLP.Chemscore.CHOScore>
0.0000

> <Gold.PLP.Chemscore.Metal>
0.0000

> <Gold.Chemscore.Hbonds>
donor molecule, donor type, donor heavy atom, donor atom, acceptor molecule, acceptor atom, score
      P1  H  6896  6907       L1     7  0.69
      P1  H  6896  6909       L1     3  0.51
      P1  H  6931  6943       L1    19  0.94

> <Gold.PLP.Chemscore.Internal.Correction>
0.0173

> <Gold.Rescore>
     Score         DG    S(hbond)    S(metal)    S(lipo)     H(rot)  DE(clash)    DE(int)     intcor
     21.64     -22.77       2.42        0.00     115.08       1.66       0.06       1.08       ----

> <Gold.Chemscore.Fitness>
21.6365

> <Gold.Chemscore.DG>
-22.7742

> <Gold.Chemscore.ZeroCoef>
-5.4800

> <Gold.Chemscore.Hbond>
2.4171

> <Gold.Chemscore.Metal>
0.0000

> <Gold.Chemscore.Lipo>
115.0815

> <Gold.Chemscore.Internal_Hbond>
0.0000

> <Gold.Chemscore.DEClash>
0.0607

> <Gold.Chemscore.DEInternal>
1.0769

> <Gold.Chemscore.Rot>
1.6576

> <Gold.Chemscore.Internal.Correction>
   9.000000E+99

> <Gold.Chemscore.Hbonds>
donor molecule, donor type, donor heavy atom, donor atom, acceptor molecule, acceptor atom, score
      P1  H  6896  6907       L1     7  0.12
      P1  H  6896  6909       L1     3  0.42
      P1  H  6931  6943       L1    19  0.77

> <Gold.Chemscore.Hbond.Weighted>
-8.0732

> <Gold.Chemscore.Metal.Weighted>
-0.0000

> <Gold.Chemscore.Lipo.Weighted>
-13.4645

> <Gold.Chemscore.Internal_Hbond.Weighted>
0.0000

> <Gold.Chemscore.DEClash.Weighted>
0.0607

> <Gold.Chemscore.DEInternal.Weighted>
1.0769

> <Gold.Chemscore.Rot.Weighted>
4.2436

> <Gold.Chemscore.Internal.Correction.Weighted>
   9.000000E+99

> <Gold.Protein.RotatedTorsions>
[ 6907 6896 6895 6894 ] final   32.77 input  -60.11 | X-H torsion
[ 7974 7965 7964 7962 ] final  100.33 input  175.53 | X-H torsion
[ 8008 7997 7996 7995 ] final  -88.33 input   59.86 | X-H torsion
[ 10167 10162 10161 10158 ] final   93.91 input  -65.29 | X-H torsion
[ 10718 10713 10712 10709 ] final -104.14 input   66.30 | X-H torsion
[ 10763 10752 10751 10750 ] final -128.62 input  -60.55 | X-H torsion
[ 11005 11000 10999 10996 ] final  160.07 input  -57.11 | X-H torsion

> <Gold.Protein.ActiveResidues>
 VAL166  LYS551  ARG553  GLY616  TRP617  ASP618  TYR619  PRO620  LYS621  CYS622 
 ASP623  PHE694  ASN695  SER759  ASP760  ASP761  ALA762  ILE779  LEU786  VAL792 
 PHE793  MET794  SER795  GLU796  ALA797  LYS798  CYS799  TRP800  GLU811  SER814 

> <Gold.Protein.RotatedAtoms>
  152.0791  134.9483  160.0573 H   0  0  0  0  0  0  0  0  0  0  0  0  # atno 6907 bound_to 6896
  152.0778  133.4133  159.4496 H   0  0  0  0  0  0  0  0  0  0  0  0  # atno 6908 bound_to 6896
  150.6836  134.2936  159.4720 H   0  0  0  0  0  0  0  0  0  0  0  0  # atno 6909 bound_to 6896
  145.3870  139.2369  143.3372 H   0  0  0  0  0  0  0  0  0  0  0  0  # atno 7974 bound_to 7965
  154.6736  140.0555  157.0191 H   0  0  0  0  0  0  0  0  0  0  0  0  # atno 8008 bound_to 7997
  155.1053  140.3233  155.4517 H   0  0  0  0  0  0  0  0  0  0  0  0  # atno 8009 bound_to 7997
  156.2667  140.2024  156.6179 H   0  0  0  0  0  0  0  0  0  0  0  0  # atno 8010 bound_to 7997
  139.8134  144.6763  150.9611 H   0  0  0  0  0  0  0  0  0  0  0  0  # atno 10167 bound_to 10162
  156.0293  130.5501  150.7354 H   0  0  0  0  0  0  0  0  0  0  0  0  # atno 10718 bound_to 10713
  154.8756  135.3922  154.3786 H   0  0  0  0  0  0  0  0  0  0  0  0  # atno 10763 bound_to 10752
  153.4537  135.7028  153.6098 H   0  0  0  0  0  0  0  0  0  0  0  0  # atno 10764 bound_to 10752
  153.4627  135.3808  155.2316 H   0  0  0  0  0  0  0  0  0  0  0  0  # atno 10765 bound_to 10752
  140.2024  134.8328  157.3032 H   0  0  0  0  0  0  0  0  0  0  0  0  # atno 11005 bound_to 11000
  146.2815  140.4547  142.8774 LP  0  0  0  0  0  0  0  0  0  0  0  0  # atno 17320 bound_to 7965
  144.8467  140.6940  143.6194 LP  0  0  0  0  0  0  0  0  0  0  0  0  # atno 17321 bound_to 7965
  140.7817  143.4162  151.0913 LP  0  0  0  0  0  0  0  0  0  0  0  0  # atno 17342 bound_to 10162
  139.7827  143.8332  152.3140 LP  0  0  0  0  0  0  0  0  0  0  0  0  # atno 17343 bound_to 10162
  157.4936  131.0913  151.0397 LP  0  0  0  0  0  0  0  0  0  0  0  0  # atno 17370 bound_to 10713
  157.0797  130.5898  149.5418 LP  0  0  0  0  0  0  0  0  0  0  0  0  # atno 17371 bound_to 10713
  140.2040  134.4220  155.7647 LP  0  0  0  0  0  0  0  0  0  0  0  0  # atno 17394 bound_to 11000
  141.2227  133.7086  156.8230 LP  0  0  0  0  0  0  0  0  0  0  0  0  # atno 17395 bound_to 11000

$$$$
