AV-unprocessed.smi:512|AV-procd|sdf|2768|dock5
  -GOLD-   2262023233D 1   1.00000     0.00000
 Structure written by MMmdl.
 49 51  0  0  0  0  0  0  0  0  2 V2000
  145.5256  143.7254  153.4769 C   0  0  0  0  0  0  0  0  0  0  0  0
  146.1875  142.8507  154.5439 C   0  0  0  0  0  0  0  0  0  0  0  0
  147.4470  142.4242  154.0577 O   0  0  0  0  0  0  0  0  0  0  0  0
  148.0931  141.4999  154.9180 C   0  0  0  0  0  0  0  0  0  0  0  0
  149.1817  140.7584  154.1299 C   0  0  0  0  0  0  0  0  0  0  0  0
  149.1902  139.3301  154.4390 N   0  0  0  0  0  0  0  0  0  0  0  0
  148.1904  138.4205  154.2870 C   0  0  0  0  0  0  0  0  0  0  0  0
  146.9584  138.7663  153.7338 N   0  0  0  0  0  0  0  0  0  0  0  0
  146.5375  138.4660  152.3675 C   0  0  0  0  0  0  0  0  0  0  0  0
  145.5226  137.3081  152.3347 C   0  0  0  0  0  0  0  0  0  0  0  0
  144.3521  137.6013  153.1961 N   0  3  0  0  0  0  0  0  0  0  0  0
  143.3478  136.5167  153.1817 C   0  0  0  0  0  0  0  0  0  0  0  0
  144.7605  137.9830  154.5686 C   0  0  0  0  0  0  0  0  0  0  0  0
  145.7886  139.1262  154.5285 C   0  0  0  0  0  0  0  0  0  0  0  0
  148.4731  137.1966  154.7408 N   0  0  0  0  0  0  0  0  0  0  0  0
  149.7740  137.3293  155.2033 C   0  0  0  0  0  0  0  0  0  0  0  0
  150.2189  138.6007  155.0361 C   0  0  0  0  0  0  0  0  0  0  0  0
  151.5540  139.0321  155.4701 C   0  0  0  0  0  0  0  0  0  0  0  0
  151.9671  140.1832  155.3486 O   0  0  0  0  0  0  0  0  0  0  0  0
  152.2824  138.0311  156.0213 N   0  0  0  0  0  0  0  0  0  0  0  0
  151.9008  136.7308  156.2091 C   0  0  0  0  0  0  0  0  0  0  0  0
  152.6814  135.9284  156.7207 O   0  0  0  0  0  0  0  0  0  0  0  0
  150.6380  136.3733  155.8097 N   0  0  0  0  0  0  0  0  0  0  0  0
  150.1739  134.9969  155.9920 C   0  0  0  0  0  0  0  0  0  0  0  0
  153.2126  138.2727  156.3306 H   0  0  0  0  0  0  0  0  0  0  0  0
  144.5486  144.0759  153.8102 H   0  0  0  0  0  0  0  0  0  0  0  0
  145.3840  143.1701  152.5494 H   0  0  0  0  0  0  0  0  0  0  0  0
  146.1373  144.5997  153.2537 H   0  0  0  0  0  0  0  0  0  0  0  0
  146.3117  143.4162  155.4684 H   0  0  0  0  0  0  0  0  0  0  0  0
  145.5563  141.9884  154.7635 H   0  0  0  0  0  0  0  0  0  0  0  0
  148.5373  142.0239  155.7653 H   0  0  0  0  0  0  0  0  0  0  0  0
  147.3686  140.7876  155.3160 H   0  0  0  0  0  0  0  0  0  0  0  0
  149.0236  140.9118  153.0655 H   0  0  0  0  0  0  0  0  0  0  0  0
  150.1639  141.1793  154.3397 H   0  0  0  0  0  0  0  0  0  0  0  0
  146.1115  139.3627  151.9153 H   0  0  0  0  0  0  0  0  0  0  0  0
  147.4023  138.1884  151.7652 H   0  0  0  0  0  0  0  0  0  0  0  0
  145.1907  137.1346  151.3104 H   0  0  0  0  0  0  0  0  0  0  0  0
  146.0016  136.3883  152.6751 H   0  0  0  0  0  0  0  0  0  0  0  0
  143.7589  135.5966  153.5992 H   0  0  0  0  0  0  0  0  0  0  0  0
  143.0173  136.3131  152.1627 H   0  0  0  0  0  0  0  0  0  0  0  0
  142.4712  136.7964  153.7668 H   0  0  0  0  0  0  0  0  0  0  0  0
  143.8845  138.2921  155.1398 H   0  0  0  0  0  0  0  0  0  0  0  0
  145.1864  137.1170  155.0783 H   0  0  0  0  0  0  0  0  0  0  0  0
  146.1017  139.3817  155.5416 H   0  0  0  0  0  0  0  0  0  0  0  0
  145.3382  140.0274  154.1102 H   0  0  0  0  0  0  0  0  0  0  0  0
  150.7355  134.3200  155.3470 H   0  0  0  0  0  0  0  0  0  0  0  0
  149.1169  134.8765  155.7553 H   0  0  0  0  0  0  0  0  0  0  0  0
  150.3100  134.6746  157.0253 H   0  0  0  0  0  0  0  0  0  0  0  0
  143.9047  138.4150  152.7984 H   0  0  0  0  0  0  0  0  0  0  0  0
  1  2  1  0  0  0  0
  1 26  1  0  0  0  0
  1 27  1  0  0  0  0
  1 28  1  0  0  0  0
  2  3  1  0  0  0  0
  2 29  1  0  0  0  0
  2 30  1  0  0  0  0
  3  4  1  0  0  0  0
  4  5  1  0  0  0  0
  4 31  1  0  0  0  0
  4 32  1  0  0  0  0
  5  6  1  0  0  0  0
  5 33  1  0  0  0  0
  5 34  1  0  0  0  0
  6 17  1  0  0  0  0
  6  7  1  0  0  0  0
  7  8  1  0  0  0  0
  7 15  2  0  0  0  0
  8 14  1  0  0  0  0
  8  9  1  0  0  0  0
  9 10  1  0  0  0  0
  9 35  1  0  0  0  0
  9 36  1  0  0  0  0
 10 11  1  0  0  0  0
 10 37  1  0  0  0  0
 10 38  1  0  0  0  0
 11 12  1  0  0  0  0
 11 13  1  0  0  0  0
 11 49  1  0  0  0  0
 12 39  1  0  0  0  0
 12 40  1  0  0  0  0
 12 41  1  0  0  0  0
 13 14  1  0  0  0  0
 13 42  1  0  0  0  0
 13 43  1  0  0  0  0
 14 44  1  0  0  0  0
 14 45  1  0  0  0  0
 15 16  1  0  0  0  0
 16 23  1  0  0  0  0
 16 17  2  0  0  0  0
 17 18  1  0  0  0  0
 18 19  2  0  0  0  0
 18 20  1  0  0  0  0
 20 25  1  0  0  0  0
 20 21  1  0  0  0  0
 21 22  2  0  0  0  0
 21 23  1  0  0  0  0
 23 24  1  0  0  0  0
 24 46  1  0  0  0  0
 24 47  1  0  0  0  0
 24 48  1  0  0  0  0
M  CHG  1  11   1
M  END
> <s_m_source_file>
AV-unprocessed.smi

> <i_m_source_file_index>
512

> <i_lp_mmshare_version>
43012

> <i_f3d_flags>
0

> <s_epik_input>
W0NIM11uMWMoPU8pW25IXWMoPU8pYyhjMTIpbihbQ0gyXVtDSDJdT1tDSDJdW0NIM10pYyhuMilOM1tDSDJdW0NIMl1OKFtDSDNdKVtDSDJdW0NIMl0z

> <s_epik_cmdline>
J2VwaWtfcHl0aG9uJywgJy1waCcsICc3LjAnLCAnLXRuJywgJzgnLCAnLW1hJywgJzIwMCcsICctbWV0YWxfYmluZGluZycsICctaW1hZScsICc8aW5maWxlLm1hZT4nLCAnLW9tYWUnLCAnPG91dGZpbGUubWFlPic=

> <r_epik_Ionization_Penalty>
0.06478

> <r_epik_Ionization_Penalty_Charging>
0.0647782

> <r_epik_Ionization_Penalty_Neutral>
1.82007e-06

> <r_epik_State_Penalty>
0.0564218

> <r_epik_Charging_Adjusted_Penalty>
0.1212

> <i_epik_Tot_Q>
1

> <i_epik_Tot_abs_Q>
1

> <r_epik_Metal_State_Penalty>
0.0827594

> <b_epik_Metal_Only>
0

> <s_lp_Force_Field>
OPLS_2005

> <r_lp_Energy>
46.3907

> <b_lp_Chiralities_Consistent>
1

> <s_lp_Variant>
AV-unprocessed.smi:512-1

> <Gold.Version>
5.8.1

> <Gold.Id.Protein>
6NUR|6NUR_protein|mol2

> <Gold.PLP.Fitness>
42.6951

> <Gold.PLP.PLP>
-34.3699

> <Gold.PLP.part.hbond>
-3.0000

> <Gold.PLP.part.metal>
0.0000

> <Gold.PLP.part.buried>
-2.5871

> <Gold.PLP.part.nonpolar>
-30.9808

> <Gold.PLP.part.repulsive>
1.4891

> <Gold.PLP.ligand.clash>
0.0000

> <Gold.PLP.ligand.torsion>
1.8559

> <Gold.PLP.Chemscore.Hbond>
3.7840

> <Gold.PLP.Chemscore.CHOScore>
0.0000

> <Gold.PLP.Chemscore.Metal>
0.0000

> <Gold.Chemscore.Hbonds>
donor molecule, donor type, donor heavy atom, donor atom, acceptor molecule, acceptor atom, score
      L1  H    11    49       P1 10175  1.82
      P1  H  7989  7998       L1    19  0.78
      P1  H 10752 10764       L1    22  0.95

> <Gold.PLP.Chemscore.Internal.Correction>
0.6850

> <Gold.Rescore>
     Score         DG    S(hbond)    S(metal)    S(lipo)     H(rot)  DE(clash)    DE(int)     intcor
     13.16     -15.21       2.18        0.00      57.14       1.66       0.24       1.81       ----

> <Gold.Chemscore.Fitness>
13.1648

> <Gold.Chemscore.DG>
-15.2137

> <Gold.Chemscore.ZeroCoef>
-5.4800

> <Gold.Chemscore.Hbond>
2.1834

> <Gold.Chemscore.Metal>
0.0000

> <Gold.Chemscore.Lipo>
57.1390

> <Gold.Chemscore.Internal_Hbond>
0.0000

> <Gold.Chemscore.DEClash>
0.2357

> <Gold.Chemscore.DEInternal>
1.8132

> <Gold.Chemscore.Rot>
1.6579

> <Gold.Chemscore.Internal.Correction>
   9.000000E+99

> <Gold.Chemscore.Hbonds>
donor molecule, donor type, donor heavy atom, donor atom, acceptor molecule, acceptor atom, score
      L1  H    11    49       P1 10175  0.87
      P1  H  7989  7998       L1    19  0.62
      P1  H 10752 10764       L1    22  0.22

> <Gold.Chemscore.Hbond.Weighted>
-7.2926

> <Gold.Chemscore.Metal.Weighted>
-0.0000

> <Gold.Chemscore.Lipo.Weighted>
-6.6853

> <Gold.Chemscore.Internal_Hbond.Weighted>
0.0000

> <Gold.Chemscore.DEClash.Weighted>
0.2357

> <Gold.Chemscore.DEInternal.Weighted>
1.8132

> <Gold.Chemscore.Rot.Weighted>
4.2442

> <Gold.Chemscore.Internal.Correction.Weighted>
   9.000000E+99

> <Gold.Protein.RotatedTorsions>
[ 6907 6896 6895 6894 ] final -148.41 input  -60.11 | X-H torsion
[ 7974 7965 7964 7962 ] final  -21.91 input  175.53 | X-H torsion
[ 8008 7997 7996 7995 ] final   88.27 input   59.86 | X-H torsion
[ 10167 10162 10161 10158 ] final   66.11 input  -65.29 | X-H torsion
[ 10718 10713 10712 10709 ] final  113.73 input   66.30 | X-H torsion
[ 10763 10752 10751 10750 ] final   -5.69 input  -60.55 | X-H torsion
[ 11005 11000 10999 10996 ] final -165.36 input  -57.11 | X-H torsion

> <Gold.Protein.ActiveResidues>
 VAL166  LYS551  ARG553  GLY616  TRP617  ASP618  TYR619  PRO620  LYS621  CYS622 
 ASP623  PHE694  ASN695  SER759  ASP760  ASP761  ALA762  ILE779  LEU786  VAL792 
 PHE793  MET794  SER795  GLU796  ALA797  LYS798  CYS799  TRP800  GLU811  SER814 

> <Gold.Protein.RotatedAtoms>
  151.1694  133.4794  159.2593 H   0  0  0  0  0  0  0  0  0  0  0  0  # atno 6907 bound_to 6896
  151.1372  135.0160  159.8619 H   0  0  0  0  0  0  0  0  0  0  0  0  # atno 6908 bound_to 6896
  152.5461  134.1591  159.8603 H   0  0  0  0  0  0  0  0  0  0  0  0  # atno 6909 bound_to 6896
  146.1706  140.4407  142.8534 H   0  0  0  0  0  0  0  0  0  0  0  0  # atno 7974 bound_to 7965
  155.9857  140.3373  155.6705 H   0  0  0  0  0  0  0  0  0  0  0  0  # atno 8008 bound_to 7997
  155.6488  140.0703  157.2612 H   0  0  0  0  0  0  0  0  0  0  0  0  # atno 8009 bound_to 7997
  154.4204  140.1729  156.1640 H   0  0  0  0  0  0  0  0  0  0  0  0  # atno 8010 bound_to 7997
  140.1040  144.4878  150.7019 H   0  0  0  0  0  0  0  0  0  0  0  0  # atno 10167 bound_to 10162
  157.6322  131.0988  150.7083 H   0  0  0  0  0  0  0  0  0  0  0  0  # atno 10718 bound_to 10713
  153.4021  135.7005  153.6419 H   0  0  0  0  0  0  0  0  0  0  0  0  # atno 10763 bound_to 10752
  153.4948  135.3665  155.2510 H   0  0  0  0  0  0  0  0  0  0  0  0  # atno 10764 bound_to 10752
  154.8711  135.4097  154.3357 H   0  0  0  0  0  0  0  0  0  0  0  0  # atno 10765 bound_to 10752
  140.5765  134.5185  157.5171 H   0  0  0  0  0  0  0  0  0  0  0  0  # atno 11005 bound_to 11000
  144.8157  140.6463  143.6386 LP  0  0  0  0  0  0  0  0  0  0  0  0  # atno 17320 bound_to 7965
  145.4351  139.1543  143.4001 LP  0  0  0  0  0  0  0  0  0  0  0  0  # atno 17321 bound_to 7965
  140.6962  143.2405  151.4994 LP  0  0  0  0  0  0  0  0  0  0  0  0  # atno 17342 bound_to 10162
  139.5655  144.2052  152.1758 LP  0  0  0  0  0  0  0  0  0  0  0  0  # atno 17343 bound_to 10162
  156.7420  130.4742  149.5475 LP  0  0  0  0  0  0  0  0  0  0  0  0  # atno 17370 bound_to 10713
  156.1533  130.6325  151.0625 LP  0  0  0  0  0  0  0  0  0  0  0  0  # atno 17371 bound_to 10713
  139.9337  134.7915  156.0861 LP  0  0  0  0  0  0  0  0  0  0  0  0  # atno 17394 bound_to 11000
  141.1023  133.6672  156.2783 LP  0  0  0  0  0  0  0  0  0  0  0  0  # atno 17395 bound_to 11000

$$$$
