AV-unprocessed.smi:2473|AV-procd|sdf|9745|dock6
  -GOLD-   2272013383D 1   1.00000     0.00000
 Structure written by MMmdl.
 48 49  0  0  0  0  0  0  0  0  2 V2000
  149.3314  141.7736  157.5770 C   0  0  0  0  0  0  0  0  0  0  0  0
  150.7047  142.3036  158.0144 C   0  0  2  0  0  0  0  0  0  0  0  0
  151.4174  141.3053  158.9440 C   0  0  0  0  0  0  0  0  0  0  0  0
  152.7984  141.8320  159.3808 C   0  0  2  0  0  0  0  0  0  0  0  0
  153.5067  140.8444  160.3171 C   0  0  0  0  0  0  0  0  0  0  0  0
  153.8401  141.1875  161.4516 O   0  0  0  0  0  0  0  0  0  0  0  0
  153.7572  139.6255  159.8165 N   0  0  0  0  0  0  0  0  0  0  0  0
  154.4990  138.5715  160.5016 C   0  0  0  0  0  0  0  0  0  0  0  0
  153.5882  137.6321  161.3187 C   0  0  0  0  0  0  0  0  0  0  0  0
  154.2983  136.4393  161.8912 C   0  0  0  0  0  0  0  0  0  0  0  0
  154.9019  135.4859  161.1714 N   0  3  0  0  0  0  0  0  0  0  0  0
  155.4646  134.5488  161.9939 C   0  0  0  0  0  0  0  0  0  0  0  0
  155.1894  134.9449  163.2761 C   0  0  0  0  0  0  0  0  0  0  0  0
  154.4690  136.1083  163.1835 N   0  0  0  0  0  0  0  0  0  0  0  0
  153.9462  136.8935  164.3038 C   0  0  0  0  0  0  0  0  0  0  0  0
  152.6546  143.2088  160.0655 C   0  0  0  0  0  0  0  0  0  0  0  0
  151.9303  144.2613  159.1912 C   0  0  0  0  0  0  0  0  0  0  0  0
  151.6507  145.5099  160.0503 C   0  0  0  0  0  0  0  0  0  0  0  0
  152.8164  144.6968  158.0033 C   0  0  0  0  0  0  0  0  0  0  0  0
  150.5808  143.6825  158.6968 C   0  0  0  0  0  0  0  0  0  0  0  0
  148.6717  141.6263  158.4326 H   0  0  0  0  0  0  0  0  0  0  0  0
  149.4254  140.8178  157.0609 H   0  0  0  0  0  0  0  0  0  0  0  0
  148.8411  142.4686  156.8948 H   0  0  0  0  0  0  0  0  0  0  0  0
  151.3052  142.4150  157.1116 H   0  0  0  0  0  0  0  0  0  0  0  0
  150.7917  141.1183  159.8188 H   0  0  0  0  0  0  0  0  0  0  0  0
  151.5305  140.3466  158.4356 H   0  0  0  0  0  0  0  0  0  0  0  0
  153.4154  141.9423  158.4881 H   0  0  0  0  0  0  0  0  0  0  0  0
  153.4364  139.4249  158.8801 H   0  0  0  0  0  0  0  0  0  0  0  0
  155.0951  138.0009  159.7881 H   0  0  0  0  0  0  0  0  0  0  0  0
  155.2063  139.0609  161.1717 H   0  0  0  0  0  0  0  0  0  0  0  0
  153.1199  138.1750  162.1391 H   0  0  0  0  0  0  0  0  0  0  0  0
  152.7799  137.2488  160.6956 H   0  0  0  0  0  0  0  0  0  0  0  0
  156.0033  133.6924  161.6148 H   0  0  0  0  0  0  0  0  0  0  0  0
  155.4450  134.4941  164.2243 H   0  0  0  0  0  0  0  0  0  0  0  0
  154.2694  136.4478  165.2449 H   0  0  0  0  0  0  0  0  0  0  0  0
  152.8568  136.9004  164.2622 H   0  0  0  0  0  0  0  0  0  0  0  0
  154.3245  137.9135  164.2439 H   0  0  0  0  0  0  0  0  0  0  0  0
  152.1020  143.0824  160.9983 H   0  0  0  0  0  0  0  0  0  0  0  0
  153.6383  143.5851  160.3516 H   0  0  0  0  0  0  0  0  0  0  0  0
  151.1334  146.2795  159.4764 H   0  0  0  0  0  0  0  0  0  0  0  0
  152.5753  145.9476  160.4284 H   0  0  0  0  0  0  0  0  0  0  0  0
  151.0263  145.2717  160.9122 H   0  0  0  0  0  0  0  0  0  0  0  0
  152.3194  145.4567  157.3993 H   0  0  0  0  0  0  0  0  0  0  0  0
  153.0643  143.8716  157.3376 H   0  0  0  0  0  0  0  0  0  0  0  0
  153.7580  145.1232  158.3507 H   0  0  0  0  0  0  0  0  0  0  0  0
  150.1048  144.3884  158.0146 H   0  0  0  0  0  0  0  0  0  0  0  0
  149.9015  143.5863  159.5455 H   0  0  0  0  0  0  0  0  0  0  0  0
  154.9366  135.4644  160.1599 H   0  0  0  0  0  0  0  0  0  0  0  0
  1  2  1  0  0  0  0
  1 21  1  0  0  0  0
  1 22  1  0  0  0  0
  1 23  1  0  0  0  0
  2 20  1  0  0  0  0
  2  3  1  0  0  0  0
  2 24  1  0  0  0  0
  3  4  1  0  0  0  0
  3 25  1  0  0  0  0
  3 26  1  0  0  0  0
  4  5  1  0  0  0  0
  4 16  1  0  0  0  0
  4 27  1  0  0  0  0
  5  6  2  0  0  0  0
  5  7  1  0  0  0  0
  7  8  1  0  0  0  0
  7 28  1  0  0  0  0
  8  9  1  0  0  0  0
  8 29  1  0  0  0  0
  8 30  1  0  0  0  0
  9 10  1  0  0  0  0
  9 31  1  0  0  0  0
  9 32  1  0  0  0  0
 10 14  1  0  0  0  0
 10 11  2  0  0  0  0
 11 12  1  0  0  0  0
 11 48  1  0  0  0  0
 12 13  2  0  0  0  0
 12 33  1  0  0  0  0
 13 14  1  0  0  0  0
 13 34  1  0  0  0  0
 14 15  1  0  0  0  0
 15 35  1  0  0  0  0
 15 36  1  0  0  0  0
 15 37  1  0  0  0  0
 16 17  1  0  0  0  0
 16 38  1  0  0  0  0
 16 39  1  0  0  0  0
 17 18  1  0  0  0  0
 17 19  1  0  0  0  0
 17 20  1  0  0  0  0
 18 40  1  0  0  0  0
 18 41  1  0  0  0  0
 18 42  1  0  0  0  0
 19 43  1  0  0  0  0
 19 44  1  0  0  0  0
 19 45  1  0  0  0  0
 20 46  1  0  0  0  0
 20 47  1  0  0  0  0
M  CHG  1  11   1
M  END
> <s_m_source_file>
AV-unprocessed.smi

> <i_m_source_file_index>
2473

> <i_lp_mmshare_version>
43012

> <i_f3d_flags>
0

> <s_epik_input>
W0NIM11bQ0BASF0oW0NIMl0xKVtDSDJdW0NASF0oW0NIMl1DMShbQ0gzXSlbQ0gzXSlDKD1PKVtOSF1bQ0gyXVtDSDJdYzJuW2NIXVtjSF1uMltDSDNd

> <s_epik_cmdline>
J2VwaWtfcHl0aG9uJywgJy1waCcsICc3LjAnLCAnLXRuJywgJzgnLCAnLW1hJywgJzIwMCcsICctbWV0YWxfYmluZGluZycsICctaW1hZScsICc8aW5maWxlLm1hZT4nLCAnLW9tYWUnLCAnPG91dGZpbGUubWFlPic=

> <r_lp_tautomer_probability>
1

> <r_epik_Ionization_Penalty>
0.0796112

> <r_epik_Ionization_Penalty_Charging>
0

> <r_epik_Ionization_Penalty_Neutral>
0.0796112

> <r_epik_State_Penalty>
0.0704541

> <r_epik_Charging_Adjusted_Penalty>
0.0704541

> <i_epik_Tot_Q>
1

> <i_epik_Tot_abs_Q>
1

> <r_epik_Metal_State_Penalty>
0.409899

> <b_epik_Metal_Only>
0

> <s_lp_Force_Field>
OPLS_2005

> <r_lp_Energy>
16.1806

> <b_lp_Chiralities_Consistent>
1

> <s_lp_Variant>
AV-unprocessed.smi:2473-3

> <Gold.Version>
5.8.1

> <Gold.Id.Protein>
6NUR|6NUR_protein|mol2

> <Gold.PLP.Fitness>
47.6123

> <Gold.PLP.PLP>
-48.0156

> <Gold.PLP.part.hbond>
0.0000

> <Gold.PLP.part.metal>
0.0000

> <Gold.PLP.part.buried>
-6.5802

> <Gold.PLP.part.nonpolar>
-41.6880

> <Gold.PLP.part.repulsive>
0.1369

> <Gold.PLP.ligand.clash>
0.0000

> <Gold.PLP.ligand.torsion>
0.2130

> <Gold.PLP.Chemscore.Hbond>
0.0000

> <Gold.PLP.Chemscore.CHOScore>
0.0000

> <Gold.PLP.Chemscore.Metal>
0.0000

> <Gold.PLP.Chemscore.Internal.Correction>
0.0228

> <Gold.Rescore>
     Score         DG    S(hbond)    S(metal)    S(lipo)     H(rot)  DE(clash)    DE(int)     intcor
     15.83     -16.09       0.00        0.00     125.25       1.58       0.02       0.24       ----

> <Gold.Chemscore.Fitness>
15.8258

> <Gold.Chemscore.DG>
-16.0851

> <Gold.Chemscore.ZeroCoef>
-5.4800

> <Gold.Chemscore.Hbond>
0.0000

> <Gold.Chemscore.Metal>
0.0000

> <Gold.Chemscore.Lipo>
125.2530

> <Gold.Chemscore.Internal_Hbond>
0.0000

> <Gold.Chemscore.DEClash>
0.0156

> <Gold.Chemscore.DEInternal>
0.2437

> <Gold.Chemscore.Rot>
1.5818

> <Gold.Chemscore.Internal.Correction>
   9.000000E+99

> <Gold.Chemscore.Hbond.Weighted>
-0.0000

> <Gold.Chemscore.Metal.Weighted>
-0.0000

> <Gold.Chemscore.Lipo.Weighted>
-14.6546

> <Gold.Chemscore.Internal_Hbond.Weighted>
0.0000

> <Gold.Chemscore.DEClash.Weighted>
0.0156

> <Gold.Chemscore.DEInternal.Weighted>
0.2437

> <Gold.Chemscore.Rot.Weighted>
4.0495

> <Gold.Chemscore.Internal.Correction.Weighted>
   9.000000E+99

> <Gold.Protein.RotatedTorsions>
[ 6907 6896 6895 6894 ] final  124.58 input  -60.11 | X-H torsion
[ 7974 7965 7964 7962 ] final  154.64 input  175.53 | X-H torsion
[ 8008 7997 7996 7995 ] final  129.83 input   59.86 | X-H torsion
[ 10167 10162 10161 10158 ] final -147.22 input  -65.29 | X-H torsion
[ 10718 10713 10712 10709 ] final   71.97 input   66.30 | X-H torsion
[ 10763 10752 10751 10750 ] final  101.87 input  -60.55 | X-H torsion
[ 11005 11000 10999 10996 ] final  -89.38 input  -57.11 | X-H torsion

> <Gold.Protein.ActiveResidues>
 VAL166  LYS551  ARG553  GLY616  TRP617  ASP618  TYR619  PRO620  LYS621  CYS622 
 ASP623  PHE694  ASN695  SER759  ASP760  ASP761  ALA762  ILE779  LEU786  VAL792 
 PHE793  MET794  SER795  GLU796  ALA797  LYS798  CYS799  TRP800  GLU811  SER814 

> <Gold.Protein.RotatedAtoms>
  152.4065  133.6897  159.6360 H   0  0  0  0  0  0  0  0  0  0  0  0  # atno 6907 bound_to 6896
  150.7950  133.8699  159.3264 H   0  0  0  0  0  0  0  0  0  0  0  0  # atno 6908 bound_to 6896
  151.6452  135.1010  160.0201 H   0  0  0  0  0  0  0  0  0  0  0  0  # atno 6909 bound_to 6896
  144.8076  139.6960  143.6155 H   0  0  0  0  0  0  0  0  0  0  0  0  # atno 7974 bound_to 7965
  156.2943  140.2611  156.2662 H   0  0  0  0  0  0  0  0  0  0  0  0  # atno 8008 bound_to 7997
  154.9739  140.0390  157.2266 H   0  0  0  0  0  0  0  0  0  0  0  0  # atno 8009 bound_to 7997
  154.7833  140.2799  155.6052 H   0  0  0  0  0  0  0  0  0  0  0  0  # atno 8010 bound_to 7997
  139.7641  143.8333  152.2613 H   0  0  0  0  0  0  0  0  0  0  0  0  # atno 10167 bound_to 10162
  157.6478  130.9555  150.0863 H   0  0  0  0  0  0  0  0  0  0  0  0  # atno 10718 bound_to 10713
  153.3323  135.4030  155.1505 H   0  0  0  0  0  0  0  0  0  0  0  0  # atno 10763 bound_to 10752
  154.8625  135.3613  154.5454 H   0  0  0  0  0  0  0  0  0  0  0  0  # atno 10764 bound_to 10752
  153.5894  135.7074  153.5489 H   0  0  0  0  0  0  0  0  0  0  0  0  # atno 10765 bound_to 10752
  141.1585  133.7627  156.9587 H   0  0  0  0  0  0  0  0  0  0  0  0  # atno 11005 bound_to 11000
  146.2370  139.5924  142.9517 LP  0  0  0  0  0  0  0  0  0  0  0  0  # atno 17320 bound_to 7965
  145.5401  141.0421  143.2335 LP  0  0  0  0  0  0  0  0  0  0  0  0  # atno 17321 bound_to 7965
  139.8348  144.7237  150.9405 LP  0  0  0  0  0  0  0  0  0  0  0  0  # atno 17342 bound_to 10162
  140.7809  143.4037  151.1107 LP  0  0  0  0  0  0  0  0  0  0  0  0  # atno 17343 bound_to 10162
  156.1825  130.3650  149.9017 LP  0  0  0  0  0  0  0  0  0  0  0  0  # atno 17370 bound_to 10713
  156.6965  130.8916  151.3594 LP  0  0  0  0  0  0  0  0  0  0  0  0  # atno 17371 bound_to 10713
  140.1208  134.9418  157.2200 LP  0  0  0  0  0  0  0  0  0  0  0  0  # atno 17394 bound_to 11000
  140.3075  134.3062  155.7275 LP  0  0  0  0  0  0  0  0  0  0  0  0  # atno 17395 bound_to 11000

$$$$
