#       Name:                AV-unprocessed.smi:1945
#       Creating user name   scv26
#       Creation time:       Fri Mar 27 10:00:32 2020


#       File generated by GOLD software.
#

@<TRIPOS>MOLECULE
AV-unprocessed.smi:1945
    52    53     1
SMALL
NO_CHARGES


@<TRIPOS>ATOM
      1 ****        -4.5406   3.2342  -1.5185 C.3            1 S1                 0.0000
      2 ****        -4.0089   1.8493  -1.7411 C.2            1 S1                 0.0000
      3 ****        -2.6485   1.4251  -1.7631 C.2            1 S1                 0.0000
      4 ****        -2.7558   0.0819  -2.0000 C.2            1 S1                 0.0000
      5 ****        -1.7691  -0.8471  -2.1087 N.am           1 S1                 0.0000
      6 ****        -0.4381  -0.6602  -2.1007 C.2            1 S1                 0.0000
      7 ****         0.1275   0.4332  -2.0859 O.2            1 S1                 0.0000
      8 ****         0.2144  -1.8317  -2.1139 N.am           1 S1                 0.0000
      9 ****         1.6638  -1.9877  -2.0456 C.3            1 S1                 0.0000
     10 ****         2.1626  -1.9679  -0.5930 C.3            1 S1                 0.0000
     11 ****         2.0581  -0.6461  -0.0865 O.3            1 S1                 0.0000
     12 ****         2.3268  -0.5138   1.3018 C.3            1 S1                 0.0000
     13 ****         1.0406  -0.8252   2.0967 C.3            1 S1                 0.0000
     14 ****         1.2213  -0.5503   3.5967 C.3            1 S1                 0.0000
     15 ****         1.6761   0.8953   3.8403 C.3            1 S1                 0.0000
     16 ****         2.9625   1.2062   3.0609 C.3            1 S1                 0.0000
     17 ****         2.7953   0.9377   1.5518 C.3            1 S1                 0.0000
     18 ****         4.0967   1.2531   0.7970 C.3            1 S1                 0.0000
     19 ****        -4.0892  -0.2473  -2.1004 N.pl3          1 S1                 0.0000
     20 ****        -4.7060  -1.5371  -2.3413 C.3            1 S1                 0.0000
     21 ****        -4.8605   0.8506  -1.9460 N.2            1 S1                 0.0000
     22 ****        -3.7385   3.9284  -1.2670 H              1 S1                 0.0000
     23 ****        -5.2616   3.2520  -0.7008 H              1 S1                 0.0000
     24 ****        -5.0381   3.6114  -2.4121 H              1 S1                 0.0000
     25 ****        -1.7597   2.0215  -1.6217 H              1 S1                 0.0000
     26 ****        -2.0841  -1.8036  -2.1755 H              1 S1                 0.0000
     27 ****        -0.3320  -2.6800  -2.1373 H              1 S1                 0.0000
     28 ****         1.9110  -2.9476  -2.4993 H              1 S1                 0.0000
     29 ****         2.1694  -1.2249  -2.6402 H              1 S1                 0.0000
     30 ****         1.5910  -2.6764   0.0071 H              1 S1                 0.0000
     31 ****         3.2069  -2.2803  -0.5547 H              1 S1                 0.0000
     32 ****         3.1246  -1.1968   1.6010 H              1 S1                 0.0000
     33 ****         0.2203  -0.2162   1.7138 H              1 S1                 0.0000
     34 ****         0.7421  -1.8636   1.9558 H              1 S1                 0.0000
     35 ****         0.2862  -0.7402   4.1243 H              1 S1                 0.0000
     36 ****         1.9571  -1.2414   4.0099 H              1 S1                 0.0000
     37 ****         0.8872   1.5842   3.5353 H              1 S1                 0.0000
     38 ****         1.8371   1.0609   4.9059 H              1 S1                 0.0000
     39 ****         3.2434   2.2471   3.2251 H              1 S1                 0.0000
     40 ****         3.7801   0.6010   3.4548 H              1 S1                 0.0000
     41 ****         2.0234   1.6117   1.1766 H              1 S1                 0.0000
     42 ****         4.9092   0.6005   1.1183 H              1 S1                 0.0000
     43 ****         4.4093   2.2835   0.9682 H              1 S1                 0.0000
     44 ****         3.9730   1.1250  -0.2787 H              1 S1                 0.0000
     45 ****        -4.2125  -2.3017  -1.7407 H              1 S1                 0.0000
     46 ****        -4.6107  -1.7946  -3.3962 H              1 S1                 0.0000
     47 ****        -5.7634  -1.5111  -2.0743 H              1 S1                 0.0000
     48 ****        -0.4120   1.2751  -2.0788 LP             1 S1                 0.0000
     49 ****         1.1264   0.4794  -2.0809 LP             1 S1                 0.0000
     50 ****         1.1273  -0.3218  -0.2548 LP             1 S1                 0.0000
     51 ****         2.7068  -0.0706  -0.5845 LP             1 S1                 0.0000
     52 ****        -5.8587   0.9009  -1.9788 LP             1 S1                 0.0000
@<TRIPOS>BOND
    1    1    2 1     
    2    1   22 1     
    3    1   23 1     
    4    1   24 1     
    5    2   21 2     
    6    2    3 1     
    7    3    4 2     
    8    3   25 1     
    9    4    5 1     
   10    4   19 1     
   11    5    6 am    
   12    5   26 1     
   13    6    7 2     
   14    6    8 am    
   15    8    9 1     
   16    8   27 1     
   17    9   10 1     
   18    9   28 1     
   19    9   29 1     
   20   10   11 1     
   21   10   30 1     
   22   10   31 1     
   23   11   12 1     
   24   12   17 1     
   25   12   13 1     
   26   12   32 1     
   27   13   14 1     
   28   13   33 1     
   29   13   34 1     
   30   14   15 1     
   31   14   35 1     
   32   14   36 1     
   33   15   16 1     
   34   15   37 1     
   35   15   38 1     
   36   16   17 1     
   37   16   39 1     
   38   16   40 1     
   39   17   18 1     
   40   17   41 1     
   41   18   42 1     
   42   18   43 1     
   43   18   44 1     
   44   19   20 1     
   45   19   21 1     
   46   20   45 1     
   47   20   46 1     
   48   20   47 1     
   49    7   48 1     
   50    7   49 1     
   51   11   50 1     
   52   11   51 1     
   53   21   52 1     
@<TRIPOS>SUBSTRUCTURE
      1 S1             1
@<TRIPOS>SET
LONE_PAIRS      STATIC     ATOMS    <user>   **** ""
5 48 49 50 51 52
DONOR_HYDROGENS      STATIC     ATOMS    <user>   **** ""
2 26 27
ATOM$BLUE        STATIC     ATOMS    COLORGROUP SYSTEM
5 48 49 50 51 52
ATOM$RED        STATIC     ATOMS    COLORGROUP SYSTEM
2 26 27
