AV-unprocessed.smi:493|AV-procd|sdf|2712|dock5
  -GOLD-   2262023153D 1   1.00000     0.00000
 Structure written by MMmdl.
 46 47  0  0  0  0  0  0  0  0  1 V2000
  146.2591  128.5210  152.9360 C   0  0  0  0  0  0  0  0  0  0  0  0
  147.7831  128.4535  152.7329 C   0  0  0  0  0  0  0  0  0  0  0  0
  148.4107  127.6720  153.9064 C   0  0  0  0  0  0  0  0  0  0  0  0
  148.0788  127.7493  151.3918 C   0  0  0  0  0  0  0  0  0  0  0  0
  148.2721  129.8373  152.7106 N   0  0  0  0  0  0  0  0  0  0  0  0
  148.2513  130.7483  153.6997 C   0  0  0  0  0  0  0  0  0  0  0  0
  147.7754  130.5374  154.8157 O   0  0  0  0  0  0  0  0  0  0  0  0
  148.8503  132.1187  153.3530 C   0  0  0  0  0  0  0  0  0  0  0  0
  148.3087  133.2133  154.1753 N   0  0  0  0  0  0  0  0  0  0  0  0
  149.2390  134.0592  154.8095 C   0  0  0  0  0  0  0  0  0  0  0  0
  148.8490  135.1033  155.5590 C   0  0  0  0  0  0  0  0  0  0  0  0
  150.0657  136.0848  156.4730 S   0  0  0  0  0  0  0  0  0  0  0  0
  149.5917  136.1751  157.8625 O   0  0  0  0  0  0  0  0  0  0  0  0
  151.3975  135.5282  156.1870 O   0  0  0  0  0  0  0  0  0  0  0  0
  150.0218  137.6809  155.8025 N   0  0  0  0  0  0  0  0  0  0  0  0
  150.8059  138.7294  156.4690 C   0  0  0  0  0  0  0  0  0  0  0  0
  151.6915  139.3379  155.3826 C   0  0  0  0  0  0  0  0  0  0  0  0
  150.8543  139.1700  154.1240 C   0  0  0  0  0  0  0  0  0  0  0  0
  150.1597  137.8266  154.3452 C   0  0  0  0  0  0  0  0  0  0  0  0
  147.4347  135.3134  155.7622 C   0  0  0  0  0  0  0  0  0  0  0  0
  146.5377  134.4992  155.1716 C   0  0  0  0  0  0  0  0  0  0  0  0
  146.9572  133.3840  154.3142 C   0  0  0  0  0  0  0  0  0  0  0  0
  146.1435  132.6465  153.7572 O   0  0  0  0  0  0  0  0  0  0  0  0
  145.8176  127.5240  152.9608 H   0  0  0  0  0  0  0  0  0  0  0  0
  145.7736  129.0736  152.1305 H   0  0  0  0  0  0  0  0  0  0  0  0
  146.0034  129.0156  153.8740 H   0  0  0  0  0  0  0  0  0  0  0  0
  148.2398  128.1778  154.8572 H   0  0  0  0  0  0  0  0  0  0  0  0
  149.4869  127.5471  153.7878 H   0  0  0  0  0  0  0  0  0  0  0  0
  147.9817  126.6727  153.9859 H   0  0  0  0  0  0  0  0  0  0  0  0
  147.6331  126.7544  151.3647 H   0  0  0  0  0  0  0  0  0  0  0  0
  149.1481  127.6229  151.2222 H   0  0  0  0  0  0  0  0  0  0  0  0
  147.6756  128.3120  150.5489 H   0  0  0  0  0  0  0  0  0  0  0  0
  148.6835  130.1347  151.8378 H   0  0  0  0  0  0  0  0  0  0  0  0
  149.9365  132.0774  153.4544 H   0  0  0  0  0  0  0  0  0  0  0  0
  148.6700  132.3086  152.2942 H   0  0  0  0  0  0  0  0  0  0  0  0
  150.2765  133.8030  154.6508 H   0  0  0  0  0  0  0  0  0  0  0  0
  150.1205  139.4744  156.8742 H   0  0  0  0  0  0  0  0  0  0  0  0
  151.3950  138.3265  157.2939 H   0  0  0  0  0  0  0  0  0  0  0  0
  151.9547  140.3770  155.5827 H   0  0  0  0  0  0  0  0  0  0  0  0
  152.6157  138.7652  155.2929 H   0  0  0  0  0  0  0  0  0  0  0  0
  150.1123  139.9673  154.0633 H   0  0  0  0  0  0  0  0  0  0  0  0
  151.4504  139.1928  153.2113 H   0  0  0  0  0  0  0  0  0  0  0  0
  150.7782  137.0177  153.9548 H   0  0  0  0  0  0  0  0  0  0  0  0
  149.1872  137.7768  153.8551 H   0  0  0  0  0  0  0  0  0  0  0  0
  147.0923  136.1260  156.3856 H   0  0  0  0  0  0  0  0  0  0  0  0
  145.4833  134.6708  155.3308 H   0  0  0  0  0  0  0  0  0  0  0  0
  1  2  1  0  0  0  0
  1 24  1  0  0  0  0
  1 25  1  0  0  0  0
  1 26  1  0  0  0  0
  2  3  1  0  0  0  0
  2  4  1  0  0  0  0
  2  5  1  0  0  0  0
  3 27  1  0  0  0  0
  3 28  1  0  0  0  0
  3 29  1  0  0  0  0
  4 30  1  0  0  0  0
  4 31  1  0  0  0  0
  4 32  1  0  0  0  0
  5  6  1  0  0  0  0
  5 33  1  0  0  0  0
  6  7  2  0  0  0  0
  6  8  1  0  0  0  0
  8  9  1  0  0  0  0
  8 34  1  0  0  0  0
  8 35  1  0  0  0  0
  9 22  1  0  0  0  0
  9 10  1  0  0  0  0
 10 11  2  0  0  0  0
 10 36  1  0  0  0  0
 11 12  1  0  0  0  0
 11 20  1  0  0  0  0
 12 13  2  0  0  0  0
 12 14  2  0  0  0  0
 12 15  1  0  0  0  0
 15 19  1  0  0  0  0
 15 16  1  0  0  0  0
 16 17  1  0  0  0  0
 16 37  1  0  0  0  0
 16 38  1  0  0  0  0
 17 18  1  0  0  0  0
 17 39  1  0  0  0  0
 17 40  1  0  0  0  0
 18 19  1  0  0  0  0
 18 41  1  0  0  0  0
 18 42  1  0  0  0  0
 19 43  1  0  0  0  0
 19 44  1  0  0  0  0
 20 21  2  0  0  0  0
 20 45  1  0  0  0  0
 21 22  1  0  0  0  0
 21 46  1  0  0  0  0
 22 23  2  0  0  0  0
M  END
> <s_m_source_file>
AV-unprocessed.smi

> <i_m_source_file_index>
493

> <i_lp_mmshare_version>
43012

> <i_f3d_flags>
0

> <s_epik_input>
W0NIM11DKFtDSDNdKShbQ0gzXSlbTkhdQyg9TylbQ0gyXW4xW2NIXWMoW2NIXVtjSF1jMT1PKVMoPU8pKD1PKU4yW0NIMl1bQ0gyXVtDSDJdW0NIMl0y

> <s_epik_cmdline>
J2VwaWtfcHl0aG9uJywgJy1waCcsICc3LjAnLCAnLXRuJywgJzgnLCAnLW1hJywgJzIwMCcsICctbWV0YWxfYmluZGluZycsICctaW1hZScsICc8aW5maWxlLm1hZT4nLCAnLW9tYWUnLCAnPG91dGZpbGUubWFlPic=

> <r_lp_tautomer_probability>
1

> <r_epik_Ionization_Penalty>
3.47616e-08

> <r_epik_Ionization_Penalty_Charging>
1.01201e-08

> <r_epik_Ionization_Penalty_Neutral>
2.46415e-08

> <r_epik_State_Penalty>
-0

> <r_epik_Charging_Adjusted_Penalty>
1.01201e-08

> <i_epik_Tot_Q>
0

> <i_epik_Tot_abs_Q>
0

> <r_epik_Metal_State_Penalty>
-0

> <b_epik_Metal_Only>
0

> <s_lp_Force_Field>
OPLS_2005

> <r_lp_Energy>
19.4052

> <b_lp_Chiralities_Consistent>
1

> <s_lp_Variant>
AV-unprocessed.smi:493-1

> <Gold.Version>
5.8.1

> <Gold.Id.Protein>
6NUR|6NUR_protein|mol2

> <Gold.PLP.Fitness>
40.3779

> <Gold.PLP.PLP>
-32.5822

> <Gold.PLP.part.hbond>
-3.0000

> <Gold.PLP.part.metal>
0.0000

> <Gold.PLP.part.buried>
-2.6429

> <Gold.PLP.part.nonpolar>
-26.1837

> <Gold.PLP.part.repulsive>
0.1949

> <Gold.PLP.ligand.clash>
0.0000

> <Gold.PLP.ligand.torsion>
1.7050

> <Gold.PLP.Chemscore.Hbond>
2.9120

> <Gold.PLP.Chemscore.CHOScore>
0.0000

> <Gold.PLP.Chemscore.Metal>
0.0000

> <Gold.Chemscore.Hbonds>
donor molecule, donor type, donor heavy atom, donor atom, acceptor molecule, acceptor atom, score
      L1  H     5    33       P1 10747  1.00
      P1  H 10752 10763       L1    14  0.88

> <Gold.PLP.Chemscore.Internal.Correction>
2.4696

> <Gold.Rescore>
     Score         DG    S(hbond)    S(metal)    S(lipo)     H(rot)  DE(clash)    DE(int)     intcor
     16.65     -19.30       2.83        0.00      72.88       1.62       0.10       2.54       ----

> <Gold.Chemscore.Fitness>
16.6520

> <Gold.Chemscore.DG>
-19.2977

> <Gold.Chemscore.ZeroCoef>
-5.4800

> <Gold.Chemscore.Hbond>
2.8274

> <Gold.Chemscore.Metal>
0.0000

> <Gold.Chemscore.Lipo>
72.8811

> <Gold.Chemscore.Internal_Hbond>
0.0000

> <Gold.Chemscore.DEClash>
0.1027

> <Gold.Chemscore.DEInternal>
2.5430

> <Gold.Chemscore.Rot>
1.6222

> <Gold.Chemscore.Internal.Correction>
   9.000000E+99

> <Gold.Chemscore.Hbonds>
donor molecule, donor type, donor heavy atom, donor atom, acceptor molecule, acceptor atom, score
      L1  H     5    33       P1 10747  0.40
      P1  H 10752 10763       L1    14  0.85

> <Gold.Chemscore.Hbond.Weighted>
-9.4435

> <Gold.Chemscore.Metal.Weighted>
-0.0000

> <Gold.Chemscore.Lipo.Weighted>
-8.5271

> <Gold.Chemscore.Internal_Hbond.Weighted>
0.0000

> <Gold.Chemscore.DEClash.Weighted>
0.1027

> <Gold.Chemscore.DEInternal.Weighted>
2.5430

> <Gold.Chemscore.Rot.Weighted>
4.1528

> <Gold.Chemscore.Internal.Correction.Weighted>
   9.000000E+99

> <Gold.Protein.RotatedTorsions>
[ 6907 6896 6895 6894 ] final  170.57 input  -60.11 | X-H torsion
[ 7974 7965 7964 7962 ] final  102.26 input  175.53 | X-H torsion
[ 8008 7997 7996 7995 ] final   -0.38 input   59.86 | X-H torsion
[ 10167 10162 10161 10158 ] final   17.89 input  -65.29 | X-H torsion
[ 10718 10713 10712 10709 ] final -173.42 input   66.30 | X-H torsion
[ 10763 10752 10751 10750 ] final   90.93 input  -60.55 | X-H torsion
[ 11005 11000 10999 10996 ] final -159.94 input  -57.11 | X-H torsion

> <Gold.Protein.ActiveResidues>
 VAL166  LYS551  ARG553  GLY616  TRP617  ASP618  TYR619  PRO620  LYS621  CYS622 
 ASP623  PHE694  ASN695  SER759  ASP760  ASP761  ALA762  ILE779  LEU786  VAL792 
 PHE793  MET794  SER795  GLU796  ALA797  LYS798  CYS799  TRP800  GLU811  SER814 

> <Gold.Protein.RotatedAtoms>
  151.8140  133.3385  159.3563 H   0  0  0  0  0  0  0  0  0  0  0  0  # atno 6907 bound_to 6896
  150.7316  134.5636  159.5864 H   0  0  0  0  0  0  0  0  0  0  0  0  # atno 6908 bound_to 6896
  152.3054  134.7562  160.0400 H   0  0  0  0  0  0  0  0  0  0  0  0  # atno 6909 bound_to 6896
  145.3614  139.2417  143.3504 H   0  0  0  0  0  0  0  0  0  0  0  0  # atno 7974 bound_to 7965
  154.6588  140.2585  155.7132 H   0  0  0  0  0  0  0  0  0  0  0  0  # atno 8008 bound_to 7997
  156.2609  140.2853  156.0973 H   0  0  0  0  0  0  0  0  0  0  0  0  # atno 8009 bound_to 7997
  155.1340  140.0379  157.2772 H   0  0  0  0  0  0  0  0  0  0  0  0  # atno 8010 bound_to 7997
  140.5693  143.9191  150.6701 H   0  0  0  0  0  0  0  0  0  0  0  0  # atno 10167 bound_to 10162
  156.7700  130.9445  151.3120 H   0  0  0  0  0  0  0  0  0  0  0  0  # atno 10718 bound_to 10713
  153.2028  135.4416  155.0287 H   0  0  0  0  0  0  0  0  0  0  0  0  # atno 10763 bound_to 10752
  154.8157  135.3314  154.7186 H   0  0  0  0  0  0  0  0  0  0  0  0  # atno 10764 bound_to 10752
  153.7630  135.6990  153.4977 H   0  0  0  0  0  0  0  0  0  0  0  0  # atno 10765 bound_to 10752
  140.6370  134.4591  157.5232 H   0  0  0  0  0  0  0  0  0  0  0  0  # atno 11005 bound_to 11000
  146.2925  140.4249  142.8734 LP  0  0  0  0  0  0  0  0  0  0  0  0  # atno 17320 bound_to 7965
  144.8643  140.7184  143.6087 LP  0  0  0  0  0  0  0  0  0  0  0  0  # atno 17321 bound_to 7965
  140.2662  143.3488  152.1279 LP  0  0  0  0  0  0  0  0  0  0  0  0  # atno 17342 bound_to 10162
  139.5109  144.6892  151.5805 LP  0  0  0  0  0  0  0  0  0  0  0  0  # atno 17343 bound_to 10162
  157.6695  130.9038  150.0008 LP  0  0  0  0  0  0  0  0  0  0  0  0  # atno 17370 bound_to 10713
  156.1284  130.3644  149.9772 LP  0  0  0  0  0  0  0  0  0  0  0  0  # atno 17371 bound_to 10713
  139.9094  134.8377  156.1582 LP  0  0  0  0  0  0  0  0  0  0  0  0  # atno 17394 bound_to 11000
  141.0634  133.6830  156.1998 LP  0  0  0  0  0  0  0  0  0  0  0  0  # atno 17395 bound_to 11000

$$$$
