#       Name:                AV-unprocessed.smi:3032
#       Creating user name   scv26
#       Creation time:       Fri Mar 27 16:52:57 2020


#       File generated by GOLD software.
#

@<TRIPOS>MOLECULE
AV-unprocessed.smi:3032
    41    42     1
SMALL
NO_CHARGES


@<TRIPOS>ATOM
      1 ****        -3.3102   1.2030   1.1159 C.3            1 S1                 0.0000
      2 ****        -2.6780   0.1841   0.1573 C.3            1 S1                 0.0000
      3 ****        -3.3111   0.2613  -1.2450 C.3            1 S1                 0.0000
      4 ****        -2.6721  -0.7513  -2.2083 C.3            1 S1                 0.0000
      5 ****        -1.1496  -0.5591  -2.2882 C.3            1 S1                 0.0000
      6 ****        -0.5013  -0.6491  -0.8912 C.3            1 S1                 0.0000
      7 ****         1.0141  -0.4241  -0.9679 C.2            1 S1                 0.0000
      8 ****         1.4610   0.6399  -1.3978 O.2            1 S1                 0.0000
      9 ****         1.7915  -1.4238  -0.5212 N.am           1 S1                 0.0000
     10 ****         3.2473  -1.3759  -0.4003 C.3            1 S1                 0.0000
     11 ****         3.7075  -1.1094   1.0471 C.3            1 S1                 0.0000
     12 ****         3.1335   0.1363   1.6453 C.2            1 S1                 0.0000
     13 ****         3.6762   1.3304   1.4021 N.2            1 S1                 0.0000
     14 ****         2.8343   2.1614   2.0535 N.pl3          1 S1                 0.0000
     15 ****         1.8724   1.4377   2.6235 C.2            1 S1                 0.0000
     16 ****         1.9956   0.1353   2.4070 N.2            1 S1                 0.0000
     17 ****        -1.1510   0.3704   0.0692 C.3            1 S1                 0.0000
     18 ****        -3.1443   2.2252   0.7739 H              1 S1                 0.0000
     19 ****        -2.8869   1.1149   2.1169 H              1 S1                 0.0000
     20 ****        -4.3865   1.0500   1.1985 H              1 S1                 0.0000
     21 ****        -2.8729  -0.8109   0.5602 H              1 S1                 0.0000
     22 ****        -4.3843   0.0782  -1.1815 H              1 S1                 0.0000
     23 ****        -3.1933   1.2682  -1.6479 H              1 S1                 0.0000
     24 ****        -2.8966  -1.7654  -1.8755 H              1 S1                 0.0000
     25 ****        -3.1118  -0.6474  -3.2006 H              1 S1                 0.0000
     26 ****        -0.7218  -1.3131  -2.9504 H              1 S1                 0.0000
     27 ****        -0.9345   0.4092  -2.7433 H              1 S1                 0.0000
     28 ****        -0.6814  -1.6508  -0.4965 H              1 S1                 0.0000
     29 ****         1.3360  -2.2610  -0.1877 H              1 S1                 0.0000
     30 ****         3.6500  -2.3296  -0.7414 H              1 S1                 0.0000
     31 ****         3.6652  -0.6183  -1.0651 H              1 S1                 0.0000
     32 ****         3.4322  -1.9562   1.6773 H              1 S1                 0.0000
     33 ****         4.7960  -1.0506   1.0802 H              1 S1                 0.0000
     34 ****         1.0684   1.8692   3.2014 H              1 S1                 0.0000
     35 ****        -0.9298   1.3875  -0.2594 H              1 S1                 0.0000
     36 ****        -0.7141   0.2691   1.0637 H              1 S1                 0.0000
     37 ****         2.9500   3.1645   2.0744 H              1 S1                 0.0000
     38 ****         0.8355   1.3600  -1.6980 LP             1 S1                 0.0000
     39 ****         2.4494   0.7837  -1.4466 LP             1 S1                 0.0000
     40 ****         4.4954   1.5529   0.8736 LP             1 S1                 0.0000
     41 ****         1.4237  -0.6264   2.7116 LP             1 S1                 0.0000
@<TRIPOS>BOND
    1    1    2 1     
    2    1   18 1     
    3    1   19 1     
    4    1   20 1     
    5    2   17 1     
    6    2    3 1     
    7    2   21 1     
    8    3    4 1     
    9    3   22 1     
   10    3   23 1     
   11    4    5 1     
   12    4   24 1     
   13    4   25 1     
   14    5    6 1     
   15    5   26 1     
   16    5   27 1     
   17    6    7 1     
   18    6   17 1     
   19    6   28 1     
   20    7    8 2     
   21    7    9 am    
   22    9   10 1     
   23    9   29 1     
   24   10   11 1     
   25   10   30 1     
   26   10   31 1     
   27   11   32 1     
   28   11   33 1     
   29   11   12 1     
   30   12   16 1     
   31   12   13 2     
   32   13   14 1     
   33   14   15 1     
   34   14   37 1     
   35   15   16 2     
   36   15   34 1     
   37   17   35 1     
   38   17   36 1     
   39    8   38 1     
   40    8   39 1     
   41   13   40 1     
   42   16   41 1     
@<TRIPOS>SUBSTRUCTURE
      1 S1             1
@<TRIPOS>SET
LONE_PAIRS      STATIC     ATOMS    <user>   **** ""
4 38 39 40 41
DONOR_HYDROGENS      STATIC     ATOMS    <user>   **** ""
2 29 37
ATOM$BLUE        STATIC     ATOMS    COLORGROUP SYSTEM
4 38 39 40 41
ATOM$RED        STATIC     ATOMS    COLORGROUP SYSTEM
2 29 37
