#       Name:                AV-unprocessed.smi:137
#       Creating user name   scv26
#       Creation time:       Thu Mar 26 18:32:50 2020


#       File generated by GOLD software.
#

@<TRIPOS>MOLECULE
AV-unprocessed.smi:137
    58    61     1
SMALL
NO_CHARGES


@<TRIPOS>ATOM
      1 ****        -3.9859   0.5302   3.2894 C.3            1 S1                 0.0000
      2 ****        -4.7058   0.3755   1.9403 C.3            1 S1                 0.0000
      3 ****        -4.2081   1.4167   0.9077 C.3            1 S1                 0.0000
      4 ****        -3.1756   0.9238  -0.0089 N.pl3          1 S1                 0.0000
      5 ****        -1.8574   0.9323   0.3495 C.ar           1 S1                 0.0000
      6 ****        -1.4850   1.7187   1.3949 N.ar           1 S1                 0.0000
      7 ****        -0.2148   1.7746   1.8001 C.ar           1 S1                 0.0000
      8 ****         0.8444   1.1377   1.3042 N.ar           1 S1                 0.0000
      9 ****         0.4943   0.3480   0.2503 C.ar           1 S1                 0.0000
     10 ****        -0.8179   0.1814  -0.2860 C.ar           1 S1                 0.0000
     11 ****        -0.7651  -0.7270  -1.3391 N.2            1 S1                 0.0000
     12 ****         0.4895  -1.0722  -1.4187 C.2            1 S1                 0.0000
     13 ****         1.3229  -0.4489  -0.5209 N.pl3          1 S1                 0.0000
     14 ****         2.7315  -0.6677  -0.3645 C.3            1 S1                 0.0000
     15 ****         3.6906   0.5024  -0.1256 C.3            1 S1                 0.0000
     16 ****         4.7659  -0.1816  -0.9991 C.3            1 S1                 0.0000
     17 ****         5.4429   0.7507  -2.0158 C.3            1 S1                 0.0000
     18 ****         6.0853   0.0185  -3.0400 O.3            1 S1                 0.0000
     19 ****         5.8903  -0.9233  -0.2427 C.3            1 S1                 0.0000
     20 ****         5.4079  -1.7956   0.7589 O.3            1 S1                 0.0000
     21 ****         3.6111  -1.0389  -1.5625 C.3            1 S1                 0.0000
     22 ****        -3.6223   0.3860  -1.2940 C.3            1 S1                 0.0000
     23 ****        -4.0344  -1.0974  -1.2443 C.3            1 S1                 0.0000
     24 ****        -5.5165  -1.3467  -0.1488 S.o            1 S1                 0.0000
     25 ****        -6.4837  -0.1837  -0.3799 O.2            1 S1                 0.0000
     26 ****        -4.6653  -1.1010   1.4865 C.3            1 S1                 0.0000
     27 ****        -2.9347   0.2522   3.2154 H              1 S1                 0.0000
     28 ****        -4.4397  -0.1065   4.0495 H              1 S1                 0.0000
     29 ****        -4.0367   1.5575   3.6514 H              1 S1                 0.0000
     30 ****        -5.7506   0.6223   2.1339 H              1 S1                 0.0000
     31 ****        -5.0591   1.7305   0.3036 H              1 S1                 0.0000
     32 ****        -3.8963   2.3359   1.4039 H              1 S1                 0.0000
     33 ****        -0.0195   2.4244   2.6402 H              1 S1                 0.0000
     34 ****         0.8420  -1.7910  -2.1441 H              1 S1                 0.0000
     35 ****         2.8285  -1.4110   0.4275 H              1 S1                 0.0000
     36 ****         3.3189   1.4335  -0.5565 H              1 S1                 0.0000
     37 ****         3.9695   0.6455   0.9191 H              1 S1                 0.0000
     38 ****         4.7120   1.4083  -2.4872 H              1 S1                 0.0000
     39 ****         6.1740   1.3993  -1.5325 H              1 S1                 0.0000
     40 ****         6.4639   0.6289  -3.6540 H              1 S1                 0.0000
     41 ****         6.4952  -1.5187  -0.9267 H              1 S1                 0.0000
     42 ****         6.5668  -0.2137   0.2347 H              1 S1                 0.0000
     43 ****         6.1467  -2.2166   1.1713 H              1 S1                 0.0000
     44 ****         3.8309  -2.1038  -1.6451 H              1 S1                 0.0000
     45 ****         3.2199  -0.6488  -2.5037 H              1 S1                 0.0000
     46 ****        -4.4681   0.9766  -1.6468 H              1 S1                 0.0000
     47 ****        -2.8535   0.5398  -2.0500 H              1 S1                 0.0000
     48 ****        -4.3000  -1.4278  -2.2484 H              1 S1                 0.0000
     49 ****        -3.2205  -1.7374  -0.9060 H              1 S1                 0.0000
     50 ****        -3.6445  -1.4809   1.4340 H              1 S1                 0.0000
     51 ****        -5.1855  -1.7124   2.2241 H              1 S1                 0.0000
     52 ****        -2.1757   2.2651   1.8686 LP             1 S1                 0.0000
     53 ****         1.7751   1.2273   1.6589 LP             1 S1                 0.0000
     54 ****        -1.5227  -1.0449  -1.9091 LP             1 S1                 0.0000
     55 ****         5.4189  -0.5613  -3.5086 LP             1 S1                 0.0000
     56 ****         6.8050  -0.5527  -2.6454 LP             1 S1                 0.0000
     57 ****         4.8130  -2.4858   0.3471 LP             1 S1                 0.0000
     58 ****         4.8929  -1.2751   1.4400 LP             1 S1                 0.0000
@<TRIPOS>BOND
    1    1    2 1     
    2    1   27 1     
    3    1   28 1     
    4    1   29 1     
    5    2   26 1     
    6    2    3 1     
    7    2   30 1     
    8    3    4 1     
    9    3   31 1     
   10    3   32 1     
   11    4    5 1     
   12    4   22 1     
   13    5   10 ar    
   14    5    6 ar    
   15    6    7 ar    
   16    7    8 ar    
   17    7   33 1     
   18    8    9 ar    
   19    9   13 1     
   20    9   10 ar    
   21   10   11 1     
   22   11   12 2     
   23   12   13 1     
   24   12   34 1     
   25   13   14 1     
   26   14   21 1     
   27   14   15 1     
   28   14   35 1     
   29   15   16 1     
   30   15   36 1     
   31   15   37 1     
   32   16   17 1     
   33   16   19 1     
   34   16   21 1     
   35   17   18 1     
   36   17   38 1     
   37   17   39 1     
   38   18   40 1     
   39   19   20 1     
   40   19   41 1     
   41   19   42 1     
   42   20   43 1     
   43   21   44 1     
   44   21   45 1     
   45   22   23 1     
   46   22   46 1     
   47   22   47 1     
   48   23   24 1     
   49   23   48 1     
   50   23   49 1     
   51   24   25 2     
   52   24   26 1     
   53   26   50 1     
   54   26   51 1     
   55    6   52 1     
   56    8   53 1     
   57   11   54 1     
   58   18   55 1     
   59   18   56 1     
   60   20   57 1     
   61   20   58 1     
@<TRIPOS>SUBSTRUCTURE
      1 S1             1
@<TRIPOS>SET
LONE_PAIRS      STATIC     ATOMS    <user>   **** ""
8 52 53 54 55 56 57 58 25
DONOR_HYDROGENS      STATIC     ATOMS    <user>   **** ""
2 40 43
ATOM$BLUE        STATIC     ATOMS    COLORGROUP SYSTEM
8 52 53 54 55 56 57 58 25
ATOM$RED        STATIC     ATOMS    COLORGROUP SYSTEM
2 40 43
