#       Name:                AV-unprocessed.smi:2691
#       Creating user name   scv26
#       Creation time:       Fri Mar 27 14:42:35 2020


#       File generated by GOLD software.
#

@<TRIPOS>MOLECULE
AV-unprocessed.smi:2691
    55    57     1
SMALL
NO_CHARGES


@<TRIPOS>ATOM
      1 ****        -5.6207  -3.3210   0.1347 C.3            1 S1                 0.0000
      2 ****        -4.4535  -2.6311   0.8185 C.ar           1 S1                 0.0000
      3 ****        -4.6983  -1.8386   1.9627 C.ar           1 S1                 0.0000
      4 ****        -3.6405  -1.1816   2.6285 C.ar           1 S1                 0.0000
      5 ****        -3.6504  -0.3680   3.7489 N.2            1 S1                 0.0000
      6 ****        -2.3606  -0.0683   3.8734 C.2            1 S1                 0.0000
      7 ****        -1.5155  -0.5927   2.9652 N.pl3          1 S1                 0.0000
      8 ****        -0.0761  -0.4175   2.8979 C.3            1 S1                 0.0000
      9 ****         0.3498   0.5273   1.7575 C.3            1 S1                 0.0000
     10 ****        -0.2031   1.8056   2.0065 O.3            1 S1                 0.0000
     11 ****         1.8856   0.6598   1.6691 C.3            1 S1                 0.0000
     12 ****         2.3342   0.9996   0.3094 N.am           1 S1                 0.0000
     13 ****         2.6261   2.3548   0.0657 C.2            1 S1                 0.0000
     14 ****         3.0411   2.7653  -1.0901 N.2            1 S1                 0.0000
     15 ****         3.2038   1.8495  -2.1374 C.2            1 S1                 0.0000
     16 ****         3.6896   2.3843  -3.4786 C.3            1 S1                 0.0000
     17 ****         5.1639   2.8093  -3.4045 C.3            1 S1                 0.0000
     18 ****         2.7990   3.5246  -3.9990 C.3            1 S1                 0.0000
     19 ****         2.9162   0.5384  -1.9561 C.2            1 S1                 0.0000
     20 ****         2.4444   0.0465  -0.6616 C.2            1 S1                 0.0000
     21 ****         2.1669  -1.1366  -0.4622 O.2            1 S1                 0.0000
     22 ****        -2.3206  -1.3422   2.1151 C.ar           1 S1                 0.0000
     23 ****        -2.0637  -2.1279   0.9777 C.ar           1 S1                 0.0000
     24 ****        -3.1325  -2.7747   0.3227 C.ar           1 S1                 0.0000
     25 ****        -2.8455  -3.6179  -0.9071 C.3            1 S1                 0.0000
     26 ****        -6.5536  -3.1523   0.6734 H              1 S1                 0.0000
     27 ****        -5.4543  -4.3973   0.0853 H              1 S1                 0.0000
     28 ****        -5.7464  -2.9420  -0.8797 H              1 S1                 0.0000
     29 ****        -5.7041  -1.7282   2.3402 H              1 S1                 0.0000
     30 ****        -2.0093   0.5703   4.6707 H              1 S1                 0.0000
     31 ****         0.2808  -0.0459   3.8598 H              1 S1                 0.0000
     32 ****         0.3724  -1.4018   2.7575 H              1 S1                 0.0000
     33 ****        -0.0553   0.1501   0.8175 H              1 S1                 0.0000
     34 ****         0.1225   2.1184   2.8366 H              1 S1                 0.0000
     35 ****         2.2563   1.3654   2.4156 H              1 S1                 0.0000
     36 ****         2.3482  -0.2886   1.9488 H              1 S1                 0.0000
     37 ****         2.4761   3.0266   0.9126 H              1 S1                 0.0000
     38 ****         3.6226   1.5707  -4.2023 H              1 S1                 0.0000
     39 ****         5.7924   1.9874  -3.0604 H              1 S1                 0.0000
     40 ****         5.3044   3.6454  -2.7186 H              1 S1                 0.0000
     41 ****         5.5321   3.1178  -4.3832 H              1 S1                 0.0000
     42 ****         1.7564   3.2110  -4.0596 H              1 S1                 0.0000
     43 ****         3.1073   3.8359  -4.9975 H              1 S1                 0.0000
     44 ****         2.8470   4.4014  -3.3522 H              1 S1                 0.0000
     45 ****         3.0367  -0.1613  -2.7704 H              1 S1                 0.0000
     46 ****        -1.0522  -2.2290   0.6120 H              1 S1                 0.0000
     47 ****        -1.7947  -3.5601  -1.1924 H              1 S1                 0.0000
     48 ****        -3.4398  -3.2757  -1.7547 H              1 S1                 0.0000
     49 ****        -3.0848  -4.6641  -0.7153 H              1 S1                 0.0000
     50 ****        -4.4233  -0.0814   4.3150 LP             1 S1                 0.0000
     51 ****        -1.2005   1.7408   2.0386 LP             1 S1                 0.0000
     52 ****         0.0667   2.4368   1.2793 LP             1 S1                 0.0000
     53 ****         3.2449   3.7336  -1.2347 LP             1 S1                 0.0000
     54 ****         1.8470  -1.4302   0.4386 LP             1 S1                 0.0000
     55 ****         2.2615  -1.8038  -1.2011 LP             1 S1                 0.0000
@<TRIPOS>BOND
    1    1    2 1     
    2    1   26 1     
    3    1   27 1     
    4    1   28 1     
    5    2   24 ar    
    6    2    3 ar    
    7    3    4 ar    
    8    3   29 1     
    9    4   22 ar    
   10    4    5 1     
   11    5    6 2     
   12    6    7 1     
   13    6   30 1     
   14    7    8 1     
   15    7   22 1     
   16    8    9 1     
   17    8   31 1     
   18    8   32 1     
   19    9   10 1     
   20    9   11 1     
   21    9   33 1     
   22   10   34 1     
   23   11   12 1     
   24   11   35 1     
   25   11   36 1     
   26   12   20 am    
   27   12   13 1     
   28   13   14 2     
   29   13   37 1     
   30   14   15 1     
   31   15   16 1     
   32   15   19 2     
   33   16   17 1     
   34   16   18 1     
   35   16   38 1     
   36   17   39 1     
   37   17   40 1     
   38   17   41 1     
   39   18   42 1     
   40   18   43 1     
   41   18   44 1     
   42   19   20 1     
   43   19   45 1     
   44   20   21 2     
   45   22   23 ar    
   46   23   24 ar    
   47   23   46 1     
   48   24   25 1     
   49   25   47 1     
   50   25   48 1     
   51   25   49 1     
   52    5   50 1     
   53   10   51 1     
   54   10   52 1     
   55   14   53 1     
   56   21   54 1     
   57   21   55 1     
@<TRIPOS>SUBSTRUCTURE
      1 S1             1
@<TRIPOS>SET
LONE_PAIRS      STATIC     ATOMS    <user>   **** ""
6 50 51 52 53 54 55
DONOR_HYDROGENS      STATIC     ATOMS    <user>   **** ""
1 34
ATOM$BLUE        STATIC     ATOMS    COLORGROUP SYSTEM
6 50 51 52 53 54 55
ATOM$RED        STATIC     ATOMS    COLORGROUP SYSTEM
1 34
