AV-unprocessed.smi:528|AV-procd|sdf|2835|dock8
  -GOLD-   2262023323D 1   1.00000     0.00000
 Structure written by MMmdl.
 45 47  0  0  0  0  0  0  0  0  1 V2000
  147.0432  136.6097  156.1734 C   0  0  0  0  0  0  0  0  0  0  0  0
  148.2279  137.4973  156.5919 C   0  0  2  0  0  0  0  0  0  0  0  0
  148.3382  137.4673  158.0496 N   0  0  0  0  0  0  0  0  0  0  0  0
  148.7127  136.4128  158.7903 C   0  0  0  0  0  0  0  0  0  0  0  0
  149.0355  135.3258  158.3090 O   0  0  0  0  0  0  0  0  0  0  0  0
  148.7337  136.6403  160.3090 C   0  0  0  0  0  0  0  0  0  0  0  0
  147.7828  135.7897  161.0447 N   0  0  0  0  0  0  0  0  0  0  0  0
  147.8502  134.4019  160.8116 C   0  0  0  0  0  0  0  0  0  0  0  0
  147.0467  133.5149  161.4293 C   0  0  0  0  0  0  0  0  0  0  0  0
  147.1027  132.0285  161.1125 C   0  0  0  0  0  0  0  0  0  0  0  0
  146.1158  131.3707  161.7214 F   0  0  0  0  0  0  0  0  0  0  0  0
  147.0040  131.8107  159.8006 F   0  0  0  0  0  0  0  0  0  0  0  0
  148.2607  131.5198  161.5313 F   0  0  0  0  0  0  0  0  0  0  0  0
  146.0626  134.0627  162.3421 C   0  0  0  0  0  0  0  0  0  0  0  0
  145.9760  135.3884  162.5666 C   0  0  0  0  0  0  0  0  0  0  0  0
  146.8710  136.3387  161.9023 C   0  0  0  0  0  0  0  0  0  0  0  0
  146.8049  137.5517  162.1032 O   0  0  0  0  0  0  0  0  0  0  0  0
  148.0731  138.9586  156.1036 C   0  0  2  0  0  0  0  0  0  0  0  0
  147.9705  139.0919  154.5641 C   0  0  0  0  0  0  0  0  0  0  0  0
  149.0781  140.1029  154.2195 C   0  0  1  0  0  0  0  0  0  0  0  0
  148.6846  141.4970  154.7404 C   0  0  0  0  0  0  0  0  0  0  0  0
  148.8542  141.3472  156.2635 C   0  0  0  0  0  0  0  0  0  0  0  0
  149.2849  139.8755  156.4153 C   0  0  2  0  0  0  0  0  0  0  0  0
  150.1768  139.6954  155.1915 C   0  0  0  0  0  0  0  0  0  0  0  0
  146.9478  136.5484  155.0897 H   0  0  0  0  0  0  0  0  0  0  0  0
  146.1014  136.9931  156.5677 H   0  0  0  0  0  0  0  0  0  0  0  0
  147.1671  135.5912  156.5428 H   0  0  0  0  0  0  0  0  0  0  0  0
  149.1328  137.0817  156.1462 H   0  0  0  0  0  0  0  0  0  0  0  0
  148.0982  138.3189  158.5362 H   0  0  0  0  0  0  0  0  0  0  0  0
  149.7515  136.4726  160.6635 H   0  0  0  0  0  0  0  0  0  0  0  0
  148.5298  137.6924  160.5174 H   0  0  0  0  0  0  0  0  0  0  0  0
  148.5949  134.1036  160.0879 H   0  0  0  0  0  0  0  0  0  0  0  0
  145.3844  133.3988  162.8577 H   0  0  0  0  0  0  0  0  0  0  0  0
  145.2306  135.7612  163.2540 H   0  0  0  0  0  0  0  0  0  0  0  0
  147.1778  139.3753  156.5684 H   0  0  0  0  0  0  0  0  0  0  0  0
  148.1728  138.1438  154.0642 H   0  0  0  0  0  0  0  0  0  0  0  0
  146.9849  139.4301  154.2424 H   0  0  0  0  0  0  0  0  0  0  0  0
  149.3660  140.0938  153.1680 H   0  0  0  0  0  0  0  0  0  0  0  0
  149.3571  142.2634  154.3526 H   0  0  0  0  0  0  0  0  0  0  0  0
  147.6669  141.7696  154.4587 H   0  0  0  0  0  0  0  0  0  0  0  0
  149.6343  142.0170  156.6277 H   0  0  0  0  0  0  0  0  0  0  0  0
  147.9390  141.5749  156.8113 H   0  0  0  0  0  0  0  0  0  0  0  0
  149.7749  139.6761  157.3683 H   0  0  0  0  0  0  0  0  0  0  0  0
  150.5244  138.6709  155.0498 H   0  0  0  0  0  0  0  0  0  0  0  0
  151.0360  140.3682  155.1796 H   0  0  0  0  0  0  0  0  0  0  0  0
  1  2  1  0  0  0  0
  1 25  1  0  0  0  0
  1 26  1  0  0  0  0
  1 27  1  0  0  0  0
  2  3  1  0  0  0  0
  2 18  1  0  0  0  0
  2 28  1  0  0  0  0
  3  4  1  0  0  0  0
  3 29  1  0  0  0  0
  4  5  2  0  0  0  0
  4  6  1  0  0  0  0
  6  7  1  0  0  0  0
  6 30  1  0  0  0  0
  6 31  1  0  0  0  0
  7 16  1  0  0  0  0
  7  8  1  0  0  0  0
  8  9  2  0  0  0  0
  8 32  1  0  0  0  0
  9 10  1  0  0  0  0
  9 14  1  0  0  0  0
 10 11  1  0  0  0  0
 10 12  1  0  0  0  0
 10 13  1  0  0  0  0
 14 15  2  0  0  0  0
 14 33  1  0  0  0  0
 15 16  1  0  0  0  0
 15 34  1  0  0  0  0
 16 17  2  0  0  0  0
 18 23  1  0  0  0  0
 18 19  1  0  0  0  0
 18 35  1  0  0  0  0
 19 20  1  0  0  0  0
 19 36  1  0  0  0  0
 19 37  1  0  0  0  0
 20 24  1  0  0  0  0
 20 21  1  0  0  0  0
 20 38  1  0  0  0  0
 21 22  1  0  0  0  0
 21 39  1  0  0  0  0
 21 40  1  0  0  0  0
 22 23  1  0  0  0  0
 22 41  1  0  0  0  0
 22 42  1  0  0  0  0
 23 24  1  0  0  0  0
 23 43  1  0  0  0  0
 24 44  1  0  0  0  0
 24 45  1  0  0  0  0
M  END
> <s_m_source_file>
AV-unprocessed.smi

> <i_m_source_file_index>
528

> <i_lp_mmshare_version>
43012

> <i_f3d_flags>
0

> <s_epik_input>
W0NIMl0xW0NIMl1bQ0BASF0oW0NIMl0yKVtDQEBIXShbQ0gyXVtDQEhdMTIpW0NASF0oW0NIM10pW05IXUMoPU8pW0NIMl1uM1tjSF1jKEMoRikoRilGKVtjSF1bY0hdYzM9Tw==

> <s_epik_cmdline>
J2VwaWtfcHl0aG9uJywgJy1waCcsICc3LjAnLCAnLXRuJywgJzgnLCAnLW1hJywgJzIwMCcsICctbWV0YWxfYmluZGluZycsICctaW1hZScsICc8aW5maWxlLm1hZT4nLCAnLW9tYWUnLCAnPG91dGZpbGUubWFlPic=

> <r_lp_tautomer_probability>
1

> <r_epik_Ionization_Penalty>
4.09479e-08

> <r_epik_Ionization_Penalty_Charging>
1.9321e-08

> <r_epik_Ionization_Penalty_Neutral>
2.16269e-08

> <r_epik_State_Penalty>
-0

> <r_epik_Charging_Adjusted_Penalty>
1.9321e-08

> <i_epik_Tot_Q>
0

> <i_epik_Tot_abs_Q>
0

> <r_epik_Metal_State_Penalty>
-0

> <b_epik_Metal_Only>
0

> <s_lp_Force_Field>
OPLS_2005

> <r_lp_Energy>
63.0094

> <b_lp_Chiralities_Consistent>
1

> <s_lp_Variant>
AV-unprocessed.smi:528-5

> <Gold.Version>
5.8.1

> <Gold.Id.Protein>
6NUR|6NUR_protein|mol2

> <Gold.PLP.Fitness>
42.5624

> <Gold.PLP.PLP>
-35.9908

> <Gold.PLP.part.hbond>
-3.0000

> <Gold.PLP.part.metal>
0.0000

> <Gold.PLP.part.buried>
-1.9709

> <Gold.PLP.part.nonpolar>
-31.3310

> <Gold.PLP.part.repulsive>
0.0866

> <Gold.PLP.ligand.clash>
0.0000

> <Gold.PLP.ligand.torsion>
0.2737

> <Gold.PLP.Chemscore.Hbond>
2.3428

> <Gold.PLP.Chemscore.CHOScore>
0.0000

> <Gold.PLP.Chemscore.Metal>
0.0000

> <Gold.Chemscore.Hbonds>
donor molecule, donor type, donor heavy atom, donor atom, acceptor molecule, acceptor atom, score
      P1  H  6896  6908       L1     5  0.60
      P1  H  6931  6943       L1    17  0.15
      P1  H  6934  6947       L1    17  0.70

> <Gold.PLP.Chemscore.Internal.Correction>
0.0907

> <Gold.Rescore>
     Score         DG    S(hbond)    S(metal)    S(lipo)     H(rot)  DE(clash)    DE(int)     intcor
     15.24     -16.38       1.92        0.00      75.85       1.71       0.09       1.04       ----

> <Gold.Chemscore.Fitness>
15.2441

> <Gold.Chemscore.DG>
-16.3768

> <Gold.Chemscore.ZeroCoef>
-5.4800

> <Gold.Chemscore.Hbond>
1.9180

> <Gold.Chemscore.Metal>
0.0000

> <Gold.Chemscore.Lipo>
75.8515

> <Gold.Chemscore.Internal_Hbond>
0.0000

> <Gold.Chemscore.DEClash>
0.0901

> <Gold.Chemscore.DEInternal>
1.0426

> <Gold.Chemscore.Rot>
1.7125

> <Gold.Chemscore.Internal.Correction>
   9.000000E+99

> <Gold.Chemscore.Hbonds>
donor molecule, donor type, donor heavy atom, donor atom, acceptor molecule, acceptor atom, score
      P1  H  6896  6908       L1     5  0.52
      P1  H  6931  6943       L1    17  0.07
      P1  H  6934  6947       L1    17  0.72

> <Gold.Chemscore.Hbond.Weighted>
-6.4061

> <Gold.Chemscore.Metal.Weighted>
-0.0000

> <Gold.Chemscore.Lipo.Weighted>
-8.8746

> <Gold.Chemscore.Internal_Hbond.Weighted>
0.0000

> <Gold.Chemscore.DEClash.Weighted>
0.0901

> <Gold.Chemscore.DEInternal.Weighted>
1.0426

> <Gold.Chemscore.Rot.Weighted>
4.3840

> <Gold.Chemscore.Internal.Correction.Weighted>
   9.000000E+99

> <Gold.Protein.RotatedTorsions>
[ 6907 6896 6895 6894 ] final  153.59 input  -60.11 | X-H torsion
[ 7974 7965 7964 7962 ] final   66.08 input  175.53 | X-H torsion
[ 8008 7997 7996 7995 ] final -129.49 input   59.86 | X-H torsion
[ 10167 10162 10161 10158 ] final  -59.74 input  -65.29 | X-H torsion
[ 10718 10713 10712 10709 ] final  -46.26 input   66.30 | X-H torsion
[ 10763 10752 10751 10750 ] final -130.00 input  -60.55 | X-H torsion
[ 11005 11000 10999 10996 ] final  179.93 input  -57.11 | X-H torsion

> <Gold.Protein.ActiveResidues>
 VAL166  LYS551  ARG553  GLY616  TRP617  ASP618  TYR619  PRO620  LYS621  CYS622 
 ASP623  PHE694  ASN695  SER759  ASP760  ASP761  ALA762  ILE779  LEU786  VAL792 
 PHE793  MET794  SER795  GLU796  ALA797  LYS798  CYS799  TRP800  GLU811  SER814 

> <Gold.Protein.RotatedAtoms>
  152.0706  133.4105  159.4457 H   0  0  0  0  0  0  0  0  0  0  0  0  # atno 6907 bound_to 6896
  150.6863  134.3096  159.4750 H   0  0  0  0  0  0  0  0  0  0  0  0  # atno 6908 bound_to 6896
  152.0927  134.9395  160.0622 H   0  0  0  0  0  0  0  0  0  0  0  0  # atno 6909 bound_to 6896
  145.8308  139.3138  143.0988 H   0  0  0  0  0  0  0  0  0  0  0  0  # atno 7974 bound_to 7965
  155.2801  140.0443  157.3014 H   0  0  0  0  0  0  0  0  0  0  0  0  # atno 8008 bound_to 7997
  154.5602  140.2344  155.8316 H   0  0  0  0  0  0  0  0  0  0  0  0  # atno 8009 bound_to 7997
  156.2041  140.3017  155.9596 H   0  0  0  0  0  0  0  0  0  0  0  0  # atno 8010 bound_to 7997
  140.6116  143.2389  151.5696 H   0  0  0  0  0  0  0  0  0  0  0  0  # atno 10167 bound_to 10162
  156.2200  130.4165  149.9005 H   0  0  0  0  0  0  0  0  0  0  0  0  # atno 10718 bound_to 10713
  154.8756  135.3877  154.4011 H   0  0  0  0  0  0  0  0  0  0  0  0  # atno 10763 bound_to 10752
  153.4736  135.7030  153.5984 H   0  0  0  0  0  0  0  0  0  0  0  0  # atno 10764 bound_to 10752
  153.4431  135.3851  155.2207 H   0  0  0  0  0  0  0  0  0  0  0  0  # atno 10765 bound_to 10752
  140.4116  134.6687  157.4617 H   0  0  0  0  0  0  0  0  0  0  0  0  # atno 11005 bound_to 11000
  145.9572  140.8863  143.0229 LP  0  0  0  0  0  0  0  0  0  0  0  0  # atno 17320 bound_to 7965
  144.6740  140.1762  143.7410 LP  0  0  0  0  0  0  0  0  0  0  0  0  # atno 17321 bound_to 7965
  139.5366  144.2765  152.1263 LP  0  0  0  0  0  0  0  0  0  0  0  0  # atno 17342 bound_to 10162
  140.1965  144.4700  150.6452 LP  0  0  0  0  0  0  0  0  0  0  0  0  # atno 17343 bound_to 10162
  156.6654  130.8799  151.3554 LP  0  0  0  0  0  0  0  0  0  0  0  0  # atno 17370 bound_to 10713
  157.7083  130.9410  150.1003 LP  0  0  0  0  0  0  0  0  0  0  0  0  # atno 17371 bound_to 10713
  140.0263  134.6472  155.9168 LP  0  0  0  0  0  0  0  0  0  0  0  0  # atno 17394 bound_to 11000
  141.1819  133.6548  156.5055 LP  0  0  0  0  0  0  0  0  0  0  0  0  # atno 17395 bound_to 11000

$$$$
