#       Name:                AV-unprocessed.smi:108
#       Creating user name   scv26
#       Creation time:       Thu Mar 26 18:03:22 2020


#       File generated by GOLD software.
#

@<TRIPOS>MOLECULE
AV-unprocessed.smi:108
    67    70     1
SMALL
NO_CHARGES


@<TRIPOS>ATOM
      1 ****        -1.5332   0.8952   1.0612 O.2            1 S1                 0.0000
      2 ****        -0.9024  -0.1535   0.9109 C.2            1 S1                 0.0000
      3 ****         0.5937  -0.0847   0.5349 C.3            1 S1                 0.0000
      4 ****         1.1204   1.2959   0.4602 N.am           1 S1                 0.0000
      5 ****         1.6763   1.8720   1.6284 C.2            1 S1                 0.0000
      6 ****         1.7140   1.2519   2.6924 O.2            1 S1                 0.0000
      7 ****         2.1915   3.2266   1.4750 C.2            1 S1                 0.0000
      8 ****         2.7898   3.8325   2.5146 F              1 S1                 0.0000
      9 ****         2.0936   3.8786   0.2984 C.2            1 S1                 0.0000
     10 ****         1.4902   3.3293  -0.8213 N.am           1 S1                 0.0000
     11 ****         1.4398   4.0463  -2.1628 C.3            1 S1                 0.0000
     12 ****         1.5890   5.5709  -2.0705 C.3            1 S1                 0.0000
     13 ****         3.0719   5.7965  -2.3533 C.3            1 S1                 0.0000
     14 ****         3.6415   4.3951  -2.5986 C.3            1 S1                 0.0000
     15 ****         2.5089   3.6070  -2.9384 O.3            1 S1                 0.0000
     16 ****         1.0260   1.9954  -0.7670 C.2            1 S1                 0.0000
     17 ****         0.5403   1.4561  -1.7641 O.2            1 S1                 0.0000
     18 ****        -1.4878  -1.3686   1.0549 N.am           1 S1                 0.0000
     19 ****        -2.9236  -1.4845   1.3621 C.3            1 S1                 0.0000
     20 ****        -3.8252  -1.1848   0.1450 C.3            1 S1                 0.0000
     21 ****        -3.4378  -1.9600  -1.1031 C.ar           1 S1                 0.0000
     22 ****        -2.6679  -1.3430  -2.1125 C.ar           1 S1                 0.0000
     23 ****        -2.2931  -2.0687  -3.2595 C.ar           1 S1                 0.0000
     24 ****        -2.6884  -3.4128  -3.4028 C.ar           1 S1                 0.0000
     25 ****        -3.4582  -4.0310  -2.3984 C.ar           1 S1                 0.0000
     26 ****        -3.8327  -3.3060  -1.2504 C.ar           1 S1                 0.0000
     27 ****        -0.7628  -2.6447   0.9254 C.3            1 S1                 0.0000
     28 ****         0.0820  -3.0318   2.1348 C.ar           1 S1                 0.0000
     29 ****        -0.2254  -2.5686   3.4351 C.ar           1 S1                 0.0000
     30 ****         0.5760  -2.9432   4.5308 C.ar           1 S1                 0.0000
     31 ****         1.6860  -3.7871   4.3376 C.ar           1 S1                 0.0000
     32 ****         1.9926  -4.2589   3.0472 C.ar           1 S1                 0.0000
     33 ****         1.1921  -3.8833   1.9509 C.ar           1 S1                 0.0000
     34 ****         1.1733  -0.6720   1.2473 H              1 S1                 0.0000
     35 ****         0.7410  -0.5958  -0.4173 H              1 S1                 0.0000
     36 ****         2.5218   4.8674   0.2515 H              1 S1                 0.0000
     37 ****         0.4817   3.7683  -2.6049 H              1 S1                 0.0000
     38 ****         0.9927   6.0197  -2.8660 H              1 S1                 0.0000
     39 ****         1.2299   5.9749  -1.1242 H              1 S1                 0.0000
     40 ****         3.1913   6.4189  -3.2406 H              1 S1                 0.0000
     41 ****         3.5797   6.2950  -1.5273 H              1 S1                 0.0000
     42 ****         4.3879   4.3806  -3.3931 H              1 S1                 0.0000
     43 ****         4.1066   3.9993  -1.6950 H              1 S1                 0.0000
     44 ****        -3.1466  -2.4860   1.7320 H              1 S1                 0.0000
     45 ****        -3.1839  -0.8193   2.1872 H              1 S1                 0.0000
     46 ****        -4.8624  -1.4113   0.3944 H              1 S1                 0.0000
     47 ****        -3.8019  -0.1182  -0.0817 H              1 S1                 0.0000
     48 ****        -2.3550  -0.3143  -2.0053 H              1 S1                 0.0000
     49 ****        -1.7012  -1.5948  -4.0285 H              1 S1                 0.0000
     50 ****        -2.4005  -3.9693  -4.2826 H              1 S1                 0.0000
     51 ****        -3.7604  -5.0621  -2.5077 H              1 S1                 0.0000
     52 ****        -4.4186  -3.7866  -0.4806 H              1 S1                 0.0000
     53 ****        -1.4610  -3.4618   0.7416 H              1 S1                 0.0000
     54 ****        -0.1359  -2.6270   0.0335 H              1 S1                 0.0000
     55 ****        -1.0743  -1.9233   3.6059 H              1 S1                 0.0000
     56 ****         0.3380  -2.5824   5.5206 H              1 S1                 0.0000
     57 ****         2.3000  -4.0742   5.1785 H              1 S1                 0.0000
     58 ****         2.8422  -4.9091   2.8979 H              1 S1                 0.0000
     59 ****         1.4362  -4.2500   0.9646 H              1 S1                 0.0000
     60 ****        -1.0753   1.7759   0.9396 LP             1 S1                 0.0000
     61 ****        -2.5026   0.8650   1.3048 LP             1 S1                 0.0000
     62 ****         1.3476   0.3228   2.7430 LP             1 S1                 0.0000
     63 ****         2.1111   1.6777   3.5055 LP             1 S1                 0.0000
     64 ****         2.2946   3.7192  -3.9086 LP             1 S1                 0.0000
     65 ****         2.6949   2.6432  -2.7474 LP             1 S1                 0.0000
     66 ****         0.2078   0.5145  -1.7112 LP             1 S1                 0.0000
     67 ****         0.4790   1.9604  -2.6254 LP             1 S1                 0.0000
@<TRIPOS>BOND
    1    1    2 2     
    2    2    3 1     
    3    2   18 am    
    4    3    4 1     
    5    3   34 1     
    6    3   35 1     
    7    4   16 am    
    8    4    5 am    
    9    5    6 2     
   10    5    7 1     
   11    7    8 1     
   12    7    9 2     
   13    9   10 1     
   14    9   36 1     
   15   10   11 1     
   16   10   16 am    
   17   11   15 1     
   18   11   12 1     
   19   11   37 1     
   20   12   13 1     
   21   12   38 1     
   22   12   39 1     
   23   13   14 1     
   24   13   40 1     
   25   13   41 1     
   26   14   15 1     
   27   14   42 1     
   28   14   43 1     
   29   16   17 2     
   30   18   19 1     
   31   18   27 1     
   32   19   20 1     
   33   19   44 1     
   34   19   45 1     
   35   20   21 1     
   36   20   46 1     
   37   20   47 1     
   38   21   26 ar    
   39   21   22 ar    
   40   22   23 ar    
   41   22   48 1     
   42   23   24 ar    
   43   23   49 1     
   44   24   25 ar    
   45   24   50 1     
   46   25   26 ar    
   47   25   51 1     
   48   26   52 1     
   49   27   28 1     
   50   27   53 1     
   51   27   54 1     
   52   28   33 ar    
   53   28   29 ar    
   54   29   30 ar    
   55   29   55 1     
   56   30   31 ar    
   57   30   56 1     
   58   31   32 ar    
   59   31   57 1     
   60   32   33 ar    
   61   32   58 1     
   62   33   59 1     
   63    1   60 1     
   64    1   61 1     
   65    6   62 1     
   66    6   63 1     
   67   15   64 1     
   68   15   65 1     
   69   17   66 1     
   70   17   67 1     
@<TRIPOS>SUBSTRUCTURE
      1 S1             1
@<TRIPOS>SET
LONE_PAIRS      STATIC     ATOMS    <user>   **** ""
8 60 61 62 63 64 65 66 67
ATOM$BLUE        STATIC     ATOMS    COLORGROUP SYSTEM
8 60 61 62 63 64 65 66 67
