AV-unprocessed.smi:322|AV-procd|sdf|2336|dock2
  -GOLD-   2262022243D 1   1.00000     0.00000
 Structure written by MMmdl.
 43 45  0  0  0  0  0  0  0  0  1 V2000
  150.9843  136.5322  154.6104 O   0  0  0  0  0  0  0  0  0  0  0  0
  151.4220  137.7402  154.0214 C   0  0  0  0  0  0  0  0  0  0  0  0
  151.4765  138.8978  154.9781 C   0  0  0  0  0  0  0  0  0  0  0  0
  150.9028  140.0764  154.7243 N   0  0  0  0  0  0  0  0  0  0  0  0
  151.1902  140.8089  155.8591 C   0  0  0  0  0  0  0  0  0  0  0  0
  150.8591  142.1392  156.2026 C   0  0  0  0  0  0  0  0  0  0  0  0
  151.2692  142.6802  157.4389 C   0  0  0  0  0  0  0  0  0  0  0  0
  152.0139  141.9007  158.3474 C   0  0  0  0  0  0  0  0  0  0  0  0
  152.3539  140.5731  158.0248 C   0  0  0  0  0  0  0  0  0  0  0  0
  151.9424  140.0378  156.7893 C   0  0  0  0  0  0  0  0  0  0  0  0
  152.1066  138.7996  156.1758 N   0  0  0  0  0  0  0  0  0  0  0  0
  152.8092  137.6506  156.7303 C   0  0  0  0  0  0  0  0  0  0  0  0
  154.3308  137.7075  156.4808 C   0  0  1  0  0  0  0  0  0  0  0  0
  154.9744  136.5233  156.9075 O   0  0  0  0  0  0  0  0  0  0  0  0
  154.7016  137.9821  155.0144 C   0  0  0  0  0  0  0  0  0  0  0  0
  156.0780  138.3117  154.9163 O   0  0  0  0  0  0  0  0  0  0  0  0
  156.5500  138.3376  153.5795 C   0  0  0  0  0  0  0  0  0  0  0  0
  157.2008  137.0267  153.1798 C   0  0  0  0  0  0  0  0  0  0  0  0
  156.6748  136.2602  152.1173 C   0  0  0  0  0  0  0  0  0  0  0  0
  157.2928  135.0515  151.7416 C   0  0  0  0  0  0  0  0  0  0  0  0
  158.4432  134.6070  152.4219 C   0  0  0  0  0  0  0  0  0  0  0  0
  159.1998  133.1260  151.9625 Cl  0  0  0  0  0  0  0  0  0  0  0  0
  158.9771  135.3738  153.4757 C   0  0  0  0  0  0  0  0  0  0  0  0
  158.3594  136.5827  153.8514 C   0  0  0  0  0  0  0  0  0  0  0  0
  150.6743  136.7178  155.4835 H   0  0  0  0  0  0  0  0  0  0  0  0
  152.4151  137.5865  153.5984 H   0  0  0  0  0  0  0  0  0  0  0  0
  150.7492  137.9737  153.1970 H   0  0  0  0  0  0  0  0  0  0  0  0
  150.2888  142.7441  155.5136 H   0  0  0  0  0  0  0  0  0  0  0  0
  151.0113  143.6984  157.6910 H   0  0  0  0  0  0  0  0  0  0  0  0
  152.3246  142.3226  159.2920 H   0  0  0  0  0  0  0  0  0  0  0  0
  152.9266  139.9740  158.7175 H   0  0  0  0  0  0  0  0  0  0  0  0
  152.5986  137.6063  157.7996 H   0  0  0  0  0  0  0  0  0  0  0  0
  152.3887  136.7389  156.3047 H   0  0  0  0  0  0  0  0  0  0  0  0
  154.7558  138.5101  157.0836 H   0  0  0  0  0  0  0  0  0  0  0  0
  155.0947  136.5681  157.8440 H   0  0  0  0  0  0  0  0  0  0  0  0
  154.5109  137.0845  154.4241 H   0  0  0  0  0  0  0  0  0  0  0  0
  154.0799  138.7775  154.5997 H   0  0  0  0  0  0  0  0  0  0  0  0
  155.7229  138.5330  152.8955 H   0  0  0  0  0  0  0  0  0  0  0  0
  157.2707  139.1487  153.4621 H   0  0  0  0  0  0  0  0  0  0  0  0
  155.7959  136.5950  151.5858 H   0  0  0  0  0  0  0  0  0  0  0  0
  156.8843  134.4678  150.9300 H   0  0  0  0  0  0  0  0  0  0  0  0
  159.8616  135.0372  153.9963 H   0  0  0  0  0  0  0  0  0  0  0  0
  158.7774  137.1671  154.6579 H   0  0  0  0  0  0  0  0  0  0  0  0
  1  2  1  0  0  0  0
  1 25  1  0  0  0  0
  2  3  1  0  0  0  0
  2 26  1  0  0  0  0
  2 27  1  0  0  0  0
  3 11  1  0  0  0  0
  3  4  2  0  0  0  0
  4  5  1  0  0  0  0
  5 10  2  0  0  0  0
  5  6  1  0  0  0  0
  6  7  2  0  0  0  0
  6 28  1  0  0  0  0
  7  8  1  0  0  0  0
  7 29  1  0  0  0  0
  8  9  2  0  0  0  0
  8 30  1  0  0  0  0
  9 10  1  0  0  0  0
  9 31  1  0  0  0  0
 10 11  1  0  0  0  0
 11 12  1  0  0  0  0
 12 13  1  0  0  0  0
 12 32  1  0  0  0  0
 12 33  1  0  0  0  0
 13 14  1  0  0  0  0
 13 15  1  0  0  0  0
 13 34  1  0  0  0  0
 14 35  1  0  0  0  0
 15 16  1  0  0  0  0
 15 36  1  0  0  0  0
 15 37  1  0  0  0  0
 16 17  1  0  0  0  0
 17 18  1  0  0  0  0
 17 38  1  0  0  0  0
 17 39  1  0  0  0  0
 18 24  1  0  0  0  0
 18 19  2  0  0  0  0
 19 20  1  0  0  0  0
 19 40  1  0  0  0  0
 20 21  2  0  0  0  0
 20 41  1  0  0  0  0
 21 22  1  0  0  0  0
 21 23  1  0  0  0  0
 23 24  2  0  0  0  0
 23 42  1  0  0  0  0
 24 43  1  0  0  0  0
M  END
> <s_m_source_file>
AV-unprocessed.smi

> <i_m_source_file_index>
322

> <i_lp_mmshare_version>
43012

> <i_f3d_flags>
0

> <s_epik_input>
W2NIXTFbY0hdW2NIXVtjSF1jKGMxMiluKGMobjIpW0NIMl1bT0hdKVtDSDJdW0NASF0oW09IXSlbQ0gyXU9bQ0gyXWMzW2NIXVtjSF1jKENsKVtjSF1bY0hdMw==

> <s_epik_cmdline>
J2VwaWtfcHl0aG9uJywgJy1waCcsICc3LjAnLCAnLXRuJywgJzgnLCAnLW1hJywgJzIwMCcsICctbWV0YWxfYmluZGluZycsICctaW1hZScsICc8aW5maWxlLm1hZT4nLCAnLW9tYWUnLCAnPG91dGZpbGUubWFlPic=

> <r_epik_Ionization_Penalty>
0.0649918

> <r_epik_Ionization_Penalty_Charging>
0

> <r_epik_Ionization_Penalty_Neutral>
0.0649918

> <r_epik_State_Penalty>
0.0565791

> <r_epik_Charging_Adjusted_Penalty>
0.0565791

> <i_epik_Tot_Q>
0

> <i_epik_Tot_abs_Q>
0

> <r_epik_Metal_State_Penalty>
5.93658e-05

> <b_epik_Metal_Only>
0

> <s_lp_Force_Field>
OPLS_2005

> <r_lp_Energy>
15.9671

> <b_lp_Chiralities_Consistent>
1

> <s_lp_Variant>
AV-unprocessed.smi:322-2

> <Gold.Version>
5.8.1

> <Gold.Id.Protein>
6NUR|6NUR_protein|mol2

> <Gold.PLP.Fitness>
53.6060

> <Gold.PLP.PLP>
-44.7475

> <Gold.PLP.part.hbond>
-5.1843

> <Gold.PLP.part.metal>
0.0000

> <Gold.PLP.part.buried>
4.7422

> <Gold.PLP.part.nonpolar>
-45.0457

> <Gold.PLP.part.repulsive>
0.0856

> <Gold.PLP.ligand.clash>
0.0000

> <Gold.PLP.ligand.torsion>
0.7902

> <Gold.PLP.Chemscore.Hbond>
3.3920

> <Gold.PLP.Chemscore.CHOScore>
0.0000

> <Gold.PLP.Chemscore.Metal>
0.0000

> <Gold.Chemscore.Hbonds>
donor molecule, donor type, donor heavy atom, donor atom, acceptor molecule, acceptor atom, score
      P1  H  7989  7998       L1     4  1.00
      P1  H  7997  8009       L1    16  0.28
      P1  H 10752 10763       L1    14  0.69
      P1  H 10752 10765       L1     1  0.43

> <Gold.PLP.Chemscore.Internal.Correction>
0.2630

> <Gold.Rescore>
     Score         DG    S(hbond)    S(metal)    S(lipo)     H(rot)  DE(clash)    DE(int)     intcor
     16.19     -19.36       0.97        0.00     159.62       3.13       2.51       0.66       ----

> <Gold.Chemscore.Fitness>
16.1927

> <Gold.Chemscore.DG>
-19.3613

> <Gold.Chemscore.ZeroCoef>
-5.4800

> <Gold.Chemscore.Hbond>
0.9667

> <Gold.Chemscore.Metal>
0.0000

> <Gold.Chemscore.Lipo>
159.6156

> <Gold.Chemscore.Internal_Hbond>
0.0000

> <Gold.Chemscore.DEClash>
2.5069

> <Gold.Chemscore.DEInternal>
0.6617

> <Gold.Chemscore.Rot>
3.1337

> <Gold.Chemscore.Internal.Correction>
   9.000000E+99

> <Gold.Chemscore.Hbonds>
donor molecule, donor type, donor heavy atom, donor atom, acceptor molecule, acceptor atom, score
      P1  H  7989  7998       L1     4  0.41
      P1  H  7997  8009       L1    16  0.04
      P1  H 10752 10763       L1    14  0.11
      P1  H 10752 10765       L1     1  0.03

> <Gold.Chemscore.Hbond.Weighted>
-3.2287

> <Gold.Chemscore.Metal.Weighted>
-0.0000

> <Gold.Chemscore.Lipo.Weighted>
-18.6750

> <Gold.Chemscore.Internal_Hbond.Weighted>
0.0000

> <Gold.Chemscore.DEClash.Weighted>
2.5069

> <Gold.Chemscore.DEInternal.Weighted>
0.6617

> <Gold.Chemscore.Rot.Weighted>
8.0224

> <Gold.Chemscore.Internal.Correction.Weighted>
   9.000000E+99

> <Gold.Protein.RotatedTorsions>
[ 6907 6896 6895 6894 ] final    8.46 input  -60.11 | X-H torsion
[ 7974 7965 7964 7962 ] final   65.20 input  175.53 | X-H torsion
[ 8008 7997 7996 7995 ] final  -30.80 input   59.86 | X-H torsion
[ 10167 10162 10161 10158 ] final  167.60 input  -65.29 | X-H torsion
[ 10718 10713 10712 10709 ] final  177.78 input   66.30 | X-H torsion
[ 10763 10752 10751 10750 ] final  168.10 input  -60.55 | X-H torsion
[ 11005 11000 10999 10996 ] final  122.62 input  -57.11 | X-H torsion

> <Gold.Protein.ActiveResidues>
 VAL166  LYS551  ARG553  GLY616  TRP617  ASP618  TYR619  PRO620  LYS621  CYS622 
 ASP623  PHE694  ASN695  SER759  ASP760  ASP761  ALA762  ILE779  LEU786  VAL792 
 PHE793  MET794  SER795  GLU796  ALA797  LYS798  CYS799  TRP800  GLU811  SER814 

> <Gold.Protein.RotatedAtoms>
  151.7064  135.0921  160.0259 H   0  0  0  0  0  0  0  0  0  0  0  0  # atno 6907 bound_to 6896
  152.3689  133.6388  159.6080 H   0  0  0  0  0  0  0  0  0  0  0  0  # atno 6908 bound_to 6896
  150.7658  133.9219  159.3442 H   0  0  0  0  0  0  0  0  0  0  0  0  # atno 6909 bound_to 6896
  145.8413  139.3197  143.0930 H   0  0  0  0  0  0  0  0  0  0  0  0  # atno 7974 bound_to 7965
  154.4237  140.1781  156.1464 H   0  0  0  0  0  0  0  0  0  0  0  0  # atno 8008 bound_to 7997
  155.9950  140.3365  155.6765 H   0  0  0  0  0  0  0  0  0  0  0  0  # atno 8009 bound_to 7997
  155.6321  140.0671  157.2636 H   0  0  0  0  0  0  0  0  0  0  0  0  # atno 8010 bound_to 7997
  139.4949  144.3904  151.9524 H   0  0  0  0  0  0  0  0  0  0  0  0  # atno 10167 bound_to 10162
  156.9003  130.9876  151.3036 H   0  0  0  0  0  0  0  0  0  0  0  0  # atno 10718 bound_to 10713
  154.3635  135.2753  155.2306 H   0  0  0  0  0  0  0  0  0  0  0  0  # atno 10763 bound_to 10752
  154.4484  135.5937  153.6179 H   0  0  0  0  0  0  0  0  0  0  0  0  # atno 10764 bound_to 10752
  152.9842  135.6036  154.3859 H   0  0  0  0  0  0  0  0  0  0  0  0  # atno 10765 bound_to 10752
  139.9276  134.9641  156.8136 H   0  0  0  0  0  0  0  0  0  0  0  0  # atno 11005 bound_to 11000
  145.9462  140.8943  143.0282 LP  0  0  0  0  0  0  0  0  0  0  0  0  # atno 17320 bound_to 7965
  144.6733  140.1616  143.7422 LP  0  0  0  0  0  0  0  0  0  0  0  0  # atno 17321 bound_to 7965
  140.3341  144.3281  150.5981 LP  0  0  0  0  0  0  0  0  0  0  0  0  # atno 17342 bound_to 10162
  140.5620  143.2191  151.7748 LP  0  0  0  0  0  0  0  0  0  0  0  0  # atno 17343 bound_to 10162
  157.6030  130.8527  149.8832 LP  0  0  0  0  0  0  0  0  0  0  0  0  # atno 17370 bound_to 10713
  156.0585  130.3704  150.1035 LP  0  0  0  0  0  0  0  0  0  0  0  0  # atno 17371 bound_to 10713
  140.6292  133.9922  155.7654 LP  0  0  0  0  0  0  0  0  0  0  0  0  # atno 17394 bound_to 11000
  141.0844  134.0013  157.3336 LP  0  0  0  0  0  0  0  0  0  0  0  0  # atno 17395 bound_to 11000

$$$$
