AV-unprocessed.smi:685|AV-procd|sdf|3335|dock6
  -GOLD-   22720 0303D 1   1.00000     0.00000
 Structure written by MMmdl.
 51 52  0  0  0  0  0  0  0  0  2 V2000
  154.5174  136.2733  161.1071 C   0  0  0  0  0  0  0  0  0  0  0  0
  155.0165  136.1080  162.5035 C   0  0  0  0  0  0  0  0  0  0  0  0
  155.4523  134.9321  163.0294 N   0  3  0  0  0  0  0  0  0  0  0  0
  155.8328  135.1068  164.3034 N   0  0  0  0  0  0  0  0  0  0  0  0
  156.3371  133.9583  165.0567 C   0  0  0  0  0  0  0  0  0  0  0  0
  155.6679  136.4098  164.6701 C   0  0  0  0  0  0  0  0  0  0  0  0
  155.9912  136.9621  166.0203 C   0  0  0  0  0  0  0  0  0  0  0  0
  155.1520  137.0460  163.5335 C   0  0  0  0  0  0  0  0  0  0  0  0
  154.7943  138.5016  163.4232 C   0  0  0  0  0  0  0  0  0  0  0  0
  155.6924  139.2722  162.4312 C   0  0  2  0  0  0  0  0  0  0  0  0
  156.8196  140.0499  163.1280 C   0  0  0  0  0  0  0  0  0  0  0  0
  154.8914  140.2001  161.6381 N   0  0  0  0  0  0  0  0  0  0  0  0
  154.6952  140.1146  160.3127 C   0  0  0  0  0  0  0  0  0  0  0  0
  155.1658  139.2115  159.6197 O   0  0  0  0  0  0  0  0  0  0  0  0
  153.8304  141.2127  159.6858 C   0  0  0  0  0  0  0  0  0  0  0  0
  153.3725  142.2776  160.7011 C   0  0  0  0  0  0  0  0  0  0  0  0
  152.2584  143.1912  160.1600 C   0  0  0  0  0  0  0  0  0  0  0  0
  152.2792  143.3383  158.6367 C   0  0  0  0  0  0  0  0  0  0  0  0
  151.4632  144.6022  158.3478 C   0  0  0  0  0  0  0  0  0  0  0  0
  151.5146  145.4484  159.6290 C   0  0  0  0  0  0  0  0  0  0  0  0
  152.3319  144.6426  160.6454 C   0  0  0  0  0  0  0  0  0  0  0  0
  153.5990  136.8606  161.1004 H   0  0  0  0  0  0  0  0  0  0  0  0
  154.3100  135.3027  160.6557 H   0  0  0  0  0  0  0  0  0  0  0  0
  155.2628  136.7870  160.4999 H   0  0  0  0  0  0  0  0  0  0  0  0
  155.9420  133.9930  166.0724 H   0  0  0  0  0  0  0  0  0  0  0  0
  157.4260  134.0038  165.0861 H   0  0  0  0  0  0  0  0  0  0  0  0
  156.0215  133.0292  164.5805 H   0  0  0  0  0  0  0  0  0  0  0  0
  156.3132  138.0001  165.9430 H   0  0  0  0  0  0  0  0  0  0  0  0
  156.7946  136.3930  166.4881 H   0  0  0  0  0  0  0  0  0  0  0  0
  155.1119  136.9176  166.6626 H   0  0  0  0  0  0  0  0  0  0  0  0
  153.7525  138.5843  163.1110 H   0  0  0  0  0  0  0  0  0  0  0  0
  154.8364  138.9808  164.4018 H   0  0  0  0  0  0  0  0  0  0  0  0
  156.1592  138.5598  161.7487 H   0  0  0  0  0  0  0  0  0  0  0  0
  157.4883  139.3821  163.6712 H   0  0  0  0  0  0  0  0  0  0  0  0
  156.4217  140.7749  163.8388 H   0  0  0  0  0  0  0  0  0  0  0  0
  157.4257  140.5942  162.4028 H   0  0  0  0  0  0  0  0  0  0  0  0
  154.4638  140.9712  162.1308 H   0  0  0  0  0  0  0  0  0  0  0  0
  154.4023  141.6832  158.8854 H   0  0  0  0  0  0  0  0  0  0  0  0
  152.9596  140.7506  159.2193 H   0  0  0  0  0  0  0  0  0  0  0  0
  153.0366  141.7939  161.6196 H   0  0  0  0  0  0  0  0  0  0  0  0
  154.2239  142.9008  160.9789 H   0  0  0  0  0  0  0  0  0  0  0  0
  151.2887  142.7794  160.4454 H   0  0  0  0  0  0  0  0  0  0  0  0
  153.3042  143.4831  158.2918 H   0  0  0  0  0  0  0  0  0  0  0  0
  151.8811  142.4609  158.1261 H   0  0  0  0  0  0  0  0  0  0  0  0
  151.8556  145.1415  157.4850 H   0  0  0  0  0  0  0  0  0  0  0  0
  150.4292  144.3367  158.1236 H   0  0  0  0  0  0  0  0  0  0  0  0
  151.9587  146.4284  159.4517 H   0  0  0  0  0  0  0  0  0  0  0  0
  150.5033  145.6124  160.0036 H   0  0  0  0  0  0  0  0  0  0  0  0
  151.9583  144.7642  161.6626 H   0  0  0  0  0  0  0  0  0  0  0  0
  153.3669  144.9870  160.6315 H   0  0  0  0  0  0  0  0  0  0  0  0
  155.5073  134.0236  162.5865 H   0  0  0  0  0  0  0  0  0  0  0  0
  1  2  1  0  0  0  0
  1 22  1  0  0  0  0
  1 23  1  0  0  0  0
  1 24  1  0  0  0  0
  2  8  1  0  0  0  0
  2  3  2  0  0  0  0
  3  4  1  0  0  0  0
  3 51  1  0  0  0  0
  4  5  1  0  0  0  0
  4  6  1  0  0  0  0
  5 25  1  0  0  0  0
  5 26  1  0  0  0  0
  5 27  1  0  0  0  0
  6  7  1  0  0  0  0
  6  8  2  0  0  0  0
  7 28  1  0  0  0  0
  7 29  1  0  0  0  0
  7 30  1  0  0  0  0
  8  9  1  0  0  0  0
  9 10  1  0  0  0  0
  9 31  1  0  0  0  0
  9 32  1  0  0  0  0
 10 11  1  0  0  0  0
 10 12  1  0  0  0  0
 10 33  1  0  0  0  0
 11 34  1  0  0  0  0
 11 35  1  0  0  0  0
 11 36  1  0  0  0  0
 12 13  1  0  0  0  0
 12 37  1  0  0  0  0
 13 14  2  0  0  0  0
 13 15  1  0  0  0  0
 15 16  1  0  0  0  0
 15 38  1  0  0  0  0
 15 39  1  0  0  0  0
 16 17  1  0  0  0  0
 16 40  1  0  0  0  0
 16 41  1  0  0  0  0
 17 21  1  0  0  0  0
 17 18  1  0  0  0  0
 17 42  1  0  0  0  0
 18 19  1  0  0  0  0
 18 43  1  0  0  0  0
 18 44  1  0  0  0  0
 19 20  1  0  0  0  0
 19 45  1  0  0  0  0
 19 46  1  0  0  0  0
 20 21  1  0  0  0  0
 20 47  1  0  0  0  0
 20 48  1  0  0  0  0
 21 49  1  0  0  0  0
 21 50  1  0  0  0  0
M  CHG  1   3   1
M  END
> <s_m_source_file>
AV-unprocessed.smi

> <i_m_source_file_index>
685

> <i_lp_mmshare_version>
43012

> <i_f3d_flags>
0

> <s_epik_input>
W0NIM11jMW5uKFtDSDNdKWMoW0NIM10pYzFbQ0gyXVtDQEhdKFtDSDNdKVtOSF1DKD1PKVtDSDJdW0NIMl1bQ0hdMltDSDJdW0NIMl1bQ0gyXVtDSDJdMg==

> <s_epik_cmdline>
J2VwaWtfcHl0aG9uJywgJy1waCcsICc3LjAnLCAnLXRuJywgJzgnLCAnLW1hJywgJzIwMCcsICctbWV0YWxfYmluZGluZycsICctaW1hZScsICc8aW5maWxlLm1hZT4nLCAnLW9tYWUnLCAnPG91dGZpbGUubWFlPic=

> <r_lp_tautomer_probability>
1

> <r_epik_Ionization_Penalty>
2.26429

> <r_epik_Ionization_Penalty_Charging>
2.26429

> <r_epik_Ionization_Penalty_Neutral>
2.3289e-07

> <r_epik_State_Penalty>
2.41237

> <r_epik_Charging_Adjusted_Penalty>
4.67666

> <i_epik_Tot_Q>
1

> <i_epik_Tot_abs_Q>
1

> <r_epik_Metal_State_Penalty>
2.42525

> <b_epik_Metal_Only>
0

> <s_lp_Force_Field>
OPLS_2005

> <r_lp_Energy>
28.552

> <b_lp_Chiralities_Consistent>
1

> <s_lp_Variant>
AV-unprocessed.smi:685-3

> <Gold.Version>
5.8.1

> <Gold.Id.Protein>
6NUR|6NUR_protein|mol2

> <Gold.PLP.Fitness>
47.4129

> <Gold.PLP.PLP>
-46.9818

> <Gold.PLP.part.hbond>
-1.0000

> <Gold.PLP.part.metal>
0.0000

> <Gold.PLP.part.buried>
-5.1002

> <Gold.PLP.part.nonpolar>
-40.3869

> <Gold.PLP.part.repulsive>
0.0677

> <Gold.PLP.ligand.clash>
0.4073

> <Gold.PLP.ligand.torsion>
1.1074

> <Gold.PLP.Chemscore.Hbond>
1.0000

> <Gold.PLP.Chemscore.CHOScore>
0.0000

> <Gold.PLP.Chemscore.Metal>
0.0000

> <Gold.Chemscore.Hbonds>
donor molecule, donor type, donor heavy atom, donor atom, acceptor molecule, acceptor atom, score
      P1  H  7997  8010       L1    14  0.02

> <Gold.PLP.Chemscore.Internal.Correction>
0.0532

> <Gold.Rescore>
     Score         DG    S(hbond)    S(metal)    S(lipo)     H(rot)  DE(clash)    DE(int)     intcor
     18.95     -20.30       0.97        0.00     134.12       1.61       0.08       1.27       ----

> <Gold.Chemscore.Fitness>
18.9501

> <Gold.Chemscore.DG>
-20.3002

> <Gold.Chemscore.ZeroCoef>
-5.4800

> <Gold.Chemscore.Hbond>
0.9724

> <Gold.Chemscore.Metal>
0.0000

> <Gold.Chemscore.Lipo>
134.1235

> <Gold.Chemscore.Internal_Hbond>
0.0000

> <Gold.Chemscore.DEClash>
0.0791

> <Gold.Chemscore.DEInternal>
1.2709

> <Gold.Chemscore.Rot>
1.6095

> <Gold.Chemscore.Internal.Correction>
   9.000000E+99

> <Gold.Chemscore.Hbonds>
donor molecule, donor type, donor heavy atom, donor atom, acceptor molecule, acceptor atom, score
      P1  H  7997  8010       L1    14  0.05

> <Gold.Chemscore.Hbond.Weighted>
-3.2480

> <Gold.Chemscore.Metal.Weighted>
-0.0000

> <Gold.Chemscore.Lipo.Weighted>
-15.6924

> <Gold.Chemscore.Internal_Hbond.Weighted>
0.0000

> <Gold.Chemscore.DEClash.Weighted>
0.0791

> <Gold.Chemscore.DEInternal.Weighted>
1.2709

> <Gold.Chemscore.Rot.Weighted>
4.1202

> <Gold.Chemscore.Internal.Correction.Weighted>
   9.000000E+99

> <Gold.Protein.RotatedTorsions>
[ 6907 6896 6895 6894 ] final   45.63 input  -60.11 | X-H torsion
[ 7974 7965 7964 7962 ] final   28.60 input  175.53 | X-H torsion
[ 8008 7997 7996 7995 ] final  -21.55 input   59.86 | X-H torsion
[ 10167 10162 10161 10158 ] final   21.33 input  -65.29 | X-H torsion
[ 10718 10713 10712 10709 ] final  -67.30 input   66.30 | X-H torsion
[ 10763 10752 10751 10750 ] final -138.40 input  -60.55 | X-H torsion
[ 11005 11000 10999 10996 ] final  -50.09 input  -57.11 | X-H torsion

> <Gold.Protein.ActiveResidues>
 VAL166  LYS551  ARG553  GLY616  TRP617  ASP618  TYR619  PRO620  LYS621  CYS622 
 ASP623  PHE694  ASN695  SER759  ASP760  ASP761  ALA762  ILE779  LEU786  VAL792 
 PHE793  MET794  SER795  GLU796  ALA797  LYS798  CYS799  TRP800  GLU811  SER814 

> <Gold.Protein.RotatedAtoms>
  152.2469  134.8172  160.0451 H   0  0  0  0  0  0  0  0  0  0  0  0  # atno 6907 bound_to 6896
  151.8867  133.3502  159.3792 H   0  0  0  0  0  0  0  0  0  0  0  0  # atno 6908 bound_to 6896
  150.7071  134.4891  159.5551 H   0  0  0  0  0  0  0  0  0  0  0  0  # atno 6909 bound_to 6896
  146.1719  139.7034  142.8961 H   0  0  0  0  0  0  0  0  0  0  0  0  # atno 7974 bound_to 7965
  154.4699  140.2032  156.0022 H   0  0  0  0  0  0  0  0  0  0  0  0  # atno 8008 bound_to 7997
  156.0992  140.3246  155.7889 H   0  0  0  0  0  0  0  0  0  0  0  0  # atno 8009 bound_to 7997
  155.4826  140.0540  157.2956 H   0  0  0  0  0  0  0  0  0  0  0  0  # atno 8010 bound_to 7997
  140.5435  143.9636  150.6533 H   0  0  0  0  0  0  0  0  0  0  0  0  # atno 10167 bound_to 10162
  156.0565  130.4275  150.1834 H   0  0  0  0  0  0  0  0  0  0  0  0  # atno 10718 bound_to 10713
  154.8638  135.3613  154.5379 H   0  0  0  0  0  0  0  0  0  0  0  0  # atno 10763 bound_to 10752
  153.6002  135.7013  153.5392 H   0  0  0  0  0  0  0  0  0  0  0  0  # atno 10764 bound_to 10752
  153.3297  135.4128  155.1447 H   0  0  0  0  0  0  0  0  0  0  0  0  # atno 10765 bound_to 10752
  141.0796  133.6656  156.3681 H   0  0  0  0  0  0  0  0  0  0  0  0  # atno 11005 bound_to 11000
  145.4316  141.0415  143.2907 LP  0  0  0  0  0  0  0  0  0  0  0  0  # atno 17320 bound_to 7965
  144.8177  139.5848  143.7001 LP  0  0  0  0  0  0  0  0  0  0  0  0  # atno 17321 bound_to 7965
  140.3043  143.3240  152.0942 LP  0  0  0  0  0  0  0  0  0  0  0  0  # atno 17342 bound_to 10162
  139.4998  144.6677  151.6317 LP  0  0  0  0  0  0  0  0  0  0  0  0  # atno 17343 bound_to 10162
  156.9909  130.9893  151.3415 LP  0  0  0  0  0  0  0  0  0  0  0  0  # atno 17370 bound_to 10713
  157.5539  130.8201  149.8180 LP  0  0  0  0  0  0  0  0  0  0  0  0  # atno 17371 bound_to 10713
  140.5497  134.6040  157.5404 LP  0  0  0  0  0  0  0  0  0  0  0  0  # atno 17394 bound_to 11000
  139.9610  134.7453  156.0238 LP  0  0  0  0  0  0  0  0  0  0  0  0  # atno 17395 bound_to 11000

$$$$
