#       Name:                AV-unprocessed.smi:276
#       Creating user name   scv26
#       Creation time:       Thu Mar 26 21:32:41 2020


#       File generated by GOLD software.
#

@<TRIPOS>MOLECULE
AV-unprocessed.smi:276
    67    71     1
SMALL
NO_CHARGES


@<TRIPOS>ATOM
      1 ****        -5.7884   0.2309   3.9096 C.3            1 S1                 0.0000
      2 ****        -4.6925  -0.3783   3.2503 O.3            1 S1                 0.0000
      3 ****        -3.9002   0.5539   2.5313 C.3            1 S1                 0.0000
      4 ****        -4.4992   0.9994   1.1917 C.3            1 S1                 0.0000
      5 ****        -3.0904   0.8961   0.5742 C.3            1 S1                 0.0000
      6 ****        -2.3852   2.1856   0.6130 N.3            1 S1                 0.0000
      7 ****        -2.9401   3.2475  -0.2207 C.3            1 S1                 0.0000
      8 ****        -1.0446   2.1308   0.4476 C.ar           1 S1                 0.0000
      9 ****        -0.2884   2.8497   1.3142 N.ar           1 S1                 0.0000
     10 ****         1.0441   2.8293   1.2150 C.ar           1 S1                 0.0000
     11 ****         1.8066   2.1740   0.3371 N.ar           1 S1                 0.0000
     12 ****         1.0473   1.4631  -0.5455 C.ar           1 S1                 0.0000
     13 ****        -0.3740   1.3899  -0.5680 C.ar           1 S1                 0.0000
     14 ****        -0.7882   0.5756  -1.6159 N.2            1 S1                 0.0000
     15 ****         0.3238   0.1772  -2.1700 C.2            1 S1                 0.0000
     16 ****         1.4734   0.6610  -1.5890 N.pl3          1 S1                 0.0000
     17 ****         2.8378   0.3730  -1.9971 C.3            1 S1                 0.0000
     18 ****         3.3345  -0.9972  -1.4806 C.3            1 S1                 0.0000
     19 ****         3.1627  -1.0159  -0.0753 O.3            1 S1                 0.0000
     20 ****         4.8299  -1.2780  -1.7624 C.3            1 S1                 0.0000
     21 ****         5.2534  -1.1843  -3.2393 C.3            1 S1                 0.0000
     22 ****         5.1285  -2.6070  -3.7322 C.3            1 S1                 0.0000
     23 ****         5.5984  -3.3760  -2.5090 C.3            1 S1                 0.0000
     24 ****         5.0758  -2.6431  -1.4087 O.3            1 S1                 0.0000
     25 ****        -2.7556  -0.0891   1.7274 C.3            1 S1                 0.0000
     26 ****        -2.7690  -1.6042   1.4528 C.3            1 S1                 0.0000
     27 ****        -1.7577  -1.7642   2.5912 C.3            1 S1                 0.0000
     28 ****        -1.3657  -0.3033   2.3576 C.3            1 S1                 0.0000
     29 ****        -6.3526  -0.5254   4.4553 H              1 S1                 0.0000
     30 ****        -6.4648   0.7073   3.1990 H              1 S1                 0.0000
     31 ****        -5.4491   0.9800   4.6259 H              1 S1                 0.0000
     32 ****        -3.5494   1.3905   3.1395 H              1 S1                 0.0000
     33 ****        -5.1879   0.2619   0.7760 H              1 S1                 0.0000
     34 ****        -4.9545   1.9890   1.2138 H              1 S1                 0.0000
     35 ****        -3.1105   0.4281  -0.4099 H              1 S1                 0.0000
     36 ****        -2.2400   4.0741  -0.3551 H              1 S1                 0.0000
     37 ****        -3.8396   3.6603   0.2347 H              1 S1                 0.0000
     38 ****        -3.2023   2.8635  -1.2072 H              1 S1                 0.0000
     39 ****         1.5757   3.4206   1.9459 H              1 S1                 0.0000
     40 ****         0.3369  -0.4879  -3.0212 H              1 S1                 0.0000
     41 ****         2.8618   0.4143  -3.0850 H              1 S1                 0.0000
     42 ****         3.4869   1.1737  -1.6399 H              1 S1                 0.0000
     43 ****         2.7211  -1.7883  -1.9137 H              1 S1                 0.0000
     44 ****         3.6758  -0.3165   0.2997 H              1 S1                 0.0000
     45 ****         5.4562  -0.6166  -1.1619 H              1 S1                 0.0000
     46 ****         4.6861  -0.4787  -3.8423 H              1 S1                 0.0000
     47 ****         6.2995  -0.8795  -3.2946 H              1 S1                 0.0000
     48 ****         4.0868  -2.8424  -3.9542 H              1 S1                 0.0000
     49 ****         5.7271  -2.8095  -4.6206 H              1 S1                 0.0000
     50 ****         5.2548  -4.4106  -2.5022 H              1 S1                 0.0000
     51 ****         6.6877  -3.3752  -2.4505 H              1 S1                 0.0000
     52 ****        -3.7239  -2.1057   1.6115 H              1 S1                 0.0000
     53 ****        -2.3448  -1.8567   0.4795 H              1 S1                 0.0000
     54 ****        -2.2328  -1.9250   3.5602 H              1 S1                 0.0000
     55 ****        -0.9647  -2.4880   2.4014 H              1 S1                 0.0000
     56 ****        -0.5378  -0.2277   1.6530 H              1 S1                 0.0000
     57 ****        -1.1769   0.2719   3.2642 H              1 S1                 0.0000
     58 ****        -5.0437  -1.0611   2.6097 LP             1 S1                 0.0000
     59 ****        -4.1171  -0.8273   3.9339 LP             1 S1                 0.0000
     60 ****        -2.5596   2.4370   1.5650 LP             1 S1                 0.0000
     61 ****        -0.7282   3.3953   2.0276 LP             1 S1                 0.0000
     62 ****         2.8062   2.2008   0.3276 LP             1 S1                 0.0000
     63 ****        -1.7243   0.3475  -1.8837 LP             1 S1                 0.0000
     64 ****         3.4714  -1.8939   0.2904 LP             1 S1                 0.0000
     65 ****         2.1971  -0.8827   0.1481 LP             1 S1                 0.0000
     66 ****         4.2170  -3.0634  -1.1158 LP             1 S1                 0.0000
     67 ****         5.7341  -2.6711  -0.6565 LP             1 S1                 0.0000
@<TRIPOS>BOND
    1    1    2 1     
    2    1   29 1     
    3    1   30 1     
    4    1   31 1     
    5    2    3 1     
    6    3   25 1     
    7    3    4 1     
    8    3   32 1     
    9    4    5 1     
   10    4   33 1     
   11    4   34 1     
   12    5    6 1     
   13    5   25 1     
   14    5   35 1     
   15    6    7 1     
   16    6    8 1     
   17    7   36 1     
   18    7   37 1     
   19    7   38 1     
   20    8   13 ar    
   21    8    9 ar    
   22    9   10 ar    
   23   10   11 ar    
   24   10   39 1     
   25   11   12 ar    
   26   12   16 1     
   27   12   13 ar    
   28   13   14 1     
   29   14   15 2     
   30   15   16 1     
   31   15   40 1     
   32   16   17 1     
   33   17   18 1     
   34   17   41 1     
   35   17   42 1     
   36   18   19 1     
   37   18   20 1     
   38   18   43 1     
   39   19   44 1     
   40   20   24 1     
   41   20   21 1     
   42   20   45 1     
   43   21   22 1     
   44   21   46 1     
   45   21   47 1     
   46   22   23 1     
   47   22   48 1     
   48   22   49 1     
   49   23   24 1     
   50   23   50 1     
   51   23   51 1     
   52   25   28 1     
   53   25   26 1     
   54   26   27 1     
   55   26   52 1     
   56   26   53 1     
   57   27   28 1     
   58   27   54 1     
   59   27   55 1     
   60   28   56 1     
   61   28   57 1     
   62    2   58 1     
   63    2   59 1     
   64    6   60 1     
   65    9   61 1     
   66   11   62 1     
   67   14   63 1     
   68   19   64 1     
   69   19   65 1     
   70   24   66 1     
   71   24   67 1     
@<TRIPOS>SUBSTRUCTURE
      1 S1             1
@<TRIPOS>SET
LONE_PAIRS      STATIC     ATOMS    <user>   **** ""
10 58 59 60 61 62 63 64 65 66 67
DONOR_HYDROGENS      STATIC     ATOMS    <user>   **** ""
1 44
ATOM$BLUE        STATIC     ATOMS    COLORGROUP SYSTEM
10 58 59 60 61 62 63 64 65 66 67
ATOM$RED        STATIC     ATOMS    COLORGROUP SYSTEM
1 44
