AV-unprocessed.smi:368|AV-procd|sdf|2434|dock5
  -GOLD-   2262022373D 1   1.00000     0.00000
 Structure written by MMmdl.
 37 38  0  0  0  0  0  0  0  0  1 V2000
  151.2926  140.4089  156.2836 O   0  0  0  0  0  0  0  0  0  0  0  0
  150.5811  141.3404  155.9045 C   0  0  0  0  0  0  0  0  0  0  0  0
  149.5397  141.1387  154.7941 C   0  0  0  0  0  0  0  0  0  0  0  0
  148.1909  141.6000  155.1615 N   0  0  0  0  0  0  0  0  0  0  0  0
  147.4887  142.3677  154.2173 C   0  0  0  0  0  0  0  0  0  0  0  0
  146.2562  142.8250  154.4811 C   0  0  0  0  0  0  0  0  0  0  0  0
  145.6993  142.4786  155.7953 C   0  0  0  0  0  0  0  0  0  0  0  0
  146.3387  141.7833  156.6603 N   0  0  0  0  0  0  0  0  0  0  0  0
  147.6350  141.3090  156.3828 C   0  0  0  0  0  0  0  0  0  0  0  0
  148.2590  140.6477  157.2129 O   0  0  0  0  0  0  0  0  0  0  0  0
  150.6459  142.5754  156.4254 N   0  0  0  0  0  0  0  0  0  0  0  0
  151.5539  143.0063  157.4858 C   0  0  0  0  0  0  0  0  0  0  0  0
  151.3279  142.1140  158.7243 C   0  0  0  0  0  0  0  0  0  0  0  0
  152.4429  142.2417  159.7763 C   0  0  0  0  0  0  0  0  0  0  0  0
  152.2593  143.3694  160.8069 C   0  0  0  0  0  0  0  0  0  0  0  0
  151.7092  144.7038  160.2746 C   0  0  0  0  0  0  0  0  0  0  0  0
  152.2023  145.1095  158.8764 C   0  0  0  0  0  0  0  0  0  0  0  0
  151.3466  144.5129  157.7456 C   0  0  0  0  0  0  0  0  0  0  0  0
  149.8891  141.6605  153.9019 H   0  0  0  0  0  0  0  0  0  0  0  0
  149.5106  140.0836  154.5156 H   0  0  0  0  0  0  0  0  0  0  0  0
  148.0099  142.5593  153.2907 H   0  0  0  0  0  0  0  0  0  0  0  0
  145.6641  143.4209  153.8025 H   0  0  0  0  0  0  0  0  0  0  0  0
  144.6925  142.8568  155.9905 H   0  0  0  0  0  0  0  0  0  0  0  0
  150.0209  143.2756  156.0532 H   0  0  0  0  0  0  0  0  0  0  0  0
  152.5794  142.8496  157.1454 H   0  0  0  0  0  0  0  0  0  0  0  0
  150.3495  142.2978  159.1702 H   0  0  0  0  0  0  0  0  0  0  0  0
  151.3120  141.0743  158.3932 H   0  0  0  0  0  0  0  0  0  0  0  0
  152.5201  141.3014  160.3235 H   0  0  0  0  0  0  0  0  0  0  0  0
  153.4042  142.3571  159.2744 H   0  0  0  0  0  0  0  0  0  0  0  0
  151.5992  143.0231  161.6029 H   0  0  0  0  0  0  0  0  0  0  0  0
  153.2231  143.5476  161.2855 H   0  0  0  0  0  0  0  0  0  0  0  0
  150.6189  144.6771  160.2798 H   0  0  0  0  0  0  0  0  0  0  0  0
  151.9786  145.4847  160.9867 H   0  0  0  0  0  0  0  0  0  0  0  0
  152.1339  146.1951  158.8002 H   0  0  0  0  0  0  0  0  0  0  0  0
  153.2576  144.8684  158.7435 H   0  0  0  0  0  0  0  0  0  0  0  0
  151.5783  145.0552  156.8279 H   0  0  0  0  0  0  0  0  0  0  0  0
  150.2926  144.7143  157.9437 H   0  0  0  0  0  0  0  0  0  0  0  0
  1  2  2  0  0  0  0
  2  3  1  0  0  0  0
  2 11  1  0  0  0  0
  3  4  1  0  0  0  0
  3 19  1  0  0  0  0
  3 20  1  0  0  0  0
  4  9  1  0  0  0  0
  4  5  1  0  0  0  0
  5  6  2  0  0  0  0
  5 21  1  0  0  0  0
  6  7  1  0  0  0  0
  6 22  1  0  0  0  0
  7  8  2  0  0  0  0
  7 23  1  0  0  0  0
  8  9  1  0  0  0  0
  9 10  2  0  0  0  0
 11 12  1  0  0  0  0
 11 24  1  0  0  0  0
 12 18  1  0  0  0  0
 12 13  1  0  0  0  0
 12 25  1  0  0  0  0
 13 14  1  0  0  0  0
 13 26  1  0  0  0  0
 13 27  1  0  0  0  0
 14 15  1  0  0  0  0
 14 28  1  0  0  0  0
 14 29  1  0  0  0  0
 15 16  1  0  0  0  0
 15 30  1  0  0  0  0
 15 31  1  0  0  0  0
 16 17  1  0  0  0  0
 16 32  1  0  0  0  0
 16 33  1  0  0  0  0
 17 18  1  0  0  0  0
 17 34  1  0  0  0  0
 17 35  1  0  0  0  0
 18 36  1  0  0  0  0
 18 37  1  0  0  0  0
M  END
> <s_m_source_file>
AV-unprocessed.smi

> <i_m_source_file_index>
368

> <i_lp_mmshare_version>
43012

> <i_f3d_flags>
0

> <s_epik_input>
W0NIMl0xW0NIMl1bQ0gyXVtDSDJdW0NIMl1bQ0gyXVtDSF0xW05IXUMoPU8pW0NIMl1uMltjSF1bY0hdW2NIXW5jMj1P

> <s_epik_cmdline>
J2VwaWtfcHl0aG9uJywgJy1waCcsICc3LjAnLCAnLXRuJywgJzgnLCAnLW1hJywgJzIwMCcsICctbWV0YWxfYmluZGluZycsICctaW1hZScsICc8aW5maWxlLm1hZT4nLCAnLW9tYWUnLCAnPG91dGZpbGUubWFlPic=

> <r_lp_tautomer_probability>
1

> <r_epik_Ionization_Penalty>
7.18069e-06

> <r_epik_Ionization_Penalty_Charging>
1.77491e-08

> <r_epik_Ionization_Penalty_Neutral>
7.16294e-06

> <r_epik_State_Penalty>
-0

> <r_epik_Charging_Adjusted_Penalty>
1.77491e-08

> <i_epik_Tot_Q>
0

> <i_epik_Tot_abs_Q>
0

> <r_epik_Metal_State_Penalty>
-0

> <b_epik_Metal_Only>
0

> <s_lp_Force_Field>
OPLS_2005

> <r_lp_Energy>
17.0449

> <b_lp_Chiralities_Consistent>
1

> <s_lp_Variant>
AV-unprocessed.smi:368-1

> <Gold.Version>
5.8.1

> <Gold.Id.Protein>
6NUR|6NUR_protein|mol2

> <Gold.PLP.Fitness>
44.0551

> <Gold.PLP.PLP>
-41.5460

> <Gold.PLP.part.hbond>
-1.0000

> <Gold.PLP.part.metal>
0.0000

> <Gold.PLP.part.buried>
-3.5773

> <Gold.PLP.part.nonpolar>
-36.7156

> <Gold.PLP.part.repulsive>
0.1922

> <Gold.PLP.ligand.clash>
0.0000

> <Gold.PLP.ligand.torsion>
0.2526

> <Gold.PLP.Chemscore.Hbond>
1.0000

> <Gold.PLP.Chemscore.CHOScore>
0.0000

> <Gold.PLP.Chemscore.Metal>
0.0000

> <Gold.Chemscore.Hbonds>
donor molecule, donor type, donor heavy atom, donor atom, acceptor molecule, acceptor atom, score
      L1  H    11    24       P1  8028  1.00

> <Gold.PLP.Chemscore.Internal.Correction>
0.0142

> <Gold.Rescore>
     Score         DG    S(hbond)    S(metal)    S(lipo)     H(rot)  DE(clash)    DE(int)     intcor
     14.01     -17.09       1.00        0.00     103.41       1.50       0.35       2.73       ----

> <Gold.Chemscore.Fitness>
14.0130

> <Gold.Chemscore.DG>
-17.0850

> <Gold.Chemscore.ZeroCoef>
-5.4800

> <Gold.Chemscore.Hbond>
1.0000

> <Gold.Chemscore.Metal>
0.0000

> <Gold.Chemscore.Lipo>
103.4116

> <Gold.Chemscore.Internal_Hbond>
0.0000

> <Gold.Chemscore.DEClash>
0.3458

> <Gold.Chemscore.DEInternal>
2.7263

> <Gold.Chemscore.Rot>
1.4977

> <Gold.Chemscore.Internal.Correction>
   9.000000E+99

> <Gold.Chemscore.Hbonds>
donor molecule, donor type, donor heavy atom, donor atom, acceptor molecule, acceptor atom, score
      L1  H    11    24       P1  8028  1.00

> <Gold.Chemscore.Hbond.Weighted>
-3.3400

> <Gold.Chemscore.Metal.Weighted>
-0.0000

> <Gold.Chemscore.Lipo.Weighted>
-12.0992

> <Gold.Chemscore.Internal_Hbond.Weighted>
0.0000

> <Gold.Chemscore.DEClash.Weighted>
0.3458

> <Gold.Chemscore.DEInternal.Weighted>
2.7263

> <Gold.Chemscore.Rot.Weighted>
3.8341

> <Gold.Chemscore.Internal.Correction.Weighted>
   9.000000E+99

> <Gold.Protein.RotatedTorsions>
[ 6907 6896 6895 6894 ] final  -47.30 input  -60.11 | X-H torsion
[ 7974 7965 7964 7962 ] final   30.67 input  175.53 | X-H torsion
[ 8008 7997 7996 7995 ] final  -79.18 input   59.86 | X-H torsion
[ 10167 10162 10161 10158 ] final -125.55 input  -65.29 | X-H torsion
[ 10718 10713 10712 10709 ] final  129.74 input   66.30 | X-H torsion
[ 10763 10752 10751 10750 ] final  159.13 input  -60.55 | X-H torsion
[ 11005 11000 10999 10996 ] final  114.55 input  -57.11 | X-H torsion

> <Gold.Protein.ActiveResidues>
 VAL166  LYS551  ARG553  GLY616  TRP617  ASP618  TYR619  PRO620  LYS621  CYS622 
 ASP623  PHE694  ASN695  SER759  ASP760  ASP761  ALA762  ILE779  LEU786  VAL792 
 PHE793  MET794  SER795  GLU796  ALA797  LYS798  CYS799  TRP800  GLU811  SER814 

> <Gold.Protein.RotatedAtoms>
  150.9022  134.8435  159.7367 H   0  0  0  0  0  0  0  0  0  0  0  0  # atno 6907 bound_to 6896
  152.4899  134.4485  159.9576 H   0  0  0  0  0  0  0  0  0  0  0  0  # atno 6908 bound_to 6896
  151.4535  133.3572  159.2834 H   0  0  0  0  0  0  0  0  0  0  0  0  # atno 6909 bound_to 6896
  146.1597  139.6758  142.9042 H   0  0  0  0  0  0  0  0  0  0  0  0  # atno 7974 bound_to 7965
  154.5760  140.0682  156.9035 H   0  0  0  0  0  0  0  0  0  0  0  0  # atno 8008 bound_to 7997
  155.2547  140.3354  155.4260 H   0  0  0  0  0  0  0  0  0  0  0  0  # atno 8009 bound_to 7997
  156.2154  140.1776  156.7585 H   0  0  0  0  0  0  0  0  0  0  0  0  # atno 8010 bound_to 7997
  139.9809  143.5743  152.2378 H   0  0  0  0  0  0  0  0  0  0  0  0  # atno 10167 bound_to 10162
  157.5127  131.1097  150.9270 H   0  0  0  0  0  0  0  0  0  0  0  0  # atno 10718 bound_to 10713
  154.2269  135.2780  155.2904 H   0  0  0  0  0  0  0  0  0  0  0  0  # atno 10763 bound_to 10752
  154.5655  135.5634  153.7050 H   0  0  0  0  0  0  0  0  0  0  0  0  # atno 10764 bound_to 10752
  153.0029  135.6308  154.2411 H   0  0  0  0  0  0  0  0  0  0  0  0  # atno 10765 bound_to 10752
  139.8984  134.9569  156.6909 H   0  0  0  0  0  0  0  0  0  0  0  0  # atno 11005 bound_to 11000
  145.4618  141.0433  143.2747 LP  0  0  0  0  0  0  0  0  0  0  0  0  # atno 17320 bound_to 7965
  144.8011  139.6140  143.7071 LP  0  0  0  0  0  0  0  0  0  0  0  0  # atno 17321 bound_to 7965
  139.6410  144.7654  151.2338 LP  0  0  0  0  0  0  0  0  0  0  0  0  # atno 17342 bound_to 10162
  140.7489  143.6317  150.8417 LP  0  0  0  0  0  0  0  0  0  0  0  0  # atno 17343 bound_to 10162
  156.9905  130.5561  149.5303 LP  0  0  0  0  0  0  0  0  0  0  0  0  # atno 17370 bound_to 10713
  156.0299  130.5391  150.8507 LP  0  0  0  0  0  0  0  0  0  0  0  0  # atno 17371 bound_to 10713
  140.7225  133.9128  155.8156 LP  0  0  0  0  0  0  0  0  0  0  0  0  # atno 17394 bound_to 11000
  141.0216  134.0881  157.4114 LP  0  0  0  0  0  0  0  0  0  0  0  0  # atno 17395 bound_to 11000

$$$$
