#       Name:                AV-unprocessed.smi:1915
#       Creating user name   scv26
#       Creation time:       Fri Mar 27 09:50:15 2020


#       File generated by GOLD software.
#

@<TRIPOS>MOLECULE
AV-unprocessed.smi:1915
    49    50     1
SMALL
NO_CHARGES


@<TRIPOS>ATOM
      1 ****        -3.0066   1.9742   2.8525 C.3            1 S1                 0.0000
      2 ****        -3.5143   1.1977   1.6252 C.3            1 S1                 0.0000
      3 ****        -4.9939   1.5159   1.3636 C.3            1 S1                 0.0000
      4 ****        -3.3017  -0.3288   1.7355 C.3            1 S1                 0.0000
      5 ****        -1.8929  -0.7008   1.8581 N.am           1 S1                 0.0000
      6 ****        -1.0976  -0.9638   0.6705 C.3            1 S1                 0.0000
      7 ****         0.3473  -1.1596   1.1748 C.3            1 S1                 0.0000
      8 ****         1.2513   0.0313   0.8193 C.2            1 S1                 0.0000
      9 ****         0.9948   1.1569   1.2488 O.2            1 S1                 0.0000
     10 ****         2.3018  -0.2310   0.0298 N.am           1 S1                 0.0000
     11 ****         3.2617   0.7652  -0.4303 C.3            1 S1                 0.0000
     12 ****         4.1697   0.2158  -1.5443 C.3            1 S1                 0.0000
     13 ****         3.4068  -0.2586  -2.7704 C.ar           1 S1                 0.0000
     14 ****         3.1385   0.6302  -3.8331 C.ar           1 S1                 0.0000
     15 ****         2.4170   0.1511  -4.9436 C.ar           1 S1                 0.0000
     16 ****         1.9925  -1.1916  -4.9485 C.ar           1 S1                 0.0000
     17 ****         2.3096  -1.9987  -3.8380 C.ar           1 S1                 0.0000
     18 ****         2.9999  -1.5489  -2.7678 N.ar           1 S1                 0.0000
     19 ****         0.2155  -1.3385   2.7004 C.3            1 S1                 0.0000
     20 ****        -1.2262  -0.9549   2.9904 C.2            1 S1                 0.0000
     21 ****        -1.6802  -0.8877   4.1317 O.2            1 S1                 0.0000
     22 ****        -3.4781   1.6183   3.7689 H              1 S1                 0.0000
     23 ****        -3.2225   3.0389   2.7596 H              1 S1                 0.0000
     24 ****        -1.9273   1.8777   2.9703 H              1 S1                 0.0000
     25 ****        -2.9518   1.5516   0.7600 H              1 S1                 0.0000
     26 ****        -5.6220   1.1858   2.1918 H              1 S1                 0.0000
     27 ****        -5.3487   1.0218   0.4585 H              1 S1                 0.0000
     28 ****        -5.1503   2.5872   1.2335 H              1 S1                 0.0000
     29 ****        -3.8655  -0.7238   2.5825 H              1 S1                 0.0000
     30 ****        -3.7096  -0.8216   0.8517 H              1 S1                 0.0000
     31 ****        -1.4624  -1.8695   0.1841 H              1 S1                 0.0000
     32 ****        -1.1932  -0.1455  -0.0453 H              1 S1                 0.0000
     33 ****         0.7660  -2.0661   0.7339 H              1 S1                 0.0000
     34 ****         2.4375  -1.1798  -0.2892 H              1 S1                 0.0000
     35 ****         2.7287   1.6438  -0.7980 H              1 S1                 0.0000
     36 ****         3.8682   1.0914   0.4154 H              1 S1                 0.0000
     37 ****         4.8801   0.9859  -1.8469 H              1 S1                 0.0000
     38 ****         4.7692  -0.6097  -1.1573 H              1 S1                 0.0000
     39 ****         3.4749   1.6560  -3.7985 H              1 S1                 0.0000
     40 ****         2.1928   0.8020  -5.7756 H              1 S1                 0.0000
     41 ****         1.4374  -1.5933  -5.7833 H              1 S1                 0.0000
     42 ****         2.0006  -3.0331  -3.8081 H              1 S1                 0.0000
     43 ****         0.3800  -2.3768   2.9898 H              1 S1                 0.0000
     44 ****         0.9013  -0.7161   3.2777 H              1 S1                 0.0000
     45 ****         0.1950   1.2993   1.8319 LP             1 S1                 0.0000
     46 ****         1.5864   1.9283   1.0144 LP             1 S1                 0.0000
     47 ****         3.2042  -2.1516  -1.9964 LP             1 S1                 0.0000
     48 ****        -2.6334  -0.6220   4.2758 LP             1 S1                 0.0000
     49 ****        -1.0960  -1.0988   4.9154 LP             1 S1                 0.0000
@<TRIPOS>BOND
    1    1    2 1     
    2    1   22 1     
    3    1   23 1     
    4    1   24 1     
    5    2    3 1     
    6    2    4 1     
    7    2   25 1     
    8    3   26 1     
    9    3   27 1     
   10    3   28 1     
   11    4    5 1     
   12    4   29 1     
   13    4   30 1     
   14    5   20 am    
   15    5    6 1     
   16    6    7 1     
   17    6   31 1     
   18    6   32 1     
   19    7    8 1     
   20    7   19 1     
   21    7   33 1     
   22    8    9 2     
   23    8   10 am    
   24   10   11 1     
   25   10   34 1     
   26   11   12 1     
   27   11   35 1     
   28   11   36 1     
   29   12   13 1     
   30   12   37 1     
   31   12   38 1     
   32   13   18 ar    
   33   13   14 ar    
   34   14   15 ar    
   35   14   39 1     
   36   15   16 ar    
   37   15   40 1     
   38   16   17 ar    
   39   16   41 1     
   40   17   18 ar    
   41   17   42 1     
   42   19   20 1     
   43   19   43 1     
   44   19   44 1     
   45   20   21 2     
   46    9   45 1     
   47    9   46 1     
   48   18   47 1     
   49   21   48 1     
   50   21   49 1     
@<TRIPOS>SUBSTRUCTURE
      1 S1             1
@<TRIPOS>SET
LONE_PAIRS      STATIC     ATOMS    <user>   **** ""
5 45 46 47 48 49
DONOR_HYDROGENS      STATIC     ATOMS    <user>   **** ""
1 34
ATOM$BLUE        STATIC     ATOMS    COLORGROUP SYSTEM
5 45 46 47 48 49
ATOM$RED        STATIC     ATOMS    COLORGROUP SYSTEM
1 34
