#       Name:                AV-unprocessed.smi:2891
#       Creating user name   scv26
#       Creation time:       Fri Mar 27 15:58:42 2020


#       File generated by GOLD software.
#

@<TRIPOS>MOLECULE
AV-unprocessed.smi:2891
    41    42     1
SMALL
NO_CHARGES


@<TRIPOS>ATOM
      1 ****        -3.6992   4.7469  -1.1741 C.3            1 S1                 0.0000
      2 ****        -2.3018   4.5253  -1.2526 O.3            1 S1                 0.0000
      3 ****        -1.9813   3.1633  -1.4792 C.3            1 S1                 0.0000
      4 ****        -0.4546   3.0193  -1.5688 C.3            1 S1                 0.0000
      5 ****        -0.0593   1.6207  -1.7820 N.am           1 S1                 0.0000
      6 ****         0.2469   0.8615  -0.6366 C.2            1 S1                 0.0000
      7 ****         0.6143  -0.4314  -0.6952 C.2            1 S1                 0.0000
      8 ****         0.8892  -1.0870   0.5135 N.am           1 S1                 0.0000
      9 ****         1.2186  -2.3742   0.7287 C.2            1 S1                 0.0000
     10 ****         1.3327  -3.2448  -0.1334 O.2            1 S1                 0.0000
     11 ****         1.4083  -2.6039   2.0352 N.am           1 S1                 0.0000
     12 ****         1.7572  -3.8611   2.6146 C.3            1 S1                 0.0000
     13 ****         1.2095  -4.1757   3.9902 C.3            1 S1                 0.0000
     14 ****         2.6679  -3.8497   3.8234 C.3            1 S1                 0.0000
     15 ****         0.6926  -1.0311  -2.0194 C.2            1 S1                 0.0000
     16 ****         0.3926  -0.3145  -3.1204 C.2            1 S1                 0.0000
     17 ****        -0.0202   1.0887  -3.0393 C.2            1 S1                 0.0000
     18 ****        -0.3130   1.7437  -4.0399 O.2            1 S1                 0.0000
     19 ****        -3.8938   5.8047  -0.9984 H              1 S1                 0.0000
     20 ****        -4.1426   4.1823  -0.3528 H              1 S1                 0.0000
     21 ****        -4.1958   4.4629  -2.1029 H              1 S1                 0.0000
     22 ****        -2.3697   2.5496  -0.6647 H              1 S1                 0.0000
     23 ****        -2.4498   2.8205  -2.4032 H              1 S1                 0.0000
     24 ****        -0.0673   3.6550  -2.3672 H              1 S1                 0.0000
     25 ****         0.0021   3.4037  -0.6556 H              1 S1                 0.0000
     26 ****         0.1544   1.4000   0.2962 H              1 S1                 0.0000
     27 ****         0.8252  -0.5016   1.3334 H              1 S1                 0.0000
     28 ****         1.2939  -1.8297   2.6728 H              1 S1                 0.0000
     29 ****         1.8676  -4.7097   1.9408 H              1 S1                 0.0000
     30 ****         0.5792  -3.4295   4.4708 H              1 S1                 0.0000
     31 ****         0.9476  -5.2105   4.2016 H              1 S1                 0.0000
     32 ****         3.3798  -4.6669   3.9217 H              1 S1                 0.0000
     33 ****         3.0115  -2.8860   4.1950 H              1 S1                 0.0000
     34 ****         0.9949  -2.0553  -2.1634 H              1 S1                 0.0000
     35 ****         0.4611  -0.7849  -4.0902 H              1 S1                 0.0000
     36 ****        -1.8821   4.8149  -0.3923 LP             1 S1                 0.0000
     37 ****        -1.9320   5.0713  -2.0043 LP             1 S1                 0.0000
     38 ****         1.1755  -3.0199  -1.0950 LP             1 S1                 0.0000
     39 ****         1.5827  -4.1772   0.1277 LP             1 S1                 0.0000
     40 ****        -0.5913   2.6997  -3.9478 LP             1 S1                 0.0000
     41 ****        -0.2724   1.3196  -4.9446 LP             1 S1                 0.0000
@<TRIPOS>BOND
    1    1    2 1     
    2    1   19 1     
    3    1   20 1     
    4    1   21 1     
    5    2    3 1     
    6    3    4 1     
    7    3   22 1     
    8    3   23 1     
    9    4    5 1     
   10    4   24 1     
   11    4   25 1     
   12    5   17 am    
   13    5    6 1     
   14    6    7 2     
   15    6   26 1     
   16    7    8 1     
   17    7   15 1     
   18    8    9 am    
   19    8   27 1     
   20    9   10 2     
   21    9   11 am    
   22   11   12 1     
   23   11   28 1     
   24   12   14 1     
   25   12   13 1     
   26   12   29 1     
   27   13   14 1     
   28   13   30 1     
   29   13   31 1     
   30   14   32 1     
   31   14   33 1     
   32   15   16 2     
   33   15   34 1     
   34   16   17 1     
   35   16   35 1     
   36   17   18 2     
   37    2   36 1     
   38    2   37 1     
   39   10   38 1     
   40   10   39 1     
   41   18   40 1     
   42   18   41 1     
@<TRIPOS>SUBSTRUCTURE
      1 S1             1
@<TRIPOS>SET
LONE_PAIRS      STATIC     ATOMS    <user>   **** ""
6 36 37 38 39 40 41
DONOR_HYDROGENS      STATIC     ATOMS    <user>   **** ""
2 27 28
ATOM$BLUE        STATIC     ATOMS    COLORGROUP SYSTEM
6 36 37 38 39 40 41
ATOM$RED        STATIC     ATOMS    COLORGROUP SYSTEM
2 27 28
