AV-unprocessed.smi:2503|AV-procd|sdf|9848|dock10
  -GOLD-   2272013473D 1   1.00000     0.00000
 Structure written by MMmdl.
 36 37  0  0  0  0  0  0  0  0  1 V2000
  150.6687  141.8348  156.3570 C   0  0  0  0  0  0  0  0  0  0  0  0
  150.6326  140.4492  157.0191 C   0  0  0  0  0  0  0  0  0  0  0  0
  151.5499  140.3750  158.2488 C   0  0  0  0  0  0  0  0  0  0  0  0
  150.9401  139.3512  156.0365 C   0  0  0  0  0  0  0  0  0  0  0  0
  151.8932  138.4434  156.2343 N   0  0  0  0  0  0  0  0  0  0  0  0
  151.8283  137.6026  155.1302 C   0  0  0  0  0  0  0  0  0  0  0  0
  150.8195  138.0229  154.2996 C   0  0  0  0  0  0  0  0  0  0  0  0
  150.2455  139.1395  154.8960 N   0  0  0  0  0  0  0  0  0  0  0  0
  149.1188  139.8883  154.3566 C   0  0  0  0  0  0  0  0  0  0  0  0
  147.9692  138.9599  153.9525 C   0  0  0  0  0  0  0  0  0  0  0  0
  147.3069  138.4077  154.8337 O   0  0  0  0  0  0  0  0  0  0  0  0
  147.7732  138.8341  152.6195 N   0  0  0  0  0  0  0  0  0  0  0  0
  146.8275  138.1659  151.9179 C   0  0  0  0  0  0  0  0  0  0  0  0
  146.8331  138.1877  150.6881 O   0  0  0  0  0  0  0  0  0  0  0  0
  145.8948  137.5018  152.6251 N   0  0  0  0  0  0  0  0  0  0  0  0
  144.9189  136.6096  152.0889 C   0  0  0  0  0  0  0  0  0  0  0  0
  145.0201  135.1483  152.4691 C   0  0  0  0  0  0  0  0  0  0  0  0
  145.3880  135.5858  151.0782 C   0  0  0  0  0  0  0  0  0  0  0  0
  149.9686  141.8881  155.5229 H   0  0  0  0  0  0  0  0  0  0  0  0
  151.6625  142.0688  155.9736 H   0  0  0  0  0  0  0  0  0  0  0  0
  150.3957  142.6160  157.0667 H   0  0  0  0  0  0  0  0  0  0  0  0
  149.6136  140.3198  157.3789 H   0  0  0  0  0  0  0  0  0  0  0  0
  151.4587  139.4100  158.7488 H   0  0  0  0  0  0  0  0  0  0  0  0
  151.2961  141.1470  158.9753 H   0  0  0  0  0  0  0  0  0  0  0  0
  152.5962  140.5083  157.9722 H   0  0  0  0  0  0  0  0  0  0  0  0
  152.5036  136.7669  155.0216 H   0  0  0  0  0  0  0  0  0  0  0  0
  150.4645  137.6238  153.3608 H   0  0  0  0  0  0  0  0  0  0  0  0
  148.7983  140.6297  155.0899 H   0  0  0  0  0  0  0  0  0  0  0  0
  149.4494  140.4422  153.4772 H   0  0  0  0  0  0  0  0  0  0  0  0
  148.4387  139.3331  152.0474 H   0  0  0  0  0  0  0  0  0  0  0  0
  145.8760  137.6454  153.6251 H   0  0  0  0  0  0  0  0  0  0  0  0
  143.9125  136.9985  151.9397 H   0  0  0  0  0  0  0  0  0  0  0  0
  145.8298  134.8503  153.1329 H   0  0  0  0  0  0  0  0  0  0  0  0
  144.0903  134.5970  152.5933 H   0  0  0  0  0  0  0  0  0  0  0  0
  144.7041  135.3269  150.2726 H   0  0  0  0  0  0  0  0  0  0  0  0
  146.4436  135.5778  150.8129 H   0  0  0  0  0  0  0  0  0  0  0  0
  1  2  1  0  0  0  0
  1 19  1  0  0  0  0
  1 20  1  0  0  0  0
  1 21  1  0  0  0  0
  2  3  1  0  0  0  0
  2  4  1  0  0  0  0
  2 22  1  0  0  0  0
  3 23  1  0  0  0  0
  3 24  1  0  0  0  0
  3 25  1  0  0  0  0
  4  8  1  0  0  0  0
  4  5  2  0  0  0  0
  5  6  1  0  0  0  0
  6  7  2  0  0  0  0
  6 26  1  0  0  0  0
  7  8  1  0  0  0  0
  7 27  1  0  0  0  0
  8  9  1  0  0  0  0
  9 10  1  0  0  0  0
  9 28  1  0  0  0  0
  9 29  1  0  0  0  0
 10 11  2  0  0  0  0
 10 12  1  0  0  0  0
 12 13  1  0  0  0  0
 12 30  1  0  0  0  0
 13 14  2  0  0  0  0
 13 15  1  0  0  0  0
 15 16  1  0  0  0  0
 15 31  1  0  0  0  0
 16 18  1  0  0  0  0
 16 17  1  0  0  0  0
 16 32  1  0  0  0  0
 17 18  1  0  0  0  0
 17 33  1  0  0  0  0
 17 34  1  0  0  0  0
 18 35  1  0  0  0  0
 18 36  1  0  0  0  0
M  END
> <s_m_source_file>
AV-unprocessed.smi

> <i_m_source_file_index>
2503

> <i_lp_mmshare_version>
43012

> <i_f3d_flags>
0

> <s_epik_input>
W0NIM11bQ0hdKFtDSDNdKWMxbltjSF1bY0hdbjFbQ0gyXUMoPU8pW05IXUMoPU8pW05IXVtDSF0yW0NIMl1bQ0gyXTI=

> <s_epik_cmdline>
J2VwaWtfcHl0aG9uJywgJy1waCcsICc3LjAnLCAnLXRuJywgJzgnLCAnLW1hJywgJzIwMCcsICctbWV0YWxfYmluZGluZycsICctaW1hZScsICc8aW5maWxlLm1hZT4nLCAnLW9tYWUnLCAnPG91dGZpbGUubWFlPic=

> <r_lp_tautomer_probability>
1

> <r_epik_Ionization_Penalty>
0.441646

> <r_epik_Ionization_Penalty_Charging>
0.441618

> <r_epik_Ionization_Penalty_Neutral>
2.81151e-05

> <r_epik_State_Penalty>
0.443748

> <r_epik_Charging_Adjusted_Penalty>
0.885366

> <i_epik_Tot_Q>
0

> <i_epik_Tot_abs_Q>
0

> <r_epik_Metal_State_Penalty>
0.251733

> <b_epik_Metal_Only>
0

> <s_lp_Force_Field>
OPLS_2005

> <r_lp_Energy>
20.0487

> <b_lp_Chiralities_Consistent>
1

> <s_lp_Variant>
AV-unprocessed.smi:2503-2

> <Gold.Version>
5.8.1

> <Gold.Id.Protein>
6NUR|6NUR_protein|mol2

> <Gold.PLP.Fitness>
40.4340

> <Gold.PLP.PLP>
-31.8489

> <Gold.PLP.part.hbond>
-2.8738

> <Gold.PLP.part.metal>
0.0000

> <Gold.PLP.part.buried>
-2.8996

> <Gold.PLP.part.nonpolar>
-28.5797

> <Gold.PLP.part.repulsive>
1.4342

> <Gold.PLP.ligand.clash>
0.0000

> <Gold.PLP.ligand.torsion>
0.3782

> <Gold.PLP.Chemscore.Hbond>
1.9760

> <Gold.PLP.Chemscore.CHOScore>
1.0988

> <Gold.PLP.Chemscore.Metal>
0.0000

> <Gold.Chemscore.Hbonds>
donor molecule, donor type, donor heavy atom, donor atom, acceptor molecule, acceptor atom, score
      L1  H    12    30       P1  7957  1.00
      P1  H  7954  7966       L1    14  1.00
      L1  C     7    27       P1  7948  0.70
      L1  C     7    27       P1  7949  0.44

> <Gold.PLP.Chemscore.Internal.Correction>
0.1169

> <Gold.Rescore>
     Score         DG    S(hbond)    S(metal)    S(lipo)     H(rot)  DE(clash)    DE(int)     intcor
     13.55     -14.02       1.95        0.00      56.01       1.77       0.15       0.32       ----

> <Gold.Chemscore.Fitness>
13.5474

> <Gold.Chemscore.DG>
-14.0156

> <Gold.Chemscore.ZeroCoef>
-5.4800

> <Gold.Chemscore.Hbond>
1.9532

> <Gold.Chemscore.Metal>
0.0000

> <Gold.Chemscore.Lipo>
56.0068

> <Gold.Chemscore.Internal_Hbond>
0.0000

> <Gold.Chemscore.DEClash>
0.1475

> <Gold.Chemscore.DEInternal>
0.3208

> <Gold.Chemscore.Rot>
1.7738

> <Gold.Chemscore.Internal.Correction>
   9.000000E+99

> <Gold.Chemscore.Hbonds>
donor molecule, donor type, donor heavy atom, donor atom, acceptor molecule, acceptor atom, score
      L1  H    12    30       P1  7957  0.99
      P1  H  7954  7966       L1    14  0.92

> <Gold.Chemscore.Hbond.Weighted>
-6.5238

> <Gold.Chemscore.Metal.Weighted>
-0.0000

> <Gold.Chemscore.Lipo.Weighted>
-6.5528

> <Gold.Chemscore.Internal_Hbond.Weighted>
0.0000

> <Gold.Chemscore.DEClash.Weighted>
0.1475

> <Gold.Chemscore.DEInternal.Weighted>
0.3208

> <Gold.Chemscore.Rot.Weighted>
4.5409

> <Gold.Chemscore.Internal.Correction.Weighted>
   9.000000E+99

> <Gold.Protein.RotatedTorsions>
[ 6907 6896 6895 6894 ] final   43.72 input  -60.11 | X-H torsion
[ 7974 7965 7964 7962 ] final  -18.60 input  175.53 | X-H torsion
[ 8008 7997 7996 7995 ] final  -43.63 input   59.86 | X-H torsion
[ 10167 10162 10161 10158 ] final -135.31 input  -65.29 | X-H torsion
[ 10718 10713 10712 10709 ] final -178.52 input   66.30 | X-H torsion
[ 10763 10752 10751 10750 ] final   76.35 input  -60.55 | X-H torsion
[ 11005 11000 10999 10996 ] final -168.38 input  -57.11 | X-H torsion

> <Gold.Protein.ActiveResidues>
 VAL166  LYS551  ARG553  GLY616  TRP617  ASP618  TYR619  PRO620  LYS621  CYS622 
 ASP623  PHE694  ASN695  SER759  ASP760  ASP761  ALA762  ILE779  LEU786  VAL792 
 PHE793  MET794  SER795  GLU796  ALA797  LYS798  CYS799  TRP800  GLU811  SER814 

> <Gold.Protein.RotatedAtoms>
  152.2237  134.8388  160.0482 H   0  0  0  0  0  0  0  0  0  0  0  0  # atno 6907 bound_to 6896
  151.9162  133.3568  159.3889 H   0  0  0  0  0  0  0  0  0  0  0  0  # atno 6908 bound_to 6896
  150.7007  134.4607  159.5423 H   0  0  0  0  0  0  0  0  0  0  0  0  # atno 6909 bound_to 6896
  146.1884  140.3943  142.8467 H   0  0  0  0  0  0  0  0  0  0  0  0  # atno 7974 bound_to 7965
  154.3997  140.1443  156.3551 H   0  0  0  0  0  0  0  0  0  0  0  0  # atno 8008 bound_to 7997
  155.8233  140.3468  155.5506 H   0  0  0  0  0  0  0  0  0  0  0  0  # atno 8009 bound_to 7997
  155.8265  140.0906  157.1808 H   0  0  0  0  0  0  0  0  0  0  0  0  # atno 8010 bound_to 7997
  139.8792  143.6860  152.2629 H   0  0  0  0  0  0  0  0  0  0  0  0  # atno 10167 bound_to 10162
  156.8455  130.9701  151.3096 H   0  0  0  0  0  0  0  0  0  0  0  0  # atno 10718 bound_to 10713
  153.0719  135.4955  154.8322 H   0  0  0  0  0  0  0  0  0  0  0  0  # atno 10763 bound_to 10752
  154.7034  135.3006  154.9309 H   0  0  0  0  0  0  0  0  0  0  0  0  # atno 10764 bound_to 10752
  154.0026  135.6764  153.4813 H   0  0  0  0  0  0  0  0  0  0  0  0  # atno 10765 bound_to 10752
  140.5426  134.5507  157.5103 H   0  0  0  0  0  0  0  0  0  0  0  0  # atno 11005 bound_to 11000
  144.8440  140.6901  143.6211 LP  0  0  0  0  0  0  0  0  0  0  0  0  # atno 17320 bound_to 7965
  145.3868  139.1625  143.4251 LP  0  0  0  0  0  0  0  0  0  0  0  0  # atno 17321 bound_to 7965
  139.7211  144.7602  151.0953 LP  0  0  0  0  0  0  0  0  0  0  0  0  # atno 17342 bound_to 10162
  140.7747  143.5206  150.9541 LP  0  0  0  0  0  0  0  0  0  0  0  0  # atno 17343 bound_to 10162
  157.6332  130.8746  149.9311 LP  0  0  0  0  0  0  0  0  0  0  0  0  # atno 17370 bound_to 10713
  156.0857  130.3668  150.0493 LP  0  0  0  0  0  0  0  0  0  0  0  0  # atno 17371 bound_to 10713
  139.9496  134.7640  156.0480 LP  0  0  0  0  0  0  0  0  0  0  0  0  # atno 17394 bound_to 11000
  141.1218  133.6610  156.3235 LP  0  0  0  0  0  0  0  0  0  0  0  0  # atno 17395 bound_to 11000

$$$$
