AV-unprocessed.smi:2667|AV-procd|sdf|10336|dock6
  -GOLD-   2272014353D 1   1.00000     0.00000
 Structure written by MMmdl.
 45 47  0  0  0  0  0  0  0  0  2 V2000
  143.0515  146.7471  155.6695 C   0  0  0  0  0  0  0  0  0  0  0  0
  143.0943  145.4030  154.9254 C   0  0  0  0  0  0  0  0  0  0  0  0
  144.3623  145.1965  154.0823 C   0  0  0  0  0  0  0  0  0  0  0  0
  144.6389  145.9965  153.1873 O   0  0  0  0  0  0  0  0  0  0  0  0
  145.2117  144.0120  154.4003 C   0  0  0  0  0  0  0  0  0  0  0  0
  146.2295  143.5636  153.5260 C   0  0  0  0  0  0  0  0  0  0  0  0
  147.0113  142.4404  153.8569 C   0  0  0  0  0  0  0  0  0  0  0  0
  146.7983  141.7389  155.0593 C   0  0  0  0  0  0  0  0  0  0  0  0
  147.6059  140.6489  155.2966 O   0  0  0  0  0  0  0  0  0  0  0  0
  148.9223  140.6490  154.7613 C   0  0  0  0  0  0  0  0  0  0  0  0
  149.9707  140.8581  155.8714 C   0  0  2  0  0  0  0  0  0  0  0  0
  151.2437  140.4941  155.3791 O   0  0  0  0  0  0  0  0  0  0  0  0
  149.6611  140.2103  157.2441 C   0  0  0  0  0  0  0  0  0  0  0  0
  150.7209  140.3388  158.2574 N   0  0  0  0  0  0  0  0  0  0  0  0
  151.3380  139.3762  158.9968 C   0  0  0  0  0  0  0  0  0  0  0  0
  152.2510  139.9913  159.7976 N   0  3  0  0  0  0  0  0  0  0  0  0
  152.2047  141.3700  159.5828 C   0  0  0  0  0  0  0  0  0  0  0  0
  152.9310  142.4063  160.1617 C   0  0  0  0  0  0  0  0  0  0  0  0
  152.6322  143.7122  159.7210 C   0  0  0  0  0  0  0  0  0  0  0  0
  151.6436  143.9491  158.7441 C   0  0  0  0  0  0  0  0  0  0  0  0
  150.9131  142.8909  158.1645 C   0  0  0  0  0  0  0  0  0  0  0  0
  151.2180  141.6019  158.6004 C   0  0  0  0  0  0  0  0  0  0  0  0
  145.7827  142.1873  155.9380 C   0  0  0  0  0  0  0  0  0  0  0  0
  144.9999  143.3106  155.6088 C   0  0  0  0  0  0  0  0  0  0  0  0
  142.1346  146.8323  156.2528 H   0  0  0  0  0  0  0  0  0  0  0  0
  143.0790  147.5878  154.9753 H   0  0  0  0  0  0  0  0  0  0  0  0
  143.8905  146.8483  156.3590 H   0  0  0  0  0  0  0  0  0  0  0  0
  143.0218  144.5907  155.6488 H   0  0  0  0  0  0  0  0  0  0  0  0
  142.2253  145.3274  154.2712 H   0  0  0  0  0  0  0  0  0  0  0  0
  146.4311  144.0659  152.5919 H   0  0  0  0  0  0  0  0  0  0  0  0
  147.7844  142.1117  153.1778 H   0  0  0  0  0  0  0  0  0  0  0  0
  149.1160  139.7109  154.2386 H   0  0  0  0  0  0  0  0  0  0  0  0
  149.0200  141.4580  154.0356 H   0  0  0  0  0  0  0  0  0  0  0  0
  150.0305  141.9334  156.0424 H   0  0  0  0  0  0  0  0  0  0  0  0
  151.8963  140.7590  156.0087 H   0  0  0  0  0  0  0  0  0  0  0  0
  148.7357  140.6108  157.6594 H   0  0  0  0  0  0  0  0  0  0  0  0
  149.4870  139.1425  157.1050 H   0  0  0  0  0  0  0  0  0  0  0  0
  151.1492  138.3134  158.9437 H   0  0  0  0  0  0  0  0  0  0  0  0
  153.6867  142.2282  160.9126 H   0  0  0  0  0  0  0  0  0  0  0  0
  153.1710  144.5491  160.1418 H   0  0  0  0  0  0  0  0  0  0  0  0
  151.4416  144.9634  158.4321 H   0  0  0  0  0  0  0  0  0  0  0  0
  150.1586  143.0840  157.4171 H   0  0  0  0  0  0  0  0  0  0  0  0
  145.5832  141.6871  156.8734 H   0  0  0  0  0  0  0  0  0  0  0  0
  144.2322  143.6268  156.3004 H   0  0  0  0  0  0  0  0  0  0  0  0
  152.8570  139.5034  160.4447 H   0  0  0  0  0  0  0  0  0  0  0  0
  1  2  1  0  0  0  0
  1 25  1  0  0  0  0
  1 26  1  0  0  0  0
  1 27  1  0  0  0  0
  2  3  1  0  0  0  0
  2 28  1  0  0  0  0
  2 29  1  0  0  0  0
  3  4  2  0  0  0  0
  3  5  1  0  0  0  0
  5 24  1  0  0  0  0
  5  6  2  0  0  0  0
  6  7  1  0  0  0  0
  6 30  1  0  0  0  0
  7  8  2  0  0  0  0
  7 31  1  0  0  0  0
  8  9  1  0  0  0  0
  8 23  1  0  0  0  0
  9 10  1  0  0  0  0
 10 11  1  0  0  0  0
 10 32  1  0  0  0  0
 10 33  1  0  0  0  0
 11 12  1  0  0  0  0
 11 13  1  0  0  0  0
 11 34  1  0  0  0  0
 12 35  1  0  0  0  0
 13 14  1  0  0  0  0
 13 36  1  0  0  0  0
 13 37  1  0  0  0  0
 14 22  1  0  0  0  0
 14 15  1  0  0  0  0
 15 16  2  0  0  0  0
 15 38  1  0  0  0  0
 16 17  1  0  0  0  0
 16 45  1  0  0  0  0
 17 22  2  0  0  0  0
 17 18  1  0  0  0  0
 18 19  2  0  0  0  0
 18 39  1  0  0  0  0
 19 20  1  0  0  0  0
 19 40  1  0  0  0  0
 20 21  2  0  0  0  0
 20 41  1  0  0  0  0
 21 22  1  0  0  0  0
 21 42  1  0  0  0  0
 23 24  2  0  0  0  0
 23 43  1  0  0  0  0
 24 44  1  0  0  0  0
M  CHG  1  16   1
M  END
> <s_m_source_file>
AV-unprocessed.smi

> <i_m_source_file_index>
2667

> <i_lp_mmshare_version>
43012

> <i_f3d_flags>
0

> <s_epik_input>
W0NIM11bQ0gyXUMoPU8pYzFbY0hdW2NIXWMoW2NIXVtjSF0xKU9bQ0gyXVtDQEhdKFtPSF0pW0NIMl1uKFtjSF1uMiljKGMyMylbY0hdW2NIXVtjSF1bY0hdMw==

> <s_epik_cmdline>
J2VwaWtfcHl0aG9uJywgJy1waCcsICc3LjAnLCAnLXRuJywgJzgnLCAnLW1hJywgJzIwMCcsICctbWV0YWxfYmluZGluZycsICctaW1hZScsICc8aW5maWxlLm1hZT4nLCAnLW9tYWUnLCAnPG91dGZpbGUubWFlPic=

> <r_lp_tautomer_probability>
0.9999

> <r_epik_Ionization_Penalty>
1.40272

> <r_epik_Ionization_Penalty_Charging>
1.40272

> <r_epik_Ionization_Penalty_Neutral>
2.3993e-06

> <r_epik_State_Penalty>
1.48501

> <r_epik_Charging_Adjusted_Penalty>
2.88772

> <i_epik_Tot_Q>
1

> <i_epik_Tot_abs_Q>
1

> <r_epik_Metal_State_Penalty>
5.5274

> <b_epik_Metal_Only>
0

> <s_lp_Force_Field>
OPLS_2005

> <r_lp_Energy>
30.2491

> <b_lp_Chiralities_Consistent>
1

> <s_lp_Variant>
AV-unprocessed.smi:2667-3

> <Gold.Version>
5.8.1

> <Gold.Id.Protein>
6NUR|6NUR_protein|mol2

> <Gold.PLP.Fitness>
54.5167

> <Gold.PLP.PLP>
-53.5460

> <Gold.PLP.part.hbond>
-3.0000

> <Gold.PLP.part.metal>
0.0000

> <Gold.PLP.part.buried>
-8.2565

> <Gold.PLP.part.nonpolar>
-42.5728

> <Gold.PLP.part.repulsive>
0.3245

> <Gold.PLP.ligand.clash>
0.0000

> <Gold.PLP.ligand.torsion>
1.0601

> <Gold.PLP.Chemscore.Hbond>
0.9760

> <Gold.PLP.Chemscore.CHOScore>
0.0000

> <Gold.PLP.Chemscore.Metal>
0.0000

> <Gold.Chemscore.Hbonds>
donor molecule, donor type, donor heavy atom, donor atom, acceptor molecule, acceptor atom, score
      P1  H  7989  7998       L1    12  0.91

> <Gold.PLP.Chemscore.Internal.Correction>
0.1630

> <Gold.Rescore>
     Score         DG    S(hbond)    S(metal)    S(lipo)     H(rot)  DE(clash)    DE(int)     intcor
     12.39     -14.99       0.56        0.00     121.91       2.59       0.86       1.75       ----

> <Gold.Chemscore.Fitness>
12.3869

> <Gold.Chemscore.DG>
-14.9947

> <Gold.Chemscore.ZeroCoef>
-5.4800

> <Gold.Chemscore.Hbond>
0.5615

> <Gold.Chemscore.Metal>
0.0000

> <Gold.Chemscore.Lipo>
121.9054

> <Gold.Chemscore.Internal_Hbond>
0.0000

> <Gold.Chemscore.DEClash>
0.8556

> <Gold.Chemscore.DEInternal>
1.7522

> <Gold.Chemscore.Rot>
2.5873

> <Gold.Chemscore.Internal.Correction>
   9.000000E+99

> <Gold.Chemscore.Hbonds>
donor molecule, donor type, donor heavy atom, donor atom, acceptor molecule, acceptor atom, score
      P1  H  7989  7998       L1    12  0.77

> <Gold.Chemscore.Hbond.Weighted>
-1.8753

> <Gold.Chemscore.Metal.Weighted>
-0.0000

> <Gold.Chemscore.Lipo.Weighted>
-14.2629

> <Gold.Chemscore.Internal_Hbond.Weighted>
0.0000

> <Gold.Chemscore.DEClash.Weighted>
0.8556

> <Gold.Chemscore.DEInternal.Weighted>
1.7522

> <Gold.Chemscore.Rot.Weighted>
6.6235

> <Gold.Chemscore.Internal.Correction.Weighted>
   9.000000E+99

> <Gold.Protein.RotatedTorsions>
[ 6907 6896 6895 6894 ] final   39.53 input  -60.11 | X-H torsion
[ 7974 7965 7964 7962 ] final -130.12 input  175.53 | X-H torsion
[ 8008 7997 7996 7995 ] final  -85.62 input   59.86 | X-H torsion
[ 10167 10162 10161 10158 ] final  -39.44 input  -65.29 | X-H torsion
[ 10718 10713 10712 10709 ] final    0.55 input   66.30 | X-H torsion
[ 10763 10752 10751 10750 ] final   53.97 input  -60.55 | X-H torsion
[ 11005 11000 10999 10996 ] final  -83.31 input  -57.11 | X-H torsion

> <Gold.Protein.ActiveResidues>
 VAL166  LYS551  ARG553  GLY616  TRP617  ASP618  TYR619  PRO620  LYS621  CYS622 
 ASP623  PHE694  ASN695  SER759  ASP760  ASP761  ALA762  ILE779  LEU786  VAL792 
 PHE793  MET794  SER795  GLU796  ALA797  LYS798  CYS799  TRP800  GLU811  SER814 

> <Gold.Protein.RotatedAtoms>
  152.1707  134.8836  160.0534 H   0  0  0  0  0  0  0  0  0  0  0  0  # atno 6907 bound_to 6896
  151.9797  133.3748  159.4111 H   0  0  0  0  0  0  0  0  0  0  0  0  # atno 6908 bound_to 6896
  150.6901  134.3974  159.5147 H   0  0  0  0  0  0  0  0  0  0  0  0  # atno 6909 bound_to 6896
  144.9505  140.7339  143.4790 H   0  0  0  0  0  0  0  0  0  0  0  0  # atno 7974 bound_to 7965
  154.6427  140.0589  156.9865 H   0  0  0  0  0  0  0  0  0  0  0  0  # atno 8008 bound_to 7997
  155.1491  140.3272  155.4416 H   0  0  0  0  0  0  0  0  0  0  0  0  # atno 8009 bound_to 7997
  156.2539  140.1950  156.6604 H   0  0  0  0  0  0  0  0  0  0  0  0  # atno 8010 bound_to 7997
  140.7064  143.3214  151.2783 H   0  0  0  0  0  0  0  0  0  0  0  0  # atno 10167 bound_to 10162
  156.8350  130.5501  149.5683 H   0  0  0  0  0  0  0  0  0  0  0  0  # atno 10718 bound_to 10713
  152.9800  135.5761  154.4828 H   0  0  0  0  0  0  0  0  0  0  0  0  # atno 10763 bound_to 10752
  154.4374  135.2775  155.1873 H   0  0  0  0  0  0  0  0  0  0  0  0  # atno 10764 bound_to 10752
  154.3555  135.6200  153.5718 H   0  0  0  0  0  0  0  0  0  0  0  0  # atno 10765 bound_to 10752
  141.1658  133.7288  156.8701 H   0  0  0  0  0  0  0  0  0  0  0  0  # atno 11005 bound_to 11000
  145.2851  139.1904  143.4770 LP  0  0  0  0  0  0  0  0  0  0  0  0  # atno 17320 bound_to 7965
  146.3319  140.2819  142.8611 LP  0  0  0  0  0  0  0  0  0  0  0  0  # atno 17321 bound_to 7965
  139.6669  144.0089  152.2729 LP  0  0  0  0  0  0  0  0  0  0  0  0  # atno 17342 bound_to 10162
  139.9674  144.6516  150.8021 LP  0  0  0  0  0  0  0  0  0  0  0  0  # atno 17343 bound_to 10162
  156.0913  130.5898  150.9737 LP  0  0  0  0  0  0  0  0  0  0  0  0  # atno 17370 bound_to 10713
  157.6386  131.0913  150.8297 LP  0  0  0  0  0  0  0  0  0  0  0  0  # atno 17371 bound_to 10713
  140.1787  134.9048  157.2923 LP  0  0  0  0  0  0  0  0  0  0  0  0  # atno 17394 bound_to 11000
  140.2419  134.3785  155.7477 LP  0  0  0  0  0  0  0  0  0  0  0  0  # atno 17395 bound_to 11000

$$$$
