AV-unprocessed.smi:1419|AV-procd|sdf|5774|dock7
  -GOLD-   22720 5413D 1   1.00000     0.00000
 Structure written by MMmdl.
 42 43  0  0  0  0  0  0  0  0  2 V2000
  150.5052  139.6306  155.9417 C   0  0  0  0  0  0  0  0  0  0  0  0
  149.9420  141.0129  156.2969 C   0  0  2  0  0  0  0  0  0  0  0  0
  149.5192  141.7898  155.0308 C   0  0  0  0  0  0  0  0  0  0  0  0
  148.4101  141.1542  154.3109 N   0  0  0  0  0  0  0  0  0  0  0  0
  148.3905  139.9016  153.7520 C   0  0  0  0  0  0  0  0  0  0  0  0
  147.1579  139.7527  153.1705 C   0  0  0  0  0  0  0  0  0  0  0  0
  146.4756  140.9166  153.4049 N   0  3  0  0  0  0  0  0  0  0  0  0
  147.2370  141.7654  154.1031 C   0  0  0  0  0  0  0  0  0  0  0  0
  150.9505  141.7591  157.0478 N   0  0  0  0  0  0  0  0  0  0  0  0
  151.6667  141.2923  158.0859 C   0  0  0  0  0  0  0  0  0  0  0  0
  151.5963  140.1202  158.4583 O   0  0  0  0  0  0  0  0  0  0  0  0
  152.4626  142.2133  158.6824 N   0  0  0  0  0  0  0  0  0  0  0  0
  152.3104  143.6727  158.6129 C   0  0  0  0  0  0  0  0  0  0  0  0
  151.6853  144.1470  159.9403 C   0  0  2  0  0  0  0  0  0  0  0  0
  151.5222  145.6695  159.9944 C   0  0  0  0  0  0  0  0  0  0  0  0
  152.5290  143.7490  161.0212 O   0  0  0  0  0  0  0  0  0  0  0  0
  152.7575  142.3412  161.0934 C   0  0  2  0  0  0  0  0  0  0  0  0
  153.6655  142.0630  162.2955 C   0  0  0  0  0  0  0  0  0  0  0  0
  153.3824  141.8640  159.7665 C   0  0  0  0  0  0  0  0  0  0  0  0
  149.7726  139.0377  155.3930 H   0  0  0  0  0  0  0  0  0  0  0  0
  150.7716  139.0724  156.8398 H   0  0  0  0  0  0  0  0  0  0  0  0
  151.3987  139.7116  155.3217 H   0  0  0  0  0  0  0  0  0  0  0  0
  149.0614  140.8492  156.9206 H   0  0  0  0  0  0  0  0  0  0  0  0
  149.2181  142.8072  155.2846 H   0  0  0  0  0  0  0  0  0  0  0  0
  150.3559  141.8719  154.3355 H   0  0  0  0  0  0  0  0  0  0  0  0
  149.2358  139.2306  153.8004 H   0  0  0  0  0  0  0  0  0  0  0  0
  146.7268  138.9284  152.6213 H   0  0  0  0  0  0  0  0  0  0  0  0
  146.9627  142.7549  154.4232 H   0  0  0  0  0  0  0  0  0  0  0  0
  151.0831  142.7258  156.7876 H   0  0  0  0  0  0  0  0  0  0  0  0
  153.2908  144.1307  158.4730 H   0  0  0  0  0  0  0  0  0  0  0  0
  151.7077  144.0138  157.7710 H   0  0  0  0  0  0  0  0  0  0  0  0
  150.7041  143.6867  160.0694 H   0  0  0  0  0  0  0  0  0  0  0  0
  150.8698  146.0233  159.1958 H   0  0  0  0  0  0  0  0  0  0  0  0
  152.4836  146.1732  159.8900 H   0  0  0  0  0  0  0  0  0  0  0  0
  151.0847  145.9813  160.9430 H   0  0  0  0  0  0  0  0  0  0  0  0
  151.8031  141.8356  161.2531 H   0  0  0  0  0  0  0  0  0  0  0  0
  153.8553  140.9951  162.4054 H   0  0  0  0  0  0  0  0  0  0  0  0
  153.2070  142.4156  163.2196 H   0  0  0  0  0  0  0  0  0  0  0  0
  154.6275  142.5650  162.1881 H   0  0  0  0  0  0  0  0  0  0  0  0
  153.5941  140.7944  159.8086 H   0  0  0  0  0  0  0  0  0  0  0  0
  154.3441  142.3520  159.6014 H   0  0  0  0  0  0  0  0  0  0  0  0
  145.5325  141.1112  153.0931 H   0  0  0  0  0  0  0  0  0  0  0  0
  1  2  1  0  0  0  0
  1 20  1  0  0  0  0
  1 21  1  0  0  0  0
  1 22  1  0  0  0  0
  2  3  1  0  0  0  0
  2  9  1  0  0  0  0
  2 23  1  0  0  0  0
  3  4  1  0  0  0  0
  3 24  1  0  0  0  0
  3 25  1  0  0  0  0
  4  8  1  0  0  0  0
  4  5  1  0  0  0  0
  5  6  2  0  0  0  0
  5 26  1  0  0  0  0
  6  7  1  0  0  0  0
  6 27  1  0  0  0  0
  7  8  2  0  0  0  0
  7 42  1  0  0  0  0
  8 28  1  0  0  0  0
  9 10  1  0  0  0  0
  9 29  1  0  0  0  0
 10 11  2  0  0  0  0
 10 12  1  0  0  0  0
 12 19  1  0  0  0  0
 12 13  1  0  0  0  0
 13 14  1  0  0  0  0
 13 30  1  0  0  0  0
 13 31  1  0  0  0  0
 14 15  1  0  0  0  0
 14 16  1  0  0  0  0
 14 32  1  0  0  0  0
 15 33  1  0  0  0  0
 15 34  1  0  0  0  0
 15 35  1  0  0  0  0
 16 17  1  0  0  0  0
 17 18  1  0  0  0  0
 17 19  1  0  0  0  0
 17 36  1  0  0  0  0
 18 37  1  0  0  0  0
 18 38  1  0  0  0  0
 18 39  1  0  0  0  0
 19 40  1  0  0  0  0
 19 41  1  0  0  0  0
M  CHG  1   7   1
M  END
> <s_m_source_file>
AV-unprocessed.smi

> <i_m_source_file_index>
1419

> <i_lp_mmshare_version>
43012

> <i_f3d_flags>
0

> <s_epik_input>
W2NIXTFuW2NIXVtjSF1uMVtDSDJdW0NAQEhdKFtDSDNdKVtOSF1DKD1PKU4yW0NIMl1bQ0BASF0oW0NIM10pT1tDQEBIXShbQ0gzXSlbQ0gyXTI=

> <s_epik_cmdline>
J2VwaWtfcHl0aG9uJywgJy1waCcsICc3LjAnLCAnLXRuJywgJzgnLCAnLW1hJywgJzIwMCcsICctbWV0YWxfYmluZGluZycsICctaW1hZScsICc8aW5maWxlLm1hZT4nLCAnLW9tYWUnLCAnPG91dGZpbGUubWFlPic=

> <r_lp_tautomer_probability>
1

> <r_epik_Ionization_Penalty>
0.253607

> <r_epik_Ionization_Penalty_Charging>
0

> <r_epik_Ionization_Penalty_Neutral>
0.253607

> <r_epik_State_Penalty>
0.245018

> <r_epik_Charging_Adjusted_Penalty>
0.245018

> <i_epik_Tot_Q>
1

> <i_epik_Tot_abs_Q>
1

> <r_epik_Metal_State_Penalty>
0.535379

> <b_epik_Metal_Only>
0

> <s_lp_Force_Field>
OPLS_2005

> <r_lp_Energy>
29.0063

> <b_lp_Chiralities_Consistent>
1

> <s_lp_Variant>
AV-unprocessed.smi:1419-1

> <Gold.Version>
5.8.1

> <Gold.Id.Protein>
6NUR|6NUR_protein|mol2

> <Gold.PLP.Fitness>
49.8643

> <Gold.PLP.PLP>
-44.2158

> <Gold.PLP.part.hbond>
-1.0000

> <Gold.PLP.part.metal>
0.0000

> <Gold.PLP.part.buried>
-2.0905

> <Gold.PLP.part.nonpolar>
-41.8276

> <Gold.PLP.part.repulsive>
0.1690

> <Gold.PLP.ligand.clash>
0.0000

> <Gold.PLP.ligand.torsion>
0.2345

> <Gold.PLP.Chemscore.Hbond>
2.0000

> <Gold.PLP.Chemscore.CHOScore>
0.0165

> <Gold.PLP.Chemscore.Metal>
0.0000

> <Gold.Chemscore.Hbonds>
donor molecule, donor type, donor heavy atom, donor atom, acceptor molecule, acceptor atom, score
      L1  H     7    42       P1 10175  1.98
      L1  C     5    26       P1  7957  0.03

> <Gold.PLP.Chemscore.Internal.Correction>
0.0679

> <Gold.Rescore>
     Score         DG    S(hbond)    S(metal)    S(lipo)     H(rot)  DE(clash)    DE(int)     intcor
     14.52     -16.01       0.96        0.00      98.34       1.63       0.02       1.47       ----

> <Gold.Chemscore.Fitness>
14.5180

> <Gold.Chemscore.DG>
-16.0109

> <Gold.Chemscore.ZeroCoef>
-5.4800

> <Gold.Chemscore.Hbond>
0.9552

> <Gold.Chemscore.Metal>
0.0000

> <Gold.Chemscore.Lipo>
98.3442

> <Gold.Chemscore.Internal_Hbond>
0.0000

> <Gold.Chemscore.DEClash>
0.0187

> <Gold.Chemscore.DEInternal>
1.4742

> <Gold.Chemscore.Rot>
1.6273

> <Gold.Chemscore.Internal.Correction>
   9.000000E+99

> <Gold.Chemscore.Hbonds>
donor molecule, donor type, donor heavy atom, donor atom, acceptor molecule, acceptor atom, score
      L1  H     7    42       P1 10175  0.23

> <Gold.Chemscore.Hbond.Weighted>
-3.1904

> <Gold.Chemscore.Metal.Weighted>
-0.0000

> <Gold.Chemscore.Lipo.Weighted>
-11.5063

> <Gold.Chemscore.Internal_Hbond.Weighted>
0.0000

> <Gold.Chemscore.DEClash.Weighted>
0.0187

> <Gold.Chemscore.DEInternal.Weighted>
1.4742

> <Gold.Chemscore.Rot.Weighted>
4.1658

> <Gold.Chemscore.Internal.Correction.Weighted>
   9.000000E+99

> <Gold.Protein.RotatedTorsions>
[ 6907 6896 6895 6894 ] final    8.82 input  -60.11 | X-H torsion
[ 7974 7965 7964 7962 ] final  -19.24 input  175.53 | X-H torsion
[ 8008 7997 7996 7995 ] final  -50.52 input   59.86 | X-H torsion
[ 10167 10162 10161 10158 ] final   14.88 input  -65.29 | X-H torsion
[ 10718 10713 10712 10709 ] final  103.64 input   66.30 | X-H torsion
[ 10763 10752 10751 10750 ] final -141.77 input  -60.55 | X-H torsion
[ 11005 11000 10999 10996 ] final -178.91 input  -57.11 | X-H torsion

> <Gold.Protein.ActiveResidues>
 VAL166  LYS551  ARG553  GLY616  TRP617  ASP618  TYR619  PRO620  LYS621  CYS622 
 ASP623  PHE694  ASN695  SER759  ASP760  ASP761  ALA762  ILE779  LEU786  VAL792 
 PHE793  MET794  SER795  GLU796  ALA797  LYS798  CYS799  TRP800  GLU811  SER814 

> <Gold.Protein.RotatedAtoms>
  151.7122  135.0910  160.0269 H   0  0  0  0  0  0  0  0  0  0  0  0  # atno 6907 bound_to 6896
  152.3654  133.6346  159.6055 H   0  0  0  0  0  0  0  0  0  0  0  0  # atno 6908 bound_to 6896
  150.7634  133.9272  159.3457 H   0  0  0  0  0  0  0  0  0  0  0  0  # atno 6909 bound_to 6896
  146.1851  140.4035  142.8479 H   0  0  0  0  0  0  0  0  0  0  0  0  # atno 7974 bound_to 7965
  154.4064  140.1270  156.4680 H   0  0  0  0  0  0  0  0  0  0  0  0  # atno 8008 bound_to 7997
  155.7207  140.3492  155.4995 H   0  0  0  0  0  0  0  0  0  0  0  0  # atno 8009 bound_to 7997
  155.9216  140.1053  157.1192 H   0  0  0  0  0  0  0  0  0  0  0  0  # atno 8010 bound_to 7997
  140.5905  143.8804  150.6870 H   0  0  0  0  0  0  0  0  0  0  0  0  # atno 10167 bound_to 10162
  157.6766  131.0784  150.5585 H   0  0  0  0  0  0  0  0  0  0  0  0  # atno 10718 bound_to 10713
  154.8533  135.3515  154.5921 H   0  0  0  0  0  0  0  0  0  0  0  0  # atno 10763 bound_to 10752
  153.6530  135.6993  153.5207 H   0  0  0  0  0  0  0  0  0  0  0  0  # atno 10764 bound_to 10752
  153.2878  135.4244  155.1097 H   0  0  0  0  0  0  0  0  0  0  0  0  # atno 10765 bound_to 10752
  140.4245  134.6575  157.4681 H   0  0  0  0  0  0  0  0  0  0  0  0  # atno 11005 bound_to 11000
  144.8383  140.6817  143.6246 LP  0  0  0  0  0  0  0  0  0  0  0  0  # atno 17320 bound_to 7965
  145.3962  139.1606  143.4202 LP  0  0  0  0  0  0  0  0  0  0  0  0  # atno 17321 bound_to 7965
  140.2326  143.3724  152.1553 LP  0  0  0  0  0  0  0  0  0  0  0  0  # atno 17342 bound_to 10162
  139.5225  144.7059  151.5355 LP  0  0  0  0  0  0  0  0  0  0  0  0  # atno 17343 bound_to 10162
  156.5888  130.4324  149.5945 LP  0  0  0  0  0  0  0  0  0  0  0  0  # atno 17370 bound_to 10713
  156.2600  130.6957  151.1722 LP  0  0  0  0  0  0  0  0  0  0  0  0  # atno 17371 bound_to 10713
  140.0177  134.6595  155.9286 LP  0  0  0  0  0  0  0  0  0  0  0  0  # atno 17394 bound_to 11000
  141.1770  133.6541  156.4869 LP  0  0  0  0  0  0  0  0  0  0  0  0  # atno 17395 bound_to 11000

$$$$
