AV-unprocessed.smi:3243|AV-procd|sdf|12397|dock9
  -GOLD-   2272018273D 1   1.00000     0.00000
 Structure written by MMmdl.
 37 38  0  0  0  0  0  0  0  0  1 V2000
  153.5913  140.8763  160.6154 C   0  0  0  0  0  0  0  0  0  0  0  0
  153.3595  142.3936  160.6543 C   0  0  0  0  0  0  0  0  0  0  0  0
  152.7833  142.8808  161.9915 C   0  0  0  0  0  0  0  0  0  0  0  0
  152.5543  142.8701  159.4864 C   0  0  0  0  0  0  0  0  0  0  0  0
  151.9951  142.0542  158.5872 N   0  0  0  0  0  0  0  0  0  0  0  0
  151.2973  142.7438  157.5910 C   0  0  0  0  0  0  0  0  0  0  0  0
  150.6036  141.9841  156.5012 C   0  0  0  0  0  0  0  0  0  0  0  0
  151.0935  140.5329  156.4019 C   0  0  0  0  0  0  0  0  0  0  0  0
  150.0775  139.6884  155.7884 N   0  0  0  0  0  0  0  0  0  0  0  0
  149.4031  140.0006  154.6728 C   0  0  0  0  0  0  0  0  0  0  0  0
  149.5863  141.0478  154.0504 O   0  0  0  0  0  0  0  0  0  0  0  0
  148.4110  138.9645  154.2548 C   0  0  1  0  0  0  0  0  0  0  0  0
  147.1690  138.8005  155.1070 C   0  0  0  0  0  0  0  0  0  0  0  0
  147.0635  139.4394  153.7437 C   0  0  2  0  0  0  0  0  0  0  0  0
  146.3826  138.7199  152.5995 C   0  0  0  0  0  0  0  0  0  0  0  0
  151.3338  144.1066  157.7498 C   0  0  0  0  0  0  0  0  0  0  0  0
  152.2485  144.5722  159.1572 S   0  0  0  0  0  0  0  0  0  0  0  0
  154.0774  140.5774  159.6863 H   0  0  0  0  0  0  0  0  0  0  0  0
  152.6510  140.3293  160.6903 H   0  0  0  0  0  0  0  0  0  0  0  0
  154.2287  140.5550  161.4395 H   0  0  0  0  0  0  0  0  0  0  0  0
  154.3424  142.8564  160.5576 H   0  0  0  0  0  0  0  0  0  0  0  0
  152.7086  143.9685  162.0133 H   0  0  0  0  0  0  0  0  0  0  0  0
  153.4158  142.5769  162.8258 H   0  0  0  0  0  0  0  0  0  0  0  0
  151.7863  142.4746  162.1651 H   0  0  0  0  0  0  0  0  0  0  0  0
  149.5263  141.9925  156.6725 H   0  0  0  0  0  0  0  0  0  0  0  0
  150.7579  142.4863  155.5452 H   0  0  0  0  0  0  0  0  0  0  0  0
  152.0086  140.4843  155.8095 H   0  0  0  0  0  0  0  0  0  0  0  0
  151.3311  140.1501  157.3959 H   0  0  0  0  0  0  0  0  0  0  0  0
  149.8707  138.8112  156.2436 H   0  0  0  0  0  0  0  0  0  0  0  0
  148.8168  138.0585  153.8069 H   0  0  0  0  0  0  0  0  0  0  0  0
  146.7905  137.7884  155.2336 H   0  0  0  0  0  0  0  0  0  0  0  0
  147.0420  139.4482  155.9728 H   0  0  0  0  0  0  0  0  0  0  0  0
  146.8862  140.5138  153.7385 H   0  0  0  0  0  0  0  0  0  0  0  0
  146.5819  137.6486  152.6411 H   0  0  0  0  0  0  0  0  0  0  0  0
  146.7461  139.1043  151.6465 H   0  0  0  0  0  0  0  0  0  0  0  0
  145.3047  138.8750  152.6490 H   0  0  0  0  0  0  0  0  0  0  0  0
  150.8783  144.8622  157.1270 H   0  0  0  0  0  0  0  0  0  0  0  0
  1  2  1  0  0  0  0
  1 18  1  0  0  0  0
  1 19  1  0  0  0  0
  1 20  1  0  0  0  0
  2  3  1  0  0  0  0
  2  4  1  0  0  0  0
  2 21  1  0  0  0  0
  3 22  1  0  0  0  0
  3 23  1  0  0  0  0
  3 24  1  0  0  0  0
  4 17  1  0  0  0  0
  4  5  2  0  0  0  0
  5  6  1  0  0  0  0
  6  7  1  0  0  0  0
  6 16  2  0  0  0  0
  7  8  1  0  0  0  0
  7 25  1  0  0  0  0
  7 26  1  0  0  0  0
  8  9  1  0  0  0  0
  8 27  1  0  0  0  0
  8 28  1  0  0  0  0
  9 10  1  0  0  0  0
  9 29  1  0  0  0  0
 10 11  2  0  0  0  0
 10 12  1  0  0  0  0
 12 14  1  0  0  0  0
 12 13  1  0  0  0  0
 12 30  1  0  0  0  0
 13 14  1  0  0  0  0
 13 31  1  0  0  0  0
 13 32  1  0  0  0  0
 14 15  1  0  0  0  0
 14 33  1  0  0  0  0
 15 34  1  0  0  0  0
 15 35  1  0  0  0  0
 15 36  1  0  0  0  0
 16 17  1  0  0  0  0
 16 37  1  0  0  0  0
M  END
> <s_m_source_file>
AV-unprocessed.smi

> <i_m_source_file_index>
3243

> <i_lp_mmshare_version>
43012

> <i_f3d_flags>
0

> <s_epik_input>
W0NIM11bQ0hdKFtDSDNdKWMxbmMoW2NIXXMxKVtDSDJdW0NIMl1bTkhdQyg9TylbQ0BASF0yW0NIMl1bQ0BIXTJbQ0gzXQ==

> <s_epik_cmdline>
J2VwaWtfcHl0aG9uJywgJy1waCcsICc3LjAnLCAnLXRuJywgJzgnLCAnLW1hJywgJzIwMCcsICctbWV0YWxfYmluZGluZycsICctaW1hZScsICc8aW5maWxlLm1hZT4nLCAnLW9tYWUnLCAnPG91dGZpbGUubWFlPic=

> <r_epik_Ionization_Penalty>
0.00084212

> <r_epik_Ionization_Penalty_Charging>
0

> <r_epik_Ionization_Penalty_Neutral>
0.00084212

> <r_epik_State_Penalty>
0.000542609

> <r_epik_Charging_Adjusted_Penalty>
0.000542609

> <i_epik_Tot_Q>
0

> <i_epik_Tot_abs_Q>
0

> <r_epik_Metal_State_Penalty>
-0

> <b_epik_Metal_Only>
0

> <s_lp_Force_Field>
OPLS_2005

> <r_lp_Energy>
-2.05964

> <b_lp_Chiralities_Consistent>
1

> <s_lp_Variant>
AV-unprocessed.smi:3243-4

> <Gold.Version>
5.8.1

> <Gold.Id.Protein>
6NUR|6NUR_protein|mol2

> <Gold.PLP.Fitness>
47.6544

> <Gold.PLP.PLP>
-42.6552

> <Gold.PLP.part.hbond>
-1.9148

> <Gold.PLP.part.metal>
0.0000

> <Gold.PLP.part.buried>
-2.3296

> <Gold.PLP.part.nonpolar>
-39.9960

> <Gold.PLP.part.repulsive>
1.4611

> <Gold.PLP.ligand.clash>
0.0000

> <Gold.PLP.ligand.torsion>
0.8335

> <Gold.PLP.Chemscore.Hbond>
1.1718

> <Gold.PLP.Chemscore.CHOScore>
1.0000

> <Gold.PLP.Chemscore.Metal>
0.0000

> <Gold.Chemscore.Hbonds>
donor molecule, donor type, donor heavy atom, donor atom, acceptor molecule, acceptor atom, score
      P1  H  7989  7998       L1    11  0.36
      P1  H  8011  8017       L1    11  0.48
      L1  C    16    37       P1  8028  1.00

> <Gold.PLP.Chemscore.Internal.Correction>
0.1508

> <Gold.Rescore>
     Score         DG    S(hbond)    S(metal)    S(lipo)     H(rot)  DE(clash)    DE(int)     intcor
     15.48     -18.83       1.06        0.00     116.38       1.49       1.41       1.94       ----

> <Gold.Chemscore.Fitness>
15.4829

> <Gold.Chemscore.DG>
-18.8272

> <Gold.Chemscore.ZeroCoef>
-5.4800

> <Gold.Chemscore.Hbond>
1.0589

> <Gold.Chemscore.Metal>
0.0000

> <Gold.Chemscore.Lipo>
116.3848

> <Gold.Chemscore.Internal_Hbond>
0.0000

> <Gold.Chemscore.DEClash>
1.4084

> <Gold.Chemscore.DEInternal>
1.9359

> <Gold.Chemscore.Rot>
1.4870

> <Gold.Chemscore.Internal.Correction>
   9.000000E+99

> <Gold.Chemscore.Hbonds>
donor molecule, donor type, donor heavy atom, donor atom, acceptor molecule, acceptor atom, score
      P1  H  7989  7998       L1    11  0.14
      P1  H  8011  8017       L1    11  0.47

> <Gold.Chemscore.Hbond.Weighted>
-3.5369

> <Gold.Chemscore.Metal.Weighted>
-0.0000

> <Gold.Chemscore.Lipo.Weighted>
-13.6170

> <Gold.Chemscore.Internal_Hbond.Weighted>
0.0000

> <Gold.Chemscore.DEClash.Weighted>
1.4084

> <Gold.Chemscore.DEInternal.Weighted>
1.9359

> <Gold.Chemscore.Rot.Weighted>
3.8067

> <Gold.Chemscore.Internal.Correction.Weighted>
   9.000000E+99

> <Gold.Protein.RotatedTorsions>
[ 6907 6896 6895 6894 ] final  -22.83 input  -60.11 | X-H torsion
[ 7974 7965 7964 7962 ] final   63.45 input  175.53 | X-H torsion
[ 8008 7997 7996 7995 ] final  119.77 input   59.86 | X-H torsion
[ 10167 10162 10161 10158 ] final -137.56 input  -65.29 | X-H torsion
[ 10718 10713 10712 10709 ] final  -30.66 input   66.30 | X-H torsion
[ 10763 10752 10751 10750 ] final  130.04 input  -60.55 | X-H torsion
[ 11005 11000 10999 10996 ] final  -42.06 input  -57.11 | X-H torsion

> <Gold.Protein.ActiveResidues>
 VAL166  LYS551  ARG553  GLY616  TRP617  ASP618  TYR619  PRO620  LYS621  CYS622 
 ASP623  PHE694  ASN695  SER759  ASP760  ASP761  ALA762  ILE779  LEU786  VAL792 
 PHE793  MET794  SER795  GLU796  ALA797  LYS798  CYS799  TRP800  GLU811  SER814 

> <Gold.Protein.RotatedAtoms>
  151.2129  135.0488  159.8918 H   0  0  0  0  0  0  0  0  0  0  0  0  # atno 6907 bound_to 6896
  152.5423  134.0725  159.8210 H   0  0  0  0  0  0  0  0  0  0  0  0  # atno 6908 bound_to 6896
  151.0881  133.5289  159.2648 H   0  0  0  0  0  0  0  0  0  0  0  0  # atno 6909 bound_to 6896
  145.8616  139.3319  143.0815 H   0  0  0  0  0  0  0  0  0  0  0  0  # atno 7974 bound_to 7965
  156.2611  140.2845  156.1044 H   0  0  0  0  0  0  0  0  0  0  0  0  # atno 8008 bound_to 7997
  155.1325  140.0394  157.2796 H   0  0  0  0  0  0  0  0  0  0  0  0  # atno 8009 bound_to 7997
  154.6589  140.2562  155.7137 H   0  0  0  0  0  0  0  0  0  0  0  0  # atno 8010 bound_to 7997
  139.8566  143.7131  152.2654 H   0  0  0  0  0  0  0  0  0  0  0  0  # atno 10167 bound_to 10162
  156.3970  130.4383  149.7351 H   0  0  0  0  0  0  0  0  0  0  0  0  # atno 10718 bound_to 10713
  153.7515  135.3209  155.3322 H   0  0  0  0  0  0  0  0  0  0  0  0  # atno 10763 bound_to 10752
  154.8261  135.4568  154.0927 H   0  0  0  0  0  0  0  0  0  0  0  0  # atno 10764 bound_to 10752
  153.2131  135.6938  153.8172 H   0  0  0  0  0  0  0  0  0  0  0  0  # atno 10765 bound_to 10752
  141.0289  133.6828  156.2543 H   0  0  0  0  0  0  0  0  0  0  0  0  # atno 11005 bound_to 11000
  145.9241  140.9095  143.0390 LP  0  0  0  0  0  0  0  0  0  0  0  0  # atno 17320 bound_to 7965
  144.6726  140.1329  143.7442 LP  0  0  0  0  0  0  0  0  0  0  0  0  # atno 17321 bound_to 7965
  139.7414  144.7558  151.0647 LP  0  0  0  0  0  0  0  0  0  0  0  0  # atno 17342 bound_to 10162
  140.7781  143.4968  150.9822 LP  0  0  0  0  0  0  0  0  0  0  0  0  # atno 17343 bound_to 10162
  156.4382  130.7848  151.2869 LP  0  0  0  0  0  0  0  0  0  0  0  0  # atno 17370 bound_to 10713
  157.7502  131.0133  150.3418 LP  0  0  0  0  0  0  0  0  0  0  0  0  # atno 17371 bound_to 10713
  140.6441  134.5135  157.5572 LP  0  0  0  0  0  0  0  0  0  0  0  0  # atno 17394 bound_to 11000
  139.9195  134.8178  156.1258 LP  0  0  0  0  0  0  0  0  0  0  0  0  # atno 17395 bound_to 11000

$$$$
