AV-unprocessed.smi:3338|AV-procd|sdf|12869|dock2
  -GOLD-   2272019263D 1   1.00000     0.00000
 Structure written by MMmdl.
 44 45  0  0  0  0  0  0  0  0  2 V2000
  144.1761  134.7859  151.1436 C   0  0  0  0  0  0  0  0  0  0  0  0
  145.5633  134.4377  151.7015 C   0  0  2  0  0  0  0  0  0  0  0  0
  145.8191  132.9218  151.6654 C   0  0  0  0  0  0  0  0  0  0  0  0
  147.2000  132.6025  152.2508 C   0  0  0  0  0  0  0  0  0  0  0  0
  147.3459  133.1848  153.6655 C   0  0  0  0  0  0  0  0  0  0  0  0
  147.0968  134.6497  153.6708 N   0  3  2  0  0  0  0  0  0  0  0  0
  147.3628  135.2572  154.9990 C   0  0  0  0  0  0  0  0  0  0  0  0
  148.8505  135.1827  155.3947 C   0  0  0  0  0  0  0  0  0  0  0  0
  149.5834  136.3491  154.9179 N   0  0  0  0  0  0  0  0  0  0  0  0
  150.3972  137.1068  155.6711 C   0  0  0  0  0  0  0  0  0  0  0  0
  150.6334  136.8585  156.8544 O   0  0  0  0  0  0  0  0  0  0  0  0
  151.0294  138.3265  154.9775 C   0  0  2  0  0  0  0  0  0  0  0  0
  152.5662  138.2407  154.8850 C   0  0  0  0  0  0  0  0  0  0  0  0
  150.6001  139.5653  155.6175 N   0  0  0  0  0  0  0  0  0  0  0  0
  149.8553  139.7124  156.7700 C   0  0  0  0  0  0  0  0  0  0  0  0
  149.7145  141.0508  157.0002 C   0  0  0  0  0  0  0  0  0  0  0  0
  150.4188  141.6549  155.9221 C   0  0  0  0  0  0  0  0  0  0  0  0
  150.9510  140.7659  155.0999 N   0  0  0  0  0  0  0  0  0  0  0  0
  145.7478  134.9764  153.1347 C   0  0  0  0  0  0  0  0  0  0  0  0
  143.3829  134.3323  151.7388 H   0  0  0  0  0  0  0  0  0  0  0  0
  144.0653  134.4329  150.1180 H   0  0  0  0  0  0  0  0  0  0  0  0
  144.0134  135.8642  151.1391 H   0  0  0  0  0  0  0  0  0  0  0  0
  146.3040  134.9207  151.0622 H   0  0  0  0  0  0  0  0  0  0  0  0
  145.0495  132.3995  152.2357 H   0  0  0  0  0  0  0  0  0  0  0  0
  145.7554  132.5503  150.6420 H   0  0  0  0  0  0  0  0  0  0  0  0
  147.3537  131.5233  152.2742 H   0  0  0  0  0  0  0  0  0  0  0  0
  147.9769  133.0117  151.6035 H   0  0  0  0  0  0  0  0  0  0  0  0
  146.6520  132.6937  154.3498 H   0  0  0  0  0  0  0  0  0  0  0  0
  148.3524  132.9786  154.0318 H   0  0  0  0  0  0  0  0  0  0  0  0
  147.0072  136.2887  155.0137 H   0  0  0  0  0  0  0  0  0  0  0  0
  146.7817  134.7236  155.7527 H   0  0  0  0  0  0  0  0  0  0  0  0
  148.9556  135.0924  156.4774 H   0  0  0  0  0  0  0  0  0  0  0  0
  149.3268  134.3040  154.9616 H   0  0  0  0  0  0  0  0  0  0  0  0
  149.4447  136.6160  153.9536 H   0  0  0  0  0  0  0  0  0  0  0  0
  150.6444  138.3406  153.9565 H   0  0  0  0  0  0  0  0  0  0  0  0
  152.8803  137.3434  154.3508 H   0  0  0  0  0  0  0  0  0  0  0  0
  153.0337  138.2211  155.8704 H   0  0  0  0  0  0  0  0  0  0  0  0
  152.9706  139.0979  154.3458 H   0  0  0  0  0  0  0  0  0  0  0  0
  149.4907  138.8611  157.3257 H   0  0  0  0  0  0  0  0  0  0  0  0
  149.1879  141.5264  157.8147 H   0  0  0  0  0  0  0  0  0  0  0  0
  150.5600  142.7055  155.7154 H   0  0  0  0  0  0  0  0  0  0  0  0
  145.6007  136.0559  153.1259 H   0  0  0  0  0  0  0  0  0  0  0  0
  144.9847  134.5611  153.7953 H   0  0  0  0  0  0  0  0  0  0  0  0
  147.7725  135.0492  153.0351 H   0  0  0  0  0  0  0  0  0  0  0  0
  1  2  1  0  0  0  0
  1 20  1  0  0  0  0
  1 21  1  0  0  0  0
  1 22  1  0  0  0  0
  2 19  1  0  0  0  0
  2  3  1  0  0  0  0
  2 23  1  0  0  0  0
  3  4  1  0  0  0  0
  3 24  1  0  0  0  0
  3 25  1  0  0  0  0
  4  5  1  0  0  0  0
  4 26  1  0  0  0  0
  4 27  1  0  0  0  0
  5  6  1  0  0  0  0
  5 28  1  0  0  0  0
  5 29  1  0  0  0  0
  6  7  1  0  0  0  0
  6 19  1  0  0  0  0
  6 44  1  0  0  0  0
  7  8  1  0  0  0  0
  7 30  1  0  0  0  0
  7 31  1  0  0  0  0
  8  9  1  0  0  0  0
  8 32  1  0  0  0  0
  8 33  1  0  0  0  0
  9 10  1  0  0  0  0
  9 34  1  0  0  0  0
 10 11  2  0  0  0  0
 10 12  1  0  0  0  0
 12 13  1  0  0  0  0
 12 14  1  0  0  0  0
 12 35  1  0  0  0  0
 13 36  1  0  0  0  0
 13 37  1  0  0  0  0
 13 38  1  0  0  0  0
 14 18  1  0  0  0  0
 14 15  1  0  0  0  0
 15 16  2  0  0  0  0
 15 39  1  0  0  0  0
 16 17  1  0  0  0  0
 16 40  1  0  0  0  0
 17 18  2  0  0  0  0
 17 41  1  0  0  0  0
 19 42  1  0  0  0  0
 19 43  1  0  0  0  0
M  CHG  1   6   1
M  END
> <s_m_source_file>
AV-unprocessed.smi

> <i_m_source_file_index>
3338

> <i_lp_mmshare_version>
43012

> <i_f3d_flags>
0

> <s_epik_input>
W0NIM11bQ0BASF0xW0NIMl1bQ0gyXVtDSDJdTihbQ0gyXTEpW0NIMl1bQ0gyXVtOSF1DKD1PKVtDQEhdKFtDSDNdKW4yW2NIXVtjSF1bY0hdbjI=

> <s_epik_cmdline>
J2VwaWtfcHl0aG9uJywgJy1waCcsICc3LjAnLCAnLXRuJywgJzgnLCAnLW1hJywgJzIwMCcsICctbWV0YWxfYmluZGluZycsICctaW1hZScsICc8aW5maWxlLm1hZT4nLCAnLW9tYWUnLCAnPG91dGZpbGUubWFlPic=

> <r_lp_tautomer_probability>
1

> <r_epik_Ionization_Penalty>
0.00225707

> <r_epik_Ionization_Penalty_Charging>
0.00223709

> <r_epik_Ionization_Penalty_Neutral>
1.99775e-05

> <r_epik_State_Penalty>
0.00153978

> <r_epik_Charging_Adjusted_Penalty>
0.00377687

> <i_epik_Tot_Q>
1

> <i_epik_Tot_abs_Q>
1

> <r_epik_Metal_State_Penalty>
-0

> <b_epik_Metal_Only>
0

> <s_lp_Force_Field>
OPLS_2005

> <r_lp_Energy>
19.7834

> <b_lp_Chiralities_Consistent>
1

> <s_lp_Variant>
AV-unprocessed.smi:3338-1

> <Gold.Version>
5.8.1

> <Gold.Id.Protein>
6NUR|6NUR_protein|mol2

> <Gold.PLP.Fitness>
42.6092

> <Gold.PLP.PLP>
-29.8757

> <Gold.PLP.part.hbond>
-3.0000

> <Gold.PLP.part.metal>
0.0000

> <Gold.PLP.part.buried>
-1.7855

> <Gold.PLP.part.nonpolar>
-25.3006

> <Gold.PLP.part.repulsive>
0.0944

> <Gold.PLP.ligand.clash>
0.0000

> <Gold.PLP.ligand.torsion>
0.3347

> <Gold.PLP.Chemscore.Hbond>
3.4240

> <Gold.PLP.Chemscore.CHOScore>
1.0000

> <Gold.PLP.Chemscore.Metal>
0.0000

> <Gold.Chemscore.Hbonds>
donor molecule, donor type, donor heavy atom, donor atom, acceptor molecule, acceptor atom, score
      L1  H     6    44       P1  7948  2.00
      L1  H     9    34       P1  7948  0.68
      P1  H  7989  7998       L1    18  0.85
      L1  C    17    41       P1  8028  0.79

> <Gold.PLP.Chemscore.Internal.Correction>
0.1310

> <Gold.Rescore>
     Score         DG    S(hbond)    S(metal)    S(lipo)     H(rot)  DE(clash)    DE(int)     intcor
     15.05     -16.62       2.43        0.00      64.33       1.76       0.01       1.56       ----

> <Gold.Chemscore.Fitness>
15.0481

> <Gold.Chemscore.DG>
-16.6176

> <Gold.Chemscore.ZeroCoef>
-5.4800

> <Gold.Chemscore.Hbond>
2.4277

> <Gold.Chemscore.Metal>
0.0000

> <Gold.Chemscore.Lipo>
64.3318

> <Gold.Chemscore.Internal_Hbond>
0.0000

> <Gold.Chemscore.DEClash>
0.0060

> <Gold.Chemscore.DEInternal>
1.5636

> <Gold.Chemscore.Rot>
1.7570

> <Gold.Chemscore.Internal.Correction>
   9.000000E+99

> <Gold.Chemscore.Hbonds>
donor molecule, donor type, donor heavy atom, donor atom, acceptor molecule, acceptor atom, score
      L1  H     6    44       P1  7948  0.94
      L1  H     9    34       P1  7948  0.59
      P1  H  7989  7998       L1    18  0.82

> <Gold.Chemscore.Hbond.Weighted>
-8.1087

> <Gold.Chemscore.Metal.Weighted>
-0.0000

> <Gold.Chemscore.Lipo.Weighted>
-7.5268

> <Gold.Chemscore.Internal_Hbond.Weighted>
0.0000

> <Gold.Chemscore.DEClash.Weighted>
0.0060

> <Gold.Chemscore.DEInternal.Weighted>
1.5636

> <Gold.Chemscore.Rot.Weighted>
4.4979

> <Gold.Chemscore.Internal.Correction.Weighted>
   9.000000E+99

> <Gold.Protein.RotatedTorsions>
[ 6907 6896 6895 6894 ] final  -18.56 input  -60.11 | X-H torsion
[ 7974 7965 7964 7962 ] final   99.95 input  175.53 | X-H torsion
[ 8008 7997 7996 7995 ] final  -34.79 input   59.86 | X-H torsion
[ 10167 10162 10161 10158 ] final  148.16 input  -65.29 | X-H torsion
[ 10718 10713 10712 10709 ] final   -5.45 input   66.30 | X-H torsion
[ 10763 10752 10751 10750 ] final  104.44 input  -60.55 | X-H torsion
[ 11005 11000 10999 10996 ] final   82.59 input  -57.11 | X-H torsion

> <Gold.Protein.ActiveResidues>
 VAL166  LYS551  ARG553  GLY616  TRP617  ASP618  TYR619  PRO620  LYS621  CYS622 
 ASP623  PHE694  ASN695  SER759  ASP760  ASP761  ALA762  ILE779  LEU786  VAL792 
 PHE793  MET794  SER795  GLU796  ALA797  LYS798  CYS799  TRP800  GLU811  SER814 

> <Gold.Protein.RotatedAtoms>
  151.2764  135.0700  159.9152 H   0  0  0  0  0  0  0  0  0  0  0  0  # atno 6907 bound_to 6896
  152.5342  134.0077  159.7934 H   0  0  0  0  0  0  0  0  0  0  0  0  # atno 6908 bound_to 6896
  151.0323  133.5728  159.2690 H   0  0  0  0  0  0  0  0  0  0  0  0  # atno 6909 bound_to 6896
  145.3920  139.2361  143.3346 H   0  0  0  0  0  0  0  0  0  0  0  0  # atno 7974 bound_to 7965
  154.4112  140.1674  156.2106 H   0  0  0  0  0  0  0  0  0  0  0  0  # atno 8008 bound_to 7997
  155.9447  140.3405  155.6334 H   0  0  0  0  0  0  0  0  0  0  0  0  # atno 8009 bound_to 7997
  155.6945  140.0737  157.2425 H   0  0  0  0  0  0  0  0  0  0  0  0  # atno 8010 bound_to 7997
  139.4879  144.5700  151.7072 H   0  0  0  0  0  0  0  0  0  0  0  0  # atno 10167 bound_to 10162
  156.7463  130.5225  149.5813 H   0  0  0  0  0  0  0  0  0  0  0  0  # atno 10718 bound_to 10713
  153.3659  135.3943  155.1753 H   0  0  0  0  0  0  0  0  0  0  0  0  # atno 10763 bound_to 10752
  154.8687  135.3691  154.5040 H   0  0  0  0  0  0  0  0  0  0  0  0  # atno 10764 bound_to 10752
  153.5503  135.7083  153.5655 H   0  0  0  0  0  0  0  0  0  0  0  0  # atno 10765 bound_to 10752
  139.9059  134.8082  156.2195 H   0  0  0  0  0  0  0  0  0  0  0  0  # atno 11005 bound_to 11000
  146.2793  140.4604  142.8783 LP  0  0  0  0  0  0  0  0  0  0  0  0  # atno 17320 bound_to 7965
  144.8433  140.6891  143.6215 LP  0  0  0  0  0  0  0  0  0  0  0  0  # atno 17321 bound_to 7965
  140.5286  144.0766  150.6046 LP  0  0  0  0  0  0  0  0  0  0  0  0  # atno 17342 bound_to 10162
  140.3749  143.2834  152.0237 LP  0  0  0  0  0  0  0  0  0  0  0  0  # atno 17343 bound_to 10162
  156.1431  130.6258  151.0494 LP  0  0  0  0  0  0  0  0  0  0  0  0  # atno 17370 bound_to 10713
  157.6796  131.0841  150.7403 LP  0  0  0  0  0  0  0  0  0  0  0  0  # atno 17371 bound_to 10713
  141.0415  133.6935  156.1606 LP  0  0  0  0  0  0  0  0  0  0  0  0  # atno 17394 bound_to 11000
  140.6949  134.4627  157.5588 LP  0  0  0  0  0  0  0  0  0  0  0  0  # atno 17395 bound_to 11000

$$$$
