AV-unprocessed.smi:3348|AV-procd|sdf|12929|dock4
  -GOLD-   2272019353D 1   1.00000     0.00000
 Structure written by MMmdl.
 46 47  0  0  0  0  0  0  0  0  1 V2000
  150.4924  137.3498  154.3695 C   0  0  0  0  0  0  0  0  0  0  0  0
  150.2141  138.4513  155.4016 C   0  0  2  0  0  0  0  0  0  0  0  0
  150.3043  139.8409  154.7248 C   0  0  0  0  0  0  0  0  0  0  0  0
  149.0257  140.3878  154.3086 N   0  0  0  0  0  0  0  0  0  0  0  0
  148.5860  141.6932  154.3907 C   0  0  0  0  0  0  0  0  0  0  0  0
  147.3219  141.7286  153.8756 C   0  0  0  0  0  0  0  0  0  0  0  0
  147.0750  140.3802  153.4933 C   0  0  0  0  0  0  0  0  0  0  0  0
  148.0976  139.5803  153.7506 N   0  0  0  0  0  0  0  0  0  0  0  0
  151.1666  138.3187  156.5082 N   0  0  0  0  0  0  0  0  0  0  0  0
  150.7676  138.9688  157.7567 C   0  0  0  0  0  0  0  0  0  0  0  0
  151.7187  140.1161  158.1050 C   0  0  0  0  0  0  0  0  0  0  0  0
  150.9347  141.1891  158.6050 O   0  0  0  0  0  0  0  0  0  0  0  0
  151.5748  142.4580  158.5886 C   0  0  1  0  0  0  0  0  0  0  0  0
  150.5404  143.5588  158.2713 C   0  0  0  0  0  0  0  0  0  0  0  0
  151.1539  144.9620  158.3886 C   0  0  0  0  0  0  0  0  0  0  0  0
  151.7737  145.1782  159.7760 C   0  0  0  0  0  0  0  0  0  0  0  0
  152.8124  144.0911  160.0906 C   0  0  0  0  0  0  0  0  0  0  0  0
  152.2105  142.6757  159.9809 C   0  0  2  0  0  0  0  0  0  0  0  0
  153.2720  141.6084  160.2960 C   0  0  0  0  0  0  0  0  0  0  0  0
  149.7763  137.3918  153.5483 H   0  0  0  0  0  0  0  0  0  0  0  0
  150.4140  136.3598  154.8198 H   0  0  0  0  0  0  0  0  0  0  0  0
  151.4922  137.4448  153.9440 H   0  0  0  0  0  0  0  0  0  0  0  0
  149.1993  138.2956  155.7707 H   0  0  0  0  0  0  0  0  0  0  0  0
  150.7848  140.5559  155.3946 H   0  0  0  0  0  0  0  0  0  0  0  0
  150.9387  139.7810  153.8393 H   0  0  0  0  0  0  0  0  0  0  0  0
  149.1988  142.4766  154.8120 H   0  0  0  0  0  0  0  0  0  0  0  0
  146.6728  142.5870  153.7868 H   0  0  0  0  0  0  0  0  0  0  0  0
  146.1888  139.9619  153.0390 H   0  0  0  0  0  0  0  0  0  0  0  0
  151.3474  137.3363  156.6881 H   0  0  0  0  0  0  0  0  0  0  0  0
  149.7496  139.3486  157.7155 H   0  0  0  0  0  0  0  0  0  0  0  0
  150.7830  138.2322  158.5604 H   0  0  0  0  0  0  0  0  0  0  0  0
  152.4118  139.7849  158.8796 H   0  0  0  0  0  0  0  0  0  0  0  0
  152.3104  140.4107  157.2379 H   0  0  0  0  0  0  0  0  0  0  0  0
  152.3682  142.4709  157.8385 H   0  0  0  0  0  0  0  0  0  0  0  0
  150.1364  143.4287  157.2678 H   0  0  0  0  0  0  0  0  0  0  0  0
  149.6959  143.4741  158.9567 H   0  0  0  0  0  0  0  0  0  0  0  0
  151.9179  145.0927  157.6211 H   0  0  0  0  0  0  0  0  0  0  0  0
  150.3916  145.7184  158.1992 H   0  0  0  0  0  0  0  0  0  0  0  0
  152.2386  146.1632  159.8261 H   0  0  0  0  0  0  0  0  0  0  0  0
  150.9898  145.1665  160.5346 H   0  0  0  0  0  0  0  0  0  0  0  0
  153.6555  144.1869  159.4046 H   0  0  0  0  0  0  0  0  0  0  0  0
  153.2116  144.2497  161.0930 H   0  0  0  0  0  0  0  0  0  0  0  0
  151.4222  142.5890  160.7305 H   0  0  0  0  0  0  0  0  0  0  0  0
  154.0825  141.6285  159.5669 H   0  0  0  0  0  0  0  0  0  0  0  0
  152.8433  140.6062  160.2878 H   0  0  0  0  0  0  0  0  0  0  0  0
  153.7078  141.7673  161.2827 H   0  0  0  0  0  0  0  0  0  0  0  0
  1  2  1  0  0  0  0
  1 20  1  0  0  0  0
  1 21  1  0  0  0  0
  1 22  1  0  0  0  0
  2  3  1  0  0  0  0
  2  9  1  0  0  0  0
  2 23  1  0  0  0  0
  3  4  1  0  0  0  0
  3 24  1  0  0  0  0
  3 25  1  0  0  0  0
  4  8  1  0  0  0  0
  4  5  1  0  0  0  0
  5  6  2  0  0  0  0
  5 26  1  0  0  0  0
  6  7  1  0  0  0  0
  6 27  1  0  0  0  0
  7  8  2  0  0  0  0
  7 28  1  0  0  0  0
  9 10  1  0  0  0  0
  9 29  1  0  0  0  0
 10 11  1  0  0  0  0
 10 30  1  0  0  0  0
 10 31  1  0  0  0  0
 11 12  1  0  0  0  0
 11 32  1  0  0  0  0
 11 33  1  0  0  0  0
 12 13  1  0  0  0  0
 13 18  1  0  0  0  0
 13 14  1  0  0  0  0
 13 34  1  0  0  0  0
 14 15  1  0  0  0  0
 14 35  1  0  0  0  0
 14 36  1  0  0  0  0
 15 16  1  0  0  0  0
 15 37  1  0  0  0  0
 15 38  1  0  0  0  0
 16 17  1  0  0  0  0
 16 39  1  0  0  0  0
 16 40  1  0  0  0  0
 17 18  1  0  0  0  0
 17 41  1  0  0  0  0
 17 42  1  0  0  0  0
 18 19  1  0  0  0  0
 18 43  1  0  0  0  0
 19 44  1  0  0  0  0
 19 45  1  0  0  0  0
 19 46  1  0  0  0  0
M  END
> <s_m_source_file>
AV-unprocessed.smi

> <i_m_source_file_index>
3348

> <i_lp_mmshare_version>
43012

> <i_f3d_flags>
0

> <s_epik_input>
bjFbY0hdW2NIXVtjSF1uMVtDSDJdW0NAQEhdKFtDSDNdKVtOSF1bQ0gyXVtDSDJdT1tDQEBIXTJbQ0gyXVtDSDJdW0NIMl1bQ0gyXVtDQEhdMltDSDNd

> <s_epik_cmdline>
J2VwaWtfcHl0aG9uJywgJy1waCcsICc3LjAnLCAnLXRuJywgJzgnLCAnLW1hJywgJzIwMCcsICctbWV0YWxfYmluZGluZycsICctaW1hZScsICc8aW5maWxlLm1hZT4nLCAnLW9tYWUnLCAnPG91dGZpbGUubWFlPic=

> <r_lp_tautomer_probability>
1

> <r_epik_Ionization_Penalty>
2.46945

> <r_epik_Ionization_Penalty_Charging>
0

> <r_epik_Ionization_Penalty_Neutral>
2.46945

> <r_epik_State_Penalty>
2.6322

> <r_epik_Charging_Adjusted_Penalty>
2.6322

> <i_epik_Tot_Q>
0

> <i_epik_Tot_abs_Q>
0

> <r_epik_Metal_State_Penalty>
2.63217

> <b_epik_Metal_Only>
0

> <s_lp_Force_Field>
OPLS_2005

> <r_lp_Energy>
18.1963

> <b_lp_Chiralities_Consistent>
1

> <s_lp_Variant>
AV-unprocessed.smi:3348-15

> <Gold.Version>
5.8.1

> <Gold.Id.Protein>
6NUR|6NUR_protein|mol2

> <Gold.PLP.Fitness>
41.4240

> <Gold.PLP.PLP>
-40.4104

> <Gold.PLP.part.hbond>
0.0000

> <Gold.PLP.part.metal>
0.0000

> <Gold.PLP.part.buried>
-3.1880

> <Gold.PLP.part.nonpolar>
-36.8570

> <Gold.PLP.part.repulsive>
0.5390

> <Gold.PLP.ligand.clash>
0.0000

> <Gold.PLP.ligand.torsion>
2.1722

> <Gold.PLP.Chemscore.Hbond>
0.0000

> <Gold.PLP.Chemscore.CHOScore>
1.7505

> <Gold.PLP.Chemscore.Metal>
0.0000

> <Gold.Chemscore.Hbonds>
donor molecule, donor type, donor heavy atom, donor atom, acceptor molecule, acceptor atom, score
      L1  C     5    26       P1  8028  1.00
      L1  C     7    28       P1 10175  0.78

> <Gold.PLP.Chemscore.Internal.Correction>
0.1066

> <Gold.Rescore>
     Score         DG    S(hbond)    S(metal)    S(lipo)     H(rot)  DE(clash)    DE(int)     intcor
     13.15     -15.42       0.00        0.00     122.67       1.72       0.03       2.24       ----

> <Gold.Chemscore.Fitness>
13.1490

> <Gold.Chemscore.DG>
-15.4196

> <Gold.Chemscore.ZeroCoef>
-5.4800

> <Gold.Chemscore.Hbond>
0.0000

> <Gold.Chemscore.Metal>
0.0000

> <Gold.Chemscore.Lipo>
122.6679

> <Gold.Chemscore.Internal_Hbond>
0.0000

> <Gold.Chemscore.DEClash>
0.0312

> <Gold.Chemscore.DEInternal>
2.2394

> <Gold.Chemscore.Rot>
1.7237

> <Gold.Chemscore.Internal.Correction>
   9.000000E+99

> <Gold.Chemscore.Hbond.Weighted>
-0.0000

> <Gold.Chemscore.Metal.Weighted>
-0.0000

> <Gold.Chemscore.Lipo.Weighted>
-14.3521

> <Gold.Chemscore.Internal_Hbond.Weighted>
0.0000

> <Gold.Chemscore.DEClash.Weighted>
0.0312

> <Gold.Chemscore.DEInternal.Weighted>
2.2394

> <Gold.Chemscore.Rot.Weighted>
4.4126

> <Gold.Chemscore.Internal.Correction.Weighted>
   9.000000E+99

> <Gold.Protein.RotatedTorsions>
[ 6907 6896 6895 6894 ] final -134.52 input  -60.11 | X-H torsion
[ 7974 7965 7964 7962 ] final  133.95 input  175.53 | X-H torsion
[ 8008 7997 7996 7995 ] final  -71.31 input   59.86 | X-H torsion
[ 10167 10162 10161 10158 ] final  -91.93 input  -65.29 | X-H torsion
[ 10718 10713 10712 10709 ] final  -81.61 input   66.30 | X-H torsion
[ 10763 10752 10751 10750 ] final    2.66 input  -60.55 | X-H torsion
[ 11005 11000 10999 10996 ] final -143.89 input  -57.11 | X-H torsion

> <Gold.Protein.ActiveResidues>
 VAL166  LYS551  ARG553  GLY616  TRP617  ASP618  TYR619  PRO620  LYS621  CYS622 
 ASP623  PHE694  ASN695  SER759  ASP760  ASP761  ALA762  ILE779  LEU786  VAL792 
 PHE793  MET794  SER795  GLU796  ALA797  LYS798  CYS799  TRP800  GLU811  SER814 

> <Gold.Protein.RotatedAtoms>
  150.9868  133.6189  159.2713 H   0  0  0  0  0  0  0  0  0  0  0  0  # atno 6907 bound_to 6896
  151.3424  135.0865  159.9385 H   0  0  0  0  0  0  0  0  0  0  0  0  # atno 6908 bound_to 6896
  152.5233  133.9477  159.7711 H   0  0  0  0  0  0  0  0  0  0  0  0  # atno 6909 bound_to 6896
  144.9813  139.4501  143.5384 H   0  0  0  0  0  0  0  0  0  0  0  0  # atno 7974 bound_to 7965
  154.5078  140.0818  156.7929 H   0  0  0  0  0  0  0  0  0  0  0  0  # atno 8008 bound_to 7997
  155.3854  140.3430  155.4230 H   0  0  0  0  0  0  0  0  0  0  0  0  # atno 8009 bound_to 7997
  156.1536  140.1566  156.8716 H   0  0  0  0  0  0  0  0  0  0  0  0  # atno 8010 bound_to 7997
  140.3399  143.2948  151.9846 H   0  0  0  0  0  0  0  0  0  0  0  0  # atno 10167 bound_to 10162
  156.0047  130.4609  150.3979 H   0  0  0  0  0  0  0  0  0  0  0  0  # atno 10718 bound_to 10713
  153.2929  135.6950  153.7276 H   0  0  0  0  0  0  0  0  0  0  0  0  # atno 10763 bound_to 10752
  153.6220  135.3425  155.3015 H   0  0  0  0  0  0  0  0  0  0  0  0  # atno 10764 bound_to 10752
  154.8529  135.4388  154.2017 H   0  0  0  0  0  0  0  0  0  0  0  0  # atno 10765 bound_to 10752
  140.8080  134.2778  157.4952 H   0  0  0  0  0  0  0  0  0  0  0  0  # atno 11005 bound_to 11000
  146.3409  139.9088  142.8783 LP  0  0  0  0  0  0  0  0  0  0  0  0  # atno 17320 bound_to 7965
  145.2416  141.0011  143.3932 LP  0  0  0  0  0  0  0  0  0  0  0  0  # atno 17321 bound_to 7965
  139.4842  144.6165  151.7336 LP  0  0  0  0  0  0  0  0  0  0  0  0  # atno 17342 bound_to 10162
  140.5318  144.0718  150.6056 LP  0  0  0  0  0  0  0  0  0  0  0  0  # atno 17343 bound_to 10162
  157.2049  131.0447  151.2630 LP  0  0  0  0  0  0  0  0  0  0  0  0  # atno 17370 bound_to 10713
  157.3941  130.7298  149.6719 LP  0  0  0  0  0  0  0  0  0  0  0  0  # atno 17371 bound_to 10713
  139.8716  134.9467  156.3946 LP  0  0  0  0  0  0  0  0  0  0  0  0  # atno 17394 bound_to 11000
  140.9227  133.7634  155.9926 LP  0  0  0  0  0  0  0  0  0  0  0  0  # atno 17395 bound_to 11000

$$$$
