AV-unprocessed.smi:1247|AV-procd|sdf|5247|dock1
  -GOLD-   22720 4353D 1   1.00000     0.00000
 Structure written by MMmdl.
 47 48  0  0  0  0  0  0  0  0  2 V2000
  149.3743  141.5348  155.6021 C   0  0  0  0  0  0  0  0  0  0  0  0
  149.6454  140.1258  155.1637 C   0  0  0  0  0  0  0  0  0  0  0  0
  148.7065  139.0734  154.9580 C   0  0  0  0  0  0  0  0  0  0  0  0
  149.5023  138.0300  154.5709 C   0  0  0  0  0  0  0  0  0  0  0  0
  149.1394  136.7646  154.2301 N   0  0  0  0  0  0  0  0  0  0  0  0
  148.8429  135.7299  155.0356 C   0  0  0  0  0  0  0  0  0  0  0  0
  148.8902  135.7435  156.2659 O   0  0  0  0  0  0  0  0  0  0  0  0
  148.4915  134.6478  154.3260 N   0  0  0  0  0  0  0  0  0  0  0  0
  148.1145  133.3617  154.9006 C   0  0  0  0  0  0  0  0  0  0  0  0
  148.5809  132.1912  154.0145 C   0  0  0  0  0  0  0  0  0  0  0  0
  147.5014  131.6945  153.1259 N   0  3  1  0  0  0  0  0  0  0  0  0
  146.5202  130.8464  153.8436 C   0  0  0  0  0  0  0  0  0  0  0  0
  145.4516  130.2930  152.8802 C   0  0  2  0  0  0  0  0  0  0  0  0
  145.9725  129.1733  151.9617 C   0  0  0  0  0  0  0  0  0  0  0  0
  144.8511  131.3596  152.1455 O   0  0  0  0  0  0  0  0  0  0  0  0
  145.7655  132.1763  151.4186 C   0  0  1  0  0  0  0  0  0  0  0  0
  144.9580  133.2630  150.7002 C   0  0  0  0  0  0  0  0  0  0  0  0
  146.8024  132.7732  152.3869 C   0  0  0  0  0  0  0  0  0  0  0  0
  150.8135  138.4553  154.5479 N   0  0  0  0  0  0  0  0  0  0  0  0
  152.0262  137.7363  154.2066 C   0  0  0  0  0  0  0  0  0  0  0  0
  150.8959  139.7506  154.9201 N   0  0  0  0  0  0  0  0  0  0  0  0
  148.3035  141.7325  155.6539 H   0  0  0  0  0  0  0  0  0  0  0  0
  149.8104  142.2542  154.9083 H   0  0  0  0  0  0  0  0  0  0  0  0
  149.7950  141.7249  156.5897 H   0  0  0  0  0  0  0  0  0  0  0  0
  147.6339  139.1028  155.0768 H   0  0  0  0  0  0  0  0  0  0  0  0
  149.0921  136.5850  153.2379 H   0  0  0  0  0  0  0  0  0  0  0  0
  148.4790  134.7204  153.3189 H   0  0  0  0  0  0  0  0  0  0  0  0
  148.5193  133.2858  155.9103 H   0  0  0  0  0  0  0  0  0  0  0  0
  147.0291  133.3409  155.0005 H   0  0  0  0  0  0  0  0  0  0  0  0
  149.4145  132.5428  153.4047 H   0  0  0  0  0  0  0  0  0  0  0  0
  148.9672  131.3675  154.6174 H   0  0  0  0  0  0  0  0  0  0  0  0
  147.0288  130.0221  154.3454 H   0  0  0  0  0  0  0  0  0  0  0  0
  146.0400  131.4415  154.6221 H   0  0  0  0  0  0  0  0  0  0  0  0
  144.6548  129.8579  153.4842 H   0  0  0  0  0  0  0  0  0  0  0  0
  146.3035  128.3158  152.5480 H   0  0  0  0  0  0  0  0  0  0  0  0
  146.8181  129.4937  151.3537 H   0  0  0  0  0  0  0  0  0  0  0  0
  145.1884  128.8270  151.2880 H   0  0  0  0  0  0  0  0  0  0  0  0
  146.2729  131.5780  150.6615 H   0  0  0  0  0  0  0  0  0  0  0  0
  145.6086  133.9181  150.1203 H   0  0  0  0  0  0  0  0  0  0  0  0
  144.4079  133.8810  151.4104 H   0  0  0  0  0  0  0  0  0  0  0  0
  144.2351  132.8216  150.0137 H   0  0  0  0  0  0  0  0  0  0  0  0
  146.3148  133.4443  153.0962 H   0  0  0  0  0  0  0  0  0  0  0  0
  147.5173  133.3726  151.8239 H   0  0  0  0  0  0  0  0  0  0  0  0
  151.7901  136.7536  153.7987 H   0  0  0  0  0  0  0  0  0  0  0  0
  152.6404  137.6105  155.0987 H   0  0  0  0  0  0  0  0  0  0  0  0
  152.5909  138.2978  153.4616 H   0  0  0  0  0  0  0  0  0  0  0  0
  147.9424  131.0986  152.4400 H   0  0  0  0  0  0  0  0  0  0  0  0
  1  2  1  0  0  0  0
  1 22  1  0  0  0  0
  1 23  1  0  0  0  0
  1 24  1  0  0  0  0
  2 21  2  0  0  0  0
  2  3  1  0  0  0  0
  3  4  2  0  0  0  0
  3 25  1  0  0  0  0
  4  5  1  0  0  0  0
  4 19  1  0  0  0  0
  5  6  1  0  0  0  0
  5 26  1  0  0  0  0
  6  7  2  0  0  0  0
  6  8  1  0  0  0  0
  8  9  1  0  0  0  0
  8 27  1  0  0  0  0
  9 10  1  0  0  0  0
  9 28  1  0  0  0  0
  9 29  1  0  0  0  0
 10 11  1  0  0  0  0
 10 30  1  0  0  0  0
 10 31  1  0  0  0  0
 11 18  1  0  0  0  0
 11 12  1  0  0  0  0
 11 47  1  0  0  0  0
 12 13  1  0  0  0  0
 12 32  1  0  0  0  0
 12 33  1  0  0  0  0
 13 14  1  0  0  0  0
 13 15  1  0  0  0  0
 13 34  1  0  0  0  0
 14 35  1  0  0  0  0
 14 36  1  0  0  0  0
 14 37  1  0  0  0  0
 15 16  1  0  0  0  0
 16 17  1  0  0  0  0
 16 18  1  0  0  0  0
 16 38  1  0  0  0  0
 17 39  1  0  0  0  0
 17 40  1  0  0  0  0
 17 41  1  0  0  0  0
 18 42  1  0  0  0  0
 18 43  1  0  0  0  0
 19 20  1  0  0  0  0
 19 21  1  0  0  0  0
 20 44  1  0  0  0  0
 20 45  1  0  0  0  0
 20 46  1  0  0  0  0
M  CHG  1  11   1
M  END
> <s_m_source_file>
AV-unprocessed.smi

> <i_m_source_file_index>
1247

> <i_lp_mmshare_version>
43012

> <i_f3d_flags>
0

> <s_epik_input>
W0NIM11jMVtjSF1jKG4objEpW0NIM10pW05IXUMoPU8pW05IXVtDSDJdW0NIMl1OMltDSDJdW0NAQEhdKFtDSDNdKU9bQ0BASF0oW0NIM10pW0NIMl0y

> <s_epik_cmdline>
J2VwaWtfcHl0aG9uJywgJy1waCcsICc3LjAnLCAnLXRuJywgJzgnLCAnLW1hJywgJzIwMCcsICctbWV0YWxfYmluZGluZycsICctaW1hZScsICc8aW5maWxlLm1hZT4nLCAnLW9tYWUnLCAnPG91dGZpbGUubWFlPic=

> <r_lp_tautomer_probability>
1

> <r_epik_Ionization_Penalty>
0.663902

> <r_epik_Ionization_Penalty_Charging>
0.663826

> <r_epik_Ionization_Penalty_Neutral>
7.65444e-05

> <r_epik_State_Penalty>
0.683414

> <r_epik_Charging_Adjusted_Penalty>
1.34724

> <i_epik_Tot_Q>
1

> <i_epik_Tot_abs_Q>
1

> <r_epik_Metal_State_Penalty>
0.683419

> <b_epik_Metal_Only>
0

> <s_lp_Force_Field>
OPLS_2005

> <r_lp_Energy>
19.2404

> <b_lp_Chiralities_Consistent>
1

> <s_lp_Variant>
AV-unprocessed.smi:1247-5

> <Gold.Version>
5.8.1

> <Gold.Id.Protein>
6NUR|6NUR_protein|mol2

> <Gold.PLP.Fitness>
45.0624

> <Gold.PLP.PLP>
-35.9009

> <Gold.PLP.part.hbond>
-4.2126

> <Gold.PLP.part.metal>
0.0000

> <Gold.PLP.part.buried>
-1.9768

> <Gold.PLP.part.nonpolar>
-30.3478

> <Gold.PLP.part.repulsive>
0.2550

> <Gold.PLP.ligand.clash>
0.0000

> <Gold.PLP.ligand.torsion>
1.2637

> <Gold.PLP.Chemscore.Hbond>
3.8664

> <Gold.PLP.Chemscore.CHOScore>
0.0000

> <Gold.PLP.Chemscore.Metal>
0.0000

> <Gold.Chemscore.Hbonds>
donor molecule, donor type, donor heavy atom, donor atom, acceptor molecule, acceptor atom, score
      L1  H     5    26       P1  7948  0.70
      L1  H     8    27       P1  7948  0.59
      L1  H    11    47       P1 10747  0.08
      P1  H  7989  7998       L1    21  1.00

> <Gold.PLP.Chemscore.Internal.Correction>
0.0897

> <Gold.Rescore>
     Score         DG    S(hbond)    S(metal)    S(lipo)     H(rot)  DE(clash)    DE(int)     intcor
     16.87     -18.26       2.27        0.00      77.81       1.52       0.10       1.30       ----

> <Gold.Chemscore.Fitness>
16.8703

> <Gold.Chemscore.DG>
-18.2623

> <Gold.Chemscore.ZeroCoef>
-5.4800

> <Gold.Chemscore.Hbond>
2.2682

> <Gold.Chemscore.Metal>
0.0000

> <Gold.Chemscore.Lipo>
77.8055

> <Gold.Chemscore.Internal_Hbond>
0.0000

> <Gold.Chemscore.DEClash>
0.0953

> <Gold.Chemscore.DEInternal>
1.2967

> <Gold.Chemscore.Rot>
1.5221

> <Gold.Chemscore.Internal.Correction>
   9.000000E+99

> <Gold.Chemscore.Hbonds>
donor molecule, donor type, donor heavy atom, donor atom, acceptor molecule, acceptor atom, score
      L1  H     5    26       P1  7948  0.68
      L1  H     8    27       P1  7948  0.34
      L1  H    11    47       P1 10747  0.11
      P1  H  7989  7998       L1    21  0.57

> <Gold.Chemscore.Hbond.Weighted>
-7.5758

> <Gold.Chemscore.Metal.Weighted>
-0.0000

> <Gold.Chemscore.Lipo.Weighted>
-9.1032

> <Gold.Chemscore.Internal_Hbond.Weighted>
0.0000

> <Gold.Chemscore.DEClash.Weighted>
0.0953

> <Gold.Chemscore.DEInternal.Weighted>
1.2967

> <Gold.Chemscore.Rot.Weighted>
3.8967

> <Gold.Chemscore.Internal.Correction.Weighted>
   9.000000E+99

> <Gold.Protein.RotatedTorsions>
[ 6907 6896 6895 6894 ] final -140.23 input  -60.11 | X-H torsion
[ 7974 7965 7964 7962 ] final -146.51 input  175.53 | X-H torsion
[ 8008 7997 7996 7995 ] final  179.16 input   59.86 | X-H torsion
[ 10167 10162 10161 10158 ] final   12.38 input  -65.29 | X-H torsion
[ 10718 10713 10712 10709 ] final  166.01 input   66.30 | X-H torsion
[ 10763 10752 10751 10750 ] final -162.21 input  -60.55 | X-H torsion
[ 11005 11000 10999 10996 ] final -156.36 input  -57.11 | X-H torsion

> <Gold.Protein.ActiveResidues>
 VAL166  LYS551  ARG553  GLY616  TRP617  ASP618  TYR619  PRO620  LYS621  CYS622 
 ASP623  PHE694  ASN695  SER759  ASP760  ASP761  ALA762  ILE779  LEU786  VAL792 
 PHE793  MET794  SER795  GLU796  ALA797  LYS798  CYS799  TRP800  GLU811  SER814 

> <Gold.Protein.RotatedAtoms>
  151.0580  133.5568  159.2636 H   0  0  0  0  0  0  0  0  0  0  0  0  # atno 6907 bound_to 6896
  151.2554  135.0635  159.9088 H   0  0  0  0  0  0  0  0  0  0  0  0  # atno 6908 bound_to 6896
  152.5393  134.0333  159.8088 H   0  0  0  0  0  0  0  0  0  0  0  0  # atno 6909 bound_to 6896
  144.8155  140.5447  143.5614 H   0  0  0  0  0  0  0  0  0  0  0  0  # atno 7974 bound_to 7965
  156.0465  140.1315  157.0098 H   0  0  0  0  0  0  0  0  0  0  0  0  # atno 8008 bound_to 7997
  154.4415  140.1019  156.6384 H   0  0  0  0  0  0  0  0  0  0  0  0  # atno 8009 bound_to 7997
  155.5588  140.3464  155.4488 H   0  0  0  0  0  0  0  0  0  0  0  0  # atno 8010 bound_to 7997
  140.6072  143.8484  150.7026 H   0  0  0  0  0  0  0  0  0  0  0  0  # atno 10167 bound_to 10162
  157.0720  131.0369  151.2608 H   0  0  0  0  0  0  0  0  0  0  0  0  # atno 10718 bound_to 10713
  154.7235  135.3030  154.9009 H   0  0  0  0  0  0  0  0  0  0  0  0  # atno 10763 bound_to 10752
  153.9874  135.6723  153.4756 H   0  0  0  0  0  0  0  0  0  0  0  0  # atno 10764 bound_to 10752
  153.0854  135.4987  154.8505 H   0  0  0  0  0  0  0  0  0  0  0  0  # atno 10765 bound_to 10752
  140.6764  134.4192  157.5229 H   0  0  0  0  0  0  0  0  0  0  0  0  # atno 11005 bound_to 11000
  145.5225  139.1476  143.3544 LP  0  0  0  0  0  0  0  0  0  0  0  0  # atno 17320 bound_to 7965
  146.2457  140.5366  142.8915 LP  0  0  0  0  0  0  0  0  0  0  0  0  # atno 17321 bound_to 7965
  140.2044  143.3933  152.1767 LP  0  0  0  0  0  0  0  0  0  0  0  0  # atno 17342 bound_to 10162
  139.5333  144.7183  151.4979 LP  0  0  0  0  0  0  0  0  0  0  0  0  # atno 17343 bound_to 10162
  157.4870  130.7799  149.7470 LP  0  0  0  0  0  0  0  0  0  0  0  0  # atno 17370 bound_to 10713
  155.9947  130.3916  150.2846 LP  0  0  0  0  0  0  0  0  0  0  0  0  # atno 17371 bound_to 10713
  139.8965  134.8657  156.2083 LP  0  0  0  0  0  0  0  0  0  0  0  0  # atno 17394 bound_to 11000
  141.0352  133.6967  156.1500 LP  0  0  0  0  0  0  0  0  0  0  0  0  # atno 17395 bound_to 11000

$$$$
