AV-unprocessed.smi:1639|AV-procd|sdf|6548|dock1
  -GOLD-   22720 7233D 1   1.00000     0.00000
 Structure written by MMmdl.
 37 38  0  0  0  0  0  0  0  0  1 V2000
  153.7356  142.2797  162.4487 C   0  0  0  0  0  0  0  0  0  0  0  0
  152.5426  143.2053  162.2019 C   0  0  0  0  0  0  0  0  0  0  0  0
  151.6971  142.6097  161.2288 O   0  0  0  0  0  0  0  0  0  0  0  0
  152.0945  142.8357  159.8822 C   0  0  2  0  0  0  0  0  0  0  0  0
  151.8598  144.3235  159.5764 C   0  0  0  0  0  0  0  0  0  0  0  0
  152.1935  144.6220  158.1083 C   0  0  0  0  0  0  0  0  0  0  0  0
  151.3900  143.7118  157.1654 C   0  0  0  0  0  0  0  0  0  0  0  0
  151.5741  142.3010  157.5100 N   0  0  0  0  0  0  0  0  0  0  0  0
  151.1855  141.3783  156.5143 C   0  0  0  0  0  0  0  0  0  0  0  0
  151.8211  140.1180  156.4034 C   0  0  0  0  0  0  0  0  0  0  0  0
  151.3679  139.2625  155.3770 C   0  0  0  0  0  0  0  0  0  0  0  0
  151.9756  137.8920  155.1671 C   0  0  0  0  0  0  0  0  0  0  0  0
  150.3764  139.6229  154.5343 N   0  0  0  0  0  0  0  0  0  0  0  0
  149.8411  140.8287  154.7269 C   0  0  0  0  0  0  0  0  0  0  0  0
  148.8302  141.1958  153.8729 N   0  0  0  0  0  0  0  0  0  0  0  0
  150.1854  141.7163  155.6614 N   0  0  0  0  0  0  0  0  0  0  0  0
  151.2888  141.9529  158.9048 C   0  0  0  0  0  0  0  0  0  0  0  0
  154.4075  142.7018  163.1962 H   0  0  0  0  0  0  0  0  0  0  0  0
  154.3075  142.1258  161.5334 H   0  0  0  0  0  0  0  0  0  0  0  0
  153.4063  141.3042  162.8073 H   0  0  0  0  0  0  0  0  0  0  0  0
  151.9972  143.3580  163.1344 H   0  0  0  0  0  0  0  0  0  0  0  0
  152.8991  144.1780  161.8633 H   0  0  0  0  0  0  0  0  0  0  0  0
  153.1605  142.6279  159.7723 H   0  0  0  0  0  0  0  0  0  0  0  0
  150.8194  144.5839  159.7757 H   0  0  0  0  0  0  0  0  0  0  0  0
  152.4695  144.9445  160.2333 H   0  0  0  0  0  0  0  0  0  0  0  0
  151.9859  145.6682  157.8829 H   0  0  0  0  0  0  0  0  0  0  0  0
  153.2607  144.4738  157.9384 H   0  0  0  0  0  0  0  0  0  0  0  0
  150.3279  143.9500  157.2369 H   0  0  0  0  0  0  0  0  0  0  0  0
  151.6875  143.9207  156.1388 H   0  0  0  0  0  0  0  0  0  0  0  0
  152.6071  139.8084  157.0756 H   0  0  0  0  0  0  0  0  0  0  0  0
  152.4682  137.5412  156.0746 H   0  0  0  0  0  0  0  0  0  0  0  0
  152.7146  137.9275  154.3665 H   0  0  0  0  0  0  0  0  0  0  0  0
  151.2086  137.1655  154.8967 H   0  0  0  0  0  0  0  0  0  0  0  0
  148.5249  140.5679  153.1437 H   0  0  0  0  0  0  0  0  0  0  0  0
  148.3542  142.0775  153.9950 H   0  0  0  0  0  0  0  0  0  0  0  0
  151.5336  140.9045  159.0753 H   0  0  0  0  0  0  0  0  0  0  0  0
  150.2200  142.0702  159.0888 H   0  0  0  0  0  0  0  0  0  0  0  0
  1  2  1  0  0  0  0
  1 18  1  0  0  0  0
  1 19  1  0  0  0  0
  1 20  1  0  0  0  0
  2  3  1  0  0  0  0
  2 21  1  0  0  0  0
  2 22  1  0  0  0  0
  3  4  1  0  0  0  0
  4 17  1  0  0  0  0
  4  5  1  0  0  0  0
  4 23  1  0  0  0  0
  5  6  1  0  0  0  0
  5 24  1  0  0  0  0
  5 25  1  0  0  0  0
  6  7  1  0  0  0  0
  6 26  1  0  0  0  0
  6 27  1  0  0  0  0
  7  8  1  0  0  0  0
  7 28  1  0  0  0  0
  7 29  1  0  0  0  0
  8  9  1  0  0  0  0
  8 17  1  0  0  0  0
  9 16  1  0  0  0  0
  9 10  2  0  0  0  0
 10 11  1  0  0  0  0
 10 30  1  0  0  0  0
 11 12  1  0  0  0  0
 11 13  2  0  0  0  0
 12 31  1  0  0  0  0
 12 32  1  0  0  0  0
 12 33  1  0  0  0  0
 13 14  1  0  0  0  0
 14 15  1  0  0  0  0
 14 16  2  0  0  0  0
 15 34  1  0  0  0  0
 15 35  1  0  0  0  0
 17 36  1  0  0  0  0
 17 37  1  0  0  0  0
M  END
> <s_m_source_file>
AV-unprocessed.smi

> <i_m_source_file_index>
1639

> <i_lp_mmshare_version>
43012

> <i_f3d_flags>
0

> <s_epik_input>
W0NIM11bQ0gyXU9bQ0BASF0xW0NIMl1bQ0gyXVtDSDJdTihbQ0gyXTEpYzJbY0hdYyhbQ0gzXSluYyhuMilbTkgyXQ==

> <s_epik_cmdline>
J2VwaWtfcHl0aG9uJywgJy1waCcsICc3LjAnLCAnLXRuJywgJzgnLCAnLW1hJywgJzIwMCcsICctbWV0YWxfYmluZGluZycsICctaW1hZScsICc8aW5maWxlLm1hZT4nLCAnLW9tYWUnLCAnPG91dGZpbGUubWFlPic=

> <r_lp_tautomer_probability>
1

> <r_epik_Ionization_Penalty>
0.383805

> <r_epik_Ionization_Penalty_Charging>
0

> <r_epik_Ionization_Penalty_Neutral>
0.383805

> <r_epik_State_Penalty>
0.0922942

> <r_epik_Charging_Adjusted_Penalty>
0.0922942

> <i_epik_Tot_Q>
0

> <i_epik_Tot_abs_Q>
0

> <r_epik_Metal_State_Penalty>
0.050432

> <b_epik_Metal_Only>
0

> <s_lp_Force_Field>
OPLS_2005

> <r_lp_Energy>
9.62656

> <b_lp_Chiralities_Consistent>
1

> <s_lp_Variant>
AV-unprocessed.smi:1639-1

> <Gold.Version>
5.8.1

> <Gold.Id.Protein>
6NUR|6NUR_protein|mol2

> <Gold.PLP.Fitness>
40.8254

> <Gold.PLP.PLP>
-39.3162

> <Gold.PLP.part.hbond>
-3.1425

> <Gold.PLP.part.metal>
0.0000

> <Gold.PLP.part.buried>
0.0661

> <Gold.PLP.part.nonpolar>
-35.6046

> <Gold.PLP.part.repulsive>
1.7085

> <Gold.PLP.ligand.clash>
0.0000

> <Gold.PLP.ligand.torsion>
0.6074

> <Gold.PLP.Chemscore.Hbond>
0.7636

> <Gold.PLP.Chemscore.CHOScore>
0.0000

> <Gold.PLP.Chemscore.Metal>
0.0000

> <Gold.Chemscore.Hbonds>
donor molecule, donor type, donor heavy atom, donor atom, acceptor molecule, acceptor atom, score
      L1  H    15    34       P1  7957  0.16
      P1  H  6933  6945       L1     3  0.38

> <Gold.PLP.Chemscore.Internal.Correction>
0.4332

> <Gold.Rescore>
     Score         DG    S(hbond)    S(metal)    S(lipo)     H(rot)  DE(clash)    DE(int)     intcor
     14.94     -15.95       0.81        0.00      97.60       1.43       0.46       0.55       ----

> <Gold.Chemscore.Fitness>
14.9377

> <Gold.Chemscore.DG>
-15.9465

> <Gold.Chemscore.ZeroCoef>
-5.4800

> <Gold.Chemscore.Hbond>
0.8104

> <Gold.Chemscore.Metal>
0.0000

> <Gold.Chemscore.Lipo>
97.5950

> <Gold.Chemscore.Internal_Hbond>
0.0000

> <Gold.Chemscore.DEClash>
0.4565

> <Gold.Chemscore.DEInternal>
0.5523

> <Gold.Chemscore.Rot>
1.4293

> <Gold.Chemscore.Internal.Correction>
   9.000000E+99

> <Gold.Chemscore.Hbonds>
donor molecule, donor type, donor heavy atom, donor atom, acceptor molecule, acceptor atom, score
      L1  H    15    34       P1  7957  0.16
      P1  H  6933  6945       L1     3  0.24

> <Gold.Chemscore.Hbond.Weighted>
-2.7069

> <Gold.Chemscore.Metal.Weighted>
-0.0000

> <Gold.Chemscore.Lipo.Weighted>
-11.4186

> <Gold.Chemscore.Internal_Hbond.Weighted>
0.0000

> <Gold.Chemscore.DEClash.Weighted>
0.4565

> <Gold.Chemscore.DEInternal.Weighted>
0.5523

> <Gold.Chemscore.Rot.Weighted>
3.6589

> <Gold.Chemscore.Internal.Correction.Weighted>
   9.000000E+99

> <Gold.Protein.RotatedTorsions>
[ 6907 6896 6895 6894 ] final  -30.28 input  -60.11 | X-H torsion
[ 7974 7965 7964 7962 ] final   23.67 input  175.53 | X-H torsion
[ 8008 7997 7996 7995 ] final   43.37 input   59.86 | X-H torsion
[ 10167 10162 10161 10158 ] final  -17.28 input  -65.29 | X-H torsion
[ 10718 10713 10712 10709 ] final  125.96 input   66.30 | X-H torsion
[ 10763 10752 10751 10750 ] final  -44.91 input  -60.55 | X-H torsion
[ 11005 11000 10999 10996 ] final  123.93 input  -57.11 | X-H torsion

> <Gold.Protein.ActiveResidues>
 VAL166  LYS551  ARG553  GLY616  TRP617  ASP618  TYR619  PRO620  LYS621  CYS622 
 ASP623  PHE694  ASN695  SER759  ASP760  ASP761  ALA762  ILE779  LEU786  VAL792 
 PHE793  MET794  SER795  GLU796  ALA797  LYS798  CYS799  TRP800  GLU811  SER814 

> <Gold.Protein.RotatedAtoms>
  151.1077  135.0009  159.8478 H   0  0  0  0  0  0  0  0  0  0  0  0  # atno 6907 bound_to 6896
  152.5441  134.1873  159.8670 H   0  0  0  0  0  0  0  0  0  0  0  0  # atno 6908 bound_to 6896
  151.1921  133.4616  159.2628 H   0  0  0  0  0  0  0  0  0  0  0  0  # atno 6909 bound_to 6896
  146.1973  139.7711  142.8787 H   0  0  0  0  0  0  0  0  0  0  0  0  # atno 7974 bound_to 7965
  155.3016  140.3385  155.4247 H   0  0  0  0  0  0  0  0  0  0  0  0  # atno 8008 bound_to 7997
  156.1998  140.1728  156.7961 H   0  0  0  0  0  0  0  0  0  0  0  0  # atno 8009 bound_to 7997
  154.5545  140.0699  156.8705 H   0  0  0  0  0  0  0  0  0  0  0  0  # atno 8010 bound_to 7997
  140.7245  143.5031  150.9844 H   0  0  0  0  0  0  0  0  0  0  0  0  # atno 10167 bound_to 10162
  157.5459  131.1095  150.8783 H   0  0  0  0  0  0  0  0  0  0  0  0  # atno 10718 bound_to 10713
  154.0198  135.6670  153.4771 H   0  0  0  0  0  0  0  0  0  0  0  0  # atno 10763 bound_to 10752
  153.0585  135.5042  154.8033 H   0  0  0  0  0  0  0  0  0  0  0  0  # atno 10764 bound_to 10752
  154.6944  135.3067  154.9397 H   0  0  0  0  0  0  0  0  0  0  0  0  # atno 10765 bound_to 10752
  139.9335  134.9640  156.8333 H   0  0  0  0  0  0  0  0  0  0  0  0  # atno 11005 bound_to 11000
  145.3601  141.0324  143.3290 LP  0  0  0  0  0  0  0  0  0  0  0  0  # atno 17320 bound_to 7965
  144.8608  139.5181  143.6813 LP  0  0  0  0  0  0  0  0  0  0  0  0  # atno 17321 bound_to 7965
  139.8741  143.7154  152.3163 LP  0  0  0  0  0  0  0  0  0  0  0  0  # atno 17342 bound_to 10162
  139.7414  144.7558  151.0647 LP  0  0  0  0  0  0  0  0  0  0  0  0  # atno 17343 bound_to 10162
  156.9322  130.5354  149.5279 LP  0  0  0  0  0  0  0  0  0  0  0  0  # atno 17370 bound_to 10713
  156.0535  130.5600  150.9041 LP  0  0  0  0  0  0  0  0  0  0  0  0  # atno 17371 bound_to 10713
  140.6138  134.0058  155.7588 LP  0  0  0  0  0  0  0  0  0  0  0  0  # atno 17394 bound_to 11000
  141.0937  133.9877  157.3196 LP  0  0  0  0  0  0  0  0  0  0  0  0  # atno 17395 bound_to 11000

$$$$
