AV-unprocessed.smi:2059|AV-procd|sdf|8353|dock2
  -GOLD-   2272011 23D 1   1.00000     0.00000
 Structure written by MMmdl.
 29 30  0  0  0  0  0  0  0  0  2 V2000
  145.9402  131.4106  151.6276 C   0  0  0  0  0  0  0  0  0  0  0  0
  146.9095  132.0469  152.5636 C   0  0  0  0  0  0  0  0  0  0  0  0
  147.7339  133.1308  152.4527 C   0  0  0  0  0  0  0  0  0  0  0  0
  148.3812  133.1784  153.7169 C   0  0  0  0  0  0  0  0  0  0  0  0
  149.3340  134.2018  153.9901 N   0  0  0  0  0  0  0  0  0  0  0  0
  150.2966  134.3017  154.9321 C   0  0  0  0  0  0  0  0  0  0  0  0
  150.3731  133.3400  155.7037 O   0  0  0  0  0  0  0  0  0  0  0  0
  151.0737  135.4235  154.9501 N   0  5  0  0  0  0  0  0  0  0  0  0
  150.5873  136.7876  155.1699 C   0  0  1  0  0  0  0  0  0  0  0  0
  150.3671  137.0517  156.6725 C   0  0  0  0  0  0  0  0  0  0  0  0
  150.2032  138.5635  156.8882 C   0  0  0  0  0  0  0  0  0  0  0  0
  151.2371  139.3662  155.6021 S   0  0  0  0  0  0  0  0  0  0  0  0
  150.3885  140.2581  154.7959 O   0  0  0  0  0  0  0  0  0  0  0  0
  152.4829  139.8603  156.2092 O   0  0  0  0  0  0  0  0  0  0  0  0
  151.5935  137.8312  154.6603 C   0  0  0  0  0  0  0  0  0  0  0  0
  147.9830  132.2055  154.5248 N   0  0  0  0  0  0  0  0  0  0  0  0
  147.0392  131.4774  153.7916 O   0  0  0  0  0  0  0  0  0  0  0  0
  146.1868  131.6473  150.5925 H   0  0  0  0  0  0  0  0  0  0  0  0
  144.9277  131.7630  151.8234 H   0  0  0  0  0  0  0  0  0  0  0  0
  145.9488  130.3259  151.7366 H   0  0  0  0  0  0  0  0  0  0  0  0
  147.8532  133.7852  151.6020 H   0  0  0  0  0  0  0  0  0  0  0  0
  149.2721  135.0002  153.3762 H   0  0  0  0  0  0  0  0  0  0  0  0
  149.6350  136.9650  154.6674 H   0  0  0  0  0  0  0  0  0  0  0  0
  149.5102  136.4992  157.0595 H   0  0  0  0  0  0  0  0  0  0  0  0
  151.2412  136.7141  157.2320 H   0  0  0  0  0  0  0  0  0  0  0  0
  149.1686  138.8759  156.7388 H   0  0  0  0  0  0  0  0  0  0  0  0
  150.5215  138.8838  157.8801 H   0  0  0  0  0  0  0  0  0  0  0  0
  152.6191  137.5345  154.8833 H   0  0  0  0  0  0  0  0  0  0  0  0
  151.5084  138.0159  153.5896 H   0  0  0  0  0  0  0  0  0  0  0  0
  1  2  1  0  0  0  0
  1 18  1  0  0  0  0
  1 19  1  0  0  0  0
  1 20  1  0  0  0  0
  2 17  1  0  0  0  0
  2  3  2  0  0  0  0
  3  4  1  0  0  0  0
  3 21  1  0  0  0  0
  4  5  1  0  0  0  0
  4 16  2  0  0  0  0
  5  6  1  0  0  0  0
  5 22  1  0  0  0  0
  6  7  2  0  0  0  0
  6  8  1  0  0  0  0
  8  9  1  0  0  0  0
  9 15  1  0  0  0  0
  9 10  1  0  0  0  0
  9 23  1  0  0  0  0
 10 11  1  0  0  0  0
 10 24  1  0  0  0  0
 10 25  1  0  0  0  0
 11 12  1  0  0  0  0
 11 26  1  0  0  0  0
 11 27  1  0  0  0  0
 12 13  2  0  0  0  0
 12 14  2  0  0  0  0
 12 15  1  0  0  0  0
 15 28  1  0  0  0  0
 15 29  1  0  0  0  0
 16 17  1  0  0  0  0
M  CHG  1   8  -1
M  END
> <s_m_source_file>
AV-unprocessed.smi

> <i_m_source_file_index>
2059

> <i_lp_mmshare_version>
43012

> <i_f3d_flags>
0

> <s_epik_input>
W0NIM11jMVtjSF1jKG5vMSlbTkhdQyg9TylbTkhdW0NAQEhdKFtDSDJdMilbQ0gyXVtDSDJdUzIoPU8pPU8=

> <s_epik_cmdline>
J2VwaWtfcHl0aG9uJywgJy1waCcsICc3LjAnLCAnLXRuJywgJzgnLCAnLW1hJywgJzIwMCcsICctbWV0YWxfYmluZGluZycsICctaW1hZScsICc8aW5maWxlLm1hZT4nLCAnLW9tYWUnLCAnPG91dGZpbGUubWFlPic=

> <r_lp_tautomer_probability>
1

> <r_epik_Ionization_Penalty>
6.6071

> <r_epik_Ionization_Penalty_Charging>
6.60709

> <r_epik_Ionization_Penalty_Neutral>
5.42629e-06

> <r_epik_State_Penalty>
6.6352

> <r_epik_Charging_Adjusted_Penalty>
13.2423

> <i_epik_Tot_Q>
-1

> <i_epik_Tot_abs_Q>
1

> <r_epik_Metal_State_Penalty>
2.57602

> <b_epik_Metal_Only>
1

> <s_lp_Force_Field>
OPLS_2005

> <r_lp_Energy>
11.3948

> <b_lp_Chiralities_Consistent>
1

> <s_lp_Variant>
AV-unprocessed.smi:2059-6

> <Gold.Version>
5.8.1

> <Gold.Id.Protein>
6NUR|6NUR_protein|mol2

> <Gold.PLP.Fitness>
37.3140

> <Gold.PLP.PLP>
-24.7766

> <Gold.PLP.part.hbond>
-4.0000

> <Gold.PLP.part.metal>
0.0000

> <Gold.PLP.part.buried>
-4.1777

> <Gold.PLP.part.nonpolar>
-17.2471

> <Gold.PLP.part.repulsive>
0.3831

> <Gold.PLP.ligand.clash>
0.0000

> <Gold.PLP.ligand.torsion>
0.9337

> <Gold.PLP.Chemscore.Hbond>
4.8000

> <Gold.PLP.Chemscore.CHOScore>
0.0000

> <Gold.PLP.Chemscore.Metal>
0.0000

> <Gold.Chemscore.Hbonds>
donor molecule, donor type, donor heavy atom, donor atom, acceptor molecule, acceptor atom, score
      L1  H     5    22       P1  7948  0.70
      P1  H  7989  7998       L1    13  1.00
      P1  H  7997  8008       L1    14  1.00
      P1  H 10752 10765       L1     8  1.98

> <Gold.PLP.Chemscore.Internal.Correction>
0.0047

> <Gold.Rescore>
     Score         DG    S(hbond)    S(metal)    S(lipo)     H(rot)  DE(clash)    DE(int)     intcor
     13.89     -16.11       2.60        0.00      38.50       1.00       0.07       2.15       ----

> <Gold.Chemscore.Fitness>
13.8896

> <Gold.Chemscore.DG>
-16.1088

> <Gold.Chemscore.ZeroCoef>
-5.4800

> <Gold.Chemscore.Hbond>
2.6002

> <Gold.Chemscore.Metal>
0.0000

> <Gold.Chemscore.Lipo>
38.4963

> <Gold.Chemscore.Internal_Hbond>
0.0000

> <Gold.Chemscore.DEClash>
0.0731

> <Gold.Chemscore.DEInternal>
2.1460

> <Gold.Chemscore.Rot>
1.0000

> <Gold.Chemscore.Internal.Correction>
   9.000000E+99

> <Gold.Chemscore.Hbonds>
donor molecule, donor type, donor heavy atom, donor atom, acceptor molecule, acceptor atom, score
      L1  H     5    22       P1  7948  0.07
      P1  H  7989  7998       L1    13  0.34
      P1  H  7997  8008       L1    14  0.96
      P1  H 10752 10765       L1     8  0.51

> <Gold.Chemscore.Hbond.Weighted>
-8.6847

> <Gold.Chemscore.Metal.Weighted>
-0.0000

> <Gold.Chemscore.Lipo.Weighted>
-4.5041

> <Gold.Chemscore.Internal_Hbond.Weighted>
0.0000

> <Gold.Chemscore.DEClash.Weighted>
0.0731

> <Gold.Chemscore.DEInternal.Weighted>
2.1460

> <Gold.Chemscore.Rot.Weighted>
2.5600

> <Gold.Chemscore.Internal.Correction.Weighted>
   9.000000E+99

> <Gold.Protein.RotatedTorsions>
[ 6907 6896 6895 6894 ] final  142.24 input  -60.11 | X-H torsion
[ 7974 7965 7964 7962 ] final -159.10 input  175.53 | X-H torsion
[ 8008 7997 7996 7995 ] final  -25.09 input   59.86 | X-H torsion
[ 10167 10162 10161 10158 ] final -178.82 input  -65.29 | X-H torsion
[ 10718 10713 10712 10709 ] final -120.04 input   66.30 | X-H torsion
[ 10763 10752 10751 10750 ] final  172.43 input  -60.55 | X-H torsion
[ 11005 11000 10999 10996 ] final -173.73 input  -57.11 | X-H torsion

> <Gold.Protein.ActiveResidues>
 VAL166  LYS551  ARG553  GLY616  TRP617  ASP618  TYR619  PRO620  LYS621  CYS622 
 ASP623  PHE694  ASN695  SER759  ASP760  ASP761  ALA762  ILE779  LEU786  VAL792 
 PHE793  MET794  SER795  GLU796  ALA797  LYS798  CYS799  TRP800  GLU811  SER814 

> <Gold.Protein.RotatedAtoms>
  152.2211  133.4984  159.5162 H   0  0  0  0  0  0  0  0  0  0  0  0  # atno 6907 bound_to 6896
  150.7013  134.1341  159.4089 H   0  0  0  0  0  0  0  0  0  0  0  0  # atno 6908 bound_to 6896
  151.9261  135.0277  160.0576 H   0  0  0  0  0  0  0  0  0  0  0  0  # atno 6909 bound_to 6896
  144.7479  140.3733  143.6071 H   0  0  0  0  0  0  0  0  0  0  0  0  # atno 7974 bound_to 7965
  154.4494  140.1936  156.0566 H   0  0  0  0  0  0  0  0  0  0  0  0  # atno 8008 bound_to 7997
  156.0614  140.3296  155.7439 H   0  0  0  0  0  0  0  0  0  0  0  0  # atno 8009 bound_to 7997
  155.5405  140.0586  157.2862 H   0  0  0  0  0  0  0  0  0  0  0  0  # atno 8010 bound_to 7997
  139.5414  144.2352  152.0903 H   0  0  0  0  0  0  0  0  0  0  0  0  # atno 10167 bound_to 10162
  156.1227  130.6335  150.9491 H   0  0  0  0  0  0  0  0  0  0  0  0  # atno 10718 bound_to 10713
  154.4259  135.2759  155.1945 H   0  0  0  0  0  0  0  0  0  0  0  0  # atno 10763 bound_to 10752
  154.3871  135.6074  153.5826 H   0  0  0  0  0  0  0  0  0  0  0  0  # atno 10764 bound_to 10752
  152.9834  135.5894  154.4562 H   0  0  0  0  0  0  0  0  0  0  0  0  # atno 10765 bound_to 10752
  140.4825  134.6062  157.4924 H   0  0  0  0  0  0  0  0  0  0  0  0  # atno 11005 bound_to 11000
  145.7055  139.1671  143.2569 LP  0  0  0  0  0  0  0  0  0  0  0  0  # atno 17320 bound_to 7965
  146.1385  140.7090  142.9378 LP  0  0  0  0  0  0  0  0  0  0  0  0  # atno 17321 bound_to 7965
  140.1831  144.4825  150.6518 LP  0  0  0  0  0  0  0  0  0  0  0  0  # atno 17342 bound_to 10162
  140.6646  143.2263  151.5774 LP  0  0  0  0  0  0  0  0  0  0  0  0  # atno 17343 bound_to 10162
  157.6410  131.0910  150.8251 LP  0  0  0  0  0  0  0  0  0  0  0  0  # atno 17370 bound_to 10713
  156.8345  130.5027  149.5328 LP  0  0  0  0  0  0  0  0  0  0  0  0  # atno 17371 bound_to 10713
  139.9818  134.7125  155.9846 LP  0  0  0  0  0  0  0  0  0  0  0  0  # atno 17394 bound_to 11000
  141.1524  133.6547  156.4055 LP  0  0  0  0  0  0  0  0  0  0  0  0  # atno 17395 bound_to 11000

$$$$
