AV-unprocessed.smi:34|AV-procd|sdf|220|dock2
  -GOLD-   2262015533D 1   1.00000     0.00000
 Structure written by MMmdl.
 55 59  0  0  0  0  0  0  0  0  1 V2000
  152.9775  140.0379  158.2165 O   0  0  0  0  0  0  0  0  0  0  0  0
  152.2083  140.9360  157.8727 C   0  0  0  0  0  0  0  0  0  0  0  0
  151.2578  140.7672  156.7876 N   0  0  0  0  0  0  0  0  0  0  0  0
  151.0997  139.6961  155.9748 C   0  0  0  0  0  0  0  0  0  0  0  0
  150.9720  139.8173  154.6274 N   0  0  0  0  0  0  0  0  0  0  0  0
  150.8232  138.7298  153.8662 C   0  0  0  0  0  0  0  0  0  0  0  0
  150.7751  137.4511  154.2432 N   0  0  0  0  0  0  0  0  0  0  0  0
  150.8958  137.3176  155.5949 C   0  0  0  0  0  0  0  0  0  0  0  0
  151.0571  138.3865  156.5207 C   0  0  0  0  0  0  0  0  0  0  0  0
  151.1457  137.8817  157.8112 N   0  0  0  0  0  0  0  0  0  0  0  0
  151.0458  136.5895  157.6522 C   0  0  0  0  0  0  0  0  0  0  0  0
  150.8994  136.1611  156.3517 N   0  0  0  0  0  0  0  0  0  0  0  0
  150.7807  134.7434  155.8796 C   0  0  1  0  0  0  0  0  0  0  0  0
  150.4463  133.9079  156.9460 O   0  0  0  0  0  0  0  0  0  0  0  0
  149.4373  132.9683  156.5667 C   0  0  1  0  0  0  0  0  0  0  0  0
  148.1490  133.2803  157.3420 C   0  0  0  0  0  0  0  0  0  0  0  0
  148.4861  133.7610  158.6333 O   0  0  0  0  0  0  0  0  0  0  0  0
  148.2060  135.0333  158.9777 C   0  0  0  0  0  0  0  0  0  0  0  0
  148.1708  135.9673  158.1739 O   0  0  0  0  0  0  0  0  0  0  0  0
  147.9494  135.1958  160.4376 C   0  0  0  0  0  0  0  0  0  0  0  0
  147.8092  134.0456  161.2487 C   0  0  0  0  0  0  0  0  0  0  0  0
  147.5658  134.1674  162.6306 C   0  0  0  0  0  0  0  0  0  0  0  0
  147.4600  135.4415  163.2183 C   0  0  0  0  0  0  0  0  0  0  0  0
  147.5971  136.5936  162.4223 C   0  0  0  0  0  0  0  0  0  0  0  0
  147.8393  136.4736  161.0399 C   0  0  0  0  0  0  0  0  0  0  0  0
  149.2618  133.1390  155.0534 C   0  0  2  0  0  0  0  0  0  0  0  0
  150.0761  132.2967  154.4146 F   0  0  0  0  0  0  0  0  0  0  0  0
  149.7134  134.5633  154.7930 C   0  0  1  0  0  0  0  0  0  0  0  0
  148.6347  135.4774  154.8790 O   0  0  0  0  0  0  0  0  0  0  0  0
  152.1377  142.2393  158.6136 C   0  0  0  0  0  0  0  0  0  0  0  0
  151.5594  143.3716  157.9971 C   0  0  0  0  0  0  0  0  0  0  0  0
  151.4770  144.5960  158.6884 C   0  0  0  0  0  0  0  0  0  0  0  0
  151.9639  144.6960  160.0053 C   0  0  0  0  0  0  0  0  0  0  0  0
  152.5298  143.5696  160.6318 C   0  0  0  0  0  0  0  0  0  0  0  0
  152.6138  142.3449  159.9410 C   0  0  0  0  0  0  0  0  0  0  0  0
  150.6346  141.5441  156.6217 H   0  0  0  0  0  0  0  0  0  0  0  0
  150.7308  138.9087  152.8049 H   0  0  0  0  0  0  0  0  0  0  0  0
  151.0844  135.9048  158.4870 H   0  0  0  0  0  0  0  0  0  0  0  0
  151.7801  134.4814  155.5295 H   0  0  0  0  0  0  0  0  0  0  0  0
  149.7636  131.9541  156.8012 H   0  0  0  0  0  0  0  0  0  0  0  0
  147.5439  134.0042  156.7959 H   0  0  0  0  0  0  0  0  0  0  0  0
  147.5489  132.3768  157.4535 H   0  0  0  0  0  0  0  0  0  0  0  0
  147.8871  133.0568  160.8199 H   0  0  0  0  0  0  0  0  0  0  0  0
  147.4603  133.2818  163.2399 H   0  0  0  0  0  0  0  0  0  0  0  0
  147.2738  135.5350  164.2780 H   0  0  0  0  0  0  0  0  0  0  0  0
  147.5168  137.5721  162.8724 H   0  0  0  0  0  0  0  0  0  0  0  0
  147.9372  137.3781  160.4574 H   0  0  0  0  0  0  0  0  0  0  0  0
  148.2516  132.9266  154.7007 H   0  0  0  0  0  0  0  0  0  0  0  0
  150.1718  134.6769  153.8100 H   0  0  0  0  0  0  0  0  0  0  0  0
  148.5075  135.8707  154.0290 H   0  0  0  0  0  0  0  0  0  0  0  0
  151.1800  143.3108  156.9871 H   0  0  0  0  0  0  0  0  0  0  0  0
  151.0391  145.4583  158.2077 H   0  0  0  0  0  0  0  0  0  0  0  0
  151.9001  145.6349  160.5353 H   0  0  0  0  0  0  0  0  0  0  0  0
  152.8976  143.6441  161.6446 H   0  0  0  0  0  0  0  0  0  0  0  0
  153.0436  141.4905  160.4435 H   0  0  0  0  0  0  0  0  0  0  0  0
  1  2  2  0  0  0  0
  2  3  1  0  0  0  0
  2 30  1  0  0  0  0
  3  4  1  0  0  0  0
  3 36  1  0  0  0  0
  4  9  1  0  0  0  0
  4  5  2  0  0  0  0
  5  6  1  0  0  0  0
  6  7  2  0  0  0  0
  6 37  1  0  0  0  0
  7  8  1  0  0  0  0
  8 12  1  0  0  0  0
  8  9  2  0  0  0  0
  9 10  1  0  0  0  0
 10 11  2  0  0  0  0
 11 12  1  0  0  0  0
 11 38  1  0  0  0  0
 12 13  1  0  0  0  0
 13 28  1  0  0  0  0
 13 14  1  0  0  0  0
 13 39  1  0  0  0  0
 14 15  1  0  0  0  0
 15 16  1  0  0  0  0
 15 26  1  0  0  0  0
 15 40  1  0  0  0  0
 16 17  1  0  0  0  0
 16 41  1  0  0  0  0
 16 42  1  0  0  0  0
 17 18  1  0  0  0  0
 18 19  2  0  0  0  0
 18 20  1  0  0  0  0
 20 25  1  0  0  0  0
 20 21  2  0  0  0  0
 21 22  1  0  0  0  0
 21 43  1  0  0  0  0
 22 23  2  0  0  0  0
 22 44  1  0  0  0  0
 23 24  1  0  0  0  0
 23 45  1  0  0  0  0
 24 25  2  0  0  0  0
 24 46  1  0  0  0  0
 25 47  1  0  0  0  0
 26 27  1  0  0  0  0
 26 28  1  0  0  0  0
 26 48  1  0  0  0  0
 28 29  1  0  0  0  0
 28 49  1  0  0  0  0
 29 50  1  0  0  0  0
 30 35  1  0  0  0  0
 30 31  2  0  0  0  0
 31 32  1  0  0  0  0
 31 51  1  0  0  0  0
 32 33  2  0  0  0  0
 32 52  1  0  0  0  0
 33 34  1  0  0  0  0
 33 53  1  0  0  0  0
 34 35  2  0  0  0  0
 34 54  1  0  0  0  0
 35 55  1  0  0  0  0
M  END
> <s_m_source_file>
AV-unprocessed.smi

> <i_m_source_file_index>
34

> <i_lp_mmshare_version>
43012

> <i_f3d_flags>
0

> <s_epik_input>
W2NIXTFbY0hdW2NIXVtjSF1bY0hdYzFDKD1PKVtOSF1jKG5bY0hdbjIpYyhjMjMpbltjSF1uM1tDQEBIXTRPW0NASF0oW0NAQEhdKEYpW0NASF00W09IXSlbQ0gyXU9DKD1PKWM1W2NIXVtjSF1bY0hdW2NIXVtjSF01

> <s_epik_cmdline>
J2VwaWtfcHl0aG9uJywgJy1waCcsICc3LjAnLCAnLXRuJywgJzgnLCAnLW1hJywgJzIwMCcsICctbWV0YWxfYmluZGluZycsICctaW1hZScsICc8aW5maWxlLm1hZT4nLCAnLW9tYWUnLCAnPG91dGZpbGUubWFlPic=

> <r_lp_tautomer_probability>
1

> <r_epik_Ionization_Penalty>
0.00257489

> <r_epik_Ionization_Penalty_Charging>
0

> <r_epik_Ionization_Penalty_Neutral>
0.00257489

> <r_epik_State_Penalty>
0.00519398

> <r_epik_Charging_Adjusted_Penalty>
0.00519398

> <i_epik_Tot_Q>
0

> <i_epik_Tot_abs_Q>
0

> <r_epik_Metal_State_Penalty>
0.335891

> <b_epik_Metal_Only>
0

> <s_epik_Chemistry_Notes>
This compound has an ester and may undergo hydrolysis at high or low pH. This compound contains an acetal/aminal-like group ( X-CH(R)-Y where X, Y are N, S, or O) that may be acid/base labile, releasing an aldehyde.

> <s_lp_Force_Field>
OPLS_2005

> <r_lp_Energy>
51.6643

> <b_lp_Chiralities_Consistent>
1

> <s_lp_Variant>
AV-unprocessed.smi:34-6

> <Gold.Version>
5.8.1

> <Gold.Id.Protein>
6NUR|6NUR_protein|mol2

> <Gold.PLP.Fitness>
67.5958

> <Gold.PLP.PLP>
-60.5088

> <Gold.PLP.part.hbond>
-3.5323

> <Gold.PLP.part.metal>
0.0000

> <Gold.PLP.part.buried>
-8.4780

> <Gold.PLP.part.nonpolar>
-48.8317

> <Gold.PLP.part.repulsive>
0.4476

> <Gold.PLP.ligand.clash>
0.0000

> <Gold.PLP.ligand.torsion>
2.1635

> <Gold.PLP.Chemscore.Hbond>
2.8984

> <Gold.PLP.Chemscore.CHOScore>
0.7981

> <Gold.PLP.Chemscore.Metal>
0.0000

> <Gold.Chemscore.Hbonds>
donor molecule, donor type, donor heavy atom, donor atom, acceptor molecule, acceptor atom, score
      L1  H    29    50       P1  7948  0.50
      P1  H  6896  6908       L1    14  0.20
      P1  H  7989  7998       L1     5  1.00
      P1  H  7997  8008       L1     1  1.00
      L1  C     6    37       P1  7957  0.91

> <Gold.PLP.Chemscore.Internal.Correction>
0.3244

> <Gold.Rescore>
     Score         DG    S(hbond)    S(metal)    S(lipo)     H(rot)  DE(clash)    DE(int)     intcor
     17.26     -23.94       2.72        0.00     139.66       2.72       0.42       6.26       ----

> <Gold.Chemscore.Fitness>
17.2645

> <Gold.Chemscore.DG>
-23.9394

> <Gold.Chemscore.ZeroCoef>
-5.4800

> <Gold.Chemscore.Hbond>
2.7205

> <Gold.Chemscore.Metal>
0.0000

> <Gold.Chemscore.Lipo>
139.6562

> <Gold.Chemscore.Internal_Hbond>
0.0000

> <Gold.Chemscore.DEClash>
0.4194

> <Gold.Chemscore.DEInternal>
6.2555

> <Gold.Chemscore.Rot>
2.7215

> <Gold.Chemscore.Internal.Correction>
   9.000000E+99

> <Gold.Chemscore.Hbonds>
donor molecule, donor type, donor heavy atom, donor atom, acceptor molecule, acceptor atom, score
      L1  H    29    50       P1  7948  0.49
      P1  H  6896  6908       L1    14  0.15
      P1  H  7989  7998       L1     5  0.26
      P1  H  7997  8008       L1     1  0.61

> <Gold.Chemscore.Hbond.Weighted>
-9.0866

> <Gold.Chemscore.Metal.Weighted>
-0.0000

> <Gold.Chemscore.Lipo.Weighted>
-16.3398

> <Gold.Chemscore.Internal_Hbond.Weighted>
0.0000

> <Gold.Chemscore.DEClash.Weighted>
0.4194

> <Gold.Chemscore.DEInternal.Weighted>
6.2555

> <Gold.Chemscore.Rot.Weighted>
6.9670

> <Gold.Chemscore.Internal.Correction.Weighted>
   9.000000E+99

> <Gold.Protein.RotatedTorsions>
[ 6907 6896 6895 6894 ] final  115.96 input  -60.11 | X-H torsion
[ 7974 7965 7964 7962 ] final  176.59 input  175.53 | X-H torsion
[ 8008 7997 7996 7995 ] final  -81.41 input   59.86 | X-H torsion
[ 10167 10162 10161 10158 ] final   37.17 input  -65.29 | X-H torsion
[ 10718 10713 10712 10709 ] final  -89.11 input   66.30 | X-H torsion
[ 10763 10752 10751 10750 ] final -164.18 input  -60.55 | X-H torsion
[ 11005 11000 10999 10996 ] final  -81.71 input  -57.11 | X-H torsion

> <Gold.Protein.ActiveResidues>
 VAL166  LYS551  ARG553  GLY616  TRP617  ASP618  TYR619  PRO620  LYS621  CYS622 
 ASP623  PHE694  ASN695  SER759  ASP760  ASP761  ALA762  ILE779  LEU786  VAL792 
 PHE793  MET794  SER795  GLU796  ALA797  LYS798  CYS799  TRP800  GLU811  SER814 

> <Gold.Protein.RotatedAtoms>
  152.4708  133.8026  159.6960 H   0  0  0  0  0  0  0  0  0  0  0  0  # atno 6907 bound_to 6896
  150.8697  133.7514  159.2972 H   0  0  0  0  0  0  0  0  0  0  0  0  # atno 6908 bound_to 6896
  151.5053  135.1066  159.9892 H   0  0  0  0  0  0  0  0  0  0  0  0  # atno 6909 bound_to 6896
  144.7182  140.0120  143.6440 H   0  0  0  0  0  0  0  0  0  0  0  0  # atno 7974 bound_to 7965
  154.5981  140.0648  156.9330 H   0  0  0  0  0  0  0  0  0  0  0  0  # atno 8008 bound_to 7997
  155.2180  140.3328  155.4301 H   0  0  0  0  0  0  0  0  0  0  0  0  # atno 8009 bound_to 7997
  156.2300  140.1836  156.7250 H   0  0  0  0  0  0  0  0  0  0  0  0  # atno 8010 bound_to 7997
  140.4058  144.1661  150.6136 H   0  0  0  0  0  0  0  0  0  0  0  0  # atno 10167 bound_to 10162
  155.9984  130.4860  150.5122 H   0  0  0  0  0  0  0  0  0  0  0  0  # atno 10718 bound_to 10713
  154.7053  135.2995  154.9280 H   0  0  0  0  0  0  0  0  0  0  0  0  # atno 10763 bound_to 10752
  154.0199  135.6684  153.4776 H   0  0  0  0  0  0  0  0  0  0  0  0  # atno 10764 bound_to 10752
  153.0712  135.5060  154.8220 H   0  0  0  0  0  0  0  0  0  0  0  0  # atno 10765 bound_to 10752
  141.1665  133.7209  156.8463 H   0  0  0  0  0  0  0  0  0  0  0  0  # atno 11005 bound_to 11000
  146.0251  139.3285  143.0789 LP  0  0  0  0  0  0  0  0  0  0  0  0  # atno 17320 bound_to 7965
  145.8521  140.9523  143.0744 LP  0  0  0  0  0  0  0  0  0  0  0  0  # atno 17321 bound_to 7965
  140.4691  143.2419  151.9114 LP  0  0  0  0  0  0  0  0  0  0  0  0  # atno 17342 bound_to 10162
  139.4783  144.5388  151.8558 LP  0  0  0  0  0  0  0  0  0  0  0  0  # atno 17343 bound_to 10162
  157.3094  131.0660  151.2012 LP  0  0  0  0  0  0  0  0  0  0  0  0  # atno 17370 bound_to 10713
  157.2963  130.6821  149.6140 LP  0  0  0  0  0  0  0  0  0  0  0  0  # atno 17371 bound_to 10713
  140.1947  134.8940  157.3101 LP  0  0  0  0  0  0  0  0  0  0  0  0  # atno 17394 bound_to 11000
  140.2252  134.3975  155.7547 LP  0  0  0  0  0  0  0  0  0  0  0  0  # atno 17395 bound_to 11000

$$$$
