#       Name:                AV-unprocessed.smi:2184
#       Creating user name   scv26
#       Creation time:       Fri Mar 27 12:07:20 2020


#       File generated by GOLD software.
#

@<TRIPOS>MOLECULE
AV-unprocessed.smi:2184
    53    54     1
SMALL
NO_CHARGES


@<TRIPOS>ATOM
      1 ****        -4.2087  -0.6116  -0.9927 C.3            1 S1                 0.0000
      2 ****        -4.7845   0.7636  -2.0248 S.3            1 S1                 0.0000
      3 ****        -4.0043   0.3559  -3.6161 C.3            1 S1                 0.0000
      4 ****        -4.6225   1.2023  -4.7397 C.3            1 S1                 0.0000
      5 ****        -2.4815   0.5329  -3.5739 C.2            1 S1                 0.0000
      6 ****        -1.9893   1.6577  -3.4780 O.2            1 S1                 0.0000
      7 ****        -1.7451  -0.5879  -3.6354 N.am           1 S1                 0.0000
      8 ****        -0.2872  -0.6307  -3.5956 C.3            1 S1                 0.0000
      9 ****         0.2867  -0.4548  -2.1989 C.ar           1 S1                 0.0000
     10 ****         1.3701   0.4151  -1.9703 C.ar           1 S1                 0.0000
     11 ****         1.8709   0.5550  -0.6617 C.ar           1 S1                 0.0000
     12 ****         1.2707  -0.1819   0.3908 C.ar           1 S1                 0.0000
     13 ****         1.7203  -0.0900   1.7261 N.3            1 S1                 0.0000
     14 ****         2.9720   0.6081   1.9967 C.3            1 S1                 0.0000
     15 ****         3.4769   0.2768   3.4120 C.3            1 S1                 0.0000
     16 ****         4.7166   1.0972   3.7834 C.3            1 S1                 0.0000
     17 ****         2.4550   0.5642   4.3651 O.3            1 S1                 0.0000
     18 ****         1.2277  -0.1371   4.1545 C.3            1 S1                 0.0000
     19 ****         1.3497  -1.6363   4.4807 C.3            1 S1                 0.0000
     20 ****         0.6897   0.1391   2.7367 C.3            1 S1                 0.0000
     21 ****         0.2341  -1.0238   0.1615 N.ar           1 S1                 0.0000
     22 ****        -0.2385  -1.1565  -1.0949 C.ar           1 S1                 0.0000
     23 ****        -4.6588  -0.5491  -0.0021 H              1 S1                 0.0000
     24 ****        -3.1261  -0.5773  -0.8772 H              1 S1                 0.0000
     25 ****        -4.4847  -1.5674  -1.4381 H              1 S1                 0.0000
     26 ****        -4.2315  -0.6903  -3.8265 H              1 S1                 0.0000
     27 ****        -4.1672   0.9756  -5.7046 H              1 S1                 0.0000
     28 ****        -4.4974   2.2699  -4.5540 H              1 S1                 0.0000
     29 ****        -5.6913   1.0069  -4.8292 H              1 S1                 0.0000
     30 ****        -2.2278  -1.4714  -3.7127 H              1 S1                 0.0000
     31 ****         0.0365  -1.5984  -3.9792 H              1 S1                 0.0000
     32 ****         0.1243   0.1217  -4.2708 H              1 S1                 0.0000
     33 ****         1.8103   0.9749  -2.7824 H              1 S1                 0.0000
     34 ****         2.6933   1.2333  -0.4922 H              1 S1                 0.0000
     35 ****         3.7322   0.3142   1.2720 H              1 S1                 0.0000
     36 ****         2.8133   1.6822   1.8925 H              1 S1                 0.0000
     37 ****         3.7448  -0.7785   3.4663 H              1 S1                 0.0000
     38 ****         5.5340   0.9103   3.0866 H              1 S1                 0.0000
     39 ****         5.0674   0.8412   4.7833 H              1 S1                 0.0000
     40 ****         4.5017   2.1661   3.7691 H              1 S1                 0.0000
     41 ****         0.5146   0.2815   4.8651 H              1 S1                 0.0000
     42 ****         0.3724  -2.1181   4.4468 H              1 S1                 0.0000
     43 ****         1.7555  -1.7854   5.4815 H              1 S1                 0.0000
     44 ****         1.9922  -2.1628   3.7755 H              1 S1                 0.0000
     45 ****         0.3702   1.1794   2.6627 H              1 S1                 0.0000
     46 ****        -0.1960  -0.4724   2.5637 H              1 S1                 0.0000
     47 ****        -1.0620  -1.8440  -1.2195 H              1 S1                 0.0000
     48 ****        -2.5831   2.4607  -3.4273 LP             1 S1                 0.0000
     49 ****        -0.9958   1.7681  -3.4509 LP             1 S1                 0.0000
     50 ****         1.9970  -1.0440   1.8410 LP             1 S1                 0.0000
     51 ****         2.2633   1.5450   4.3300 LP             1 S1                 0.0000
     52 ****         2.7992   0.3241   5.2727 LP             1 S1                 0.0000
     53 ****        -0.1752  -1.5400   0.9138 LP             1 S1                 0.0000
@<TRIPOS>BOND
    1    1    2 1     
    2    1   23 1     
    3    1   24 1     
    4    1   25 1     
    5    2    3 1     
    6    3    4 1     
    7    3    5 1     
    8    3   26 1     
    9    4   27 1     
   10    4   28 1     
   11    4   29 1     
   12    5    6 2     
   13    5    7 am    
   14    7    8 1     
   15    7   30 1     
   16    8    9 1     
   17    8   31 1     
   18    8   32 1     
   19    9   22 ar    
   20    9   10 ar    
   21   10   11 ar    
   22   10   33 1     
   23   11   12 ar    
   24   11   34 1     
   25   12   13 1     
   26   12   21 ar    
   27   13   20 1     
   28   13   14 1     
   29   14   15 1     
   30   14   35 1     
   31   14   36 1     
   32   15   16 1     
   33   15   17 1     
   34   15   37 1     
   35   16   38 1     
   36   16   39 1     
   37   16   40 1     
   38   17   18 1     
   39   18   19 1     
   40   18   20 1     
   41   18   41 1     
   42   19   42 1     
   43   19   43 1     
   44   19   44 1     
   45   20   45 1     
   46   20   46 1     
   47   21   22 ar    
   48   22   47 1     
   49    6   48 1     
   50    6   49 1     
   51   13   50 1     
   52   17   51 1     
   53   17   52 1     
   54   21   53 1     
@<TRIPOS>SUBSTRUCTURE
      1 S1             1
@<TRIPOS>SET
LONE_PAIRS      STATIC     ATOMS    <user>   **** ""
6 48 49 50 51 52 53
DONOR_HYDROGENS      STATIC     ATOMS    <user>   **** ""
1 30
ATOM$BLUE        STATIC     ATOMS    COLORGROUP SYSTEM
6 48 49 50 51 52 53
ATOM$RED        STATIC     ATOMS    COLORGROUP SYSTEM
1 30
