AV-unprocessed.smi:332|AV-procd|sdf|2358|dock6
  -GOLD-   2262022273D 1   1.00000     0.00000
 Structure written by MMmdl.
 42 44  0  0  0  0  0  0  0  0  1 V2000
  156.2494  139.6925  161.7175 C   0  0  0  0  0  0  0  0  0  0  0  0
  154.9940  138.8537  161.4184 C   0  0  2  0  0  0  0  0  0  0  0  0
  154.1448  139.5929  160.4862 N   0  0  0  0  0  0  0  0  0  0  0  0
  153.6564  140.8269  160.6830 C   0  0  0  0  0  0  0  0  0  0  0  0
  153.8435  141.4735  161.7144 O   0  0  0  0  0  0  0  0  0  0  0  0
  152.8104  141.4045  159.5400 C   0  0  0  0  0  0  0  0  0  0  0  0
  152.5984  142.8565  159.6589 N   0  0  0  0  0  0  0  0  0  0  0  0
  153.0117  143.6575  158.5755 C   0  0  0  0  0  0  0  0  0  0  0  0
  152.8640  144.9917  158.5819 C   0  0  0  0  0  0  0  0  0  0  0  0
  152.2618  145.6061  159.7416 C   0  0  0  0  0  0  0  0  0  0  0  0
  151.8600  144.8490  160.7821 C   0  0  0  0  0  0  0  0  0  0  0  0
  152.0184  143.3899  160.7787 C   0  0  0  0  0  0  0  0  0  0  0  0
  151.6532  142.6901  161.7241 O   0  0  0  0  0  0  0  0  0  0  0  0
  154.1818  138.5077  162.6912 C   0  0  1  0  0  0  0  0  0  0  0  0
  153.0062  137.5303  162.4331 C   0  0  0  0  0  0  0  0  0  0  0  0
  153.2481  136.4046  163.4535 C   0  0  2  0  0  0  0  0  0  0  0  0
  152.9931  136.9331  164.8766 C   0  0  0  0  0  0  0  0  0  0  0  0
  154.2081  137.8477  165.1192 C   0  0  0  0  0  0  0  0  0  0  0  0
  154.9772  137.7532  163.7871 C   0  0  1  0  0  0  0  0  0  0  0  0
  154.7655  136.2873  163.4216 C   0  0  0  0  0  0  0  0  0  0  0  0
  156.9580  139.1538  162.3451 H   0  0  0  0  0  0  0  0  0  0  0  0
  155.9932  140.6225  162.2262 H   0  0  0  0  0  0  0  0  0  0  0  0
  156.7749  139.9524  160.7979 H   0  0  0  0  0  0  0  0  0  0  0  0
  155.3104  137.9198  160.9505 H   0  0  0  0  0  0  0  0  0  0  0  0
  153.9324  139.1372  159.6106 H   0  0  0  0  0  0  0  0  0  0  0  0
  153.2808  141.1747  158.5817 H   0  0  0  0  0  0  0  0  0  0  0  0
  151.8566  140.8751  159.5242 H   0  0  0  0  0  0  0  0  0  0  0  0
  153.4458  143.1208  157.7444 H   0  0  0  0  0  0  0  0  0  0  0  0
  153.1840  145.5889  157.7405 H   0  0  0  0  0  0  0  0  0  0  0  0
  152.1313  146.6780  159.7742 H   0  0  0  0  0  0  0  0  0  0  0  0
  151.4108  145.3261  161.6409 H   0  0  0  0  0  0  0  0  0  0  0  0
  153.7922  139.4403  163.1029 H   0  0  0  0  0  0  0  0  0  0  0  0
  152.0341  138.0076  162.5626 H   0  0  0  0  0  0  0  0  0  0  0  0
  153.0381  137.1199  161.4228 H   0  0  0  0  0  0  0  0  0  0  0  0
  152.7097  135.4844  163.2247 H   0  0  0  0  0  0  0  0  0  0  0  0
  152.0461  137.4686  164.9535 H   0  0  0  0  0  0  0  0  0  0  0  0
  152.9771  136.1167  165.5998 H   0  0  0  0  0  0  0  0  0  0  0  0
  153.9198  138.8701  165.3664 H   0  0  0  0  0  0  0  0  0  0  0  0
  154.8138  137.4660  165.9421 H   0  0  0  0  0  0  0  0  0  0  0  0
  156.0206  138.0507  163.8828 H   0  0  0  0  0  0  0  0  0  0  0  0
  155.1612  135.5939  164.1660 H   0  0  0  0  0  0  0  0  0  0  0  0
  155.1594  136.0192  162.4400 H   0  0  0  0  0  0  0  0  0  0  0  0
  1  2  1  0  0  0  0
  1 21  1  0  0  0  0
  1 22  1  0  0  0  0
  1 23  1  0  0  0  0
  2  3  1  0  0  0  0
  2 14  1  0  0  0  0
  2 24  1  0  0  0  0
  3  4  1  0  0  0  0
  3 25  1  0  0  0  0
  4  5  2  0  0  0  0
  4  6  1  0  0  0  0
  6  7  1  0  0  0  0
  6 26  1  0  0  0  0
  6 27  1  0  0  0  0
  7 12  1  0  0  0  0
  7  8  1  0  0  0  0
  8  9  2  0  0  0  0
  8 28  1  0  0  0  0
  9 10  1  0  0  0  0
  9 29  1  0  0  0  0
 10 11  2  0  0  0  0
 10 30  1  0  0  0  0
 11 12  1  0  0  0  0
 11 31  1  0  0  0  0
 12 13  2  0  0  0  0
 14 19  1  0  0  0  0
 14 15  1  0  0  0  0
 14 32  1  0  0  0  0
 15 16  1  0  0  0  0
 15 33  1  0  0  0  0
 15 34  1  0  0  0  0
 16 20  1  0  0  0  0
 16 17  1  0  0  0  0
 16 35  1  0  0  0  0
 17 18  1  0  0  0  0
 17 36  1  0  0  0  0
 17 37  1  0  0  0  0
 18 19  1  0  0  0  0
 18 38  1  0  0  0  0
 18 39  1  0  0  0  0
 19 20  1  0  0  0  0
 19 40  1  0  0  0  0
 20 41  1  0  0  0  0
 20 42  1  0  0  0  0
M  END
> <s_m_source_file>
AV-unprocessed.smi

> <i_m_source_file_index>
332

> <i_lp_mmshare_version>
43012

> <i_f3d_flags>
0

> <s_epik_input>
W0NIMl0xW0NIMl1bQ0BIXShbQ0gyXTIpW0NAQEhdKFtDSDJdW0NAQEhdMTIpW0NASF0oW0NIM10pW05IXUMoPU8pW0NIMl1uM1tjSF1bY0hdW2NIXVtjSF1jMz1P

> <s_epik_cmdline>
J2VwaWtfcHl0aG9uJywgJy1waCcsICc3LjAnLCAnLXRuJywgJzgnLCAnLW1hJywgJzIwMCcsICctbWV0YWxfYmluZGluZycsICctaW1hZScsICc8aW5maWxlLm1hZT4nLCAnLW9tYWUnLCAnPG91dGZpbGUubWFlPic=

> <r_lp_tautomer_probability>
1

> <r_epik_Ionization_Penalty>
4.05802e-07

> <r_epik_Ionization_Penalty_Charging>
3.84175e-07

> <r_epik_Ionization_Penalty_Neutral>
2.16269e-08

> <r_epik_State_Penalty>
-0

> <r_epik_Charging_Adjusted_Penalty>
3.84175e-07

> <i_epik_Tot_Q>
0

> <i_epik_Tot_abs_Q>
0

> <r_epik_Metal_State_Penalty>
-0

> <b_epik_Metal_Only>
0

> <s_lp_Force_Field>
OPLS_2005

> <r_lp_Energy>
59.8508

> <b_lp_Chiralities_Consistent>
1

> <s_lp_Variant>
AV-unprocessed.smi:332-7

> <Gold.Version>
5.8.1

> <Gold.Id.Protein>
6NUR|6NUR_protein|mol2

> <Gold.PLP.Fitness>
50.7841

> <Gold.PLP.PLP>
-48.9176

> <Gold.PLP.part.hbond>
-1.6107

> <Gold.PLP.part.metal>
0.0000

> <Gold.PLP.part.buried>
-5.2805

> <Gold.PLP.part.nonpolar>
-43.3321

> <Gold.PLP.part.repulsive>
0.1829

> <Gold.PLP.ligand.clash>
0.0000

> <Gold.PLP.ligand.torsion>
0.2499

> <Gold.PLP.Chemscore.Hbond>
0.7823

> <Gold.PLP.Chemscore.CHOScore>
0.0000

> <Gold.PLP.Chemscore.Metal>
0.0000

> <Gold.Chemscore.Hbonds>
donor molecule, donor type, donor heavy atom, donor atom, acceptor molecule, acceptor atom, score
      P1  H  6933  6945       L1    13  0.69

> <Gold.PLP.Chemscore.Internal.Correction>
0.0193

> <Gold.Rescore>
     Score         DG    S(hbond)    S(metal)    S(lipo)     H(rot)  DE(clash)    DE(int)     intcor
     13.82     -17.81       0.77        0.00     117.00       1.54       0.09       3.89       ----

> <Gold.Chemscore.Fitness>
13.8243

> <Gold.Chemscore.DG>
-17.8087

> <Gold.Chemscore.ZeroCoef>
-5.4800

> <Gold.Chemscore.Hbond>
0.7729

> <Gold.Chemscore.Metal>
0.0000

> <Gold.Chemscore.Lipo>
116.9995

> <Gold.Chemscore.Internal_Hbond>
0.0000

> <Gold.Chemscore.DEClash>
0.0908

> <Gold.Chemscore.DEInternal>
3.8936

> <Gold.Chemscore.Rot>
1.5398

> <Gold.Chemscore.Internal.Correction>
   9.000000E+99

> <Gold.Chemscore.Hbonds>
donor molecule, donor type, donor heavy atom, donor atom, acceptor molecule, acceptor atom, score
      P1  H  6933  6945       L1    13  0.70

> <Gold.Chemscore.Hbond.Weighted>
-2.5817

> <Gold.Chemscore.Metal.Weighted>
-0.0000

> <Gold.Chemscore.Lipo.Weighted>
-13.6889

> <Gold.Chemscore.Internal_Hbond.Weighted>
0.0000

> <Gold.Chemscore.DEClash.Weighted>
0.0908

> <Gold.Chemscore.DEInternal.Weighted>
3.8936

> <Gold.Chemscore.Rot.Weighted>
3.9419

> <Gold.Chemscore.Internal.Correction.Weighted>
   9.000000E+99

> <Gold.Protein.RotatedTorsions>
[ 6907 6896 6895 6894 ] final  -12.45 input  -60.11 | X-H torsion
[ 7974 7965 7964 7962 ] final  -19.84 input  175.53 | X-H torsion
[ 8008 7997 7996 7995 ] final   97.29 input   59.86 | X-H torsion
[ 10167 10162 10161 10158 ] final  159.68 input  -65.29 | X-H torsion
[ 10718 10713 10712 10709 ] final  139.51 input   66.30 | X-H torsion
[ 10763 10752 10751 10750 ] final   51.37 input  -60.55 | X-H torsion
[ 11005 11000 10999 10996 ] final  105.73 input  -57.11 | X-H torsion

> <Gold.Protein.ActiveResidues>
 VAL166  LYS551  ARG553  GLY616  TRP617  ASP618  TYR619  PRO620  LYS621  CYS622 
 ASP623  PHE694  ASN695  SER759  ASP760  ASP761  ALA762  ILE779  LEU786  VAL792 
 PHE793  MET794  SER795  GLU796  ALA797  LYS798  CYS799  TRP800  GLU811  SER814 

> <Gold.Protein.RotatedAtoms>
  151.3704  135.0921  159.9463 H   0  0  0  0  0  0  0  0  0  0  0  0  # atno 6907 bound_to 6896
  152.5137  133.9170  159.7526 H   0  0  0  0  0  0  0  0  0  0  0  0  # atno 6908 bound_to 6896
  150.9583  133.6418  159.2788 H   0  0  0  0  0  0  0  0  0  0  0  0  # atno 6909 bound_to 6896
  146.1820  140.4118  142.8491 H   0  0  0  0  0  0  0  0  0  0  0  0  # atno 7974 bound_to 7965
  156.0886  140.3260  155.7786 H   0  0  0  0  0  0  0  0  0  0  0  0  # atno 8008 bound_to 7997
  155.5034  140.0571  157.2953 H   0  0  0  0  0  0  0  0  0  0  0  0  # atno 8009 bound_to 7997
  154.4624  140.1973  156.0225 H   0  0  0  0  0  0  0  0  0  0  0  0  # atno 8010 bound_to 7997
  139.4834  144.4707  151.8580 H   0  0  0  0  0  0  0  0  0  0  0  0  # atno 10167 bound_to 10162
  157.4136  131.1031  151.0428 H   0  0  0  0  0  0  0  0  0  0  0  0  # atno 10718 bound_to 10713
  152.9785  135.5848  154.4405 H   0  0  0  0  0  0  0  0  0  0  0  0  # atno 10763 bound_to 10752
  154.4007  135.2768  155.2100 H   0  0  0  0  0  0  0  0  0  0  0  0  # atno 10764 bound_to 10752
  154.3933  135.6120  153.5909 H   0  0  0  0  0  0  0  0  0  0  0  0  # atno 10765 bound_to 10752
  139.8805  134.9346  156.5559 H   0  0  0  0  0  0  0  0  0  0  0  0  # atno 11005 bound_to 11000
  144.8331  140.6739  143.6278 LP  0  0  0  0  0  0  0  0  0  0  0  0  # atno 17320 bound_to 7965
  145.4049  139.1591  143.4157 LP  0  0  0  0  0  0  0  0  0  0  0  0  # atno 17321 bound_to 7965
  140.4176  144.2287  150.5887 LP  0  0  0  0  0  0  0  0  0  0  0  0  # atno 17342 bound_to 10162
  140.4906  143.2349  151.8824 LP  0  0  0  0  0  0  0  0  0  0  0  0  # atno 17343 bound_to 10162
  157.1384  130.6132  149.5548 LP  0  0  0  0  0  0  0  0  0  0  0  0  # atno 17370 bound_to 10713
  155.9858  130.4890  150.7049 LP  0  0  0  0  0  0  0  0  0  0  0  0  # atno 17371 bound_to 10713
  140.8205  133.8357  155.8892 LP  0  0  0  0  0  0  0  0  0  0  0  0  # atno 17394 bound_to 11000
  140.9422  134.1886  157.4789 LP  0  0  0  0  0  0  0  0  0  0  0  0  # atno 17395 bound_to 11000

$$$$
