#       Name:                AV-unprocessed.smi:1897
#       Creating user name   scv26
#       Creation time:       Fri Mar 27 09:43:02 2020


#       File generated by GOLD software.
#

@<TRIPOS>MOLECULE
AV-unprocessed.smi:1897
    43    45     1
SMALL
NO_CHARGES


@<TRIPOS>ATOM
      1 ****         0.0404   7.4546  -3.7015 C.3            1 S1                 0.0000
      2 ****         0.3389   6.1917  -2.9681 C.2            1 S1                 0.0000
      3 ****         1.5443   5.6109  -2.9909 N.2            1 S1                 0.0000
      4 ****         1.5811   4.4474  -2.2364 N.2            1 S1                 0.0000
      5 ****         0.3959   4.1754  -1.6705 C.2            1 S1                 0.0000
      6 ****         0.1370   3.0517  -0.8317 N.am           1 S1                 0.0000
      7 ****         0.9014   1.9928  -0.4885 C.2            1 S1                 0.0000
      8 ****         2.0485   1.8745  -0.9154 O.2            1 S1                 0.0000
      9 ****         0.3404   1.0953   0.3385 N.am           1 S1                 0.0000
     10 ****         0.9757  -0.1224   0.8307 C.3            1 S1                 0.0000
     11 ****         0.4664  -0.5475   2.2027 C.3            1 S1                 0.0000
     12 ****         0.8682  -2.0224   2.2526 C.3            1 S1                 0.0000
     13 ****         0.7552  -2.5223   0.8631 N.4            1 S1                 1.0000
     14 ****         1.7647  -3.5433   0.4904 C.3            1 S1                 0.0000
     15 ****         1.5559  -4.0105  -0.9622 C.3            1 S1                 0.0000
     16 ****         1.4323  -2.8418  -1.9623 C.3            1 S1                 0.0000
     17 ****         1.5849  -1.4710  -1.2847 C.3            1 S1                 0.0000
     18 ****         0.6658  -1.3459  -0.0483 C.3            1 S1                 0.0000
     19 ****        -0.8690   5.3458  -2.0082 S.3            1 S1                 0.0000
     20 ****         0.9069   8.1164  -3.6858 H              1 S1                 0.0000
     21 ****        -0.8000   7.9717  -3.2380 H              1 S1                 0.0000
     22 ****        -0.2137   7.2322  -4.7379 H              1 S1                 0.0000
     23 ****        -0.7744   3.0632  -0.3966 H              1 S1                 0.0000
     24 ****        -0.6063   1.2710   0.6452 H              1 S1                 0.0000
     25 ****         2.0564   0.0164   0.9055 H              1 S1                 0.0000
     26 ****         0.8967   0.0364   3.0170 H              1 S1                 0.0000
     27 ****        -0.6197  -0.4540   2.2540 H              1 S1                 0.0000
     28 ****         1.9021  -2.1009   2.5933 H              1 S1                 0.0000
     29 ****         0.2477  -2.6019   2.9366 H              1 S1                 0.0000
     30 ****         2.7680  -3.1312   0.6117 H              1 S1                 0.0000
     31 ****         1.6907  -4.3926   1.1704 H              1 S1                 0.0000
     32 ****         2.3778  -4.6649  -1.2548 H              1 S1                 0.0000
     33 ****         0.6536  -4.6209  -1.0173 H              1 S1                 0.0000
     34 ****         2.1728  -2.9460  -2.7562 H              1 S1                 0.0000
     35 ****         0.4583  -2.8914  -2.4507 H              1 S1                 0.0000
     36 ****         2.6265  -1.3290  -0.9932 H              1 S1                 0.0000
     37 ****         1.3625  -0.6788  -2.0001 H              1 S1                 0.0000
     38 ****        -0.3730  -1.3009  -0.3800 H              1 S1                 0.0000
     39 ****        -0.1435  -2.9787   0.7961 H              1 S1                 0.0000
     40 ****         2.3285   5.9739  -3.4941 LP             1 S1                 0.0000
     41 ****         2.3959   3.8780  -2.1272 LP             1 S1                 0.0000
     42 ****         2.4286   2.5687  -1.5266 LP             1 S1                 0.0000
     43 ****         2.6012   1.0840  -0.6514 LP             1 S1                 0.0000
@<TRIPOS>BOND
    1    1    2 1     
    2    1   20 1     
    3    1   21 1     
    4    1   22 1     
    5    2   19 1     
    6    2    3 2     
    7    3    4 1     
    8    4    5 2     
    9    5    6 1     
   10    5   19 1     
   11    6    7 am    
   12    6   23 1     
   13    7    8 2     
   14    7    9 am    
   15    9   10 1     
   16    9   24 1     
   17   10   18 1     
   18   10   11 1     
   19   10   25 1     
   20   11   12 1     
   21   11   26 1     
   22   11   27 1     
   23   12   13 1     
   24   12   28 1     
   25   12   29 1     
   26   13   18 1     
   27   13   14 1     
   28   13   39 1     
   29   14   15 1     
   30   14   30 1     
   31   14   31 1     
   32   15   16 1     
   33   15   32 1     
   34   15   33 1     
   35   16   17 1     
   36   16   34 1     
   37   16   35 1     
   38   17   18 1     
   39   17   36 1     
   40   17   37 1     
   41   18   38 1     
   42    3   40 1     
   43    4   41 1     
   44    8   42 1     
   45    8   43 1     
@<TRIPOS>SUBSTRUCTURE
      1 S1             1
@<TRIPOS>SET
LONE_PAIRS      STATIC     ATOMS    <user>   **** ""
4 40 41 42 43
DONOR_HYDROGENS      STATIC     ATOMS    <user>   **** ""
3 23 24 39
ATOM$BLUE        STATIC     ATOMS    COLORGROUP SYSTEM
4 40 41 42 43
ATOM$RED        STATIC     ATOMS    COLORGROUP SYSTEM
3 23 24 39
