AV-unprocessed.smi:1999|AV-procd|sdf|8096|dock4
  -GOLD-   2272010313D 1   1.00000     0.00000
 Structure written by MMmdl.
 37 38  0  0  0  0  0  0  0  0  2 V2000
  158.6509  136.6650  153.5351 C   0  0  0  0  0  0  0  0  0  0  0  0
  157.3230  137.1732  153.9814 C   0  0  0  0  0  0  0  0  0  0  0  0
  156.5570  136.5209  154.8591 N   0  0  0  0  0  0  0  0  0  0  0  0
  155.3719  137.1937  155.1194 N   0  0  0  0  0  0  0  0  0  0  0  0
  155.2630  138.3477  154.4459 C   0  0  0  0  0  0  0  0  0  0  0  0
  154.1906  139.1487  154.5583 N   0  5  0  0  0  0  0  0  0  0  0  0
  153.0973  138.7230  155.2315 C   0  0  0  0  0  0  0  0  0  0  0  0
  152.7601  137.5501  155.4085 O   0  0  0  0  0  0  0  0  0  0  0  0
  152.3492  139.7179  155.7303 N   0  0  0  0  0  0  0  0  0  0  0  0
  151.1255  139.5683  156.5164 C   0  0  2  0  0  0  0  0  0  0  0  0
  150.0578  138.8299  155.6944 C   0  0  0  0  0  0  0  0  0  0  0  0
  150.6193  140.9529  156.9710 C   0  0  0  0  0  0  0  0  0  0  0  0
  151.5774  141.7666  157.7225 N   0  0  0  0  0  0  0  0  0  0  0  0
  151.7212  141.3360  159.1114 C   0  0  0  0  0  0  0  0  0  0  0  0
  152.7130  142.2209  159.8861 C   0  0  0  0  0  0  0  0  0  0  0  0
  152.3003  143.5818  159.8141 O   0  0  0  0  0  0  0  0  0  0  0  0
  152.1974  144.0520  158.4741 C   0  0  0  0  0  0  0  0  0  0  0  0
  151.2005  143.1753  157.6968 C   0  0  0  0  0  0  0  0  0  0  0  0
  156.6418  138.6826  153.3985 S   0  0  0  0  0  0  0  0  0  0  0  0
  159.4203  136.9600  154.2484 H   0  0  0  0  0  0  0  0  0  0  0  0
  158.9029  137.0753  152.5571 H   0  0  0  0  0  0  0  0  0  0  0  0
  158.6364  135.5771  153.4628 H   0  0  0  0  0  0  0  0  0  0  0  0
  152.6676  140.6613  155.5644 H   0  0  0  0  0  0  0  0  0  0  0  0
  151.3335  138.9650  157.4007 H   0  0  0  0  0  0  0  0  0  0  0  0
  149.1397  138.7040  156.2687 H   0  0  0  0  0  0  0  0  0  0  0  0
  150.4001  137.8366  155.4031 H   0  0  0  0  0  0  0  0  0  0  0  0
  149.8094  139.3765  154.7839 H   0  0  0  0  0  0  0  0  0  0  0  0
  150.3186  141.5047  156.0789 H   0  0  0  0  0  0  0  0  0  0  0  0
  149.7101  140.8262  157.5606 H   0  0  0  0  0  0  0  0  0  0  0  0
  150.7505  141.3585  159.6089 H   0  0  0  0  0  0  0  0  0  0  0  0
  152.0727  140.3057  159.1542 H   0  0  0  0  0  0  0  0  0  0  0  0
  152.7560  141.9162  160.9318 H   0  0  0  0  0  0  0  0  0  0  0  0
  153.7205  142.1174  159.4800 H   0  0  0  0  0  0  0  0  0  0  0  0
  151.8620  145.0890  158.4851 H   0  0  0  0  0  0  0  0  0  0  0  0
  153.1789  144.0365  157.9980 H   0  0  0  0  0  0  0  0  0  0  0  0
  151.1439  143.5243  156.6653 H   0  0  0  0  0  0  0  0  0  0  0  0
  150.2038  143.2992  158.1231 H   0  0  0  0  0  0  0  0  0  0  0  0
  1  2  1  0  0  0  0
  1 20  1  0  0  0  0
  1 21  1  0  0  0  0
  1 22  1  0  0  0  0
  2 19  1  0  0  0  0
  2  3  2  0  0  0  0
  3  4  1  0  0  0  0
  4  5  2  0  0  0  0
  5  6  1  0  0  0  0
  5 19  1  0  0  0  0
  6  7  1  0  0  0  0
  7  8  2  0  0  0  0
  7  9  1  0  0  0  0
  9 10  1  0  0  0  0
  9 23  1  0  0  0  0
 10 11  1  0  0  0  0
 10 12  1  0  0  0  0
 10 24  1  0  0  0  0
 11 25  1  0  0  0  0
 11 26  1  0  0  0  0
 11 27  1  0  0  0  0
 12 13  1  0  0  0  0
 12 28  1  0  0  0  0
 12 29  1  0  0  0  0
 13 18  1  0  0  0  0
 13 14  1  0  0  0  0
 14 15  1  0  0  0  0
 14 30  1  0  0  0  0
 14 31  1  0  0  0  0
 15 16  1  0  0  0  0
 15 32  1  0  0  0  0
 15 33  1  0  0  0  0
 16 17  1  0  0  0  0
 17 18  1  0  0  0  0
 17 34  1  0  0  0  0
 17 35  1  0  0  0  0
 18 36  1  0  0  0  0
 18 37  1  0  0  0  0
M  CHG  1   6  -1
M  END
> <s_m_source_file>
AV-unprocessed.smi

> <i_m_source_file_index>
1999

> <i_lp_mmshare_version>
43012

> <i_f3d_flags>
0

> <s_epik_input>
W0NIM11jMW5uYyhzMSlbTkhdQyg9TylbTkhdW0NASF0oW0NIM10pW0NIMl1OMltDSDJdW0NIMl1PW0NIMl1bQ0gyXTI=

> <s_epik_cmdline>
J2VwaWtfcHl0aG9uJywgJy1waCcsICc3LjAnLCAnLXRuJywgJzgnLCAnLW1hJywgJzIwMCcsICctbWV0YWxfYmluZGluZycsICctaW1hZScsICc8aW5maWxlLm1hZT4nLCAnLW9tYWUnLCAnPG91dGZpbGUubWFlPic=

> <r_lp_tautomer_probability>
1

> <r_epik_Ionization_Penalty>
3.74165

> <r_epik_Ionization_Penalty_Charging>
3.28066

> <r_epik_Ionization_Penalty_Neutral>
0.460988

> <r_epik_State_Penalty>
3.48767

> <r_epik_Charging_Adjusted_Penalty>
6.76834

> <i_epik_Tot_Q>
-1

> <i_epik_Tot_abs_Q>
1

> <r_epik_Metal_State_Penalty>
0.700129

> <b_epik_Metal_Only>
1

> <s_lp_Force_Field>
OPLS_2005

> <r_lp_Energy>
23.1925

> <b_lp_Chiralities_Consistent>
1

> <s_lp_Variant>
AV-unprocessed.smi:1999-5

> <Gold.Version>
5.8.1

> <Gold.Id.Protein>
6NUR|6NUR_protein|mol2

> <Gold.PLP.Fitness>
40.3115

> <Gold.PLP.PLP>
-33.6019

> <Gold.PLP.part.hbond>
-4.0000

> <Gold.PLP.part.metal>
0.0000

> <Gold.PLP.part.buried>
-1.8423

> <Gold.PLP.part.nonpolar>
-29.8334

> <Gold.PLP.part.repulsive>
0.4498

> <Gold.PLP.ligand.clash>
0.0000

> <Gold.PLP.ligand.torsion>
0.3285

> <Gold.PLP.Chemscore.Hbond>
2.4290

> <Gold.PLP.Chemscore.CHOScore>
0.0000

> <Gold.PLP.Chemscore.Metal>
0.0000

> <Gold.Chemscore.Hbonds>
donor molecule, donor type, donor heavy atom, donor atom, acceptor molecule, acceptor atom, score
      P1  H  7997  8009       L1     6  2.00
      P1  H 10752 10764       L1     8  0.41

> <Gold.PLP.Chemscore.Internal.Correction>
0.0796

> <Gold.Rescore>
     Score         DG    S(hbond)    S(metal)    S(lipo)     H(rot)  DE(clash)    DE(int)     intcor
     11.11     -14.22       0.79        0.00      86.30       1.56       0.09       3.02       ----

> <Gold.Chemscore.Fitness>
11.1097

> <Gold.Chemscore.DG>
-14.2183

> <Gold.Chemscore.ZeroCoef>
-5.4800

> <Gold.Chemscore.Hbond>
0.7854

> <Gold.Chemscore.Metal>
0.0000

> <Gold.Chemscore.Lipo>
86.3016

> <Gold.Chemscore.Internal_Hbond>
0.0000

> <Gold.Chemscore.DEClash>
0.0863

> <Gold.Chemscore.DEInternal>
3.0223

> <Gold.Chemscore.Rot>
1.5556

> <Gold.Chemscore.Internal.Correction>
   9.000000E+99

> <Gold.Chemscore.Hbonds>
donor molecule, donor type, donor heavy atom, donor atom, acceptor molecule, acceptor atom, score
      P1  H  7997  8009       L1     6  0.08
      P1  H 10752 10764       L1     8  0.40

> <Gold.Chemscore.Hbond.Weighted>
-2.6233

> <Gold.Chemscore.Metal.Weighted>
-0.0000

> <Gold.Chemscore.Lipo.Weighted>
-10.0973

> <Gold.Chemscore.Internal_Hbond.Weighted>
0.0000

> <Gold.Chemscore.DEClash.Weighted>
0.0863

> <Gold.Chemscore.DEInternal.Weighted>
3.0223

> <Gold.Chemscore.Rot.Weighted>
3.9823

> <Gold.Chemscore.Internal.Correction.Weighted>
   9.000000E+99

> <Gold.Protein.RotatedTorsions>
[ 6907 6896 6895 6894 ] final   84.13 input  -60.11 | X-H torsion
[ 7974 7965 7964 7962 ] final  115.50 input  175.53 | X-H torsion
[ 8008 7997 7996 7995 ] final -108.89 input   59.86 | X-H torsion
[ 10167 10162 10161 10158 ] final  140.23 input  -65.29 | X-H torsion
[ 10718 10713 10712 10709 ] final   84.10 input   66.30 | X-H torsion
[ 10763 10752 10751 10750 ] final  -38.61 input  -60.55 | X-H torsion
[ 11005 11000 10999 10996 ] final   35.48 input  -57.11 | X-H torsion

> <Gold.Protein.ActiveResidues>
 VAL166  LYS551  ARG553  GLY616  TRP617  ASP618  TYR619  PRO620  LYS621  CYS622 
 ASP623  PHE694  ASN695  SER759  ASP760  ASP761  ALA762  ILE779  LEU786  VAL792 
 PHE793  MET794  SER795  GLU796  ALA797  LYS798  CYS799  TRP800  GLU811  SER814 

> <Gold.Protein.RotatedAtoms>
  152.5345  134.2788  159.8999 H   0  0  0  0  0  0  0  0  0  0  0  0  # atno 6907 bound_to 6896
  151.2743  133.4233  159.2630 H   0  0  0  0  0  0  0  0  0  0  0  0  # atno 6908 bound_to 6896
  151.0340  134.9574  159.8183 H   0  0  0  0  0  0  0  0  0  0  0  0  # atno 6909 bound_to 6896
  145.1912  139.2999  143.4367 H   0  0  0  0  0  0  0  0  0  0  0  0  # atno 7974 bound_to 7965
  154.9510  140.0401  157.2144 H   0  0  0  0  0  0  0  0  0  0  0  0  # atno 8008 bound_to 7997
  154.7978  140.2846  155.5921 H   0  0  0  0  0  0  0  0  0  0  0  0  # atno 8009 bound_to 7997
  156.2958  140.2561  156.2840 H   0  0  0  0  0  0  0  0  0  0  0  0  # atno 8010 bound_to 7997
  139.5055  144.6247  151.5967 H   0  0  0  0  0  0  0  0  0  0  0  0  # atno 10167 bound_to 10162
  157.6892  131.0119  150.2622 H   0  0  0  0  0  0  0  0  0  0  0  0  # atno 10718 bound_to 10713
  153.9156  135.6788  153.4749 H   0  0  0  0  0  0  0  0  0  0  0  0  # atno 10763 bound_to 10752
  153.1055  135.4807  154.8941 H   0  0  0  0  0  0  0  0  0  0  0  0  # atno 10764 bound_to 10752
  154.7504  135.3183  154.8523 H   0  0  0  0  0  0  0  0  0  0  0  0  # atno 10765 bound_to 10752
  140.2423  134.3401  155.7921 H   0  0  0  0  0  0  0  0  0  0  0  0  # atno 11005 bound_to 11000
  146.3436  140.2125  142.8590 LP  0  0  0  0  0  0  0  0  0  0  0  0  # atno 17320 bound_to 7965
  145.0040  140.8656  143.5265 LP  0  0  0  0  0  0  0  0  0  0  0  0  # atno 17321 bound_to 7965
  140.5960  143.9695  150.6354 LP  0  0  0  0  0  0  0  0  0  0  0  0  # atno 17342 bound_to 10162
  140.2891  143.3336  152.1079 LP  0  0  0  0  0  0  0  0  0  0  0  0  # atno 17343 bound_to 10162
  156.3199  130.3784  149.7584 LP  0  0  0  0  0  0  0  0  0  0  0  0  # atno 17370 bound_to 10713
  156.5158  130.8192  151.3185 LP  0  0  0  0  0  0  0  0  0  0  0  0  # atno 17371 bound_to 10713
  141.2209  133.7306  156.8904 LP  0  0  0  0  0  0  0  0  0  0  0  0  # atno 17394 bound_to 11000
  140.1641  134.9145  157.2752 LP  0  0  0  0  0  0  0  0  0  0  0  0  # atno 17395 bound_to 11000

$$$$
