AV-unprocessed.smi:1875|AV-procd|sdf|7614|dock2
  -GOLD-   22720 9333D 1   1.00000     0.00000
 Structure written by MMmdl.
 47 49  0  0  0  0  0  0  0  0  1 V2000
  143.1173  146.5191  154.3493 C   0  0  0  0  0  0  0  0  0  0  0  0
  144.1326  145.7366  153.5423 C   0  0  0  0  0  0  0  0  0  0  0  0
  144.4056  146.1843  152.3126 N   0  0  0  0  0  0  0  0  0  0  0  0
  145.3116  145.4845  151.5953 C   0  0  0  0  0  0  0  0  0  0  0  0
  145.9431  144.3362  152.1146 C   0  0  0  0  0  0  0  0  0  0  0  0
  145.5736  143.9606  153.4237 C   0  0  0  0  0  0  0  0  0  0  0  0
  146.1761  142.7419  154.0934 C   0  0  0  0  0  0  0  0  0  0  0  0
  147.5980  142.5985  153.7975 N   0  0  0  0  0  0  0  0  0  0  0  0
  148.0469  141.2090  153.7957 C   0  0  0  0  0  0  0  0  0  0  0  0
  148.8045  140.8625  155.0883 C   0  0  2  0  0  0  0  0  0  0  0  0
  147.9198  141.0209  156.1801 O   0  0  0  0  0  0  0  0  0  0  0  0
  150.0232  141.7824  155.2957 C   0  0  0  0  0  0  0  0  0  0  0  0
  150.8494  141.3703  156.4166 N   0  0  0  0  0  0  0  0  0  0  0  0
  151.5027  140.2012  156.5613 C   0  0  0  0  0  0  0  0  0  0  0  0
  152.2039  140.0298  157.6784 N   0  0  0  0  0  0  0  0  0  0  0  0
  151.9800  141.2282  158.3345 C   0  0  0  0  0  0  0  0  0  0  0  0
  152.4446  141.6895  159.5857 C   0  0  0  0  0  0  0  0  0  0  0  0
  152.0820  142.9675  160.0672 C   0  0  0  0  0  0  0  0  0  0  0  0
  152.6016  143.4215  161.4200 C   0  0  0  0  0  0  0  0  0  0  0  0
  151.2433  143.8077  159.2913 C   0  0  0  0  0  0  0  0  0  0  0  0
  150.8410  145.1848  159.7885 C   0  0  0  0  0  0  0  0  0  0  0  0
  150.7712  143.3632  158.0384 C   0  0  0  0  0  0  0  0  0  0  0  0
  151.1371  142.0883  157.5716 C   0  0  0  0  0  0  0  0  0  0  0  0
  144.6661  144.6647  154.1360 N   0  0  0  0  0  0  0  0  0  0  0  0
  142.7435  147.3808  153.7947 H   0  0  0  0  0  0  0  0  0  0  0  0
  143.5669  146.8807  155.2745 H   0  0  0  0  0  0  0  0  0  0  0  0
  142.2678  145.8854  154.6053 H   0  0  0  0  0  0  0  0  0  0  0  0
  145.5350  145.8429  150.6013 H   0  0  0  0  0  0  0  0  0  0  0  0
  146.6676  143.7782  151.5405 H   0  0  0  0  0  0  0  0  0  0  0  0
  146.0224  142.8292  155.1697 H   0  0  0  0  0  0  0  0  0  0  0  0
  145.6346  141.8510  153.7717 H   0  0  0  0  0  0  0  0  0  0  0  0
  148.1366  143.1243  154.4784 H   0  0  0  0  0  0  0  0  0  0  0  0
  147.1745  140.5592  153.7145 H   0  0  0  0  0  0  0  0  0  0  0  0
  148.6668  141.0022  152.9219 H   0  0  0  0  0  0  0  0  0  0  0  0
  149.1432  139.8257  155.0551 H   0  0  0  0  0  0  0  0  0  0  0  0
  147.0354  141.0357  155.8463 H   0  0  0  0  0  0  0  0  0  0  0  0
  150.6471  141.7884  154.4012 H   0  0  0  0  0  0  0  0  0  0  0  0
  149.7022  142.8126  155.4576 H   0  0  0  0  0  0  0  0  0  0  0  0
  151.4620  139.4330  155.8027 H   0  0  0  0  0  0  0  0  0  0  0  0
  153.0839  141.0493  160.1756 H   0  0  0  0  0  0  0  0  0  0  0  0
  151.7729  143.6378  162.0945 H   0  0  0  0  0  0  0  0  0  0  0  0
  153.2074  144.3218  161.3149 H   0  0  0  0  0  0  0  0  0  0  0  0
  153.2204  142.6544  161.8868 H   0  0  0  0  0  0  0  0  0  0  0  0
  150.2088  145.7002  159.0650 H   0  0  0  0  0  0  0  0  0  0  0  0
  151.7233  145.8016  159.9609 H   0  0  0  0  0  0  0  0  0  0  0  0
  150.2848  145.1059  160.7228 H   0  0  0  0  0  0  0  0  0  0  0  0
  150.1316  143.9918  157.4369 H   0  0  0  0  0  0  0  0  0  0  0  0
  1  2  1  0  0  0  0
  1 25  1  0  0  0  0
  1 26  1  0  0  0  0
  1 27  1  0  0  0  0
  2 24  1  0  0  0  0
  2  3  2  0  0  0  0
  3  4  1  0  0  0  0
  4  5  2  0  0  0  0
  4 28  1  0  0  0  0
  5  6  1  0  0  0  0
  5 29  1  0  0  0  0
  6  7  1  0  0  0  0
  6 24  2  0  0  0  0
  7  8  1  0  0  0  0
  7 30  1  0  0  0  0
  7 31  1  0  0  0  0
  8  9  1  0  0  0  0
  8 32  1  0  0  0  0
  9 10  1  0  0  0  0
  9 33  1  0  0  0  0
  9 34  1  0  0  0  0
 10 11  1  0  0  0  0
 10 12  1  0  0  0  0
 10 35  1  0  0  0  0
 11 36  1  0  0  0  0
 12 13  1  0  0  0  0
 12 37  1  0  0  0  0
 12 38  1  0  0  0  0
 13 23  1  0  0  0  0
 13 14  1  0  0  0  0
 14 15  2  0  0  0  0
 14 39  1  0  0  0  0
 15 16  1  0  0  0  0
 16 23  2  0  0  0  0
 16 17  1  0  0  0  0
 17 18  2  0  0  0  0
 17 40  1  0  0  0  0
 18 19  1  0  0  0  0
 18 20  1  0  0  0  0
 19 41  1  0  0  0  0
 19 42  1  0  0  0  0
 19 43  1  0  0  0  0
 20 21  1  0  0  0  0
 20 22  2  0  0  0  0
 21 44  1  0  0  0  0
 21 45  1  0  0  0  0
 21 46  1  0  0  0  0
 22 23  1  0  0  0  0
 22 47  1  0  0  0  0
M  END
> <s_m_source_file>
AV-unprocessed.smi

> <i_m_source_file_index>
1875

> <i_lp_mmshare_version>
43012

> <i_f3d_flags>
0

> <s_epik_input>
W0NIM11jMW5bY0hdW2NIXWMobjEpW0NIMl1bTkhdW0NIMl1bQ0BIXShbT0hdKVtDSDJdbihbY0hdbjIpYyhjMjMpW2NIXWMoW0NIM10pYyhbY0hdMylbQ0gzXQ==

> <s_epik_cmdline>
J2VwaWtfcHl0aG9uJywgJy1waCcsICc3LjAnLCAnLXRuJywgJzgnLCAnLW1hJywgJzIwMCcsICctbWV0YWxfYmluZGluZycsICctaW1hZScsICc8aW5maWxlLm1hZT4nLCAnLW9tYWUnLCAnPG91dGZpbGUubWFlPic=

> <r_lp_tautomer_probability>
1

> <r_epik_Ionization_Penalty>
1.21192

> <r_epik_Ionization_Penalty_Charging>
0

> <r_epik_Ionization_Penalty_Neutral>
1.21192

> <r_epik_State_Penalty>
1.26105

> <r_epik_Charging_Adjusted_Penalty>
1.26105

> <i_epik_Tot_Q>
0

> <i_epik_Tot_abs_Q>
0

> <r_epik_Metal_State_Penalty>
1.2224

> <b_epik_Metal_Only>
0

> <s_epik_Chemistry_Notes>
This compound contains an electron-poor aromatic ring that is susceptible to covalent hydrolysis at low pH, typically resulting in measured values for nitrogen ring protonation that are around two units higher than predicted values.

> <s_lp_Force_Field>
OPLS_2005

> <r_lp_Energy>
12.1971

> <b_lp_Chiralities_Consistent>
1

> <s_lp_Variant>
AV-unprocessed.smi:1875-3

> <Gold.Version>
5.8.1

> <Gold.Id.Protein>
6NUR|6NUR_protein|mol2

> <Gold.PLP.Fitness>
59.1825

> <Gold.PLP.PLP>
-54.6106

> <Gold.PLP.part.hbond>
-4.0717

> <Gold.PLP.part.metal>
0.0000

> <Gold.PLP.part.buried>
-3.7621

> <Gold.PLP.part.nonpolar>
-45.7313

> <Gold.PLP.part.repulsive>
0.2187

> <Gold.PLP.ligand.clash>
0.0000

> <Gold.PLP.ligand.torsion>
0.8154

> <Gold.PLP.Chemscore.Hbond>
2.0000

> <Gold.PLP.Chemscore.CHOScore>
0.0000

> <Gold.PLP.Chemscore.Metal>
0.0000

> <Gold.Chemscore.Hbonds>
donor molecule, donor type, donor heavy atom, donor atom, acceptor molecule, acceptor atom, score
      L1  H     8    32       P1  8028  0.86
      P1  H  7997  8009       L1    15  0.09
      L1  C     4    28       P1  8014  0.01

> <Gold.PLP.Chemscore.Internal.Correction>
0.2027

> <Gold.Rescore>
     Score         DG    S(hbond)    S(metal)    S(lipo)     H(rot)  DE(clash)    DE(int)     intcor
     18.16     -19.40       1.60        0.00     132.85       2.72       0.37       0.86       ----

> <Gold.Chemscore.Fitness>
18.1644

> <Gold.Chemscore.DG>
-19.3964

> <Gold.Chemscore.ZeroCoef>
-5.4800

> <Gold.Chemscore.Hbond>
1.5997

> <Gold.Chemscore.Metal>
0.0000

> <Gold.Chemscore.Lipo>
132.8505

> <Gold.Chemscore.Internal_Hbond>
0.0000

> <Gold.Chemscore.DEClash>
0.3714

> <Gold.Chemscore.DEInternal>
0.8606

> <Gold.Chemscore.Rot>
2.7228

> <Gold.Chemscore.Internal.Correction>
   9.000000E+99

> <Gold.Chemscore.Hbonds>
donor molecule, donor type, donor heavy atom, donor atom, acceptor molecule, acceptor atom, score
      L1  H     8    32       P1  8028  0.81
      P1  H  7997  8009       L1    15  0.01

> <Gold.Chemscore.Hbond.Weighted>
-5.3431

> <Gold.Chemscore.Metal.Weighted>
-0.0000

> <Gold.Chemscore.Lipo.Weighted>
-15.5435

> <Gold.Chemscore.Internal_Hbond.Weighted>
0.0000

> <Gold.Chemscore.DEClash.Weighted>
0.3714

> <Gold.Chemscore.DEInternal.Weighted>
0.8606

> <Gold.Chemscore.Rot.Weighted>
6.9702

> <Gold.Chemscore.Internal.Correction.Weighted>
   9.000000E+99

> <Gold.Protein.RotatedTorsions>
[ 6907 6896 6895 6894 ] final -158.63 input  -60.11 | X-H torsion
[ 7974 7965 7964 7962 ] final  173.82 input  175.53 | X-H torsion
[ 8008 7997 7996 7995 ] final  175.94 input   59.86 | X-H torsion
[ 10167 10162 10161 10158 ] final  169.95 input  -65.29 | X-H torsion
[ 10718 10713 10712 10709 ] final    3.87 input   66.30 | X-H torsion
[ 10763 10752 10751 10750 ] final  -67.10 input  -60.55 | X-H torsion
[ 11005 11000 10999 10996 ] final  -44.92 input  -57.11 | X-H torsion

> <Gold.Protein.ActiveResidues>
 VAL166  LYS551  ARG553  GLY616  TRP617  ASP618  TYR619  PRO620  LYS621  CYS622 
 ASP623  PHE694  ASN695  SER759  ASP760  ASP761  ALA762  ILE779  LEU786  VAL792 
 PHE793  MET794  SER795  GLU796  ALA797  LYS798  CYS799  TRP800  GLU811  SER814 

> <Gold.Protein.RotatedAtoms>
  151.3211  133.4040  159.2654 H   0  0  0  0  0  0  0  0  0  0  0  0  # atno 6907 bound_to 6896
  151.0034  134.9340  159.7977 H   0  0  0  0  0  0  0  0  0  0  0  0  # atno 6908 bound_to 6896
  152.5281  134.3176  159.9189 H   0  0  0  0  0  0  0  0  0  0  0  0  # atno 6909 bound_to 6896
  144.7235  139.9705  143.6437 H   0  0  0  0  0  0  0  0  0  0  0  0  # atno 7974 bound_to 7965
  156.0817  140.1396  156.9703 H   0  0  0  0  0  0  0  0  0  0  0  0  # atno 8008 bound_to 7997
  154.4589  140.0950  156.6886 H   0  0  0  0  0  0  0  0  0  0  0  0  # atno 8009 bound_to 7997
  155.5064  140.3452  155.4382 H   0  0  0  0  0  0  0  0  0  0  0  0  # atno 8010 bound_to 7997
  139.5005  144.3650  151.9785 H   0  0  0  0  0  0  0  0  0  0  0  0  # atno 10167 bound_to 10162
  156.8842  130.5664  149.5652 H   0  0  0  0  0  0  0  0  0  0  0  0  # atno 10718 bound_to 10713
  154.3696  135.6098  153.5733 H   0  0  0  0  0  0  0  0  0  0  0  0  # atno 10763 bound_to 10752
  152.9790  135.5834  154.4538 H   0  0  0  0  0  0  0  0  0  0  0  0  # atno 10764 bound_to 10752
  154.4289  135.2847  155.1903 H   0  0  0  0  0  0  0  0  0  0  0  0  # atno 10765 bound_to 10752
  141.0482  133.6753  156.2941 H   0  0  0  0  0  0  0  0  0  0  0  0  # atno 11005 bound_to 11000
  146.0566  139.3563  143.0607 LP  0  0  0  0  0  0  0  0  0  0  0  0  # atno 17320 bound_to 7965
  145.8146  140.9709  143.0931 LP  0  0  0  0  0  0  0  0  0  0  0  0  # atno 17321 bound_to 7965
  140.3086  144.3564  150.6040 LP  0  0  0  0  0  0  0  0  0  0  0  0  # atno 17342 bound_to 10162
  140.5816  143.2172  151.7417 LP  0  0  0  0  0  0  0  0  0  0  0  0  # atno 17343 bound_to 10162
  156.0662  130.5704  150.9292 LP  0  0  0  0  0  0  0  0  0  0  0  0  # atno 17370 bound_to 10713
  157.6122  131.0935  150.8774 LP  0  0  0  0  0  0  0  0  0  0  0  0  # atno 17371 bound_to 10713
  140.6106  134.5462  157.5533 LP  0  0  0  0  0  0  0  0  0  0  0  0  # atno 17394 bound_to 11000
  139.9329  134.7930  156.0882 LP  0  0  0  0  0  0  0  0  0  0  0  0  # atno 17395 bound_to 11000

$$$$
