AV-unprocessed.smi:3326|AV-procd|sdf|12785|dock2
  -GOLD-   2272019133D 1   1.00000     0.00000
 Structure written by MMmdl.
 30 31  0  0  0  0  0  0  0  0  1 V2000
  152.0189  145.3430  160.3558 F   0  0  0  0  0  0  0  0  0  0  0  0
  151.8981  144.4672  159.3574 C   0  0  0  0  0  0  0  0  0  0  0  0
  150.6065  144.3822  159.0372 F   0  0  0  0  0  0  0  0  0  0  0  0
  152.5742  144.9390  158.3098 F   0  0  0  0  0  0  0  0  0  0  0  0
  152.4307  143.0898  159.7458 C   0  0  0  0  0  0  0  0  0  0  0  0
  153.1123  142.9065  160.9707 C   0  0  0  0  0  0  0  0  0  0  0  0
  153.5906  141.6280  161.3104 C   0  0  0  0  0  0  0  0  0  0  0  0
  153.3695  140.5729  160.4080 C   0  0  0  0  0  0  0  0  0  0  0  0
  152.7217  140.7300  159.2358 N   0  0  0  0  0  0  0  0  0  0  0  0
  152.2571  141.9595  158.9045 C   0  0  0  0  0  0  0  0  0  0  0  0
  151.5893  142.0997  157.6762 N   0  0  0  0  0  0  0  0  0  0  0  0
  151.3130  140.9451  156.8297 C   0  0  0  0  0  0  0  0  0  0  0  0
  150.3569  141.2872  155.6758 C   0  0  2  0  0  0  0  0  0  0  0  0
  148.9063  141.4582  156.1167 C   0  0  0  0  0  0  0  0  0  0  0  0
  148.1672  141.2181  154.8197 C   0  0  0  0  0  0  0  0  0  0  0  0
  149.0023  140.1154  154.1716 C   0  0  0  0  0  0  0  0  0  0  0  0
  150.3083  140.2184  154.7352 O   0  0  0  0  0  0  0  0  0  0  0  0
  153.2718  143.7297  161.6509 H   0  0  0  0  0  0  0  0  0  0  0  0
  154.1142  141.4611  162.2401 H   0  0  0  0  0  0  0  0  0  0  0  0
  153.7220  139.5771  160.6322 H   0  0  0  0  0  0  0  0  0  0  0  0
  151.0222  142.9229  157.5331 H   0  0  0  0  0  0  0  0  0  0  0  0
  152.2584  140.5780  156.4297 H   0  0  0  0  0  0  0  0  0  0  0  0
  150.9052  140.1337  157.4332 H   0  0  0  0  0  0  0  0  0  0  0  0
  150.6768  142.1916  155.1556 H   0  0  0  0  0  0  0  0  0  0  0  0
  148.6336  140.6974  156.8497 H   0  0  0  0  0  0  0  0  0  0  0  0
  148.7060  142.4390  156.5487 H   0  0  0  0  0  0  0  0  0  0  0  0
  147.1244  140.9348  154.9644 H   0  0  0  0  0  0  0  0  0  0  0  0
  148.1942  142.1186  154.2045 H   0  0  0  0  0  0  0  0  0  0  0  0
  148.5981  139.1321  154.4135 H   0  0  0  0  0  0  0  0  0  0  0  0
  149.0323  140.2108  153.0856 H   0  0  0  0  0  0  0  0  0  0  0  0
  1  2  1  0  0  0  0
  2  3  1  0  0  0  0
  2  4  1  0  0  0  0
  2  5  1  0  0  0  0
  5 10  1  0  0  0  0
  5  6  2  0  0  0  0
  6  7  1  0  0  0  0
  6 18  1  0  0  0  0
  7  8  2  0  0  0  0
  7 19  1  0  0  0  0
  8  9  1  0  0  0  0
  8 20  1  0  0  0  0
  9 10  2  0  0  0  0
 10 11  1  0  0  0  0
 11 12  1  0  0  0  0
 11 21  1  0  0  0  0
 12 13  1  0  0  0  0
 12 22  1  0  0  0  0
 12 23  1  0  0  0  0
 13 17  1  0  0  0  0
 13 14  1  0  0  0  0
 13 24  1  0  0  0  0
 14 15  1  0  0  0  0
 14 25  1  0  0  0  0
 14 26  1  0  0  0  0
 15 16  1  0  0  0  0
 15 27  1  0  0  0  0
 15 28  1  0  0  0  0
 16 17  1  0  0  0  0
 16 29  1  0  0  0  0
 16 30  1  0  0  0  0
M  END
> <s_m_source_file>
AV-unprocessed.smi

> <i_m_source_file_index>
3326

> <i_lp_mmshare_version>
43012

> <i_f3d_flags>
0

> <s_epik_input>
RkMoRikoRiljMVtjSF1bY0hdW2NIXW5jMVtOSF1bQ0gyXVtDQEBIXTJbQ0gyXVtDSDJdW0NIMl1PMg==

> <s_epik_cmdline>
J2VwaWtfcHl0aG9uJywgJy1waCcsICc3LjAnLCAnLXRuJywgJzgnLCAnLW1hJywgJzIwMCcsICctbWV0YWxfYmluZGluZycsICctaW1hZScsICc8aW5maWxlLm1hZT4nLCAnLW9tYWUnLCAnPG91dGZpbGUubWFlPic=

> <r_lp_tautomer_probability>
1

> <r_epik_Ionization_Penalty>
0.000820218

> <r_epik_Ionization_Penalty_Charging>
0

> <r_epik_Ionization_Penalty_Neutral>
0.000820218

> <r_epik_State_Penalty>
0.000527207

> <r_epik_Charging_Adjusted_Penalty>
0.000527207

> <i_epik_Tot_Q>
0

> <i_epik_Tot_abs_Q>
0

> <r_epik_Metal_State_Penalty>
-0

> <b_epik_Metal_Only>
0

> <s_lp_Force_Field>
OPLS_2005

> <r_lp_Energy>
21.819

> <b_lp_Chiralities_Consistent>
1

> <s_lp_Variant>
AV-unprocessed.smi:3326-1

> <Gold.Version>
5.8.1

> <Gold.Id.Protein>
6NUR|6NUR_protein|mol2

> <Gold.PLP.Fitness>
47.1448

> <Gold.PLP.PLP>
-44.5505

> <Gold.PLP.part.hbond>
-1.0000

> <Gold.PLP.part.metal>
0.0000

> <Gold.PLP.part.buried>
-3.6238

> <Gold.PLP.part.nonpolar>
-38.4442

> <Gold.PLP.part.repulsive>
0.1377

> <Gold.PLP.ligand.clash>
0.3463

> <Gold.PLP.ligand.torsion>
0.3077

> <Gold.PLP.Chemscore.Hbond>
1.0000

> <Gold.PLP.Chemscore.CHOScore>
0.0000

> <Gold.PLP.Chemscore.Metal>
0.0000

> <Gold.Chemscore.Hbonds>
donor molecule, donor type, donor heavy atom, donor atom, acceptor molecule, acceptor atom, score
      P1  H  7989  7998       L1    17  0.90

> <Gold.PLP.Chemscore.Internal.Correction>
0.5560

> <Gold.Rescore>
     Score         DG    S(hbond)    S(metal)    S(lipo)     H(rot)  DE(clash)    DE(int)     intcor
      9.67     -12.22       0.00        0.00      85.00       1.25       0.14       2.41       ----

> <Gold.Chemscore.Fitness>
9.6736

> <Gold.Chemscore.DG>
-12.2212

> <Gold.Chemscore.ZeroCoef>
-5.4800

> <Gold.Chemscore.Hbond>
0.0000

> <Gold.Chemscore.Metal>
0.0000

> <Gold.Chemscore.Lipo>
84.9963

> <Gold.Chemscore.Internal_Hbond>
0.0000

> <Gold.Chemscore.DEClash>
0.1376

> <Gold.Chemscore.DEInternal>
2.4100

> <Gold.Chemscore.Rot>
1.2514

> <Gold.Chemscore.Internal.Correction>
   9.000000E+99

> <Gold.Chemscore.Hbonds>
donor molecule, donor type, donor heavy atom, donor atom, acceptor molecule, acceptor atom, score
      P1  H  7989  7998       L1    17  0.15

> <Gold.Chemscore.Hbond.Weighted>
-0.0001

> <Gold.Chemscore.Metal.Weighted>
-0.0000

> <Gold.Chemscore.Lipo.Weighted>
-9.9446

> <Gold.Chemscore.Internal_Hbond.Weighted>
0.0000

> <Gold.Chemscore.DEClash.Weighted>
0.1376

> <Gold.Chemscore.DEInternal.Weighted>
2.4100

> <Gold.Chemscore.Rot.Weighted>
3.2036

> <Gold.Chemscore.Internal.Correction.Weighted>
   9.000000E+99

> <Gold.Protein.RotatedTorsions>
[ 6907 6896 6895 6894 ] final   16.06 input  -60.11 | X-H torsion
[ 7974 7965 7964 7962 ] final  102.92 input  175.53 | X-H torsion
[ 8008 7997 7996 7995 ] final  -15.47 input   59.86 | X-H torsion
[ 10167 10162 10161 10158 ] final   69.95 input  -65.29 | X-H torsion
[ 10718 10713 10712 10709 ] final  148.97 input   66.30 | X-H torsion
[ 10763 10752 10751 10750 ] final -151.62 input  -60.55 | X-H torsion
[ 11005 11000 10999 10996 ] final   44.66 input  -57.11 | X-H torsion

> <Gold.Protein.ActiveResidues>
 VAL166  LYS551  ARG553  GLY616  TRP617  ASP618  TYR619  PRO620  LYS621  CYS622 
 ASP623  PHE694  ASN695  SER759  ASP760  ASP761  ALA762  ILE779  LEU786  VAL792 
 PHE793  MET794  SER795  GLU796  ALA797  LYS798  CYS799  TRP800  GLU811  SER814 

> <Gold.Protein.RotatedAtoms>
  151.8279  135.0631  160.0432 H   0  0  0  0  0  0  0  0  0  0  0  0  # atno 6907 bound_to 6896
  152.2902  133.5549  159.5561 H   0  0  0  0  0  0  0  0  0  0  0  0  # atno 6908 bound_to 6896
  150.7227  134.0356  159.3790 H   0  0  0  0  0  0  0  0  0  0  0  0  # atno 6909 bound_to 6896
  145.3527  139.2435  143.3549 H   0  0  0  0  0  0  0  0  0  0  0  0  # atno 7974 bound_to 7965
  154.5127  140.2195  155.9124 H   0  0  0  0  0  0  0  0  0  0  0  0  # atno 8008 bound_to 7997
  156.1572  140.3149  155.8711 H   0  0  0  0  0  0  0  0  0  0  0  0  # atno 8009 bound_to 7997
  155.3824  140.0473  157.3034 H   0  0  0  0  0  0  0  0  0  0  0  0  # atno 8010 bound_to 7997
  140.0623  144.5222  150.7285 H   0  0  0  0  0  0  0  0  0  0  0  0  # atno 10167 bound_to 10162
  157.3019  131.0872  151.1383 H   0  0  0  0  0  0  0  0  0  0  0  0  # atno 10718 bound_to 10713
  154.8046  135.3255  154.7464 H   0  0  0  0  0  0  0  0  0  0  0  0  # atno 10763 bound_to 10752
  153.8125  135.6894  153.4843 H   0  0  0  0  0  0  0  0  0  0  0  0  # atno 10764 bound_to 10752
  153.1783  135.4596  154.9939 H   0  0  0  0  0  0  0  0  0  0  0  0  # atno 10765 bound_to 10752
  140.1531  134.4436  155.8368 H   0  0  0  0  0  0  0  0  0  0  0  0  # atno 11005 bound_to 11000
  146.2961  140.4146  142.8721 LP  0  0  0  0  0  0  0  0  0  0  0  0  # atno 17320 bound_to 7965
  144.8705  140.7266  143.6050 LP  0  0  0  0  0  0  0  0  0  0  0  0  # atno 17321 bound_to 7965
  140.7166  143.2550  151.4415 LP  0  0  0  0  0  0  0  0  0  0  0  0  # atno 17342 bound_to 10162
  139.5886  144.1548  152.2060 LP  0  0  0  0  0  0  0  0  0  0  0  0  # atno 17343 bound_to 10162
  157.2739  130.6717  149.6033 LP  0  0  0  0  0  0  0  0  0  0  0  0  # atno 17370 bound_to 10713
  155.9672  130.4470  150.5565 LP  0  0  0  0  0  0  0  0  0  0  0  0  # atno 17371 bound_to 10713
  141.2201  133.6881  156.7459 LP  0  0  0  0  0  0  0  0  0  0  0  0  # atno 17394 bound_to 11000
  140.2580  134.8489  157.3731 LP  0  0  0  0  0  0  0  0  0  0  0  0  # atno 17395 bound_to 11000

$$$$
