AV-unprocessed.smi:763|AV-procd|sdf|3641|dock4
  -GOLD-   22720 1 43D 1   1.00000     0.00000
 Structure written by MMmdl.
 43 44  0  0  0  0  0  0  0  0  2 V2000
  155.2736  137.9115  161.6498 C   0  0  0  0  0  0  0  0  0  0  0  0
  155.8045  138.2487  160.3803 O   0  0  0  0  0  0  0  0  0  0  0  0
  156.4179  139.5271  160.3714 C   0  0  0  0  0  0  0  0  0  0  0  0
  155.3342  140.6047  160.4600 C   0  0  0  0  0  0  0  0  0  0  0  0
  154.6175  140.6253  159.2302 O   0  0  0  0  0  0  0  0  0  0  0  0
  153.5428  141.4855  159.0951 C   0  0  0  0  0  0  0  0  0  0  0  0
  153.4210  142.4970  159.9919 N   0  0  0  0  0  0  0  0  0  0  0  0
  152.3788  143.3415  159.8712 C   0  0  0  0  0  0  0  0  0  0  0  0
  151.4114  143.2238  158.8599 C   0  0  0  0  0  0  0  0  0  0  0  0
  151.5422  142.1740  157.9331 C   0  0  0  0  0  0  0  0  0  0  0  0
  152.6275  141.2692  158.0339 C   0  0  0  0  0  0  0  0  0  0  0  0
  152.8109  140.2452  157.1835 N   0  5  0  0  0  0  0  0  0  0  0  0
  152.0962  140.0447  155.7449 S   0  0  0  0  0  0  0  0  0  0  0  0
  150.6993  140.5058  155.7668 O   0  0  0  0  0  0  0  0  0  0  0  0
  152.9455  140.5333  154.6477 O   0  0  0  0  0  0  0  0  0  0  0  0
  152.0509  138.1900  155.5950 C   0  0  1  0  0  0  0  0  0  0  0  0
  151.1909  137.5830  156.7242 C   0  0  0  0  0  0  0  0  0  0  0  0
  151.1209  136.0516  156.6293 C   0  0  0  0  0  0  0  0  0  0  0  0
  150.6106  135.6077  155.2510 C   0  0  0  0  0  0  0  0  0  0  0  0
  151.4975  136.1713  154.1317 C   0  0  0  0  0  0  0  0  0  0  0  0
  151.5874  137.7076  154.1961 C   0  0  2  0  0  0  0  0  0  0  0  0
  152.4913  138.1220  153.1922 O   0  0  0  0  0  0  0  0  0  0  0  0
  154.8136  136.9243  161.6047 H   0  0  0  0  0  0  0  0  0  0  0  0
  154.5089  138.6250  161.9596 H   0  0  0  0  0  0  0  0  0  0  0  0
  156.0555  137.8843  162.4098 H   0  0  0  0  0  0  0  0  0  0  0  0
  157.1030  139.6195  161.2159 H   0  0  0  0  0  0  0  0  0  0  0  0
  157.0000  139.6589  159.4579 H   0  0  0  0  0  0  0  0  0  0  0  0
  154.6617  140.3836  161.2903 H   0  0  0  0  0  0  0  0  0  0  0  0
  155.7962  141.5758  160.6454 H   0  0  0  0  0  0  0  0  0  0  0  0
  152.3144  144.1338  160.6023 H   0  0  0  0  0  0  0  0  0  0  0  0
  150.5888  143.9202  158.7947 H   0  0  0  0  0  0  0  0  0  0  0  0
  150.8027  142.0778  157.1520 H   0  0  0  0  0  0  0  0  0  0  0  0
  153.0774  137.8557  155.7492 H   0  0  0  0  0  0  0  0  0  0  0  0
  151.5918  137.8679  157.6970 H   0  0  0  0  0  0  0  0  0  0  0  0
  150.1798  137.9888  156.6792 H   0  0  0  0  0  0  0  0  0  0  0  0
  152.1095  135.6272  156.8095 H   0  0  0  0  0  0  0  0  0  0  0  0
  150.4687  135.6608  157.4107 H   0  0  0  0  0  0  0  0  0  0  0  0
  150.5893  134.5191  155.1951 H   0  0  0  0  0  0  0  0  0  0  0  0
  149.5833  135.9470  155.1120 H   0  0  0  0  0  0  0  0  0  0  0  0
  152.4959  135.7391  154.2150 H   0  0  0  0  0  0  0  0  0  0  0  0
  151.1071  135.8608  153.1618 H   0  0  0  0  0  0  0  0  0  0  0  0
  150.6070  138.1248  153.9650 H   0  0  0  0  0  0  0  0  0  0  0  0
  152.0883  137.9706  152.3496 H   0  0  0  0  0  0  0  0  0  0  0  0
  1  2  1  0  0  0  0
  1 23  1  0  0  0  0
  1 24  1  0  0  0  0
  1 25  1  0  0  0  0
  2  3  1  0  0  0  0
  3  4  1  0  0  0  0
  3 26  1  0  0  0  0
  3 27  1  0  0  0  0
  4  5  1  0  0  0  0
  4 28  1  0  0  0  0
  4 29  1  0  0  0  0
  5  6  1  0  0  0  0
  6 11  1  0  0  0  0
  6  7  2  0  0  0  0
  7  8  1  0  0  0  0
  8  9  2  0  0  0  0
  8 30  1  0  0  0  0
  9 10  1  0  0  0  0
  9 31  1  0  0  0  0
 10 11  2  0  0  0  0
 10 32  1  0  0  0  0
 11 12  1  0  0  0  0
 12 13  1  0  0  0  0
 13 14  2  0  0  0  0
 13 15  2  0  0  0  0
 13 16  1  0  0  0  0
 16 21  1  0  0  0  0
 16 17  1  0  0  0  0
 16 33  1  0  0  0  0
 17 18  1  0  0  0  0
 17 34  1  0  0  0  0
 17 35  1  0  0  0  0
 18 19  1  0  0  0  0
 18 36  1  0  0  0  0
 18 37  1  0  0  0  0
 19 20  1  0  0  0  0
 19 38  1  0  0  0  0
 19 39  1  0  0  0  0
 20 21  1  0  0  0  0
 20 40  1  0  0  0  0
 20 41  1  0  0  0  0
 21 22  1  0  0  0  0
 21 42  1  0  0  0  0
 22 43  1  0  0  0  0
M  CHG  1  12  -1
M  END
> <s_m_source_file>
AV-unprocessed.smi

> <i_m_source_file_index>
763

> <i_lp_mmshare_version>
43012

> <i_f3d_flags>
0

> <s_epik_input>
W0NIM11PW0NIMl1bQ0gyXU9jMW5bY0hdW2NIXVtjSF1jMVtOSF1TKD1PKSg9TylbQ0BASF0yW0NIMl1bQ0gyXVtDSDJdW0NIMl1bQ0BIXTJbT0hd

> <s_epik_cmdline>
J2VwaWtfcHl0aG9uJywgJy1waCcsICc3LjAnLCAnLXRuJywgJzgnLCAnLW1hJywgJzIwMCcsICctbWV0YWxfYmluZGluZycsICctaW1hZScsICc8aW5maWxlLm1hZT4nLCAnLW9tYWUnLCAnPG91dGZpbGUubWFlPic=

> <r_epik_Ionization_Penalty>
0.985866

> <r_epik_Ionization_Penalty_Charging>
0.984689

> <r_epik_Ionization_Penalty_Neutral>
0.00117669

> <r_epik_State_Penalty>
1.03185

> <r_epik_Charging_Adjusted_Penalty>
2.01654

> <i_epik_Tot_Q>
-1

> <i_epik_Tot_abs_Q>
1

> <r_epik_Metal_State_Penalty>
0.379327

> <b_epik_Metal_Only>
0

> <s_lp_Force_Field>
OPLS_2005

> <r_lp_Energy>
12.3321

> <b_lp_Chiralities_Consistent>
1

> <s_lp_Variant>
AV-unprocessed.smi:763-8

> <Gold.Version>
5.8.1

> <Gold.Id.Protein>
6NUR|6NUR_protein|mol2

> <Gold.PLP.Fitness>
43.3593

> <Gold.PLP.PLP>
-33.6159

> <Gold.PLP.part.hbond>
-4.6631

> <Gold.PLP.part.metal>
0.0000

> <Gold.PLP.part.buried>
-5.9815

> <Gold.PLP.part.nonpolar>
-23.3965

> <Gold.PLP.part.repulsive>
0.0351

> <Gold.PLP.ligand.clash>
0.0000

> <Gold.PLP.ligand.torsion>
1.0385

> <Gold.PLP.Chemscore.Hbond>
3.4805

> <Gold.PLP.Chemscore.CHOScore>
0.0000

> <Gold.PLP.Chemscore.Metal>
0.0000

> <Gold.Chemscore.Hbonds>
donor molecule, donor type, donor heavy atom, donor atom, acceptor molecule, acceptor atom, score
      L1  H    22    43       P1  7949  0.15
      P1  H  7989  7998       L1    15  0.11
      P1  H  7997  8008       L1     5  0.50
      P1  H  7997  8009       L1    15  0.25

> <Gold.PLP.Chemscore.Internal.Correction>
1.3791

> <Gold.Rescore>
     Score         DG    S(hbond)    S(metal)    S(lipo)     H(rot)  DE(clash)    DE(int)     intcor
     17.07     -19.80       3.11        0.00      84.91       2.35       0.06       2.66       ----

> <Gold.Chemscore.Fitness>
17.0699

> <Gold.Chemscore.DG>
-19.7957

> <Gold.Chemscore.ZeroCoef>
-5.4800

> <Gold.Chemscore.Hbond>
3.1137

> <Gold.Chemscore.Metal>
0.0000

> <Gold.Chemscore.Lipo>
84.9075

> <Gold.Chemscore.Internal_Hbond>
0.0000

> <Gold.Chemscore.DEClash>
0.0624

> <Gold.Chemscore.DEInternal>
2.6634

> <Gold.Chemscore.Rot>
2.3509

> <Gold.Chemscore.Internal.Correction>
   9.000000E+99

> <Gold.Chemscore.Hbonds>
donor molecule, donor type, donor heavy atom, donor atom, acceptor molecule, acceptor atom, score
      L1  H    22    43       P1  7949  0.15
      P1  H  7989  7998       L1    15  0.03
      P1  H  7997  8008       L1     5  0.38

> <Gold.Chemscore.Hbond.Weighted>
-10.3997

> <Gold.Chemscore.Metal.Weighted>
-0.0000

> <Gold.Chemscore.Lipo.Weighted>
-9.9342

> <Gold.Chemscore.Internal_Hbond.Weighted>
0.0000

> <Gold.Chemscore.DEClash.Weighted>
0.0624

> <Gold.Chemscore.DEInternal.Weighted>
2.6634

> <Gold.Chemscore.Rot.Weighted>
6.0182

> <Gold.Chemscore.Internal.Correction.Weighted>
   9.000000E+99

> <Gold.Protein.RotatedTorsions>
[ 6907 6896 6895 6894 ] final   56.16 input  -60.11 | X-H torsion
[ 7974 7965 7964 7962 ] final  170.98 input  175.53 | X-H torsion
[ 8008 7997 7996 7995 ] final -136.95 input   59.86 | X-H torsion
[ 10167 10162 10161 10158 ] final -147.37 input  -65.29 | X-H torsion
[ 10718 10713 10712 10709 ] final -143.50 input   66.30 | X-H torsion
[ 10763 10752 10751 10750 ] final  -90.18 input  -60.55 | X-H torsion
[ 11005 11000 10999 10996 ] final  -27.19 input  -57.11 | X-H torsion

> <Gold.Protein.ActiveResidues>
 VAL166  LYS551  ARG553  GLY616  TRP617  ASP618  TYR619  PRO620  LYS621  CYS622 
 ASP623  PHE694  ASN695  SER759  ASP760  ASP761  ALA762  ILE779  LEU786  VAL792 
 PHE793  MET794  SER795  GLU796  ALA797  LYS798  CYS799  TRP800  GLU811  SER814 

> <Gold.Protein.RotatedAtoms>
  152.3609  134.6873  160.0207 H   0  0  0  0  0  0  0  0  0  0  0  0  # atno 6907 bound_to 6896
  151.7197  133.3309  159.3320 H   0  0  0  0  0  0  0  0  0  0  0  0  # atno 6908 bound_to 6896
  150.7604  134.6393  159.6273 H   0  0  0  0  0  0  0  0  0  0  0  0  # atno 6909 bound_to 6896
  144.7308  139.9283  143.6423 H   0  0  0  0  0  0  0  0  0  0  0  0  # atno 7974 bound_to 7965
  155.4038  140.0507  157.3035 H   0  0  0  0  0  0  0  0  0  0  0  0  # atno 8008 bound_to 7997
  154.4978  140.2145  155.9370 H   0  0  0  0  0  0  0  0  0  0  0  0  # atno 8009 bound_to 7997
  156.1428  140.3151  155.8528 H   0  0  0  0  0  0  0  0  0  0  0  0  # atno 8010 bound_to 7997
  139.7628  143.8351  152.2610 H   0  0  0  0  0  0  0  0  0  0  0  0  # atno 10167 bound_to 10162
  156.3588  130.7727  151.1891 H   0  0  0  0  0  0  0  0  0  0  0  0  # atno 10718 bound_to 10713
  154.6631  135.5314  153.8043 H   0  0  0  0  0  0  0  0  0  0  0  0  # atno 10763 bound_to 10752
  153.0454  135.6510  154.0841 H   0  0  0  0  0  0  0  0  0  0  0  0  # atno 10764 bound_to 10752
  154.0748  135.2951  155.3281 H   0  0  0  0  0  0  0  0  0  0  0  0  # atno 10765 bound_to 10752
  140.9097  133.7469  156.0654 H   0  0  0  0  0  0  0  0  0  0  0  0  # atno 11005 bound_to 11000
  146.0877  139.3866  143.0425 LP  0  0  0  0  0  0  0  0  0  0  0  0  # atno 17320 bound_to 7965
  145.7754  140.9879  143.1127 LP  0  0  0  0  0  0  0  0  0  0  0  0  # atno 17321 bound_to 7965
  139.8362  144.7231  150.9387 LP  0  0  0  0  0  0  0  0  0  0  0  0  # atno 17342 bound_to 10162
  140.7808  143.4024  151.1127 LP  0  0  0  0  0  0  0  0  0  0  0  0  # atno 17343 bound_to 10162
  157.7471  131.0406  150.4607 LP  0  0  0  0  0  0  0  0  0  0  0  0  # atno 17370 bound_to 10713
  156.4814  130.4074  149.6459 LP  0  0  0  0  0  0  0  0  0  0  0  0  # atno 17371 bound_to 10713
  140.8126  134.3382  157.5407 LP  0  0  0  0  0  0  0  0  0  0  0  0  # atno 17394 bound_to 11000
  139.8755  134.9263  156.3395 LP  0  0  0  0  0  0  0  0  0  0  0  0  # atno 17395 bound_to 11000

$$$$
