AV-unprocessed.smi:2750|AV-procd|sdf|10594|dock2
  -GOLD-   2272015 43D 1   1.00000     0.00000
 Structure written by MMmdl.
 24 25  0  0  0  0  0  0  0  0  3 V2000
  152.4931  143.9503  160.7756 O   0  0  0  0  0  0  0  0  0  0  0  0
  152.4829  142.9198  161.4846 C   0  0  0  0  0  0  0  0  0  0  0  0
  151.7602  142.7365  162.4889 O   0  5  0  0  0  0  0  0  0  0  0  0
  153.4073  141.7718  161.0735 C   0  0  0  0  0  0  0  0  0  0  0  0
  153.0137  141.1499  159.8211 N   0  0  0  0  0  0  0  0  0  0  0  0
  151.8225  141.2771  159.1358 C   0  0  0  0  0  0  0  0  0  0  0  0
  152.0097  140.5038  158.0255 C   0  0  0  0  0  0  0  0  0  0  0  0
  151.0796  140.2481  156.8762 C   0  0  0  0  0  0  0  0  0  0  0  0
  151.7238  139.4147  155.7471 C   0  0  1  0  0  0  0  0  0  0  0  0
  151.9762  138.0452  156.1648 N   0  5  0  0  0  0  0  0  0  0  0  0
  151.3086  137.2118  155.3327 C   0  0  0  0  0  0  0  0  0  0  0  0
  151.2838  135.9833  155.3588 O   0  0  0  0  0  0  0  0  0  0  0  0
  150.6257  137.9054  154.4163 N   0  0  0  0  0  0  0  0  0  0  0  0
  150.7842  139.2156  154.5735 C   0  0  0  0  0  0  0  0  0  0  0  0
  150.2762  140.1148  153.9048 O   0  0  0  0  0  0  0  0  0  0  0  0
  153.2841  139.9395  158.0834 N   0  0  0  0  0  0  0  0  0  0  0  0
  153.8760  140.3341  159.1671 N   0  0  0  0  0  0  0  0  0  0  0  0
  154.4312  142.1344  160.9723 H   0  0  0  0  0  0  0  0  0  0  0  0
  153.4156  141.0173  161.8615 H   0  0  0  0  0  0  0  0  0  0  0  0
  150.9916  141.8754  159.4786 H   0  0  0  0  0  0  0  0  0  0  0  0
  150.1733  139.7566  157.2340 H   0  0  0  0  0  0  0  0  0  0  0  0
  150.7477  141.2064  156.4743 H   0  0  0  0  0  0  0  0  0  0  0  0
  152.6214  139.9141  155.3795 H   0  0  0  0  0  0  0  0  0  0  0  0
  150.0521  137.4852  153.7007 H   0  0  0  0  0  0  0  0  0  0  0  0
  1  2  2  0  0  0  0
  2  3  1  0  0  0  0
  2  4  1  0  0  0  0
  4  5  1  0  0  0  0
  4 18  1  0  0  0  0
  4 19  1  0  0  0  0
  5 17  1  0  0  0  0
  5  6  1  0  0  0  0
  6  7  2  0  0  0  0
  6 20  1  0  0  0  0
  7  8  1  0  0  0  0
  7 16  1  0  0  0  0
  8  9  1  0  0  0  0
  8 21  1  0  0  0  0
  8 22  1  0  0  0  0
  9 14  1  0  0  0  0
  9 10  1  0  0  0  0
  9 23  1  0  0  0  0
 10 11  1  0  0  0  0
 11 12  2  0  0  0  0
 11 13  1  0  0  0  0
 13 14  1  0  0  0  0
 13 24  1  0  0  0  0
 14 15  2  0  0  0  0
 16 17  2  0  0  0  0
M  CHG  1   3  -1
M  CHG  1  10  -1
M  END
> <s_m_source_file>
AV-unprocessed.smi

> <i_m_source_file_index>
2750

> <i_lp_mmshare_version>
43012

> <i_f3d_flags>
0

> <s_epik_input>
Tz1DKFtPSF0pW0NIMl1uMVtjSF1jKG5uMSlbQ0gyXVtDQEBIXTJbTkhdQyg9TylbTkhdQzI9Tw==

> <s_epik_cmdline>
J2VwaWtfcHl0aG9uJywgJy1waCcsICc3LjAnLCAnLXRuJywgJzgnLCAnLW1hJywgJzIwMCcsICctbWV0YWxfYmluZGluZycsICctaW1hZScsICc8aW5maWxlLm1hZT4nLCAnLW9tYWUnLCAnPG91dGZpbGUubWFlPic=

> <r_lp_tautomer_probability>
1

> <r_epik_Ionization_Penalty>
5.10791

> <r_epik_Ionization_Penalty_Charging>
5.10788

> <r_epik_Ionization_Penalty_Neutral>
2.55687e-05

> <r_epik_State_Penalty>
5.12334

> <r_epik_Charging_Adjusted_Penalty>
10.2312

> <i_epik_Tot_Q>
-2

> <i_epik_Tot_abs_Q>
2

> <r_epik_Metal_State_Penalty>
1.50935

> <b_epik_Metal_Only>
1

> <s_lp_Force_Field>
OPLS_2005

> <r_lp_Energy>
16.7857

> <b_lp_Chiralities_Consistent>
1

> <s_lp_Variant>
AV-unprocessed.smi:2750-6

> <Gold.Version>
5.8.1

> <Gold.Id.Protein>
6NUR|6NUR_protein|mol2

> <Gold.PLP.Fitness>
39.8936

> <Gold.PLP.PLP>
-25.4571

> <Gold.PLP.part.hbond>
-4.7554

> <Gold.PLP.part.metal>
0.0000

> <Gold.PLP.part.buried>
-4.7220

> <Gold.PLP.part.nonpolar>
-21.6132

> <Gold.PLP.part.repulsive>
5.3764

> <Gold.PLP.ligand.clash>
0.0000

> <Gold.PLP.ligand.torsion>
0.2869

> <Gold.PLP.Chemscore.Hbond>
4.9920

> <Gold.PLP.Chemscore.CHOScore>
0.0000

> <Gold.PLP.Chemscore.Metal>
0.0000

> <Gold.Chemscore.Hbonds>
donor molecule, donor type, donor heavy atom, donor atom, acceptor molecule, acceptor atom, score
      P1  H  6933  6945       L1     3  2.00
      P1  H  7989  7998       L1    15  0.87
      P1  H  7997  8008       L1    16  1.00
      P1  H 10752 10765       L1    12  1.00

> <Gold.PLP.Chemscore.Internal.Correction>
0.0342

> <Gold.Rescore>
     Score         DG    S(hbond)    S(metal)    S(lipo)     H(rot)  DE(clash)    DE(int)     intcor
      9.39     -12.83       3.08        0.00      36.20       2.80       2.01       1.43       ----

> <Gold.Chemscore.Fitness>
9.3891

> <Gold.Chemscore.DG>
-12.8316

> <Gold.Chemscore.ZeroCoef>
-5.4800

> <Gold.Chemscore.Hbond>
3.0770

> <Gold.Chemscore.Metal>
0.0000

> <Gold.Chemscore.Lipo>
36.2005

> <Gold.Chemscore.Internal_Hbond>
0.0000

> <Gold.Chemscore.DEClash>
2.0081

> <Gold.Chemscore.DEInternal>
1.4344

> <Gold.Chemscore.Rot>
2.7973

> <Gold.Chemscore.Internal.Correction>
   9.000000E+99

> <Gold.Chemscore.Hbonds>
donor molecule, donor type, donor heavy atom, donor atom, acceptor molecule, acceptor atom, score
      L1  H    13    24       P1  7948  0.02
      P1  H  6933  6945       L1     3  0.92
      P1  H  7989  7998       L1    15  0.19
      P1  H  7997  8008       L1    16  0.30
      P1  H 10752 10765       L1    12  0.40

> <Gold.Chemscore.Hbond.Weighted>
-10.2773

> <Gold.Chemscore.Metal.Weighted>
-0.0000

> <Gold.Chemscore.Lipo.Weighted>
-4.2355

> <Gold.Chemscore.Internal_Hbond.Weighted>
0.0000

> <Gold.Chemscore.DEClash.Weighted>
2.0081

> <Gold.Chemscore.DEInternal.Weighted>
1.4344

> <Gold.Chemscore.Rot.Weighted>
7.1611

> <Gold.Chemscore.Internal.Correction.Weighted>
   9.000000E+99

> <Gold.Protein.RotatedTorsions>
[ 6907 6896 6895 6894 ] final  151.76 input  -60.11 | X-H torsion
[ 7974 7965 7964 7962 ] final   83.11 input  175.53 | X-H torsion
[ 8008 7997 7996 7995 ] final  -81.11 input   59.86 | X-H torsion
[ 10167 10162 10161 10158 ] final  -13.01 input  -65.29 | X-H torsion
[ 10718 10713 10712 10709 ] final  -46.13 input   66.30 | X-H torsion
[ 10763 10752 10751 10750 ] final -163.76 input  -60.55 | X-H torsion
[ 11005 11000 10999 10996 ] final -107.02 input  -57.11 | X-H torsion

> <Gold.Protein.ActiveResidues>
 VAL166  LYS551  ARG553  GLY616  TRP617  ASP618  TYR619  PRO620  LYS621  CYS622 
 ASP623  PHE694  ASN695  SER759  ASP760  ASP761  ALA762  ILE779  LEU786  VAL792 
 PHE793  MET794  SER795  GLU796  ALA797  LYS798  CYS799  TRP800  GLU811  SER814 

> <Gold.Protein.RotatedAtoms>
  152.0961  133.4225  159.4565 H   0  0  0  0  0  0  0  0  0  0  0  0  # atno 6907 bound_to 6896
  150.6863  134.2815  159.4638 H   0  0  0  0  0  0  0  0  0  0  0  0  # atno 6908 bound_to 6896
  152.0671  134.9557  160.0625 H   0  0  0  0  0  0  0  0  0  0  0  0  # atno 6909 bound_to 6896
  145.6163  139.2377  143.2164 H   0  0  0  0  0  0  0  0  0  0  0  0  # atno 7974 bound_to 7965
  154.5950  140.0653  156.9291 H   0  0  0  0  0  0  0  0  0  0  0  0  # atno 8008 bound_to 7997
  155.2229  140.3331  155.4295 H   0  0  0  0  0  0  0  0  0  0  0  0  # atno 8009 bound_to 7997
  156.2281  140.1828  156.7296 H   0  0  0  0  0  0  0  0  0  0  0  0  # atno 8010 bound_to 7997
  140.7173  143.5471  150.9342 H   0  0  0  0  0  0  0  0  0  0  0  0  # atno 10167 bound_to 10162
  156.2214  130.4166  149.8988 H   0  0  0  0  0  0  0  0  0  0  0  0  # atno 10718 bound_to 10713
  154.7092  135.3003  154.9224 H   0  0  0  0  0  0  0  0  0  0  0  0  # atno 10763 bound_to 10752
  154.0131  135.6692  153.4771 H   0  0  0  0  0  0  0  0  0  0  0  0  # atno 10764 bound_to 10752
  153.0741  135.5044  154.8280 H   0  0  0  0  0  0  0  0  0  0  0  0  # atno 10765 bound_to 10752
  141.0975  133.8944  157.1926 H   0  0  0  0  0  0  0  0  0  0  0  0  # atno 11005 bound_to 11000
  146.1466  140.6984  142.9342 LP  0  0  0  0  0  0  0  0  0  0  0  0  # atno 17320 bound_to 7965
  144.7249  140.4493  143.6980 LP  0  0  0  0  0  0  0  0  0  0  0  0  # atno 17321 bound_to 7965
  139.9195  143.6623  152.3099 LP  0  0  0  0  0  0  0  0  0  0  0  0  # atno 17342 bound_to 10162
  139.7035  144.7631  151.1233 LP  0  0  0  0  0  0  0  0  0  0  0  0  # atno 17343 bound_to 10162
  156.6633  130.8791  151.3551 LP  0  0  0  0  0  0  0  0  0  0  0  0  # atno 17370 bound_to 10713
  157.7089  130.9417  150.1023 LP  0  0  0  0  0  0  0  0  0  0  0  0  # atno 17371 bound_to 10713
  139.9816  135.0096  156.9764 LP  0  0  0  0  0  0  0  0  0  0  0  0  # atno 17394 bound_to 11000
  140.5103  134.1008  155.7269 LP  0  0  0  0  0  0  0  0  0  0  0  0  # atno 17395 bound_to 11000

$$$$
