AV-unprocessed.smi:730|AV-procd|sdf|3524|dock5
  -GOLD-   22720 0513D 1   1.00000     0.00000
 Structure written by MMmdl.
 40 41  0  0  0  0  0  0  0  0  1 V2000
  148.0296  123.9981  149.1004 C   0  0  0  0  0  0  0  0  0  0  0  0
  148.9001  124.3410  150.3259 C   0  0  0  0  0  0  0  0  0  0  0  0
  148.7820  123.1902  151.3427 C   0  0  0  0  0  0  0  0  0  0  0  0
  150.3643  124.4602  149.8634 C   0  0  0  0  0  0  0  0  0  0  0  0
  148.4535  125.6313  150.9553 C   0  0  0  0  0  0  0  0  0  0  0  0
  148.3616  126.9191  150.5007 C   0  0  0  0  0  0  0  0  0  0  0  0
  147.8620  127.6271  151.6255 C   0  0  0  0  0  0  0  0  0  0  0  0
  147.6230  129.0235  151.5588 N   0  0  0  0  0  0  0  0  0  0  0  0
  146.5680  129.6981  152.0463 C   0  0  0  0  0  0  0  0  0  0  0  0
  145.6149  129.1936  152.6408 O   0  0  0  0  0  0  0  0  0  0  0  0
  146.6755  131.0117  151.8027 N   0  0  0  0  0  0  0  0  0  0  0  0
  145.6963  132.0237  152.2004 C   0  0  2  0  0  0  0  0  0  0  0  0
  144.4054  131.9255  151.3584 C   0  0  0  0  0  0  0  0  0  0  0  0
  144.1369  133.3311  150.8133 C   0  0  0  0  0  0  0  0  0  0  0  0
  145.5142  133.9833  150.7450 C   0  0  0  0  0  0  0  0  0  0  0  0
  146.2225  133.4638  151.9970 C   0  0  2  0  0  0  0  0  0  0  0  0
  147.6284  133.5751  151.8738 O   0  0  0  0  0  0  0  0  0  0  0  0
  147.6655  126.8475  152.6765 N   0  0  0  0  0  0  0  0  0  0  0  0
  148.0422  125.5681  152.2534 O   0  0  0  0  0  0  0  0  0  0  0  0
  148.3467  123.0640  148.6355 H   0  0  0  0  0  0  0  0  0  0  0  0
  148.0887  124.7771  148.3391 H   0  0  0  0  0  0  0  0  0  0  0  0
  146.9804  123.8851  149.3758 H   0  0  0  0  0  0  0  0  0  0  0  0
  147.7548  123.0722  151.6901 H   0  0  0  0  0  0  0  0  0  0  0  0
  149.4059  123.3661  152.2199 H   0  0  0  0  0  0  0  0  0  0  0  0
  149.0933  122.2399  150.9075 H   0  0  0  0  0  0  0  0  0  0  0  0
  150.7110  123.5388  149.3943 H   0  0  0  0  0  0  0  0  0  0  0  0
  151.0316  124.6707  150.7000 H   0  0  0  0  0  0  0  0  0  0  0  0
  150.4856  125.2650  149.1374 H   0  0  0  0  0  0  0  0  0  0  0  0
  148.6120  127.2937  149.5193 H   0  0  0  0  0  0  0  0  0  0  0  0
  148.3311  129.5673  151.0885 H   0  0  0  0  0  0  0  0  0  0  0  0
  147.4917  131.3436  151.3095 H   0  0  0  0  0  0  0  0  0  0  0  0
  145.4643  131.8889  153.2587 H   0  0  0  0  0  0  0  0  0  0  0  0
  144.5417  131.2399  150.5204 H   0  0  0  0  0  0  0  0  0  0  0  0
  143.5642  131.5517  151.9430 H   0  0  0  0  0  0  0  0  0  0  0  0
  143.6300  133.3167  149.8481 H   0  0  0  0  0  0  0  0  0  0  0  0
  143.5060  133.8821  151.5122 H   0  0  0  0  0  0  0  0  0  0  0  0
  146.0327  133.6420  149.8475 H   0  0  0  0  0  0  0  0  0  0  0  0
  145.4644  135.0720  150.7097 H   0  0  0  0  0  0  0  0  0  0  0  0
  145.9095  134.0721  152.8471 H   0  0  0  0  0  0  0  0  0  0  0  0
  147.8769  134.4622  152.0849 H   0  0  0  0  0  0  0  0  0  0  0  0
  1  2  1  0  0  0  0
  1 20  1  0  0  0  0
  1 21  1  0  0  0  0
  1 22  1  0  0  0  0
  2  3  1  0  0  0  0
  2  4  1  0  0  0  0
  2  5  1  0  0  0  0
  3 23  1  0  0  0  0
  3 24  1  0  0  0  0
  3 25  1  0  0  0  0
  4 26  1  0  0  0  0
  4 27  1  0  0  0  0
  4 28  1  0  0  0  0
  5 19  1  0  0  0  0
  5  6  2  0  0  0  0
  6  7  1  0  0  0  0
  6 29  1  0  0  0  0
  7  8  1  0  0  0  0
  7 18  2  0  0  0  0
  8  9  1  0  0  0  0
  8 30  1  0  0  0  0
  9 10  2  0  0  0  0
  9 11  1  0  0  0  0
 11 12  1  0  0  0  0
 11 31  1  0  0  0  0
 12 16  1  0  0  0  0
 12 13  1  0  0  0  0
 12 32  1  0  0  0  0
 13 14  1  0  0  0  0
 13 33  1  0  0  0  0
 13 34  1  0  0  0  0
 14 15  1  0  0  0  0
 14 35  1  0  0  0  0
 14 36  1  0  0  0  0
 15 16  1  0  0  0  0
 15 37  1  0  0  0  0
 15 38  1  0  0  0  0
 16 17  1  0  0  0  0
 16 39  1  0  0  0  0
 17 40  1  0  0  0  0
 18 19  1  0  0  0  0
M  END
> <s_m_source_file>
AV-unprocessed.smi

> <i_m_source_file_index>
730

> <i_lp_mmshare_version>
43012

> <i_f3d_flags>
0

> <s_epik_input>
W0NIM11DKFtDSDNdKShbQ0gzXSljMVtjSF1jKG5vMSlbTkhdQyg9TylbTkhdW0NAQEhdMltDSDJdW0NIMl1bQ0gyXVtDQEhdMltPSF0=

> <s_epik_cmdline>
J2VwaWtfcHl0aG9uJywgJy1waCcsICc3LjAnLCAnLXRuJywgJzgnLCAnLW1hJywgJzIwMCcsICctbWV0YWxfYmluZGluZycsICctaW1hZScsICc8aW5maWxlLm1hZT4nLCAnLW9tYWUnLCAnPG91dGZpbGUubWFlPic=

> <r_lp_tautomer_probability>
1

> <r_epik_Ionization_Penalty>
2.23071e-05

> <r_epik_Ionization_Penalty_Charging>
0

> <r_epik_Ionization_Penalty_Neutral>
2.23071e-05

> <r_epik_State_Penalty>
-0

> <r_epik_Charging_Adjusted_Penalty>
0

> <i_epik_Tot_Q>
0

> <i_epik_Tot_abs_Q>
0

> <r_epik_Metal_State_Penalty>
-0

> <b_epik_Metal_Only>
0

> <s_lp_Force_Field>
OPLS_2005

> <r_lp_Energy>
21.1431

> <b_lp_Chiralities_Consistent>
1

> <s_lp_Variant>
AV-unprocessed.smi:730-3

> <Gold.Version>
5.8.1

> <Gold.Id.Protein>
6NUR|6NUR_protein|mol2

> <Gold.PLP.Fitness>
45.1795

> <Gold.PLP.PLP>
-37.3717

> <Gold.PLP.part.hbond>
-3.7739

> <Gold.PLP.part.metal>
0.0000

> <Gold.PLP.part.buried>
-4.4497

> <Gold.PLP.part.nonpolar>
-27.1274

> <Gold.PLP.part.repulsive>
0.2886

> <Gold.PLP.ligand.clash>
0.0000

> <Gold.PLP.ligand.torsion>
0.4519

> <Gold.PLP.Chemscore.Hbond>
2.9033

> <Gold.PLP.Chemscore.CHOScore>
0.0000

> <Gold.PLP.Chemscore.Metal>
0.0000

> <Gold.Chemscore.Hbonds>
donor molecule, donor type, donor heavy atom, donor atom, acceptor molecule, acceptor atom, score
      L1  H     8    30       P1 10747  1.00
      L1  H    11    31       P1 10747  0.91
      L1  H    17    40       P1  7948  1.00

> <Gold.PLP.Chemscore.Internal.Correction>
0.0019

> <Gold.Rescore>
     Score         DG    S(hbond)    S(metal)    S(lipo)     H(rot)  DE(clash)    DE(int)     intcor
     14.85     -15.38       1.77        0.00      71.40       1.71       0.08       0.45       ----

> <Gold.Chemscore.Fitness>
14.8456

> <Gold.Chemscore.DG>
-15.3780

> <Gold.Chemscore.ZeroCoef>
-5.4800

> <Gold.Chemscore.Hbond>
1.7749

> <Gold.Chemscore.Metal>
0.0000

> <Gold.Chemscore.Lipo>
71.4017

> <Gold.Chemscore.Internal_Hbond>
0.0000

> <Gold.Chemscore.DEClash>
0.0779

> <Gold.Chemscore.DEInternal>
0.4545

> <Gold.Chemscore.Rot>
1.7125

> <Gold.Chemscore.Internal.Correction>
   9.000000E+99

> <Gold.Chemscore.Hbonds>
donor molecule, donor type, donor heavy atom, donor atom, acceptor molecule, acceptor atom, score
      L1  H     8    30       P1 10747  0.34
      L1  H    11    31       P1 10747  0.88
      L1  H    17    40       P1  7948  0.23

> <Gold.Chemscore.Hbond.Weighted>
-5.9281

> <Gold.Chemscore.Metal.Weighted>
-0.0000

> <Gold.Chemscore.Lipo.Weighted>
-8.3540

> <Gold.Chemscore.Internal_Hbond.Weighted>
0.0000

> <Gold.Chemscore.DEClash.Weighted>
0.0779

> <Gold.Chemscore.DEInternal.Weighted>
0.4545

> <Gold.Chemscore.Rot.Weighted>
4.3841

> <Gold.Chemscore.Internal.Correction.Weighted>
   9.000000E+99

> <Gold.Protein.RotatedTorsions>
[ 6907 6896 6895 6894 ] final -177.83 input  -60.11 | X-H torsion
[ 7974 7965 7964 7962 ] final   68.92 input  175.53 | X-H torsion
[ 8008 7997 7996 7995 ] final   45.88 input   59.86 | X-H torsion
[ 10167 10162 10161 10158 ] final   -8.73 input  -65.29 | X-H torsion
[ 10718 10713 10712 10709 ] final  132.44 input   66.30 | X-H torsion
[ 10763 10752 10751 10750 ] final  162.43 input  -60.55 | X-H torsion
[ 11005 11000 10999 10996 ] final  100.87 input  -57.11 | X-H torsion

> <Gold.Protein.ActiveResidues>
 VAL166  LYS551  ARG553  GLY616  TRP617  ASP618  TYR619  PRO620  LYS621  CYS622 
 ASP623  PHE694  ASN695  SER759  ASP760  ASP761  ALA762  ILE779  LEU786  VAL792 
 PHE793  MET794  SER795  GLU796  ALA797  LYS798  CYS799  TRP800  GLU811  SER814 

> <Gold.Protein.RotatedAtoms>
  151.6274  133.3334  159.3100 H   0  0  0  0  0  0  0  0  0  0  0  0  # atno 6907 bound_to 6896
  150.8074  134.7212  159.6668 H   0  0  0  0  0  0  0  0  0  0  0  0  # atno 6908 bound_to 6896
  152.4170  134.6028  160.0056 H   0  0  0  0  0  0  0  0  0  0  0  0  # atno 6909 bound_to 6896
  145.7967  139.2961  143.1179 H   0  0  0  0  0  0  0  0  0  0  0  0  # atno 7974 bound_to 7965
  155.3432  140.3409  155.4239 H   0  0  0  0  0  0  0  0  0  0  0  0  # atno 8008 bound_to 7997
  156.1802  140.1661  156.8324 H   0  0  0  0  0  0  0  0  0  0  0  0  # atno 8009 bound_to 7997
  154.5325  140.0742  156.8353 H   0  0  0  0  0  0  0  0  0  0  0  0  # atno 8010 bound_to 7997
  140.7067  143.5936  150.8869 H   0  0  0  0  0  0  0  0  0  0  0  0  # atno 10167 bound_to 10162
  157.4871  131.1089  150.9605 H   0  0  0  0  0  0  0  0  0  0  0  0  # atno 10718 bound_to 10713
  154.2783  135.2764  155.2708 H   0  0  0  0  0  0  0  0  0  0  0  0  # atno 10763 bound_to 10752
  154.5241  135.5748  153.6708 H   0  0  0  0  0  0  0  0  0  0  0  0  # atno 10764 bound_to 10752
  152.9933  135.6211  154.2941 H   0  0  0  0  0  0  0  0  0  0  0  0  # atno 10765 bound_to 10752
  139.8772  134.9159  156.4821 H   0  0  0  0  0  0  0  0  0  0  0  0  # atno 11005 bound_to 11000
  145.9921  140.8594  143.0061 LP  0  0  0  0  0  0  0  0  0  0  0  0  # atno 17320 bound_to 7965
  144.6774  140.2230  143.7364 LP  0  0  0  0  0  0  0  0  0  0  0  0  # atno 17321 bound_to 7965
  139.9661  143.6109  152.2988 LP  0  0  0  0  0  0  0  0  0  0  0  0  # atno 17342 bound_to 10162
  139.6679  144.7662  151.1839 LP  0  0  0  0  0  0  0  0  0  0  0  0  # atno 17343 bound_to 10162
  157.0319  130.5715  149.5344 LP  0  0  0  0  0  0  0  0  0  0  0  0  # atno 17370 bound_to 10713
  156.0153  130.5247  150.8115 LP  0  0  0  0  0  0  0  0  0  0  0  0  # atno 17371 bound_to 10713
  140.8719  133.7982  155.9374 LP  0  0  0  0  0  0  0  0  0  0  0  0  # atno 17394 bound_to 11000
  140.8943  134.2456  157.5077 LP  0  0  0  0  0  0  0  0  0  0  0  0  # atno 17395 bound_to 11000

$$$$
