AV-unprocessed.smi:20|AV-procd|sdf|116|dock6
  -GOLD-   2262015283D 1   1.00000     0.00000
 Structure written by MMmdl.
 57 61  0  0  0  0  0  0  0  0  1 V2000
  151.9626  130.8876  155.9078 O   0  0  0  0  0  0  0  0  0  0  0  0
  151.1842  131.7178  155.4446 C   0  0  0  0  0  0  0  0  0  0  0  0
  151.0389  133.1313  155.9819 C   0  0  0  0  0  0  0  0  0  0  0  0
  149.7183  133.6248  155.3430 C   0  0  1  0  0  0  0  0  0  0  0  0
  148.5034  133.4007  156.2834 C   0  0  0  0  0  0  0  0  0  0  0  0
  148.4951  134.3833  157.4679 C   0  0  0  0  0  0  0  0  0  0  0  0
  148.6138  135.8361  156.9855 C   0  0  0  0  0  0  0  0  0  0  0  0
  149.7700  135.9939  156.1036 N   0  0  0  0  0  0  0  0  0  0  0  0
  150.2327  137.2501  155.8789 C   0  0  0  0  0  0  0  0  0  0  0  0
  150.2165  137.7638  154.6194 N   0  0  0  0  0  0  0  0  0  0  0  0
  150.6793  138.9952  154.3855 C   0  0  0  0  0  0  0  0  0  0  0  0
  151.1914  139.8720  155.2507 N   0  0  0  0  0  0  0  0  0  0  0  0
  151.2023  139.3679  156.5175 C   0  0  0  0  0  0  0  0  0  0  0  0
  150.7466  138.0792  156.9163 C   0  0  0  0  0  0  0  0  0  0  0  0
  150.9062  137.9265  158.2889 N   0  0  0  0  0  0  0  0  0  0  0  0
  151.4349  139.0547  158.6766 C   0  0  0  0  0  0  0  0  0  0  0  0
  151.6328  139.9835  157.6801 N   0  0  0  0  0  0  0  0  0  0  0  0
  152.2080  141.3092  157.8310 C   0  0  0  0  0  0  0  0  0  0  0  0
  151.8818  141.9968  159.1820 C   0  0  1  0  0  0  0  0  0  0  0  0
  152.7245  141.3491  160.3056 C   0  0  0  0  0  0  0  0  0  0  0  0
  154.1029  141.6179  160.1463 O   0  0  0  0  0  0  0  0  0  0  0  0
  152.0228  143.5467  159.1552 C   0  0  2  0  0  0  0  0  0  0  0  0
  151.6444  144.2404  160.4544 C   0  0  0  0  0  0  0  0  0  0  0  0
  151.4342  145.6773  160.0012 C   0  0  0  0  0  0  0  0  0  0  0  0
  150.8060  145.5578  158.7343 O   0  0  0  0  0  0  0  0  0  0  0  0
  151.1113  144.2882  158.1634 C   0  0  0  0  0  0  0  0  0  0  0  0
  149.7774  135.1142  154.9350 C   0  0  0  0  0  0  0  0  0  0  0  0
  149.5867  132.7140  154.0990 C   0  0  0  0  0  0  0  0  0  0  0  0
  150.3572  131.5283  154.4196 N   0  0  0  0  0  0  0  0  0  0  0  0
  151.0319  133.1428  157.0713 H   0  0  0  0  0  0  0  0  0  0  0  0
  151.8941  133.7180  155.6440 H   0  0  0  0  0  0  0  0  0  0  0  0
  147.5796  133.5390  155.7200 H   0  0  0  0  0  0  0  0  0  0  0  0
  148.4817  132.3744  156.6521 H   0  0  0  0  0  0  0  0  0  0  0  0
  147.5792  134.2603  158.0463 H   0  0  0  0  0  0  0  0  0  0  0  0
  149.3152  134.1590  158.1496 H   0  0  0  0  0  0  0  0  0  0  0  0
  147.7100  136.1254  156.4473 H   0  0  0  0  0  0  0  0  0  0  0  0
  148.7017  136.4964  157.8494 H   0  0  0  0  0  0  0  0  0  0  0  0
  150.6322  139.3252  153.3582 H   0  0  0  0  0  0  0  0  0  0  0  0
  151.6902  139.2448  159.7089 H   0  0  0  0  0  0  0  0  0  0  0  0
  153.2874  141.2009  157.7192 H   0  0  0  0  0  0  0  0  0  0  0  0
  151.8793  141.9351  157.0008 H   0  0  0  0  0  0  0  0  0  0  0  0
  150.8431  141.7678  159.4240 H   0  0  0  0  0  0  0  0  0  0  0  0
  152.4084  141.7013  161.2873 H   0  0  0  0  0  0  0  0  0  0  0  0
  152.5809  140.2682  160.3132 H   0  0  0  0  0  0  0  0  0  0  0  0
  154.2433  142.5464  160.2532 H   0  0  0  0  0  0  0  0  0  0  0  0
  153.0577  143.8079  158.9271 H   0  0  0  0  0  0  0  0  0  0  0  0
  150.7123  143.8337  160.8497 H   0  0  0  0  0  0  0  0  0  0  0  0
  152.4107  144.1580  161.2260 H   0  0  0  0  0  0  0  0  0  0  0  0
  150.8280  146.2562  160.6983 H   0  0  0  0  0  0  0  0  0  0  0  0
  152.3927  146.1835  159.8768 H   0  0  0  0  0  0  0  0  0  0  0  0
  151.5879  144.4222  157.1932 H   0  0  0  0  0  0  0  0  0  0  0  0
  150.1727  143.7549  158.0098 H   0  0  0  0  0  0  0  0  0  0  0  0
  150.6497  135.2887  154.3060 H   0  0  0  0  0  0  0  0  0  0  0  0
  148.9090  135.3605  154.3223 H   0  0  0  0  0  0  0  0  0  0  0  0
  148.5532  132.4607  153.8603 H   0  0  0  0  0  0  0  0  0  0  0  0
  150.0273  133.1771  153.2148 H   0  0  0  0  0  0  0  0  0  0  0  0
  150.2790  130.6655  153.9007 H   0  0  0  0  0  0  0  0  0  0  0  0
  1  2  2  0  0  0  0
  2 29  1  0  0  0  0
  2  3  1  0  0  0  0
  3  4  1  0  0  0  0
  3 30  1  0  0  0  0
  3 31  1  0  0  0  0
  4 27  1  0  0  0  0
  4  5  1  0  0  0  0
  4 28  1  0  0  0  0
  5  6  1  0  0  0  0
  5 32  1  0  0  0  0
  5 33  1  0  0  0  0
  6  7  1  0  0  0  0
  6 34  1  0  0  0  0
  6 35  1  0  0  0  0
  7  8  1  0  0  0  0
  7 36  1  0  0  0  0
  7 37  1  0  0  0  0
  8  9  1  0  0  0  0
  8 27  1  0  0  0  0
  9 14  1  0  0  0  0
  9 10  2  0  0  0  0
 10 11  1  0  0  0  0
 11 12  2  0  0  0  0
 11 38  1  0  0  0  0
 12 13  1  0  0  0  0
 13 17  1  0  0  0  0
 13 14  2  0  0  0  0
 14 15  1  0  0  0  0
 15 16  2  0  0  0  0
 16 17  1  0  0  0  0
 16 39  1  0  0  0  0
 17 18  1  0  0  0  0
 18 19  1  0  0  0  0
 18 40  1  0  0  0  0
 18 41  1  0  0  0  0
 19 20  1  0  0  0  0
 19 22  1  0  0  0  0
 19 42  1  0  0  0  0
 20 21  1  0  0  0  0
 20 43  1  0  0  0  0
 20 44  1  0  0  0  0
 21 45  1  0  0  0  0
 22 26  1  0  0  0  0
 22 23  1  0  0  0  0
 22 46  1  0  0  0  0
 23 24  1  0  0  0  0
 23 47  1  0  0  0  0
 23 48  1  0  0  0  0
 24 25  1  0  0  0  0
 24 49  1  0  0  0  0
 24 50  1  0  0  0  0
 25 26  1  0  0  0  0
 26 51  1  0  0  0  0
 26 52  1  0  0  0  0
 27 53  1  0  0  0  0
 27 54  1  0  0  0  0
 28 29  1  0  0  0  0
 28 55  1  0  0  0  0
 28 56  1  0  0  0  0
 29 57  1  0  0  0  0
M  END
> <s_m_source_file>
AV-unprocessed.smi

> <i_m_source_file_index>
20

> <i_lp_mmshare_version>
43012

> <i_f3d_flags>
0

> <s_epik_input>
W0NIMl0xW05IXUMoPU8pW0NIMl1bQ0BAXTEyW0NIMl1bQ0gyXVtDSDJdTihbQ0gyXTIpYyhuW2NIXW4zKWMoYzM0KW5bY0hdbjRbQ0gyXVtDQEhdKFtDSDJdW09IXSlbQ0BASF01W0NIMl1bQ0gyXU9bQ0gyXTU=

> <s_epik_cmdline>
J2VwaWtfcHl0aG9uJywgJy1waCcsICc3LjAnLCAnLXRuJywgJzgnLCAnLW1hJywgJzIwMCcsICctbWV0YWxfYmluZGluZycsICctaW1hZScsICc8aW5maWxlLm1hZT4nLCAnLW9tYWUnLCAnPG91dGZpbGUubWFlPic=

> <r_lp_tautomer_probability>
1

> <r_epik_Ionization_Penalty>
0.0019697

> <r_epik_Ionization_Penalty_Charging>
0

> <r_epik_Ionization_Penalty_Neutral>
0.0019697

> <r_epik_State_Penalty>
0.00113613

> <r_epik_Charging_Adjusted_Penalty>
0.00113613

> <i_epik_Tot_Q>
0

> <i_epik_Tot_abs_Q>
0

> <r_epik_Metal_State_Penalty>
-0

> <b_epik_Metal_Only>
0

> <s_lp_Force_Field>
OPLS_2005

> <r_lp_Energy>
60.744

> <b_lp_Chiralities_Consistent>
1

> <s_lp_Variant>
AV-unprocessed.smi:20-4

> <Gold.Version>
5.8.1

> <Gold.Id.Protein>
6NUR|6NUR_protein|mol2

> <Gold.PLP.Fitness>
45.3912

> <Gold.PLP.PLP>
-43.6328

> <Gold.PLP.part.hbond>
-1.9048

> <Gold.PLP.part.metal>
0.0000

> <Gold.PLP.part.buried>
-7.1423

> <Gold.PLP.part.nonpolar>
-34.2197

> <Gold.PLP.part.repulsive>
0.3981

> <Gold.PLP.ligand.clash>
0.0000

> <Gold.PLP.ligand.torsion>
0.8817

> <Gold.PLP.Chemscore.Hbond>
0.0000

> <Gold.PLP.Chemscore.CHOScore>
1.0000

> <Gold.PLP.Chemscore.Metal>
0.0000

> <Gold.Chemscore.Hbonds>
donor molecule, donor type, donor heavy atom, donor atom, acceptor molecule, acceptor atom, score
      P1  H  7989  7998       L1    12  0.09
      L1  C    11    38       P1  7957  1.00

> <Gold.PLP.Chemscore.Internal.Correction>
0.5218

> <Gold.Rescore>
     Score         DG    S(hbond)    S(metal)    S(lipo)     H(rot)  DE(clash)    DE(int)     intcor
      9.52     -10.69       0.00        0.00     104.55       2.74       0.07       1.10       ----

> <Gold.Chemscore.Fitness>
9.5203

> <Gold.Chemscore.DG>
-10.6944

> <Gold.Chemscore.ZeroCoef>
-5.4800

> <Gold.Chemscore.Hbond>
0.0000

> <Gold.Chemscore.Metal>
0.0000

> <Gold.Chemscore.Lipo>
104.5519

> <Gold.Chemscore.Internal_Hbond>
0.0000

> <Gold.Chemscore.DEClash>
0.0716

> <Gold.Chemscore.DEInternal>
1.1024

> <Gold.Chemscore.Rot>
2.7415

> <Gold.Chemscore.Internal.Correction>
   9.000000E+99

> <Gold.Chemscore.Hbond.Weighted>
-0.0000

> <Gold.Chemscore.Metal.Weighted>
-0.0000

> <Gold.Chemscore.Lipo.Weighted>
-12.2326

> <Gold.Chemscore.Internal_Hbond.Weighted>
0.0000

> <Gold.Chemscore.DEClash.Weighted>
0.0716

> <Gold.Chemscore.DEInternal.Weighted>
1.1024

> <Gold.Chemscore.Rot.Weighted>
7.0182

> <Gold.Chemscore.Internal.Correction.Weighted>
   9.000000E+99

> <Gold.Protein.RotatedTorsions>
[ 6907 6896 6895 6894 ] final   31.30 input  -60.11 | X-H torsion
[ 7974 7965 7964 7962 ] final  174.93 input  175.53 | X-H torsion
[ 8008 7997 7996 7995 ] final -113.34 input   59.86 | X-H torsion
[ 10167 10162 10161 10158 ] final  127.37 input  -65.29 | X-H torsion
[ 10718 10713 10712 10709 ] final   44.35 input   66.30 | X-H torsion
[ 10763 10752 10751 10750 ] final -153.05 input  -60.55 | X-H torsion
[ 11005 11000 10999 10996 ] final -116.52 input  -57.11 | X-H torsion

> <Gold.Protein.ActiveResidues>
 VAL166  LYS551  ARG553  GLY616  TRP617  ASP618  TYR619  PRO620  LYS621  CYS622 
 ASP623  PHE694  ASN695  SER759  ASP760  ASP761  ALA762  ILE779  LEU786  VAL792 
 PHE793  MET794  SER795  GLU796  ALA797  LYS798  CYS799  TRP800  GLU811  SER814 

> <Gold.Protein.RotatedAtoms>
  152.0583  134.9610  160.0574 H   0  0  0  0  0  0  0  0  0  0  0  0  # atno 6907 bound_to 6896
  152.0983  133.4232  159.4584 H   0  0  0  0  0  0  0  0  0  0  0  0  # atno 6908 bound_to 6896
  150.6838  134.2709  159.4631 H   0  0  0  0  0  0  0  0  0  0  0  0  # atno 6909 bound_to 6896
  144.7211  139.9870  143.6439 H   0  0  0  0  0  0  0  0  0  0  0  0  # atno 7974 bound_to 7965
  155.0192  140.0393  157.2430 H   0  0  0  0  0  0  0  0  0  0  0  0  # atno 8008 bound_to 7997
  154.7392  140.2745  155.6364 H   0  0  0  0  0  0  0  0  0  0  0  0  # atno 8009 bound_to 7997
  156.2860  140.2669  156.2115 H   0  0  0  0  0  0  0  0  0  0  0  0  # atno 8010 bound_to 7997
  139.5582  144.6863  151.4121 H   0  0  0  0  0  0  0  0  0  0  0  0  # atno 10167 bound_to 10162
  157.4259  130.7996  149.7558 H   0  0  0  0  0  0  0  0  0  0  0  0  # atno 10718 bound_to 10713
  154.7954  135.3222  154.7680 H   0  0  0  0  0  0  0  0  0  0  0  0  # atno 10763 bound_to 10752
  153.8359  135.6875  153.4813 H   0  0  0  0  0  0  0  0  0  0  0  0  # atno 10764 bound_to 10752
  153.1643  135.4648  154.9757 H   0  0  0  0  0  0  0  0  0  0  0  0  # atno 10765 bound_to 10752
  141.0416  133.9827  157.2985 H   0  0  0  0  0  0  0  0  0  0  0  0  # atno 11005 bound_to 11000
  146.0442  139.3450  143.0679 LP  0  0  0  0  0  0  0  0  0  0  0  0  # atno 17320 bound_to 7965
  145.8297  140.9637  143.0855 LP  0  0  0  0  0  0  0  0  0  0  0  0  # atno 17321 bound_to 7965
  140.6858  143.7977  150.7184 LP  0  0  0  0  0  0  0  0  0  0  0  0  # atno 17342 bound_to 10162
  140.1444  143.4412  152.2172 LP  0  0  0  0  0  0  0  0  0  0  0  0  # atno 17343 bound_to 10162
  155.9896  130.3950  150.3065 LP  0  0  0  0  0  0  0  0  0  0  0  0  # atno 17370 bound_to 10713
  157.1217  131.0248  151.3006 LP  0  0  0  0  0  0  0  0  0  0  0  0  # atno 17371 bound_to 10713
  139.9280  135.0201  156.8302 LP  0  0  0  0  0  0  0  0  0  0  0  0  # atno 17394 bound_to 11000
  140.6224  133.9982  155.7624 LP  0  0  0  0  0  0  0  0  0  0  0  0  # atno 17395 bound_to 11000

$$$$
