AV-unprocessed.smi:99|AV-procd|sdf|868|dock3
  -GOLD-   2262017323D 1   1.00000     0.00000
 Structure written by MMmdl.
 53 56  0  0  0  0  0  0  0  0  1 V2000
  148.8188  134.0504  158.7350 O   0  0  0  0  0  0  0  0  0  0  0  0
  147.6029  134.1470  158.9147 C   0  0  0  0  0  0  0  0  0  0  0  0
  146.6887  133.9560  157.9438 O   0  0  0  0  0  0  0  0  0  0  0  0
  147.1104  133.7497  156.6061 C   0  0  0  0  0  0  0  0  0  0  0  0
  147.5523  135.0949  156.0031 C   0  0  1  0  0  0  0  0  0  0  0  0
  148.6847  135.5737  156.7256 O   0  0  0  0  0  0  0  0  0  0  0  0
  149.8768  135.1941  156.0948 C   0  0  2  0  0  0  0  0  0  0  0  0
  150.7350  136.4230  155.9003 N   0  0  0  0  0  0  0  0  0  0  0  0
  151.0254  136.9042  154.6303 C   0  0  0  0  0  0  0  0  0  0  0  0
  151.8013  137.9920  154.4123 C   0  0  0  0  0  0  0  0  0  0  0  0
  152.3850  138.7214  155.5332 C   0  0  0  0  0  0  0  0  0  0  0  0
  153.0956  139.7193  155.4361 O   0  0  0  0  0  0  0  0  0  0  0  0
  152.0790  138.1939  156.7910 N   0  0  0  0  0  0  0  0  0  0  0  0
  151.2858  137.0703  157.0283 C   0  0  0  0  0  0  0  0  0  0  0  0
  151.1011  136.6813  158.1807 O   0  0  0  0  0  0  0  0  0  0  0  0
  149.5298  134.5681  154.7341 C   0  0  1  0  0  0  0  0  0  0  0  0
  149.6683  133.1600  154.7802 O   0  0  0  0  0  0  0  0  0  0  0  0
  148.0804  135.0087  154.5708 C   0  0  1  0  0  0  0  0  0  0  0  0
  147.3075  134.1896  153.6996 O   0  0  0  0  0  0  0  0  0  0  0  0
  146.0672  134.5613  153.3176 C   0  0  0  0  0  0  0  0  0  0  0  0
  145.4371  135.4803  153.8443 O   0  0  0  0  0  0  0  0  0  0  0  0
  145.5427  133.7468  152.1840 C   0  0  0  0  0  0  0  0  0  0  0  0
  144.1565  133.7622  151.9033 C   0  0  0  0  0  0  0  0  0  0  0  0
  143.6315  133.0040  150.8386 C   0  0  0  0  0  0  0  0  0  0  0  0
  144.4866  132.2203  150.0421 C   0  0  0  0  0  0  0  0  0  0  0  0
  145.8674  132.1961  150.3112 C   0  0  0  0  0  0  0  0  0  0  0  0
  146.3945  132.9543  151.3748 C   0  0  0  0  0  0  0  0  0  0  0  0
  146.9904  134.4912  160.2305 C   0  0  0  0  0  0  0  0  0  0  0  0
  145.6122  134.2488  160.4372 C   0  0  0  0  0  0  0  0  0  0  0  0
  145.0060  134.5594  161.6700 C   0  0  0  0  0  0  0  0  0  0  0  0
  145.7704  135.1177  162.7109 C   0  0  0  0  0  0  0  0  0  0  0  0
  147.1419  135.3654  162.5173 C   0  0  0  0  0  0  0  0  0  0  0  0
  147.7503  135.0545  161.2853 C   0  0  0  0  0  0  0  0  0  0  0  0
  152.4691  138.6625  157.5959 H   0  0  0  0  0  0  0  0  0  0  0  0
  147.9193  133.0190  156.5739 H   0  0  0  0  0  0  0  0  0  0  0  0
  146.2738  133.3407  156.0382 H   0  0  0  0  0  0  0  0  0  0  0  0
  146.7322  135.8112  156.0601 H   0  0  0  0  0  0  0  0  0  0  0  0
  150.4224  134.5276  156.7657 H   0  0  0  0  0  0  0  0  0  0  0  0
  150.6243  136.3970  153.7653 H   0  0  0  0  0  0  0  0  0  0  0  0
  151.9926  138.3245  153.4020 H   0  0  0  0  0  0  0  0  0  0  0  0
  150.1698  134.9585  153.9412 H   0  0  0  0  0  0  0  0  0  0  0  0
  150.5891  132.9508  154.8218 H   0  0  0  0  0  0  0  0  0  0  0  0
  148.0820  136.0286  154.1824 H   0  0  0  0  0  0  0  0  0  0  0  0
  143.4801  134.3560  152.5011 H   0  0  0  0  0  0  0  0  0  0  0  0
  142.5714  133.0244  150.6332 H   0  0  0  0  0  0  0  0  0  0  0  0
  144.0836  131.6390  149.2258 H   0  0  0  0  0  0  0  0  0  0  0  0
  146.5247  131.5948  149.7005 H   0  0  0  0  0  0  0  0  0  0  0  0
  147.4592  132.9128  151.5531 H   0  0  0  0  0  0  0  0  0  0  0  0
  145.0051  133.8198  159.6530 H   0  0  0  0  0  0  0  0  0  0  0  0
  143.9531  134.3682  161.8164 H   0  0  0  0  0  0  0  0  0  0  0  0
  145.3055  135.3556  163.6563 H   0  0  0  0  0  0  0  0  0  0  0  0
  147.7294  135.7950  163.3153 H   0  0  0  0  0  0  0  0  0  0  0  0
  148.8050  135.2572  161.1700 H   0  0  0  0  0  0  0  0  0  0  0  0
  1  2  2  0  0  0  0
  2  3  1  0  0  0  0
  2 28  1  0  0  0  0
  3  4  1  0  0  0  0
  4  5  1  0  0  0  0
  4 35  1  0  0  0  0
  4 36  1  0  0  0  0
  5 18  1  0  0  0  0
  5  6  1  0  0  0  0
  5 37  1  0  0  0  0
  6  7  1  0  0  0  0
  7  8  1  0  0  0  0
  7 16  1  0  0  0  0
  7 38  1  0  0  0  0
  8 14  1  0  0  0  0
  8  9  1  0  0  0  0
  9 10  2  0  0  0  0
  9 39  1  0  0  0  0
 10 11  1  0  0  0  0
 10 40  1  0  0  0  0
 11 12  2  0  0  0  0
 11 13  1  0  0  0  0
 13 34  1  0  0  0  0
 13 14  1  0  0  0  0
 14 15  2  0  0  0  0
 16 17  1  0  0  0  0
 16 18  1  0  0  0  0
 16 41  1  0  0  0  0
 17 42  1  0  0  0  0
 18 19  1  0  0  0  0
 18 43  1  0  0  0  0
 19 20  1  0  0  0  0
 20 21  2  0  0  0  0
 20 22  1  0  0  0  0
 22 27  1  0  0  0  0
 22 23  2  0  0  0  0
 23 24  1  0  0  0  0
 23 44  1  0  0  0  0
 24 25  2  0  0  0  0
 24 45  1  0  0  0  0
 25 26  1  0  0  0  0
 25 46  1  0  0  0  0
 26 27  2  0  0  0  0
 26 47  1  0  0  0  0
 27 48  1  0  0  0  0
 28 33  1  0  0  0  0
 28 29  2  0  0  0  0
 29 30  1  0  0  0  0
 29 49  1  0  0  0  0
 30 31  2  0  0  0  0
 30 50  1  0  0  0  0
 31 32  1  0  0  0  0
 31 51  1  0  0  0  0
 32 33  2  0  0  0  0
 32 52  1  0  0  0  0
 33 53  1  0  0  0  0
M  END
> <s_m_source_file>
AV-unprocessed.smi

> <i_m_source_file_index>
99

> <i_lp_mmshare_version>
43012

> <i_f3d_flags>
0

> <s_epik_input>
W2NIXTFbY0hdW2NIXVtjSF1bY0hdYzFDKD1PKU9bQ0gyXVtDQEBIXTJPW0NAQEhdKG4zW2NIXVtjSF1jKD1PKVtuSF1jMz1PKVtDQEBIXShbT0hdKVtDQEhdMk9DKD1PKWM0W2NIXVtjSF1bY0hdW2NIXVtjSF00

> <s_epik_cmdline>
J2VwaWtfcHl0aG9uJywgJy1waCcsICc3LjAnLCAnLXRuJywgJzgnLCAnLW1hJywgJzIwMCcsICctbWV0YWxfYmluZGluZycsICctaW1hZScsICc8aW5maWxlLm1hZT4nLCAnLW9tYWUnLCAnPG91dGZpbGUubWFlPic=

> <r_lp_tautomer_probability>
1

> <r_epik_Ionization_Penalty>
0.00454555

> <r_epik_Ionization_Penalty_Charging>
0.0045191

> <r_epik_Ionization_Penalty_Neutral>
2.64449e-05

> <r_epik_State_Penalty>
-0

> <r_epik_Charging_Adjusted_Penalty>
0.0045191

> <i_epik_Tot_Q>
0

> <i_epik_Tot_abs_Q>
0

> <r_epik_Metal_State_Penalty>
1.27877

> <b_epik_Metal_Only>
0

> <s_epik_Chemistry_Notes>
This compound has an ester and may undergo hydrolysis at high or low pH. This compound contains an acetal/aminal-like group ( X-CH(R)-Y where X, Y are N, S, or O) that may be acid/base labile, releasing an aldehyde.

> <s_lp_Force_Field>
OPLS_2005

> <r_lp_Energy>
39.5306

> <b_lp_Chiralities_Consistent>
1

> <s_lp_Variant>
AV-unprocessed.smi:99-4

> <Gold.Version>
5.8.1

> <Gold.Id.Protein>
6NUR|6NUR_protein|mol2

> <Gold.PLP.Fitness>
53.1462

> <Gold.PLP.PLP>
-46.2305

> <Gold.PLP.part.hbond>
-3.0000

> <Gold.PLP.part.metal>
0.0000

> <Gold.PLP.part.buried>
-6.9493

> <Gold.PLP.part.nonpolar>
-37.9137

> <Gold.PLP.part.repulsive>
0.2404

> <Gold.PLP.ligand.clash>
0.0000

> <Gold.PLP.ligand.torsion>
0.6083

> <Gold.PLP.Chemscore.Hbond>
1.7841

> <Gold.PLP.Chemscore.CHOScore>
0.8702

> <Gold.PLP.Chemscore.Metal>
0.0000

> <Gold.Chemscore.Hbonds>
donor molecule, donor type, donor heavy atom, donor atom, acceptor molecule, acceptor atom, score
      P1  H  6896  6907       L1     1  0.02
      P1  H  6896  6908       L1    15  0.25
      P1  H  7997  8008       L1    12  0.85
      L1  C     9    39       P1  7948  0.30
      L1  C     9    39       P1  7949  0.55

> <Gold.PLP.Chemscore.Internal.Correction>
0.1695

> <Gold.Rescore>
     Score         DG    S(hbond)    S(metal)    S(lipo)     H(rot)  DE(clash)    DE(int)     intcor
     14.83     -15.97       1.68        0.00     111.47       3.19       0.05       1.08       ----

> <Gold.Chemscore.Fitness>
14.8344

> <Gold.Chemscore.DG>
-15.9695

> <Gold.Chemscore.ZeroCoef>
-5.4800

> <Gold.Chemscore.Hbond>
1.6809

> <Gold.Chemscore.Metal>
0.0000

> <Gold.Chemscore.Lipo>
111.4724

> <Gold.Chemscore.Internal_Hbond>
0.0000

> <Gold.Chemscore.DEClash>
0.0512

> <Gold.Chemscore.DEInternal>
1.0839

> <Gold.Chemscore.Rot>
3.1903

> <Gold.Chemscore.Internal.Correction>
   9.000000E+99

> <Gold.Chemscore.Hbonds>
donor molecule, donor type, donor heavy atom, donor atom, acceptor molecule, acceptor atom, score
      P1  H  6896  6907       L1     1  0.03
      P1  H  6896  6908       L1    15  0.24
      P1  H  7997  8008       L1    12  0.84

> <Gold.Chemscore.Hbond.Weighted>
-5.6143

> <Gold.Chemscore.Metal.Weighted>
-0.0000

> <Gold.Chemscore.Lipo.Weighted>
-13.0423

> <Gold.Chemscore.Internal_Hbond.Weighted>
0.0000

> <Gold.Chemscore.DEClash.Weighted>
0.0512

> <Gold.Chemscore.DEInternal.Weighted>
1.0839

> <Gold.Chemscore.Rot.Weighted>
8.1671

> <Gold.Chemscore.Internal.Correction.Weighted>
   9.000000E+99

> <Gold.Protein.RotatedTorsions>
[ 6907 6896 6895 6894 ] final -147.80 input  -60.11 | X-H torsion
[ 7974 7965 7964 7962 ] final  125.29 input  175.53 | X-H torsion
[ 8008 7997 7996 7995 ] final  -48.44 input   59.86 | X-H torsion
[ 10167 10162 10161 10158 ] final   37.16 input  -65.29 | X-H torsion
[ 10718 10713 10712 10709 ] final   26.83 input   66.30 | X-H torsion
[ 10763 10752 10751 10750 ] final -123.39 input  -60.55 | X-H torsion
[ 11005 11000 10999 10996 ] final  144.96 input  -57.11 | X-H torsion

> <Gold.Protein.ActiveResidues>
 VAL166  LYS551  ARG553  GLY616  TRP617  ASP618  TYR619  PRO620  LYS621  CYS622 
 ASP623  PHE694  ASN695  SER759  ASP760  ASP761  ALA762  ILE779  LEU786  VAL792 
 PHE793  MET794  SER795  GLU796  ALA797  LYS798  CYS799  TRP800  GLU811  SER814 

> <Gold.Protein.RotatedAtoms>
  151.1608  133.4846  159.2594 H   0  0  0  0  0  0  0  0  0  0  0  0  # atno 6907 bound_to 6896
  151.1456  135.0201  159.8655 H   0  0  0  0  0  0  0  0  0  0  0  0  # atno 6908 bound_to 6896
  152.5463  134.1498  159.8566 H   0  0  0  0  0  0  0  0  0  0  0  0  # atno 6909 bound_to 6896
  145.0746  139.3703  143.4940 H   0  0  0  0  0  0  0  0  0  0  0  0  # atno 7974 bound_to 7965
  154.4029  140.1321  156.4339 H   0  0  0  0  0  0  0  0  0  0  0  0  # atno 8008 bound_to 7997
  155.7524  140.3488  155.5137 H   0  0  0  0  0  0  0  0  0  0  0  0  # atno 8009 bound_to 7997
  155.8937  140.1007  157.1390 H   0  0  0  0  0  0  0  0  0  0  0  0  # atno 8010 bound_to 7997
  140.4059  144.1659  150.6136 H   0  0  0  0  0  0  0  0  0  0  0  0  # atno 10167 bound_to 10162
  157.2120  130.6939  149.6232 H   0  0  0  0  0  0  0  0  0  0  0  0  # atno 10718 bound_to 10713
  154.8707  135.4100  154.2935 H   0  0  0  0  0  0  0  0  0  0  0  0  # atno 10763 bound_to 10752
  153.3807  135.7011  153.6573 H   0  0  0  0  0  0  0  0  0  0  0  0  # atno 10764 bound_to 10752
  153.5396  135.3650  155.2684 H   0  0  0  0  0  0  0  0  0  0  0  0  # atno 10765 bound_to 10752
  140.0673  134.9171  157.1287 H   0  0  0  0  0  0  0  0  0  0  0  0  # atno 11005 bound_to 11000
  146.3529  140.0508  142.8636 LP  0  0  0  0  0  0  0  0  0  0  0  0  # atno 17320 bound_to 7965
  145.1251  140.9485  143.4577 LP  0  0  0  0  0  0  0  0  0  0  0  0  # atno 17321 bound_to 7965
  140.4690  143.2420  151.9115 LP  0  0  0  0  0  0  0  0  0  0  0  0  # atno 17342 bound_to 10162
  139.4783  144.5390  151.8557 LP  0  0  0  0  0  0  0  0  0  0  0  0  # atno 17343 bound_to 10162
  155.9690  130.4548  150.5863 LP  0  0  0  0  0  0  0  0  0  0  0  0  # atno 17370 bound_to 10713
  157.3662  131.0758  151.1595 LP  0  0  0  0  0  0  0  0  0  0  0  0  # atno 17371 bound_to 10713
  140.3679  134.2422  155.7180 LP  0  0  0  0  0  0  0  0  0  0  0  0  # atno 17394 bound_to 11000
  141.1998  133.8003  157.0519 LP  0  0  0  0  0  0  0  0  0  0  0  0  # atno 17395 bound_to 11000

$$$$
