AV-unprocessed.smi:1833|AV-procd|sdf|7465|dock3
  -GOLD-   22720 9153D 1   1.00000     0.00000
 Structure written by MMmdl.
 42 43  0  0  0  0  0  0  0  0  2 V2000
  146.9693  128.5583  151.8797 C   0  0  0  0  0  0  0  0  0  0  0  0
  147.0937  129.9340  152.5506 C   0  0  0  0  0  0  0  0  0  0  0  0
  146.6943  131.0460  151.6514 N   0  3  1  0  0  0  0  0  0  0  0  0
  145.3194  130.8668  151.1157 C   0  0  0  0  0  0  0  0  0  0  0  0
  144.9782  131.9521  150.0809 C   0  0  0  0  0  0  0  0  0  0  0  0
  145.1533  133.3556  150.6746 C   0  0  0  0  0  0  0  0  0  0  0  0
  146.5706  133.5080  151.2488 C   0  0  1  0  0  0  0  0  0  0  0  0
  146.7189  134.8131  151.8873 N   0  0  0  0  0  0  0  0  0  0  0  0
  145.7966  135.4171  152.6502 C   0  0  0  0  0  0  0  0  0  0  0  0
  144.6924  134.9397  152.9107 O   0  0  0  0  0  0  0  0  0  0  0  0
  146.2223  136.6079  153.0941 N   0  0  0  0  0  0  0  0  0  0  0  0
  145.4433  137.5138  153.9302 C   0  0  0  0  0  0  0  0  0  0  0  0
  146.2804  138.0838  155.0866 C   0  0  0  0  0  0  0  0  0  0  0  0
  146.7244  139.4845  154.8290 C   0  0  0  0  0  0  0  0  0  0  0  0
  147.5372  139.8270  153.8256 N   0  0  0  0  0  0  0  0  0  0  0  0
  147.8317  141.1927  153.8189 C   0  0  0  0  0  0  0  0  0  0  0  0
  147.2404  141.8852  154.8449 C   0  0  0  0  0  0  0  0  0  0  0  0
  146.2863  140.8410  155.8624 S   0  0  0  0  0  0  0  0  0  0  0  0
  146.8681  132.3899  152.2654 C   0  0  0  0  0  0  0  0  0  0  0  0
  147.1751  127.7637  152.5972 H   0  0  0  0  0  0  0  0  0  0  0  0
  147.6726  128.4366  151.0567 H   0  0  0  0  0  0  0  0  0  0  0  0
  145.9631  128.3981  151.4912 H   0  0  0  0  0  0  0  0  0  0  0  0
  146.4451  129.9328  153.4278 H   0  0  0  0  0  0  0  0  0  0  0  0
  148.1085  130.0939  152.9176 H   0  0  0  0  0  0  0  0  0  0  0  0
  145.2306  129.8866  150.6457 H   0  0  0  0  0  0  0  0  0  0  0  0
  144.6016  130.8906  151.9372 H   0  0  0  0  0  0  0  0  0  0  0  0
  145.6229  131.8411  149.2079 H   0  0  0  0  0  0  0  0  0  0  0  0
  143.9549  131.8225  149.7272 H   0  0  0  0  0  0  0  0  0  0  0  0
  144.9696  134.1108  149.9092 H   0  0  0  0  0  0  0  0  0  0  0  0
  144.4113  133.5166  151.4583 H   0  0  0  0  0  0  0  0  0  0  0  0
  147.2844  133.4090  150.4285 H   0  0  0  0  0  0  0  0  0  0  0  0
  147.5945  135.2939  151.7392 H   0  0  0  0  0  0  0  0  0  0  0  0
  147.1468  136.9155  152.8295 H   0  0  0  0  0  0  0  0  0  0  0  0
  145.0819  138.3262  153.2991 H   0  0  0  0  0  0  0  0  0  0  0  0
  144.5590  137.0014  154.3137 H   0  0  0  0  0  0  0  0  0  0  0  0
  145.7093  138.0659  156.0159 H   0  0  0  0  0  0  0  0  0  0  0  0
  147.1634  137.4656  155.2514 H   0  0  0  0  0  0  0  0  0  0  0  0
  148.4753  141.5878  153.0469 H   0  0  0  0  0  0  0  0  0  0  0  0
  147.3100  142.9403  155.0641 H   0  0  0  0  0  0  0  0  0  0  0  0
  146.2131  132.4795  153.1338 H   0  0  0  0  0  0  0  0  0  0  0  0
  147.8892  132.5073  152.6271 H   0  0  0  0  0  0  0  0  0  0  0  0
  147.3137  131.0049  150.8545 H   0  0  0  0  0  0  0  0  0  0  0  0
  1  2  1  0  0  0  0
  1 20  1  0  0  0  0
  1 21  1  0  0  0  0
  1 22  1  0  0  0  0
  2  3  1  0  0  0  0
  2 23  1  0  0  0  0
  2 24  1  0  0  0  0
  3 19  1  0  0  0  0
  3  4  1  0  0  0  0
  3 42  1  0  0  0  0
  4  5  1  0  0  0  0
  4 25  1  0  0  0  0
  4 26  1  0  0  0  0
  5  6  1  0  0  0  0
  5 27  1  0  0  0  0
  5 28  1  0  0  0  0
  6  7  1  0  0  0  0
  6 29  1  0  0  0  0
  6 30  1  0  0  0  0
  7  8  1  0  0  0  0
  7 19  1  0  0  0  0
  7 31  1  0  0  0  0
  8  9  1  0  0  0  0
  8 32  1  0  0  0  0
  9 10  2  0  0  0  0
  9 11  1  0  0  0  0
 11 12  1  0  0  0  0
 11 33  1  0  0  0  0
 12 13  1  0  0  0  0
 12 34  1  0  0  0  0
 12 35  1  0  0  0  0
 13 14  1  0  0  0  0
 13 36  1  0  0  0  0
 13 37  1  0  0  0  0
 14 18  1  0  0  0  0
 14 15  2  0  0  0  0
 15 16  1  0  0  0  0
 16 17  2  0  0  0  0
 16 38  1  0  0  0  0
 17 18  1  0  0  0  0
 17 39  1  0  0  0  0
 19 40  1  0  0  0  0
 19 41  1  0  0  0  0
M  CHG  1   3   1
M  END
> <s_m_source_file>
AV-unprocessed.smi

> <i_m_source_file_index>
1833

> <i_lp_mmshare_version>
43012

> <i_f3d_flags>
0

> <s_epik_input>
W0NIM11bQ0gyXU4xW0NIMl1bQ0gyXVtDSDJdW0NASF0oW0NIMl0xKVtOSF1DKD1PKVtOSF1bQ0gyXVtDSDJdYzJuW2NIXVtjSF1zMg==

> <s_epik_cmdline>
J2VwaWtfcHl0aG9uJywgJy1waCcsICc3LjAnLCAnLXRuJywgJzgnLCAnLW1hJywgJzIwMCcsICctbWV0YWxfYmluZGluZycsICctaW1hZScsICc8aW5maWxlLm1hZT4nLCAnLW9tYWUnLCAnPG91dGZpbGUubWFlPic=

> <r_lp_tautomer_probability>
1

> <r_epik_Ionization_Penalty>
0.00269629

> <r_epik_Ionization_Penalty_Charging>
0.00233899

> <r_epik_Ionization_Penalty_Neutral>
0.000357304

> <r_epik_State_Penalty>
-0

> <r_epik_Charging_Adjusted_Penalty>
0.00233899

> <i_epik_Tot_Q>
1

> <i_epik_Tot_abs_Q>
1

> <r_epik_Metal_State_Penalty>
-0

> <b_epik_Metal_Only>
0

> <s_lp_Force_Field>
OPLS_2005

> <r_lp_Energy>
7.28856

> <b_lp_Chiralities_Consistent>
1

> <s_lp_Variant>
AV-unprocessed.smi:1833-1

> <Gold.Version>
5.8.1

> <Gold.Id.Protein>
6NUR|6NUR_protein|mol2

> <Gold.PLP.Fitness>
42.7398

> <Gold.PLP.PLP>
-29.8732

> <Gold.PLP.part.hbond>
-3.0000

> <Gold.PLP.part.metal>
0.0000

> <Gold.PLP.part.buried>
-3.9173

> <Gold.PLP.part.nonpolar>
-23.2664

> <Gold.PLP.part.repulsive>
0.3066

> <Gold.PLP.ligand.clash>
0.0000

> <Gold.PLP.ligand.torsion>
0.6951

> <Gold.PLP.Chemscore.Hbond>
2.8800

> <Gold.PLP.Chemscore.CHOScore>
1.8530

> <Gold.PLP.Chemscore.Metal>
0.0000

> <Gold.Chemscore.Hbonds>
donor molecule, donor type, donor heavy atom, donor atom, acceptor molecule, acceptor atom, score
      L1  H     3    42       P1 10747  0.94
      L1  H     8    32       P1  7948  1.00
      L1  H    11    33       P1  7948  0.57
      L1  C    16    38       P1  7957  0.56
      L1  C    17    39       P1  8028  1.00

> <Gold.PLP.Chemscore.Internal.Correction>
0.0579

> <Gold.Rescore>
     Score         DG    S(hbond)    S(metal)    S(lipo)     H(rot)  DE(clash)    DE(int)     intcor
     16.32     -17.98       2.55        0.00      71.56       1.71       0.08       1.57       ----

> <Gold.Chemscore.Fitness>
16.3242

> <Gold.Chemscore.DG>
-17.9788

> <Gold.Chemscore.ZeroCoef>
-5.4800

> <Gold.Chemscore.Hbond>
2.5497

> <Gold.Chemscore.Metal>
0.0000

> <Gold.Chemscore.Lipo>
71.5592

> <Gold.Chemscore.Internal_Hbond>
0.0000

> <Gold.Chemscore.DEClash>
0.0833

> <Gold.Chemscore.DEInternal>
1.5713

> <Gold.Chemscore.Rot>
1.7147

> <Gold.Chemscore.Internal.Correction>
   9.000000E+99

> <Gold.Chemscore.Hbonds>
donor molecule, donor type, donor heavy atom, donor atom, acceptor molecule, acceptor atom, score
      L1  H     3    42       P1 10747  0.91
      L1  H     8    32       P1  7948  0.90
      L1  H    11    33       P1  7948  0.57

> <Gold.Chemscore.Hbond.Weighted>
-8.5160

> <Gold.Chemscore.Metal.Weighted>
-0.0000

> <Gold.Chemscore.Lipo.Weighted>
-8.3724

> <Gold.Chemscore.Internal_Hbond.Weighted>
0.0000

> <Gold.Chemscore.DEClash.Weighted>
0.0833

> <Gold.Chemscore.DEInternal.Weighted>
1.5713

> <Gold.Chemscore.Rot.Weighted>
4.3896

> <Gold.Chemscore.Internal.Correction.Weighted>
   9.000000E+99

> <Gold.Protein.RotatedTorsions>
[ 6907 6896 6895 6894 ] final   -6.59 input  -60.11 | X-H torsion
[ 7974 7965 7964 7962 ] final -147.56 input  175.53 | X-H torsion
[ 8008 7997 7996 7995 ] final   46.79 input   59.86 | X-H torsion
[ 10167 10162 10161 10158 ] final  136.19 input  -65.29 | X-H torsion
[ 10718 10713 10712 10709 ] final   92.80 input   66.30 | X-H torsion
[ 10763 10752 10751 10750 ] final  -32.21 input  -60.55 | X-H torsion
[ 11005 11000 10999 10996 ] final  -96.16 input  -57.11 | X-H torsion

> <Gold.Protein.ActiveResidues>
 VAL166  LYS551  ARG553  GLY616  TRP617  ASP618  TYR619  PRO620  LYS621  CYS622 
 ASP623  PHE694  ASN695  SER759  ASP760  ASP761  ALA762  ILE779  LEU786  VAL792 
 PHE793  MET794  SER795  GLU796  ALA797  LYS798  CYS799  TRP800  GLU811  SER814 

> <Gold.Protein.RotatedAtoms>
  151.4631  135.1040  159.9730 H   0  0  0  0  0  0  0  0  0  0  0  0  # atno 6907 bound_to 6896
  152.4845  133.8334  159.7125 H   0  0  0  0  0  0  0  0  0  0  0  0  # atno 6908 bound_to 6896
  150.8943  133.7141  159.2923 H   0  0  0  0  0  0  0  0  0  0  0  0  # atno 6909 bound_to 6896
  144.8086  140.5311  143.5658 H   0  0  0  0  0  0  0  0  0  0  0  0  # atno 7974 bound_to 7965
  155.3583  140.3417  155.4240 H   0  0  0  0  0  0  0  0  0  0  0  0  # atno 8008 bound_to 7997
  156.1727  140.1637  156.8453 H   0  0  0  0  0  0  0  0  0  0  0  0  # atno 8009 bound_to 7997
  154.5250  140.0758  156.8224 H   0  0  0  0  0  0  0  0  0  0  0  0  # atno 8010 bound_to 7997
  139.5189  144.6478  151.5391 H   0  0  0  0  0  0  0  0  0  0  0  0  # atno 10167 bound_to 10162
  157.6957  131.0456  150.3937 H   0  0  0  0  0  0  0  0  0  0  0  0  # atno 10718 bound_to 10713
  153.8100  135.6883  153.4842 H   0  0  0  0  0  0  0  0  0  0  0  0  # atno 10763 bound_to 10752
  153.1634  135.4571  154.9802 H   0  0  0  0  0  0  0  0  0  0  0  0  # atno 10764 bound_to 10752
  154.7971  135.3323  154.7581 H   0  0  0  0  0  0  0  0  0  0  0  0  # atno 10765 bound_to 10752
  141.1420  133.8078  157.0533 H   0  0  0  0  0  0  0  0  0  0  0  0  # atno 11005 bound_to 11000
  145.5379  139.1475  143.3463 LP  0  0  0  0  0  0  0  0  0  0  0  0  # atno 17320 bound_to 7965
  146.2381  140.5519  142.8946 LP  0  0  0  0  0  0  0  0  0  0  0  0  # atno 17321 bound_to 7965
  140.6270  143.9150  150.6573 LP  0  0  0  0  0  0  0  0  0  0  0  0  # atno 17342 bound_to 10162
  140.2442  143.3641  152.1461 LP  0  0  0  0  0  0  0  0  0  0  0  0  # atno 17343 bound_to 10162
  156.4338  130.3977  149.6742 LP  0  0  0  0  0  0  0  0  0  0  0  0  # atno 17370 bound_to 10713
  156.3950  130.7646  151.2650 LP  0  0  0  0  0  0  0  0  0  0  0  0  # atno 17371 bound_to 10713
  140.0618  134.9751  157.1317 LP  0  0  0  0  0  0  0  0  0  0  0  0  # atno 17394 bound_to 11000
  140.3838  134.2258  155.7169 LP  0  0  0  0  0  0  0  0  0  0  0  0  # atno 17395 bound_to 11000

$$$$
