AV-unprocessed.smi:1487|AV-procd|sdf|6010|dock2
  -GOLD-   22720 6103D 1   1.00000     0.00000
 Structure written by MMmdl.
 48 50  0  0  0  0  0  0  0  0  2 V2000
  151.7117  144.1785  159.1813 C   0  0  0  0  0  0  0  0  0  0  0  0
  151.5865  142.9658  158.2758 C   0  0  0  0  0  0  0  0  0  0  0  0
  150.8438  143.0769  157.0788 C   0  0  0  0  0  0  0  0  0  0  0  0
  150.7041  141.9740  156.2083 C   0  0  0  0  0  0  0  0  0  0  0  0
  150.0319  141.8591  155.0036 N   0  0  0  0  0  0  0  0  0  0  0  0
  150.2736  140.5922  154.6810 C   0  0  0  0  0  0  0  0  0  0  0  0
  151.0195  139.8692  155.5389 N   0  0  0  0  0  0  0  0  0  0  0  0
  151.4103  138.4776  155.4022 C   0  0  0  0  0  0  0  0  0  0  0  0
  150.5183  137.7078  154.4094 C   0  0  1  0  0  0  0  0  0  0  0  0
  151.0739  136.4276  154.1767 O   0  0  0  0  0  0  0  0  0  0  0  0
  149.0867  137.5325  154.9534 C   0  0  0  0  0  0  0  0  0  0  0  0
  148.0604  137.5338  153.8794 N   0  3  2  0  0  0  0  0  0  0  0  0
  147.7099  138.8966  153.3990 C   0  0  0  0  0  0  0  0  0  0  0  0
  146.7744  138.8271  152.1819 C   0  0  0  0  0  0  0  0  0  0  0  0
  145.5033  138.0307  152.5087 C   0  0  0  0  0  0  0  0  0  0  0  0
  145.8513  136.6487  153.0865 C   0  0  1  0  0  0  0  0  0  0  0  0
  146.3843  135.8109  152.0798 O   0  0  0  0  0  0  0  0  0  0  0  0
  146.8514  136.7534  154.2547 C   0  0  0  0  0  0  0  0  0  0  0  0
  151.3332  140.7470  156.5708 C   0  0  0  0  0  0  0  0  0  0  0  0
  152.0755  140.6241  157.7587 C   0  0  0  0  0  0  0  0  0  0  0  0
  152.2046  141.7360  158.6172 C   0  0  0  0  0  0  0  0  0  0  0  0
  153.0069  141.5942  159.8987 C   0  0  0  0  0  0  0  0  0  0  0  0
  151.1352  145.0216  158.7994 H   0  0  0  0  0  0  0  0  0  0  0  0
  152.7533  144.4914  159.2560 H   0  0  0  0  0  0  0  0  0  0  0  0
  151.3452  143.9505  160.1824 H   0  0  0  0  0  0  0  0  0  0  0  0
  150.3737  144.0135  156.8176 H   0  0  0  0  0  0  0  0  0  0  0  0
  149.8822  140.1628  153.7701 H   0  0  0  0  0  0  0  0  0  0  0  0
  152.4545  138.4383  155.0880 H   0  0  0  0  0  0  0  0  0  0  0  0
  151.3641  138.0139  156.3884 H   0  0  0  0  0  0  0  0  0  0  0  0
  150.5051  138.2489  153.4638 H   0  0  0  0  0  0  0  0  0  0  0  0
  151.0096  136.2356  153.2527 H   0  0  0  0  0  0  0  0  0  0  0  0
  149.0438  136.5913  155.5041 H   0  0  0  0  0  0  0  0  0  0  0  0
  148.8513  138.3159  155.6756 H   0  0  0  0  0  0  0  0  0  0  0  0
  147.2360  139.4580  154.2059 H   0  0  0  0  0  0  0  0  0  0  0  0
  148.6079  139.4463  153.1203 H   0  0  0  0  0  0  0  0  0  0  0  0
  146.5078  139.8342  151.8593 H   0  0  0  0  0  0  0  0  0  0  0  0
  147.2969  138.3637  151.3441 H   0  0  0  0  0  0  0  0  0  0  0  0
  144.9144  138.5857  153.2400 H   0  0  0  0  0  0  0  0  0  0  0  0
  144.8762  137.9311  151.6217 H   0  0  0  0  0  0  0  0  0  0  0  0
  144.9377  136.1715  153.4427 H   0  0  0  0  0  0  0  0  0  0  0  0
  147.3279  135.8344  152.1357 H   0  0  0  0  0  0  0  0  0  0  0  0
  147.1372  135.7517  154.5797 H   0  0  0  0  0  0  0  0  0  0  0  0
  146.3716  137.2342  155.1089 H   0  0  0  0  0  0  0  0  0  0  0  0
  152.5419  139.6823  158.0065 H   0  0  0  0  0  0  0  0  0  0  0  0
  153.4411  140.5983  159.9890 H   0  0  0  0  0  0  0  0  0  0  0  0
  152.3698  141.7619  160.7674 H   0  0  0  0  0  0  0  0  0  0  0  0
  153.8225  142.3175  159.9221 H   0  0  0  0  0  0  0  0  0  0  0  0
  148.4719  137.0419  153.0982 H   0  0  0  0  0  0  0  0  0  0  0  0
  1  2  1  0  0  0  0
  1 23  1  0  0  0  0
  1 24  1  0  0  0  0
  1 25  1  0  0  0  0
  2 21  1  0  0  0  0
  2  3  2  0  0  0  0
  3  4  1  0  0  0  0
  3 26  1  0  0  0  0
  4 19  2  0  0  0  0
  4  5  1  0  0  0  0
  5  6  2  0  0  0  0
  6  7  1  0  0  0  0
  6 27  1  0  0  0  0
  7  8  1  0  0  0  0
  7 19  1  0  0  0  0
  8  9  1  0  0  0  0
  8 28  1  0  0  0  0
  8 29  1  0  0  0  0
  9 10  1  0  0  0  0
  9 11  1  0  0  0  0
  9 30  1  0  0  0  0
 10 31  1  0  0  0  0
 11 12  1  0  0  0  0
 11 32  1  0  0  0  0
 11 33  1  0  0  0  0
 12 18  1  0  0  0  0
 12 13  1  0  0  0  0
 12 48  1  0  0  0  0
 13 14  1  0  0  0  0
 13 34  1  0  0  0  0
 13 35  1  0  0  0  0
 14 15  1  0  0  0  0
 14 36  1  0  0  0  0
 14 37  1  0  0  0  0
 15 16  1  0  0  0  0
 15 38  1  0  0  0  0
 15 39  1  0  0  0  0
 16 17  1  0  0  0  0
 16 18  1  0  0  0  0
 16 40  1  0  0  0  0
 17 41  1  0  0  0  0
 18 42  1  0  0  0  0
 18 43  1  0  0  0  0
 19 20  1  0  0  0  0
 20 21  2  0  0  0  0
 20 44  1  0  0  0  0
 21 22  1  0  0  0  0
 22 45  1  0  0  0  0
 22 46  1  0  0  0  0
 22 47  1  0  0  0  0
M  CHG  1  12   1
M  END
> <s_m_source_file>
AV-unprocessed.smi

> <i_m_source_file_index>
1487

> <i_lp_mmshare_version>
43012

> <i_f3d_flags>
0

> <s_epik_input>
W0NIM11jKFtjSF0xKWMoW0NIM10pW2NIXWMoYzEyKW4oW2NIXW4yKVtDSDJdW0NASF0oW09IXSlbQ0gyXU4zW0NIMl1bQ0gyXVtDSDJdW0NAQEhdKFtPSF0pW0NIMl0z

> <s_epik_cmdline>
J2VwaWtfcHl0aG9uJywgJy1waCcsICc3LjAnLCAnLXRuJywgJzgnLCAnLW1hJywgJzIwMCcsICctbWV0YWxfYmluZGluZycsICctaW1hZScsICc8aW5maWxlLm1hZT4nLCAnLW9tYWUnLCAnPG91dGZpbGUubWFlPic=

> <r_epik_Ionization_Penalty>
0.0940186

> <r_epik_Ionization_Penalty_Charging>
0.00679686

> <r_epik_Ionization_Penalty_Neutral>
0.0872218

> <r_epik_State_Penalty>
0.0799311

> <r_epik_Charging_Adjusted_Penalty>
0.086728

> <i_epik_Tot_Q>
1

> <i_epik_Tot_abs_Q>
1

> <r_epik_Metal_State_Penalty>
7.95545e-05

> <b_epik_Metal_Only>
0

> <s_lp_Force_Field>
OPLS_2005

> <r_lp_Energy>
21.7982

> <b_lp_Chiralities_Consistent>
1

> <s_lp_Variant>
AV-unprocessed.smi:1487-4

> <Gold.Version>
5.8.1

> <Gold.Id.Protein>
6NUR|6NUR_protein|mol2

> <Gold.PLP.Fitness>
54.3428

> <Gold.PLP.PLP>
-39.1209

> <Gold.PLP.part.hbond>
-5.6466

> <Gold.PLP.part.metal>
0.0000

> <Gold.PLP.part.buried>
4.4996

> <Gold.PLP.part.nonpolar>
-37.7491

> <Gold.PLP.part.repulsive>
0.1603

> <Gold.PLP.ligand.clash>
0.0000

> <Gold.PLP.ligand.torsion>
0.9778

> <Gold.PLP.Chemscore.Hbond>
5.0000

> <Gold.PLP.Chemscore.CHOScore>
0.7120

> <Gold.PLP.Chemscore.Metal>
0.0000

> <Gold.Chemscore.Hbonds>
donor molecule, donor type, donor heavy atom, donor atom, acceptor molecule, acceptor atom, score
      L1  H    10    31       P1  7949  0.95
      L1  H    12    48       P1  7948  2.00
      L1  H    17    41       P1  7948  1.00
      P1  H 10752 10765       L1    10  0.83
      L1  C     6    27       P1  7957  0.77

> <Gold.PLP.Chemscore.Internal.Correction>
0.0415

> <Gold.Rescore>
     Score         DG    S(hbond)    S(metal)    S(lipo)     H(rot)  DE(clash)    DE(int)     intcor
     20.13     -22.09       3.11        0.00     111.52       2.67       0.96       1.00       ----

> <Gold.Chemscore.Fitness>
20.1279

> <Gold.Chemscore.DG>
-22.0896

> <Gold.Chemscore.ZeroCoef>
-5.4800

> <Gold.Chemscore.Hbond>
3.1139

> <Gold.Chemscore.Metal>
0.0000

> <Gold.Chemscore.Lipo>
111.5170

> <Gold.Chemscore.Internal_Hbond>
0.0000

> <Gold.Chemscore.DEClash>
0.9637

> <Gold.Chemscore.DEInternal>
0.9980

> <Gold.Chemscore.Rot>
2.6712

> <Gold.Chemscore.Internal.Correction>
   9.000000E+99

> <Gold.Chemscore.Hbonds>
donor molecule, donor type, donor heavy atom, donor atom, acceptor molecule, acceptor atom, score
      L1  H    10    31       P1  7949  0.22
      L1  H    12    48       P1  7948  0.95
      L1  H    17    41       P1  7948  1.00
      P1  H 10752 10765       L1    10  0.16

> <Gold.Chemscore.Hbond.Weighted>
-10.4004

> <Gold.Chemscore.Metal.Weighted>
-0.0000

> <Gold.Chemscore.Lipo.Weighted>
-13.0475

> <Gold.Chemscore.Internal_Hbond.Weighted>
0.0000

> <Gold.Chemscore.DEClash.Weighted>
0.9637

> <Gold.Chemscore.DEInternal.Weighted>
0.9980

> <Gold.Chemscore.Rot.Weighted>
6.8383

> <Gold.Chemscore.Internal.Correction.Weighted>
   9.000000E+99

> <Gold.Protein.RotatedTorsions>
[ 6907 6896 6895 6894 ] final  107.69 input  -60.11 | X-H torsion
[ 7974 7965 7964 7962 ] final   13.60 input  175.53 | X-H torsion
[ 8008 7997 7996 7995 ] final  -41.48 input   59.86 | X-H torsion
[ 10167 10162 10161 10158 ] final  178.04 input  -65.29 | X-H torsion
[ 10718 10713 10712 10709 ] final -142.85 input   66.30 | X-H torsion
[ 10763 10752 10751 10750 ] final  177.52 input  -60.55 | X-H torsion
[ 11005 11000 10999 10996 ] final   50.75 input  -57.11 | X-H torsion

> <Gold.Protein.ActiveResidues>
 VAL166  LYS551  ARG553  GLY616  TRP617  ASP618  TYR619  PRO620  LYS621  CYS622 
 ASP623  PHE694  ASN695  SER759  ASP760  ASP761  ALA762  ILE779  LEU786  VAL792 
 PHE793  MET794  SER795  GLU796  ALA797  LYS798  CYS799  TRP800  GLU811  SER814 

> <Gold.Protein.RotatedAtoms>
  152.5144  133.9198  159.7528 H   0  0  0  0  0  0  0  0  0  0  0  0  # atno 6907 bound_to 6896
  150.9572  133.6476  159.2768 H   0  0  0  0  0  0  0  0  0  0  0  0  # atno 6908 bound_to 6896
  151.3733  135.0932  159.9525 H   0  0  0  0  0  0  0  0  0  0  0  0  # atno 6909 bound_to 6896
  146.2325  139.9165  142.8516 H   0  0  0  0  0  0  0  0  0  0  0  0  # atno 7974 bound_to 7965
  154.4004  140.1498  156.3197 H   0  0  0  0  0  0  0  0  0  0  0  0  # atno 8008 bound_to 7997
  155.8540  140.3456  155.5691 H   0  0  0  0  0  0  0  0  0  0  0  0  # atno 8009 bound_to 7997
  155.7953  140.0862  157.1977 H   0  0  0  0  0  0  0  0  0  0  0  0  # atno 8010 bound_to 7997
  139.5277  144.2728  152.0614 H   0  0  0  0  0  0  0  0  0  0  0  0  # atno 10167 bound_to 10162
  156.3509  130.7687  151.1840 H   0  0  0  0  0  0  0  0  0  0  0  0  # atno 10718 bound_to 10713
  154.4955  135.2781  155.1462 H   0  0  0  0  0  0  0  0  0  0  0  0  # atno 10763 bound_to 10752
  154.3117  135.6227  153.5472 H   0  0  0  0  0  0  0  0  0  0  0  0  # atno 10764 bound_to 10752
  152.9894  135.5721  154.5386 H   0  0  0  0  0  0  0  0  0  0  0  0  # atno 10765 bound_to 10752
  140.0991  134.5105  155.8779 H   0  0  0  0  0  0  0  0  0  0  0  0  # atno 11005 bound_to 11000
  145.2178  140.9923  143.4063 LP  0  0  0  0  0  0  0  0  0  0  0  0  # atno 17320 bound_to 7965
  144.9636  139.3954  143.6344 LP  0  0  0  0  0  0  0  0  0  0  0  0  # atno 17321 bound_to 7965
  140.2186  144.4489  150.6352 LP  0  0  0  0  0  0  0  0  0  0  0  0  # atno 17342 bound_to 10162
  140.6433  143.2208  151.6242 LP  0  0  0  0  0  0  0  0  0  0  0  0  # atno 17343 bound_to 10162
  157.7461  131.0428  150.4711 LP  0  0  0  0  0  0  0  0  0  0  0  0  # atno 17370 bound_to 10713
  156.4906  130.4094  149.6408 LP  0  0  0  0  0  0  0  0  0  0  0  0  # atno 17371 bound_to 10713
  141.2100  133.6690  156.6482 LP  0  0  0  0  0  0  0  0  0  0  0  0  # atno 17394 bound_to 11000
  140.3245  134.7980  157.4278 LP  0  0  0  0  0  0  0  0  0  0  0  0  # atno 17395 bound_to 11000

$$$$
