AV-unprocessed.smi:3342|AV-procd|sdf|12889|dock2
  -GOLD-   2272019293D 1   1.00000     0.00000
 Structure written by MMmdl.
 41 42  0  0  0  0  0  0  0  0  1 V2000
  146.6197  131.6664  153.7903 C   0  0  0  0  0  0  0  0  0  0  0  0
  146.3951  133.0962  153.2715 C   0  0  2  0  0  0  0  0  0  0  0  0
  146.8646  133.2947  151.8137 C   0  0  0  0  0  0  0  0  0  0  0  0
  145.8701  132.8815  150.8419 N   0  0  0  0  0  0  0  0  0  0  0  0
  144.6274  133.4596  150.6197 C   0  0  0  0  0  0  0  0  0  0  0  0
  144.0340  132.7394  149.6077 C   0  0  0  0  0  0  0  0  0  0  0  0
  144.8906  131.7228  149.1911 N   0  0  0  0  0  0  0  0  0  0  0  0
  145.9582  131.8721  149.9646 C   0  0  0  0  0  0  0  0  0  0  0  0
  147.0830  134.0355  154.1520 N   0  0  0  0  0  0  0  0  0  0  0  0
  148.3322  133.8944  154.6282 C   0  0  0  0  0  0  0  0  0  0  0  0
  149.0389  132.9284  154.3360 O   0  0  0  0  0  0  0  0  0  0  0  0
  148.7499  134.9054  155.4318 N   0  0  0  0  0  0  0  0  0  0  0  0
  150.1312  135.1465  155.8823 C   0  0  0  0  0  0  0  0  0  0  0  0
  150.7109  136.3273  155.0826 C   0  0  0  0  0  0  0  0  0  0  0  0
  149.8333  137.5919  155.2395 C   0  0  0  0  0  0  0  0  0  0  0  0
  150.3323  138.7237  154.3315 C   0  0  0  0  0  0  0  0  0  0  0  0
  150.0281  138.6417  153.0338 N   0  0  0  0  0  0  0  0  0  0  0  0
  150.9827  139.6600  154.7922 O   0  0  0  0  0  0  0  0  0  0  0  0
  148.3456  137.2706  154.9605 C   0  0  0  0  0  0  0  0  0  0  0  0
  147.8819  136.0416  155.7638 C   0  0  0  0  0  0  0  0  0  0  0  0
  146.0473  130.9378  153.2159 H   0  0  0  0  0  0  0  0  0  0  0  0
  146.3068  131.5733  154.8307 H   0  0  0  0  0  0  0  0  0  0  0  0
  147.6717  131.3848  153.7321 H   0  0  0  0  0  0  0  0  0  0  0  0
  145.3229  133.2952  153.3225 H   0  0  0  0  0  0  0  0  0  0  0  0
  147.1007  134.3432  151.6268 H   0  0  0  0  0  0  0  0  0  0  0  0
  147.7817  132.7321  151.6319 H   0  0  0  0  0  0  0  0  0  0  0  0
  144.2775  134.3101  151.1864 H   0  0  0  0  0  0  0  0  0  0  0  0
  143.0651  132.8739  149.1502 H   0  0  0  0  0  0  0  0  0  0  0  0
  146.8229  131.2284  149.8946 H   0  0  0  0  0  0  0  0  0  0  0  0
  146.5679  134.8586  154.4277 H   0  0  0  0  0  0  0  0  0  0  0  0
  150.1240  135.3871  156.9464 H   0  0  0  0  0  0  0  0  0  0  0  0
  150.7861  134.2802  155.7901 H   0  0  0  0  0  0  0  0  0  0  0  0
  151.7273  136.5348  155.4200 H   0  0  0  0  0  0  0  0  0  0  0  0
  150.7866  136.0430  154.0316 H   0  0  0  0  0  0  0  0  0  0  0  0
  149.9111  137.9212  156.2773 H   0  0  0  0  0  0  0  0  0  0  0  0
  150.3343  139.3628  152.3968 H   0  0  0  0  0  0  0  0  0  0  0  0
  149.4913  137.8568  152.6941 H   0  0  0  0  0  0  0  0  0  0  0  0
  147.7232  138.1297  155.2135 H   0  0  0  0  0  0  0  0  0  0  0  0
  148.1900  137.0802  153.8972 H   0  0  0  0  0  0  0  0  0  0  0  0
  146.8285  135.8401  155.5634 H   0  0  0  0  0  0  0  0  0  0  0  0
  147.9430  136.2461  156.8338 H   0  0  0  0  0  0  0  0  0  0  0  0
  1  2  1  0  0  0  0
  1 21  1  0  0  0  0
  1 22  1  0  0  0  0
  1 23  1  0  0  0  0
  2  3  1  0  0  0  0
  2  9  1  0  0  0  0
  2 24  1  0  0  0  0
  3  4  1  0  0  0  0
  3 25  1  0  0  0  0
  3 26  1  0  0  0  0
  4  8  1  0  0  0  0
  4  5  1  0  0  0  0
  5  6  2  0  0  0  0
  5 27  1  0  0  0  0
  6  7  1  0  0  0  0
  6 28  1  0  0  0  0
  7  8  2  0  0  0  0
  8 29  1  0  0  0  0
  9 10  1  0  0  0  0
  9 30  1  0  0  0  0
 10 11  2  0  0  0  0
 10 12  1  0  0  0  0
 12 20  1  0  0  0  0
 12 13  1  0  0  0  0
 13 14  1  0  0  0  0
 13 31  1  0  0  0  0
 13 32  1  0  0  0  0
 14 15  1  0  0  0  0
 14 33  1  0  0  0  0
 14 34  1  0  0  0  0
 15 16  1  0  0  0  0
 15 19  1  0  0  0  0
 15 35  1  0  0  0  0
 16 17  1  0  0  0  0
 16 18  2  0  0  0  0
 17 36  1  0  0  0  0
 17 37  1  0  0  0  0
 19 20  1  0  0  0  0
 19 38  1  0  0  0  0
 19 39  1  0  0  0  0
 20 40  1  0  0  0  0
 20 41  1  0  0  0  0
M  END
> <s_m_source_file>
AV-unprocessed.smi

> <i_m_source_file_index>
3342

> <i_lp_mmshare_version>
43012

> <i_f3d_flags>
0

> <s_epik_input>
W2NIXTFuW2NIXVtjSF1uMVtDSDJdW0NAQEhdKFtDSDNdKVtOSF1DKD1PKU4yW0NIMl1bQ0gyXVtDSF0oQyg9TylbTkgyXSlbQ0gyXVtDSDJdMg==

> <s_epik_cmdline>
J2VwaWtfcHl0aG9uJywgJy1waCcsICc3LjAnLCAnLXRuJywgJzgnLCAnLW1hJywgJzIwMCcsICctbWV0YWxfYmluZGluZycsICctaW1hZScsICc8aW5maWxlLm1hZT4nLCAnLW9tYWUnLCAnPG91dGZpbGUubWFlPic=

> <r_lp_tautomer_probability>
1

> <r_epik_Ionization_Penalty>
0.624431

> <r_epik_Ionization_Penalty_Charging>
0.624374

> <r_epik_Ionization_Penalty_Neutral>
5.67186e-05

> <r_epik_State_Penalty>
0.640677

> <r_epik_Charging_Adjusted_Penalty>
1.26505

> <i_epik_Tot_Q>
0

> <i_epik_Tot_abs_Q>
0

> <r_epik_Metal_State_Penalty>
0.307574

> <b_epik_Metal_Only>
0

> <s_lp_Force_Field>
OPLS_2005

> <r_lp_Energy>
29.2273

> <b_lp_Chiralities_Consistent>
1

> <s_lp_Variant>
AV-unprocessed.smi:3342-3

> <Gold.Version>
5.8.1

> <Gold.Id.Protein>
6NUR|6NUR_protein|mol2

> <Gold.PLP.Fitness>
43.4795

> <Gold.PLP.PLP>
-32.4661

> <Gold.PLP.part.hbond>
-3.3595

> <Gold.PLP.part.metal>
0.0000

> <Gold.PLP.part.buried>
-4.9222

> <Gold.PLP.part.nonpolar>
-25.5828

> <Gold.PLP.part.repulsive>
0.5070

> <Gold.PLP.ligand.clash>
1.9948

> <Gold.PLP.ligand.torsion>
0.9567

> <Gold.PLP.Chemscore.Hbond>
2.9198

> <Gold.PLP.Chemscore.CHOScore>
2.0000

> <Gold.PLP.Chemscore.Metal>
0.0000

> <Gold.Chemscore.Hbonds>
donor molecule, donor type, donor heavy atom, donor atom, acceptor molecule, acceptor atom, score
      L1  H    17    36       P1  7957  0.64
      L1  H    17    37       P1  7948  1.00
      P1  H  7989  7998       L1    18  1.00
      P1  H 10785 10796       L1     7  0.05
      L1  C     6    28       P1 10186  0.83
      L1  C     8    29       P1 10747  1.00

> <Gold.PLP.Chemscore.Internal.Correction>
0.1621

> <Gold.Rescore>
     Score         DG    S(hbond)    S(metal)    S(lipo)     H(rot)  DE(clash)    DE(int)     intcor
     13.51     -16.05       3.13        0.00      50.95       2.28       0.14       2.41       ----

> <Gold.Chemscore.Fitness>
13.5070

> <Gold.Chemscore.DG>
-16.0530

> <Gold.Chemscore.ZeroCoef>
-5.4800

> <Gold.Chemscore.Hbond>
3.1252

> <Gold.Chemscore.Metal>
0.0000

> <Gold.Chemscore.Lipo>
50.9450

> <Gold.Chemscore.Internal_Hbond>
0.0000

> <Gold.Chemscore.DEClash>
0.1387

> <Gold.Chemscore.DEInternal>
2.4074

> <Gold.Chemscore.Rot>
2.2757

> <Gold.Chemscore.Internal.Correction>
   9.000000E+99

> <Gold.Chemscore.Hbonds>
donor molecule, donor type, donor heavy atom, donor atom, acceptor molecule, acceptor atom, score
      L1  H    17    36       P1  7957  0.28
      L1  H    17    37       P1  7948  0.74
      P1  H  7989  7998       L1    18  0.88
      P1  H 10785 10796       L1     7  0.01

> <Gold.Chemscore.Hbond.Weighted>
-10.4383

> <Gold.Chemscore.Metal.Weighted>
-0.0000

> <Gold.Chemscore.Lipo.Weighted>
-5.9606

> <Gold.Chemscore.Internal_Hbond.Weighted>
0.0000

> <Gold.Chemscore.DEClash.Weighted>
0.1387

> <Gold.Chemscore.DEInternal.Weighted>
2.4074

> <Gold.Chemscore.Rot.Weighted>
5.8259

> <Gold.Chemscore.Internal.Correction.Weighted>
   9.000000E+99

> <Gold.Protein.RotatedTorsions>
[ 6907 6896 6895 6894 ] final  167.89 input  -60.11 | X-H torsion
[ 7974 7965 7964 7962 ] final   47.24 input  175.53 | X-H torsion
[ 8008 7997 7996 7995 ] final  130.40 input   59.86 | X-H torsion
[ 10167 10162 10161 10158 ] final -162.89 input  -65.29 | X-H torsion
[ 10718 10713 10712 10709 ] final  -27.07 input   66.30 | X-H torsion
[ 10763 10752 10751 10750 ] final  -71.97 input  -60.55 | X-H torsion
[ 11005 11000 10999 10996 ] final   39.79 input  -57.11 | X-H torsion

> <Gold.Protein.ActiveResidues>
 VAL166  LYS551  ARG553  GLY616  TRP617  ASP618  TYR619  PRO620  LYS621  CYS622 
 ASP623  PHE694  ASN695  SER759  ASP760  ASP761  ALA762  ILE779  LEU786  VAL792 
 PHE793  MET794  SER795  GLU796  ALA797  LYS798  CYS799  TRP800  GLU811  SER814 

> <Gold.Protein.RotatedAtoms>
  151.8563  133.3449  159.3689 H   0  0  0  0  0  0  0  0  0  0  0  0  # atno 6907 bound_to 6896
  150.7192  134.5250  159.5681 H   0  0  0  0  0  0  0  0  0  0  0  0  # atno 6908 bound_to 6896
  152.2754  134.7887  160.0457 H   0  0  0  0  0  0  0  0  0  0  0  0  # atno 6909 bound_to 6896
  146.0316  139.4771  142.9834 H   0  0  0  0  0  0  0  0  0  0  0  0  # atno 7974 bound_to 7965
  156.2954  140.2597  156.2756 H   0  0  0  0  0  0  0  0  0  0  0  0  # atno 8008 bound_to 7997
  154.9652  140.0392  157.2227 H   0  0  0  0  0  0  0  0  0  0  0  0  # atno 8009 bound_to 7997
  154.7909  140.2811  155.5997 H   0  0  0  0  0  0  0  0  0  0  0  0  # atno 8010 bound_to 7997
  139.6360  144.0349  152.2054 H   0  0  0  0  0  0  0  0  0  0  0  0  # atno 10167 bound_to 10162
  156.4430  130.4468  149.7040 H   0  0  0  0  0  0  0  0  0  0  0  0  # atno 10718 bound_to 10713
  154.4392  135.5945  153.6118 H   0  0  0  0  0  0  0  0  0  0  0  0  # atno 10763 bound_to 10752
  152.9804  135.5994  154.3744 H   0  0  0  0  0  0  0  0  0  0  0  0  # atno 10764 bound_to 10752
  154.3591  135.2841  155.2308 H   0  0  0  0  0  0  0  0  0  0  0  0  # atno 10765 bound_to 10752
  140.1994  134.3889  155.8104 H   0  0  0  0  0  0  0  0  0  0  0  0  # atno 11005 bound_to 11000
  145.7031  141.0130  143.1494 LP  0  0  0  0  0  0  0  0  0  0  0  0  # atno 17320 bound_to 7965
  144.7033  139.8668  143.7437 LP  0  0  0  0  0  0  0  0  0  0  0  0  # atno 17321 bound_to 7965
  140.0027  144.6282  150.7716 LP  0  0  0  0  0  0  0  0  0  0  0  0  # atno 17342 bound_to 10162
  140.7465  143.2892  151.3377 LP  0  0  0  0  0  0  0  0  0  0  0  0  # atno 17343 bound_to 10162
  156.3897  130.7621  151.2621 LP  0  0  0  0  0  0  0  0  0  0  0  0  # atno 17370 bound_to 10713
  157.7505  131.0271  150.3992 LP  0  0  0  0  0  0  0  0  0  0  0  0  # atno 17371 bound_to 10713
  141.2227  133.7086  156.8231 LP  0  0  0  0  0  0  0  0  0  0  0  0  # atno 17394 bound_to 11000
  140.2071  134.8854  157.3234 LP  0  0  0  0  0  0  0  0  0  0  0  0  # atno 17395 bound_to 11000

$$$$
