#       Name:                AV-unprocessed.smi:2232
#       Creating user name   scv26
#       Creation time:       Fri Mar 27 12:24:41 2020


#       File generated by GOLD software.
#

@<TRIPOS>MOLECULE
AV-unprocessed.smi:2232
    48    49     1
SMALL
NO_CHARGES


@<TRIPOS>ATOM
      1 ****        -5.5269   3.9997  -0.9736 C.3            1 S1                 0.0000
      2 ****        -4.7863   2.6895  -0.8067 C.ar           1 S1                 0.0000
      3 ****        -5.4801   1.5007  -0.5105 C.ar           1 S1                 0.0000
      4 ****        -4.7344   0.3145  -0.3648 C.ar           1 S1                 0.0000
      5 ****        -5.4152  -1.0006  -0.0492 C.3            1 S1                 0.0000
      6 ****        -3.3913   0.2682  -0.4939 N.ar           1 S1                 0.0000
      7 ****        -2.7124   1.4074  -0.7774 C.ar           1 S1                 0.0000
      8 ****        -1.3013   1.4656  -0.9274 N.am           1 S1                 0.0000
      9 ****        -0.4132   0.4626  -0.8120 C.2            1 S1                 0.0000
     10 ****        -0.6909  -0.7136  -0.5749 O.2            1 S1                 0.0000
     11 ****         0.8431   0.8990  -0.9852 N.am           1 S1                 0.0000
     12 ****         2.0305   0.0550  -0.9157 C.3            1 S1                 0.0000
     13 ****         2.3993  -0.2825   0.5422 C.3            1 S1                 0.0000
     14 ****         3.6196  -1.1211   0.6401 N.4            1 S1                 1.0000
     15 ****         4.2523  -1.0397   1.9785 C.3            1 S1                 0.0000
     16 ****         5.5352  -1.8867   2.0225 C.3            1 S1                 0.0000
     17 ****         5.2294  -3.2327   1.6812 O.3            1 S1                 0.0000
     18 ****         4.7033  -3.3402   0.3646 C.3            1 S1                 0.0000
     19 ****         3.3944  -2.5389   0.2616 C.3            1 S1                 0.0000
     20 ****        -3.3841   2.6396  -0.9412 C.ar           1 S1                 0.0000
     21 ****        -6.5987   3.8353  -1.0888 H              1 S1                 0.0000
     22 ****        -5.1683   4.5306  -1.8560 H              1 S1                 0.0000
     23 ****        -5.3691   4.6347  -0.1015 H              1 S1                 0.0000
     24 ****        -6.5545   1.4979  -0.3978 H              1 S1                 0.0000
     25 ****        -6.4908  -0.8704   0.0730 H              1 S1                 0.0000
     26 ****        -5.0166  -1.4228   0.8737 H              1 S1                 0.0000
     27 ****        -5.2480  -1.7159  -0.8550 H              1 S1                 0.0000
     28 ****        -0.9255   2.3793  -1.1332 H              1 S1                 0.0000
     29 ****         0.9867   1.8793  -1.1807 H              1 S1                 0.0000
     30 ****         1.8593  -0.8462  -1.5049 H              1 S1                 0.0000
     31 ****         2.8537   0.5866  -1.3938 H              1 S1                 0.0000
     32 ****         2.5673   0.6556   1.0735 H              1 S1                 0.0000
     33 ****         1.5747  -0.7813   1.0539 H              1 S1                 0.0000
     34 ****         4.4915  -0.0020   2.2141 H              1 S1                 0.0000
     35 ****         3.5495  -1.3877   2.7374 H              1 S1                 0.0000
     36 ****         6.2901  -1.4877   1.3432 H              1 S1                 0.0000
     37 ****         5.9650  -1.8654   3.0241 H              1 S1                 0.0000
     38 ****         5.4354  -2.9867  -0.3632 H              1 S1                 0.0000
     39 ****         4.5177  -4.3916   0.1439 H              1 S1                 0.0000
     40 ****         2.6394  -2.9774   0.9162 H              1 S1                 0.0000
     41 ****         3.0123  -2.6083  -0.7560 H              1 S1                 0.0000
     42 ****        -2.8317   3.5405  -1.1664 H              1 S1                 0.0000
     43 ****         4.2885  -0.7403  -0.0138 H              1 S1                 0.0000
     44 ****        -2.9023  -0.5969  -0.3817 LP             1 S1                 0.0000
     45 ****        -1.6448  -0.9870  -0.4512 LP             1 S1                 0.0000
     46 ****         0.0376  -1.3953  -0.5061 LP             1 S1                 0.0000
     47 ****         4.5538  -3.5849   2.3289 LP             1 S1                 0.0000
     48 ****         6.0649  -3.7791   1.7410 LP             1 S1                 0.0000
@<TRIPOS>BOND
    1    1    2 1     
    2    1   21 1     
    3    1   22 1     
    4    1   23 1     
    5    2   20 ar    
    6    2    3 ar    
    7    3    4 ar    
    8    3   24 1     
    9    4    5 1     
   10    4    6 ar    
   11    5   25 1     
   12    5   26 1     
   13    5   27 1     
   14    6    7 ar    
   15    7    8 1     
   16    7   20 ar    
   17    8    9 am    
   18    8   28 1     
   19    9   10 2     
   20    9   11 am    
   21   11   12 1     
   22   11   29 1     
   23   12   13 1     
   24   12   30 1     
   25   12   31 1     
   26   13   14 1     
   27   13   32 1     
   28   13   33 1     
   29   14   19 1     
   30   14   15 1     
   31   14   43 1     
   32   15   16 1     
   33   15   34 1     
   34   15   35 1     
   35   16   17 1     
   36   16   36 1     
   37   16   37 1     
   38   17   18 1     
   39   18   19 1     
   40   18   38 1     
   41   18   39 1     
   42   19   40 1     
   43   19   41 1     
   44   20   42 1     
   45    6   44 1     
   46   10   45 1     
   47   10   46 1     
   48   17   47 1     
   49   17   48 1     
@<TRIPOS>SUBSTRUCTURE
      1 S1             1
@<TRIPOS>SET
LONE_PAIRS      STATIC     ATOMS    <user>   **** ""
5 44 45 46 47 48
DONOR_HYDROGENS      STATIC     ATOMS    <user>   **** ""
3 28 29 43
ATOM$BLUE        STATIC     ATOMS    COLORGROUP SYSTEM
5 44 45 46 47 48
ATOM$RED        STATIC     ATOMS    COLORGROUP SYSTEM
3 28 29 43
