#       Name:                AV-unprocessed.smi:1999
#       Creating user name   scv26
#       Creation time:       Fri Mar 27 10:31:55 2020


#       File generated by GOLD software.
#

@<TRIPOS>MOLECULE
AV-unprocessed.smi:1999
    45    46     1
SMALL
NO_CHARGES


@<TRIPOS>ATOM
      1 ****        -5.2387   3.7730  -0.0233 C.3            1 S1                 0.0000
      2 ****        -4.3049   2.6360  -0.2611 C.2            1 S1                 0.0000
      3 ****        -4.1812   1.6090   0.5834 N.2            1 S1                 0.0000
      4 ****        -3.2506   0.6795   0.1432 N.2            1 S1                 0.0000
      5 ****        -2.6761   1.0212  -1.0190 C.2            1 S1                 0.0000
      6 ****        -1.7449   0.2563  -1.6122 N.pl3          1 S1                -1.0000
      7 ****        -0.4359   0.4786  -1.3642 C.2            1 S1                 0.0000
      8 ****         0.0293   1.3700  -0.6509 O.2            1 S1                 0.0000
      9 ****         0.3816  -0.4088  -1.9512 N.am           1 S1                 0.0000
     10 ****         1.8335  -0.5030  -1.7871 C.3            1 S1                 0.0000
     11 ****         2.4694  -0.9048  -3.1246 C.3            1 S1                 0.0000
     12 ****         2.1931  -1.5041  -0.6653 C.3            1 S1                 0.0000
     13 ****         1.5265  -1.1836   0.6221 N.4            1 S1                 1.0000
     14 ****         1.2945  -2.3673   1.4806 C.3            1 S1                 0.0000
     15 ****         0.5037  -1.9580   2.7351 C.3            1 S1                 0.0000
     16 ****         1.2060  -0.9355   3.4330 O.3            1 S1                 0.0000
     17 ****         1.3731   0.2345   2.6402 C.3            1 S1                 0.0000
     18 ****         2.1989  -0.1090   1.3899 C.3            1 S1                 0.0000
     19 ****        -3.2721   2.5438  -1.6777 S.3            1 S1                 0.0000
     20 ****        -4.6861   4.6359   0.3483 H              1 S1                 0.0000
     21 ****        -5.9973   3.4990   0.7106 H              1 S1                 0.0000
     22 ****        -5.7372   4.0487  -0.9527 H              1 S1                 0.0000
     23 ****        -0.0520  -1.1102  -2.5343 H              1 S1                 0.0000
     24 ****         2.2347   0.4781  -1.5296 H              1 S1                 0.0000
     25 ****         3.5552  -0.9592  -3.0415 H              1 S1                 0.0000
     26 ****         2.2355  -0.1783  -3.9036 H              1 S1                 0.0000
     27 ****         2.1116  -1.8790  -3.4597 H              1 S1                 0.0000
     28 ****         1.8782  -2.4977  -0.9883 H              1 S1                 0.0000
     29 ****         3.2732  -1.5599  -0.5221 H              1 S1                 0.0000
     30 ****         0.7355  -3.1236   0.9281 H              1 S1                 0.0000
     31 ****         2.2506  -2.8114   1.7621 H              1 S1                 0.0000
     32 ****        -0.4961  -1.6107   2.4683 H              1 S1                 0.0000
     33 ****         0.3771  -2.8151   3.3967 H              1 S1                 0.0000
     34 ****         0.4006   0.6462   2.3643 H              1 S1                 0.0000
     35 ****         1.8848   0.9935   3.2321 H              1 S1                 0.0000
     36 ****         3.2001  -0.4326   1.6784 H              1 S1                 0.0000
     37 ****         2.3170   0.7820   0.7738 H              1 S1                 0.0000
     38 ****         0.6095  -0.8353   0.3764 H              1 S1                 0.0000
     39 ****        -4.6992   1.5204   1.4342 LP             1 S1                 0.0000
     40 ****        -3.0308  -0.1592   0.6415 LP             1 S1                 0.0000
     41 ****        -2.0199  -0.4756  -2.2356 LP             1 S1                 0.0000
     42 ****        -0.5830   2.0136  -0.1916 LP             1 S1                 0.0000
     43 ****         1.0190   1.4496  -0.5315 LP             1 S1                 0.0000
     44 ****         2.1079  -1.2819   3.6911 LP             1 S1                 0.0000
     45 ****         0.6926  -0.6962   4.2572 LP             1 S1                 0.0000
@<TRIPOS>BOND
    1    1    2 1     
    2    1   20 1     
    3    1   21 1     
    4    1   22 1     
    5    2   19 1     
    6    2    3 2     
    7    3    4 1     
    8    4    5 2     
    9    5    6 1     
   10    5   19 1     
   11    6    7 1     
   12    7    8 2     
   13    7    9 am    
   14    9   10 1     
   15    9   23 1     
   16   10   11 1     
   17   10   12 1     
   18   10   24 1     
   19   11   25 1     
   20   11   26 1     
   21   11   27 1     
   22   12   13 1     
   23   12   28 1     
   24   12   29 1     
   25   13   18 1     
   26   13   14 1     
   27   13   38 1     
   28   14   15 1     
   29   14   30 1     
   30   14   31 1     
   31   15   16 1     
   32   15   32 1     
   33   15   33 1     
   34   16   17 1     
   35   17   18 1     
   36   17   34 1     
   37   17   35 1     
   38   18   36 1     
   39   18   37 1     
   40    3   39 1     
   41    4   40 1     
   42    6   41 1     
   43    8   42 1     
   44    8   43 1     
   45   16   44 1     
   46   16   45 1     
@<TRIPOS>SUBSTRUCTURE
      1 S1             1
@<TRIPOS>SET
LONE_PAIRS      STATIC     ATOMS    <user>   **** ""
7 39 40 41 42 43 44 45
DONOR_HYDROGENS      STATIC     ATOMS    <user>   **** ""
2 23 38
ATOM$BLUE        STATIC     ATOMS    COLORGROUP SYSTEM
7 39 40 41 42 43 44 45
ATOM$RED        STATIC     ATOMS    COLORGROUP SYSTEM
2 23 38
