#       Name:                AV-unprocessed.smi:1866
#       Creating user name   scv26
#       Creation time:       Fri Mar 27 09:27:39 2020


#       File generated by GOLD software.
#

@<TRIPOS>MOLECULE
AV-unprocessed.smi:1866
    36    37     1
SMALL
NO_CHARGES


@<TRIPOS>ATOM
      1 ****        -6.2880   1.7387   0.8505 C.3            1 S1                 0.0000
      2 ****        -4.8978   1.5554   0.3459 C.2            1 S1                 0.0000
      3 ****        -4.6171   1.3730  -0.9465 N.2            1 S1                 0.0000
      4 ****        -3.2557   1.2247  -1.1699 N.2            1 S1                 0.0000
      5 ****        -2.5285   1.2868  -0.0455 C.2            1 S1                 0.0000
      6 ****        -1.1902   1.1711  -0.0464 N.pl3          1 S1                -1.0000
      7 ****        -0.6131  -0.0084   0.2782 C.2            1 S1                 0.0000
      8 ****        -1.1997  -1.0447   0.5979 O.2            1 S1                 0.0000
      9 ****         0.7275   0.0196   0.2350 N.am           1 S1                 0.0000
     10 ****         1.6380  -1.0919   0.5151 C.3            1 S1                 0.0000
     11 ****         2.9880  -0.5083   0.9868 C.3            1 S1                 0.0000
     12 ****         3.8065   0.0733  -0.1701 C.3            1 S1                 0.0000
     13 ****         4.0959  -1.0216  -1.2037 C.3            1 S1                 0.0000
     14 ****         2.9248  -1.8430  -1.5008 N.am           1 S1                 0.0000
     15 ****         1.8085  -1.9550  -0.7574 C.2            1 S1                 0.0000
     16 ****         0.9180  -2.7398  -1.0778 O.2            1 S1                 0.0000
     17 ****        -3.4964   1.5608   1.4033 S.3            1 S1                 0.0000
     18 ****        -6.8007   0.7775   0.8865 H              1 S1                 0.0000
     19 ****        -6.8426   2.4095   0.1939 H              1 S1                 0.0000
     20 ****        -6.2739   2.1663   1.8531 H              1 S1                 0.0000
     21 ****         1.1557   0.8931  -0.0333 H              1 S1                 0.0000
     22 ****         1.2248  -1.7106   1.3136 H              1 S1                 0.0000
     23 ****         2.8224   0.2548   1.7487 H              1 S1                 0.0000
     24 ****         3.5683  -1.2937   1.4733 H              1 S1                 0.0000
     25 ****         3.2564   0.8903  -0.6390 H              1 S1                 0.0000
     26 ****         4.7404   0.4988   0.1980 H              1 S1                 0.0000
     27 ****         4.4716  -0.5810  -2.1274 H              1 S1                 0.0000
     28 ****         4.8777  -1.6830  -0.8292 H              1 S1                 0.0000
     29 ****         2.9790  -2.4137  -2.3318 H              1 S1                 0.0000
     30 ****        -5.3076   1.3464  -1.6694 LP             1 S1                 0.0000
     31 ****        -2.8578   1.0858  -2.0768 LP             1 S1                 0.0000
     32 ****        -0.6206   1.9570  -0.2871 LP             1 S1                 0.0000
     33 ****        -2.1989  -1.0626   0.6346 LP             1 S1                 0.0000
     34 ****        -0.6763  -1.8672   0.8204 LP             1 S1                 0.0000
     35 ****         0.0931  -2.8157  -0.5177 LP             1 S1                 0.0000
     36 ****         1.0186  -3.3021  -1.8986 LP             1 S1                 0.0000
@<TRIPOS>BOND
    1    1    2 1     
    2    1   18 1     
    3    1   19 1     
    4    1   20 1     
    5    2   17 1     
    6    2    3 2     
    7    3    4 1     
    8    4    5 2     
    9    5    6 1     
   10    5   17 1     
   11    6    7 1     
   12    7    8 2     
   13    7    9 am    
   14    9   10 1     
   15    9   21 1     
   16   10   15 1     
   17   10   11 1     
   18   10   22 1     
   19   11   12 1     
   20   11   23 1     
   21   11   24 1     
   22   12   13 1     
   23   12   25 1     
   24   12   26 1     
   25   13   14 1     
   26   13   27 1     
   27   13   28 1     
   28   14   15 am    
   29   14   29 1     
   30   15   16 2     
   31    3   30 1     
   32    4   31 1     
   33    6   32 1     
   34    8   33 1     
   35    8   34 1     
   36   16   35 1     
   37   16   36 1     
@<TRIPOS>SUBSTRUCTURE
      1 S1             1
@<TRIPOS>SET
LONE_PAIRS      STATIC     ATOMS    <user>   **** ""
7 30 31 32 33 34 35 36
DONOR_HYDROGENS      STATIC     ATOMS    <user>   **** ""
2 21 29
ATOM$BLUE        STATIC     ATOMS    COLORGROUP SYSTEM
7 30 31 32 33 34 35 36
ATOM$RED        STATIC     ATOMS    COLORGROUP SYSTEM
2 21 29
