#       Name:                AV-unprocessed.smi:1518
#       Creating user name   scv26
#       Creation time:       Fri Mar 27 06:26:07 2020


#       File generated by GOLD software.
#

@<TRIPOS>MOLECULE
AV-unprocessed.smi:1518
    54    56     1
SMALL
NO_CHARGES


@<TRIPOS>ATOM
      1 ****        -5.4908  -2.7016   0.7321 C.3            1 S1                 0.0000
      2 ****        -6.0288  -1.2758   0.6212 C.2            1 S1                 0.0000
      3 ****        -7.2472  -1.1031   0.6368 O.2            1 S1                 0.0000
      4 ****        -5.0424  -0.1643   0.4954 C.ar           1 S1                 0.0000
      5 ****        -5.5117   1.1605   0.3491 C.ar           1 S1                 0.0000
      6 ****        -4.6054   2.2289   0.2262 C.ar           1 S1                 0.0000
      7 ****        -3.2210   1.9838   0.2499 C.ar           1 S1                 0.0000
      8 ****        -2.7257   0.6737   0.3982 C.ar           1 S1                 0.0000
      9 ****        -1.3553   0.5271   0.4113 O.3            1 S1                 0.0000
     10 ****        -0.8124  -0.7767   0.5793 C.3            1 S1                 0.0000
     11 ****         0.7222  -0.7125   0.5239 C.3            1 S1                 0.0000
     12 ****         1.2087  -0.1914   1.7445 O.3            1 S1                 0.0000
     13 ****         1.2610   0.0723  -0.6904 C.3            1 S1                 0.0000
     14 ****         2.7154   0.0627  -0.7678 N.pl3          1 S1                 0.0000
     15 ****         3.5149  -0.8547  -1.3681 C.2            1 S1                 0.0000
     16 ****         2.9406  -2.0480  -2.0784 C.3            1 S1                 0.0000
     17 ****         3.9037  -3.0124  -2.4525 O.3            1 S1                 0.0000
     18 ****         4.8260  -0.6129  -1.2935 N.2            1 S1                 0.0000
     19 ****         4.8803   0.5675  -0.5789 C.ar           1 S1                 0.0000
     20 ****         5.9883   1.3436  -0.1698 C.ar           1 S1                 0.0000
     21 ****         5.7952   2.5339   0.5616 C.ar           1 S1                 0.0000
     22 ****         4.4943   2.9644   0.8933 C.ar           1 S1                 0.0000
     23 ****         3.3767   2.2063   0.4947 C.ar           1 S1                 0.0000
     24 ****         3.5750   1.0186  -0.2350 C.ar           1 S1                 0.0000
     25 ****        -3.6459  -0.3986   0.5218 C.ar           1 S1                 0.0000
     26 ****        -4.9004  -2.8165   1.6411 H              1 S1                 0.0000
     27 ****        -4.8657  -2.9434  -0.1277 H              1 S1                 0.0000
     28 ****        -6.3120  -3.4179   0.7665 H              1 S1                 0.0000
     29 ****        -6.5713   1.3719   0.3278 H              1 S1                 0.0000
     30 ****        -4.9728   3.2381   0.1136 H              1 S1                 0.0000
     31 ****        -2.5320   2.8101   0.1544 H              1 S1                 0.0000
     32 ****        -1.1416  -1.2211   1.5203 H              1 S1                 0.0000
     33 ****        -1.1626  -1.4171  -0.2318 H              1 S1                 0.0000
     34 ****         1.0915  -1.7368   0.4712 H              1 S1                 0.0000
     35 ****         0.8895   0.6930   1.8406 H              1 S1                 0.0000
     36 ****         0.8549  -0.3378  -1.6153 H              1 S1                 0.0000
     37 ****         0.9292   1.1105  -0.6523 H              1 S1                 0.0000
     38 ****         2.2059  -2.5348  -1.4379 H              1 S1                 0.0000
     39 ****         2.4198  -1.7091  -2.9742 H              1 S1                 0.0000
     40 ****         3.4631  -3.7230  -2.8923 H              1 S1                 0.0000
     41 ****         6.9886   1.0223  -0.4199 H              1 S1                 0.0000
     42 ****         6.6493   3.1191   0.8694 H              1 S1                 0.0000
     43 ****         4.3549   3.8771   1.4541 H              1 S1                 0.0000
     44 ****         2.3793   2.5329   0.7486 H              1 S1                 0.0000
     45 ****        -3.2812  -1.4068   0.6372 H              1 S1                 0.0000
     46 ****        -7.8623  -1.8871   0.7207 LP             1 S1                 0.0000
     47 ****        -7.6222  -0.1788   0.5656 LP             1 S1                 0.0000
     48 ****        -1.0056   1.0908   1.1596 LP             1 S1                 0.0000
     49 ****        -1.0127   0.8792  -0.4596 LP             1 S1                 0.0000
     50 ****         2.2086  -0.1903   1.7364 LP             1 S1                 0.0000
     51 ****         0.8822  -0.7526   2.5051 LP             1 S1                 0.0000
     52 ****         4.3692  -3.3575  -1.6375 LP             1 S1                 0.0000
     53 ****         4.5735  -2.5983  -3.0688 LP             1 S1                 0.0000
     54 ****         5.5817  -1.1531  -1.6636 LP             1 S1                 0.0000
@<TRIPOS>BOND
    1    1    2 1     
    2    1   26 1     
    3    1   27 1     
    4    1   28 1     
    5    2    3 2     
    6    2    4 1     
    7    4   25 ar    
    8    4    5 ar    
    9    5    6 ar    
   10    5   29 1     
   11    6    7 ar    
   12    6   30 1     
   13    7    8 ar    
   14    7   31 1     
   15    8    9 1     
   16    8   25 ar    
   17    9   10 1     
   18   10   11 1     
   19   10   32 1     
   20   10   33 1     
   21   11   12 1     
   22   11   13 1     
   23   11   34 1     
   24   12   35 1     
   25   13   14 1     
   26   13   36 1     
   27   13   37 1     
   28   14   24 1     
   29   14   15 1     
   30   15   16 1     
   31   15   18 2     
   32   16   17 1     
   33   16   38 1     
   34   16   39 1     
   35   17   40 1     
   36   18   19 1     
   37   19   24 ar    
   38   19   20 ar    
   39   20   21 ar    
   40   20   41 1     
   41   21   22 ar    
   42   21   42 1     
   43   22   23 ar    
   44   22   43 1     
   45   23   24 ar    
   46   23   44 1     
   47   25   45 1     
   48    3   46 1     
   49    3   47 1     
   50    9   48 1     
   51    9   49 1     
   52   12   50 1     
   53   12   51 1     
   54   17   52 1     
   55   17   53 1     
   56   18   54 1     
@<TRIPOS>SUBSTRUCTURE
      1 S1             1
@<TRIPOS>SET
LONE_PAIRS      STATIC     ATOMS    <user>   **** ""
9 46 47 48 49 50 51 52 53 54
DONOR_HYDROGENS      STATIC     ATOMS    <user>   **** ""
2 35 40
ATOM$BLUE        STATIC     ATOMS    COLORGROUP SYSTEM
9 46 47 48 49 50 51 52 53 54
ATOM$RED        STATIC     ATOMS    COLORGROUP SYSTEM
2 35 40
