#       Name:                AV-unprocessed.smi:2015
#       Creating user name   scv26
#       Creation time:       Fri Mar 27 10:41:10 2020


#       File generated by GOLD software.
#

@<TRIPOS>MOLECULE
AV-unprocessed.smi:2015
    55    56     1
SMALL
NO_CHARGES


@<TRIPOS>ATOM
      1 ****        -8.3313  -0.0106  -3.2605 C.3            1 S1                 0.0000
      2 ****        -6.9355   0.2288  -3.2231 O.3            1 S1                 0.0000
      3 ****        -6.5815   1.2383  -2.2923 C.3            1 S1                 0.0000
      4 ****        -5.0589   1.4233  -2.2952 C.3            1 S1                 0.0000
      5 ****        -4.3105   0.1820  -1.7753 C.3            1 S1                 0.0000
      6 ****        -2.7951   0.3897  -1.6976 C.2            1 S1                 0.0000
      7 ****        -2.2096   0.9539  -2.6209 O.2            1 S1                 0.0000
      8 ****        -2.2004  -0.0998  -0.5937 N.am           1 S1                 0.0000
      9 ****        -0.8289  -0.0741  -0.2173 C.ar           1 S1                 0.0000
     10 ****         0.1681   0.7151  -0.8372 C.ar           1 S1                 0.0000
     11 ****         1.4894   0.6488  -0.3543 C.ar           1 S1                 0.0000
     12 ****         1.7871  -0.1949   0.7417 C.ar           1 S1                 0.0000
     13 ****         3.1055  -0.2757   1.2408 N.3            1 S1                 0.0000
     14 ****         3.7477   0.9978   1.5548 C.3            1 S1                 0.0000
     15 ****         5.2656   0.8177   1.7521 C.3            1 S1                 0.0000
     16 ****         6.0336   0.6182   0.4333 C.3            1 S1                 0.0000
     17 ****         5.5216  -0.2284   2.6918 O.3            1 S1                 0.0000
     18 ****         4.9372  -1.4871   2.3593 C.3            1 S1                 0.0000
     19 ****         5.2969  -2.4832   3.4667 C.3            1 S1                 0.0000
     20 ****         3.4141  -1.3269   2.2066 C.3            1 S1                 0.0000
     21 ****         0.8280  -0.9460   1.3356 N.ar           1 S1                 0.0000
     22 ****        -0.4363  -0.8800   0.8697 C.ar           1 S1                 0.0000
     23 ****        -8.5500  -0.7821  -3.9986 H              1 S1                 0.0000
     24 ****        -8.8797   0.8893  -3.5414 H              1 S1                 0.0000
     25 ****        -8.6976  -0.3565  -2.2931 H              1 S1                 0.0000
     26 ****        -7.0662   2.1763  -2.5670 H              1 S1                 0.0000
     27 ****        -6.9273   0.9733  -1.2919 H              1 S1                 0.0000
     28 ****        -4.7294   1.6709  -3.3052 H              1 S1                 0.0000
     29 ****        -4.8090   2.2828  -1.6714 H              1 S1                 0.0000
     30 ****        -4.6934  -0.0868  -0.7895 H              1 S1                 0.0000
     31 ****        -4.5038  -0.6708  -2.4267 H              1 S1                 0.0000
     32 ****        -2.8095  -0.5864   0.0481 H              1 S1                 0.0000
     33 ****        -0.0442   1.3731  -1.6643 H              1 S1                 0.0000
     34 ****         2.2570   1.2348  -0.8374 H              1 S1                 0.0000
     35 ****         3.5712   1.7494   0.7870 H              1 S1                 0.0000
     36 ****         3.3041   1.3834   2.4738 H              1 S1                 0.0000
     37 ****         5.6508   1.7317   2.2049 H              1 S1                 0.0000
     38 ****         5.9279   1.4925  -0.2094 H              1 S1                 0.0000
     39 ****         5.6725  -0.2412  -0.1308 H              1 S1                 0.0000
     40 ****         7.0978   0.4738   0.6207 H              1 S1                 0.0000
     41 ****         5.3617  -1.8539   1.4246 H              1 S1                 0.0000
     42 ****         4.8774  -3.4683   3.2606 H              1 S1                 0.0000
     43 ****         4.9156  -2.1531   4.4334 H              1 S1                 0.0000
     44 ****         6.3777  -2.5940   3.5557 H              1 S1                 0.0000
     45 ****         2.9626  -1.0734   3.1668 H              1 S1                 0.0000
     46 ****         2.9842  -2.2763   1.8843 H              1 S1                 0.0000
     47 ****        -1.1592  -1.4969   1.3833 H              1 S1                 0.0000
     48 ****        -6.6344   0.5125  -4.1336 LP             1 S1                 0.0000
     49 ****        -6.4715  -0.6194  -2.9679 LP             1 S1                 0.0000
     50 ****        -2.7230   1.2743  -3.4170 LP             1 S1                 0.0000
     51 ****        -1.2202   1.0921  -2.5753 LP             1 S1                 0.0000
     52 ****         3.5541  -0.6081   0.4111 LP             1 S1                 0.0000
     53 ****         5.1621   0.0566   3.5803 LP             1 S1                 0.0000
     54 ****         6.5117  -0.3525   2.7571 LP             1 S1                 0.0000
     55 ****         1.0541  -1.5401   2.1075 LP             1 S1                 0.0000
@<TRIPOS>BOND
    1    1    2 1     
    2    1   23 1     
    3    1   24 1     
    4    1   25 1     
    5    2    3 1     
    6    3    4 1     
    7    3   26 1     
    8    3   27 1     
    9    4    5 1     
   10    4   28 1     
   11    4   29 1     
   12    5    6 1     
   13    5   30 1     
   14    5   31 1     
   15    6    7 2     
   16    6    8 am    
   17    8    9 1     
   18    8   32 1     
   19    9   22 ar    
   20    9   10 ar    
   21   10   11 ar    
   22   10   33 1     
   23   11   12 ar    
   24   11   34 1     
   25   12   13 1     
   26   12   21 ar    
   27   13   20 1     
   28   13   14 1     
   29   14   15 1     
   30   14   35 1     
   31   14   36 1     
   32   15   16 1     
   33   15   17 1     
   34   15   37 1     
   35   16   38 1     
   36   16   39 1     
   37   16   40 1     
   38   17   18 1     
   39   18   19 1     
   40   18   20 1     
   41   18   41 1     
   42   19   42 1     
   43   19   43 1     
   44   19   44 1     
   45   20   45 1     
   46   20   46 1     
   47   21   22 ar    
   48   22   47 1     
   49    2   48 1     
   50    2   49 1     
   51    7   50 1     
   52    7   51 1     
   53   13   52 1     
   54   17   53 1     
   55   17   54 1     
   56   21   55 1     
@<TRIPOS>SUBSTRUCTURE
      1 S1             1
@<TRIPOS>SET
LONE_PAIRS      STATIC     ATOMS    <user>   **** ""
8 48 49 50 51 52 53 54 55
DONOR_HYDROGENS      STATIC     ATOMS    <user>   **** ""
1 32
ATOM$BLUE        STATIC     ATOMS    COLORGROUP SYSTEM
8 48 49 50 51 52 53 54 55
ATOM$RED        STATIC     ATOMS    COLORGROUP SYSTEM
1 32
