AV-unprocessed.smi:2714|AV-procd|sdf|10481|dock10
  -GOLD-   2272014523D 1   1.00000     0.00000
 Structure written by MMmdl.
 46 47  0  0  0  0  0  0  0  0  1 V2000
  152.9736  143.4120  160.3676 C   0  0  0  0  0  0  0  0  0  0  0  0
  151.4555  143.6123  160.3075 C   0  0  0  0  0  0  0  0  0  0  0  0
  151.0428  144.6733  159.2706 C   0  0  0  0  0  0  0  0  0  0  0  0
  151.4479  144.3346  157.8187 C   0  0  1  0  0  0  0  0  0  0  0  0
  152.8653  144.8461  157.5092 C   0  0  0  0  0  0  0  0  0  0  0  0
  151.3622  142.8282  157.5329 C   0  0  0  0  0  0  0  0  0  0  0  0
  152.1374  142.0490  158.0877 O   0  0  0  0  0  0  0  0  0  0  0  0
  150.4173  142.4391  156.6626 N   0  0  0  0  0  0  0  0  0  0  0  0
  150.1952  141.0752  156.1942 C   0  0  0  0  0  0  0  0  0  0  0  0
  149.0380  140.9921  155.2077 C   0  0  0  0  0  0  0  0  0  0  0  0
  148.0175  141.9661  155.2545 C   0  0  0  0  0  0  0  0  0  0  0  0
  146.9626  141.9027  154.3261 C   0  0  0  0  0  0  0  0  0  0  0  0
  146.9704  140.8627  153.3790 C   0  0  0  0  0  0  0  0  0  0  0  0
  147.9375  139.9243  153.3210 N   0  0  0  0  0  0  0  0  0  0  0  0
  148.9559  139.9809  154.2140 C   0  0  0  0  0  0  0  0  0  0  0  0
  149.9331  138.9737  154.1425 N   0  0  0  0  0  0  0  0  0  0  0  0
  149.9149  137.9883  155.2174 C   0  0  0  0  0  0  0  0  0  0  0  0
  150.9207  136.8655  154.9126 C   0  0  0  0  0  0  0  0  0  0  0  0
  152.2157  137.4277  154.7182 O   0  0  0  0  0  0  0  0  0  0  0  0
  152.2460  138.3353  153.6200 C   0  0  0  0  0  0  0  0  0  0  0  0
  151.2672  139.4947  153.8756 C   0  0  0  0  0  0  0  0  0  0  0  0
  153.2368  142.6545  161.1061 H   0  0  0  0  0  0  0  0  0  0  0  0
  153.4828  144.3360  160.6427 H   0  0  0  0  0  0  0  0  0  0  0  0
  153.3659  143.0867  159.4036 H   0  0  0  0  0  0  0  0  0  0  0  0
  150.9841  142.6564  160.0774 H   0  0  0  0  0  0  0  0  0  0  0  0
  151.0939  143.9054  161.2937 H   0  0  0  0  0  0  0  0  0  0  0  0
  149.9594  144.7924  159.3113 H   0  0  0  0  0  0  0  0  0  0  0  0
  151.4579  145.6416  159.5558 H   0  0  0  0  0  0  0  0  0  0  0  0
  150.7605  144.8520  157.1474 H   0  0  0  0  0  0  0  0  0  0  0  0
  153.1673  144.5920  156.4923 H   0  0  0  0  0  0  0  0  0  0  0  0
  153.6032  144.4221  158.1916 H   0  0  0  0  0  0  0  0  0  0  0  0
  152.9168  145.9312  157.6019 H   0  0  0  0  0  0  0  0  0  0  0  0
  149.8252  143.1536  156.2646 H   0  0  0  0  0  0  0  0  0  0  0  0
  151.0908  140.6462  155.7433 H   0  0  0  0  0  0  0  0  0  0  0  0
  149.9781  140.4548  157.0642 H   0  0  0  0  0  0  0  0  0  0  0  0
  148.0424  142.7575  155.9894 H   0  0  0  0  0  0  0  0  0  0  0  0
  146.1691  142.6351  154.3377 H   0  0  0  0  0  0  0  0  0  0  0  0
  146.1790  140.7814  152.6488 H   0  0  0  0  0  0  0  0  0  0  0  0
  150.1722  138.4643  156.1648 H   0  0  0  0  0  0  0  0  0  0  0  0
  148.9108  137.5754  155.3216 H   0  0  0  0  0  0  0  0  0  0  0  0
  150.9595  136.1597  155.7422 H   0  0  0  0  0  0  0  0  0  0  0  0
  150.6208  136.3018  154.0281 H   0  0  0  0  0  0  0  0  0  0  0  0
  153.2597  138.7190  153.5046 H   0  0  0  0  0  0  0  0  0  0  0  0
  151.9977  137.8118  152.6958 H   0  0  0  0  0  0  0  0  0  0  0  0
  151.2461  140.1622  153.0135 H   0  0  0  0  0  0  0  0  0  0  0  0
  151.6020  140.0840  154.7304 H   0  0  0  0  0  0  0  0  0  0  0  0
  1  2  1  0  0  0  0
  1 22  1  0  0  0  0
  1 23  1  0  0  0  0
  1 24  1  0  0  0  0
  2  3  1  0  0  0  0
  2 25  1  0  0  0  0
  2 26  1  0  0  0  0
  3  4  1  0  0  0  0
  3 27  1  0  0  0  0
  3 28  1  0  0  0  0
  4  5  1  0  0  0  0
  4  6  1  0  0  0  0
  4 29  1  0  0  0  0
  5 30  1  0  0  0  0
  5 31  1  0  0  0  0
  5 32  1  0  0  0  0
  6  7  2  0  0  0  0
  6  8  1  0  0  0  0
  8  9  1  0  0  0  0
  8 33  1  0  0  0  0
  9 10  1  0  0  0  0
  9 34  1  0  0  0  0
  9 35  1  0  0  0  0
 10 15  1  0  0  0  0
 10 11  2  0  0  0  0
 11 12  1  0  0  0  0
 11 36  1  0  0  0  0
 12 13  2  0  0  0  0
 12 37  1  0  0  0  0
 13 14  1  0  0  0  0
 13 38  1  0  0  0  0
 14 15  2  0  0  0  0
 15 16  1  0  0  0  0
 16 21  1  0  0  0  0
 16 17  1  0  0  0  0
 17 18  1  0  0  0  0
 17 39  1  0  0  0  0
 17 40  1  0  0  0  0
 18 19  1  0  0  0  0
 18 41  1  0  0  0  0
 18 42  1  0  0  0  0
 19 20  1  0  0  0  0
 20 21  1  0  0  0  0
 20 43  1  0  0  0  0
 20 44  1  0  0  0  0
 21 45  1  0  0  0  0
 21 46  1  0  0  0  0
M  END
> <s_m_source_file>
AV-unprocessed.smi

> <i_m_source_file_index>
2714

> <i_lp_mmshare_version>
43012

> <i_f3d_flags>
0

> <s_epik_input>
W0NIM11bQ0gyXVtDSDJdW0NASF0oW0NIM10pQyg9TylbTkhdW0NIMl1jMVtjSF1bY0hdW2NIXW5jMU4yW0NIMl1bQ0gyXU9bQ0gyXVtDSDJdMg==

> <s_epik_cmdline>
J2VwaWtfcHl0aG9uJywgJy1waCcsICc3LjAnLCAnLXRuJywgJzgnLCAnLW1hJywgJzIwMCcsICctbWV0YWxfYmluZGluZycsICctaW1hZScsICc8aW5maWxlLm1hZT4nLCAnLW9tYWUnLCAnPG91dGZpbGUubWFlPic=

> <r_lp_tautomer_probability>
1

> <r_epik_Ionization_Penalty>
0.00517355

> <r_epik_Ionization_Penalty_Charging>
0

> <r_epik_Ionization_Penalty_Neutral>
0.00517355

> <r_epik_State_Penalty>
0.00376978

> <r_epik_Charging_Adjusted_Penalty>
0.00376978

> <i_epik_Tot_Q>
0

> <i_epik_Tot_abs_Q>
0

> <r_epik_Metal_State_Penalty>
-0

> <b_epik_Metal_Only>
0

> <s_lp_Force_Field>
OPLS_2005

> <r_lp_Energy>
17.5243

> <b_lp_Chiralities_Consistent>
1

> <s_lp_Variant>
AV-unprocessed.smi:2714-2

> <Gold.Version>
5.8.1

> <Gold.Id.Protein>
6NUR|6NUR_protein|mol2

> <Gold.PLP.Fitness>
45.1017

> <Gold.PLP.PLP>
-38.0586

> <Gold.PLP.part.hbond>
-2.0000

> <Gold.PLP.part.metal>
0.0000

> <Gold.PLP.part.buried>
-3.7849

> <Gold.PLP.part.nonpolar>
-35.2602

> <Gold.PLP.part.repulsive>
1.7723

> <Gold.PLP.ligand.clash>
0.0000

> <Gold.PLP.ligand.torsion>
0.8481

> <Gold.PLP.Chemscore.Hbond>
1.8705

> <Gold.PLP.Chemscore.CHOScore>
0.9762

> <Gold.PLP.Chemscore.Metal>
0.0000

> <Gold.Chemscore.Hbonds>
donor molecule, donor type, donor heavy atom, donor atom, acceptor molecule, acceptor atom, score
      L1  H     8    33       P1  8028  1.00
      P1  H 10752 10765       L1    19  0.23
      L1  C    13    38       P1 10175  1.00

> <Gold.PLP.Chemscore.Internal.Correction>
0.1992

> <Gold.Rescore>
     Score         DG    S(hbond)    S(metal)    S(lipo)     H(rot)  DE(clash)    DE(int)     intcor
     14.04     -18.70       1.30        0.00     113.42       1.72       1.32       3.33       ----

> <Gold.Chemscore.Fitness>
14.0429

> <Gold.Chemscore.DG>
-18.7014

> <Gold.Chemscore.ZeroCoef>
-5.4800

> <Gold.Chemscore.Hbond>
1.3030

> <Gold.Chemscore.Metal>
0.0000

> <Gold.Chemscore.Lipo>
113.4233

> <Gold.Chemscore.Internal_Hbond>
0.0000

> <Gold.Chemscore.DEClash>
1.3236

> <Gold.Chemscore.DEInternal>
3.3350

> <Gold.Chemscore.Rot>
1.7192

> <Gold.Chemscore.Internal.Correction>
   9.000000E+99

> <Gold.Chemscore.Hbonds>
donor molecule, donor type, donor heavy atom, donor atom, acceptor molecule, acceptor atom, score
      L1  H     8    33       P1  8028  1.00
      P1  H 10752 10765       L1    19  0.01

> <Gold.Chemscore.Hbond.Weighted>
-4.3520

> <Gold.Chemscore.Metal.Weighted>
-0.0000

> <Gold.Chemscore.Lipo.Weighted>
-13.2705

> <Gold.Chemscore.Internal_Hbond.Weighted>
0.0000

> <Gold.Chemscore.DEClash.Weighted>
1.3236

> <Gold.Chemscore.DEInternal.Weighted>
3.3350

> <Gold.Chemscore.Rot.Weighted>
4.4011

> <Gold.Chemscore.Internal.Correction.Weighted>
   9.000000E+99

> <Gold.Protein.RotatedTorsions>
[ 6907 6896 6895 6894 ] final   57.45 input  -60.11 | X-H torsion
[ 7974 7965 7964 7962 ] final -129.08 input  175.53 | X-H torsion
[ 8008 7997 7996 7995 ] final   91.91 input   59.86 | X-H torsion
[ 10167 10162 10161 10158 ] final   39.01 input  -65.29 | X-H torsion
[ 10718 10713 10712 10709 ] final  174.31 input   66.30 | X-H torsion
[ 10763 10752 10751 10750 ] final -160.52 input  -60.55 | X-H torsion
[ 11005 11000 10999 10996 ] final -108.87 input  -57.11 | X-H torsion

> <Gold.Protein.ActiveResidues>
 VAL166  LYS551  ARG553  GLY616  TRP617  ASP618  TYR619  PRO620  LYS621  CYS622 
 ASP623  PHE694  ASN695  SER759  ASP760  ASP761  ALA762  ILE779  LEU786  VAL792 
 PHE793  MET794  SER795  GLU796  ALA797  LYS798  CYS799  TRP800  GLU811  SER814 

> <Gold.Protein.RotatedAtoms>
  152.3732  134.6703  160.0168 H   0  0  0  0  0  0  0  0  0  0  0  0  # atno 6907 bound_to 6896
  151.6989  133.3305  159.3269 H   0  0  0  0  0  0  0  0  0  0  0  0  # atno 6908 bound_to 6896
  150.7689  134.6568  159.6362 H   0  0  0  0  0  0  0  0  0  0  0  0  # atno 6909 bound_to 6896
  144.9607  140.7444  143.4730 H   0  0  0  0  0  0  0  0  0  0  0  0  # atno 7974 bound_to 7965
  156.0293  140.3332  155.7122 H   0  0  0  0  0  0  0  0  0  0  0  0  # atno 8008 bound_to 7997
  155.5908  140.0646  157.2777 H   0  0  0  0  0  0  0  0  0  0  0  0  # atno 8009 bound_to 7997
  154.4347  140.1827  156.1061 H   0  0  0  0  0  0  0  0  0  0  0  0  # atno 8010 bound_to 7997
  140.3881  144.1889  150.6130 H   0  0  0  0  0  0  0  0  0  0  0  0  # atno 10167 bound_to 10162
  156.9515  131.0032  151.2947 H   0  0  0  0  0  0  0  0  0  0  0  0  # atno 10718 bound_to 10713
  154.7383  135.3062  154.8772 H   0  0  0  0  0  0  0  0  0  0  0  0  # atno 10763 bound_to 10752
  153.9595  135.6754  153.4749 H   0  0  0  0  0  0  0  0  0  0  0  0  # atno 10764 bound_to 10752
  153.0984  135.4924  154.8745 H   0  0  0  0  0  0  0  0  0  0  0  0  # atno 10765 bound_to 10752
  141.0878  133.9107  157.2144 H   0  0  0  0  0  0  0  0  0  0  0  0  # atno 11005 bound_to 11000
  145.2704  139.1957  143.4845 LP  0  0  0  0  0  0  0  0  0  0  0  0  # atno 17320 bound_to 7965
  146.3352  140.2649  142.8603 LP  0  0  0  0  0  0  0  0  0  0  0  0  # atno 17321 bound_to 7965
  140.4868  143.2360  151.8876 LP  0  0  0  0  0  0  0  0  0  0  0  0  # atno 17342 bound_to 10162
  139.4790  144.5210  151.8802 LP  0  0  0  0  0  0  0  0  0  0  0  0  # atno 17343 bound_to 10162
  157.5719  130.8316  149.8403 LP  0  0  0  0  0  0  0  0  0  0  0  0  # atno 17370 bound_to 10713
  156.0361  130.3751  150.1557 LP  0  0  0  0  0  0  0  0  0  0  0  0  # atno 17371 bound_to 10713
  139.9699  135.0131  156.9486 LP  0  0  0  0  0  0  0  0  0  0  0  0  # atno 17394 bound_to 11000
  140.5321  134.0803  155.7318 LP  0  0  0  0  0  0  0  0  0  0  0  0  # atno 17395 bound_to 11000

$$$$
