AV-unprocessed.smi:3313|AV-procd|sdf|12729|dock7
  -GOLD-   2272019 73D 1   1.00000     0.00000
 Structure written by MMmdl.
 43 43  0  0  0  0  0  0  0  0  2 V2000
  151.2043  139.9500  155.5993 C   0  0  0  0  0  0  0  0  0  0  0  0
  150.8761  141.3339  156.1847 C   0  0  2  0  0  0  0  0  0  0  0  0
  150.7679  141.3098  157.7274 C   0  0  0  0  0  0  0  0  0  0  0  0
  151.4843  142.4025  158.3604 N   0  0  0  0  0  0  0  0  0  0  0  0
  151.5580  143.7239  157.9718 C   0  0  0  0  0  0  0  0  0  0  0  0
  152.3547  144.3681  158.8745 C   0  0  0  0  0  0  0  0  0  0  0  0
  152.7303  143.3428  159.7869 C   0  0  0  0  0  0  0  0  0  0  0  0
  152.2094  142.1669  159.4750 N   0  0  0  0  0  0  0  0  0  0  0  0
  149.6322  141.8444  155.5647 N   0  3  0  0  0  0  0  0  0  0  0  0
  149.5198  141.6379  154.1049 C   0  0  0  0  0  0  0  0  0  0  0  0
  148.1821  142.1807  153.5740 C   0  0  0  0  0  0  0  0  0  0  0  0
  147.0459  142.0486  154.5928 C   0  0  0  0  0  0  0  0  0  0  0  0
  146.0248  141.4276  154.2987 O   0  0  0  0  0  0  0  0  0  0  0  0
  147.2447  142.6457  155.7819 N   0  0  0  0  0  0  0  0  0  0  0  0
  146.3462  142.6905  156.9423 C   0  0  0  0  0  0  0  0  0  0  0  0
  147.2285  142.9189  158.1824 C   0  0  0  0  0  0  0  0  0  0  0  0
  145.5942  141.3520  157.1031 C   0  0  0  0  0  0  0  0  0  0  0  0
  145.3500  143.8618  156.8131 C   0  0  0  0  0  0  0  0  0  0  0  0
  152.1671  139.5812  155.9541 H   0  0  0  0  0  0  0  0  0  0  0  0
  151.2574  139.9873  154.5108 H   0  0  0  0  0  0  0  0  0  0  0  0
  150.4462  139.2143  155.8705 H   0  0  0  0  0  0  0  0  0  0  0  0
  151.6869  142.0053  155.8981 H   0  0  0  0  0  0  0  0  0  0  0  0
  149.7279  141.3693  158.0488 H   0  0  0  0  0  0  0  0  0  0  0  0
  151.1602  140.3696  158.1179 H   0  0  0  0  0  0  0  0  0  0  0  0
  151.0420  144.0927  157.0975 H   0  0  0  0  0  0  0  0  0  0  0  0
  152.6293  145.4126  158.8814 H   0  0  0  0  0  0  0  0  0  0  0  0
  153.3623  143.4166  160.6598 H   0  0  0  0  0  0  0  0  0  0  0  0
  148.8600  141.3547  155.9938 H   0  0  0  0  0  0  0  0  0  0  0  0
  150.3508  142.1349  153.6039 H   0  0  0  0  0  0  0  0  0  0  0  0
  149.5990  140.5722  153.8851 H   0  0  0  0  0  0  0  0  0  0  0  0
  148.2977  143.2294  153.2951 H   0  0  0  0  0  0  0  0  0  0  0  0
  147.8929  141.6452  152.6691 H   0  0  0  0  0  0  0  0  0  0  0  0
  148.1232  143.1290  155.9014 H   0  0  0  0  0  0  0  0  0  0  0  0
  146.6302  142.9623  159.0933 H   0  0  0  0  0  0  0  0  0  0  0  0
  147.7829  143.8557  158.1112 H   0  0  0  0  0  0  0  0  0  0  0  0
  147.9558  142.1154  158.3073 H   0  0  0  0  0  0  0  0  0  0  0  0
  146.2862  140.5106  157.1570 H   0  0  0  0  0  0  0  0  0  0  0  0
  144.9090  141.1633  156.2766 H   0  0  0  0  0  0  0  0  0  0  0  0
  144.9987  141.3444  158.0168 H   0  0  0  0  0  0  0  0  0  0  0  0
  144.7422  143.9608  157.7132 H   0  0  0  0  0  0  0  0  0  0  0  0
  144.6628  143.7262  155.9781 H   0  0  0  0  0  0  0  0  0  0  0  0
  145.8682  144.8096  156.6631 H   0  0  0  0  0  0  0  0  0  0  0  0
  149.5405  142.8288  155.7712 H   0  0  0  0  0  0  0  0  0  0  0  0
  1  2  1  0  0  0  0
  1 19  1  0  0  0  0
  1 20  1  0  0  0  0
  1 21  1  0  0  0  0
  2  3  1  0  0  0  0
  2  9  1  0  0  0  0
  2 22  1  0  0  0  0
  3  4  1  0  0  0  0
  3 23  1  0  0  0  0
  3 24  1  0  0  0  0
  4  8  1  0  0  0  0
  4  5  1  0  0  0  0
  5  6  2  0  0  0  0
  5 25  1  0  0  0  0
  6  7  1  0  0  0  0
  6 26  1  0  0  0  0
  7  8  2  0  0  0  0
  7 27  1  0  0  0  0
  9 10  1  0  0  0  0
  9 28  1  0  0  0  0
  9 43  1  0  0  0  0
 10 11  1  0  0  0  0
 10 29  1  0  0  0  0
 10 30  1  0  0  0  0
 11 12  1  0  0  0  0
 11 31  1  0  0  0  0
 11 32  1  0  0  0  0
 12 13  2  0  0  0  0
 12 14  1  0  0  0  0
 14 15  1  0  0  0  0
 14 33  1  0  0  0  0
 15 16  1  0  0  0  0
 15 17  1  0  0  0  0
 15 18  1  0  0  0  0
 16 34  1  0  0  0  0
 16 35  1  0  0  0  0
 16 36  1  0  0  0  0
 17 37  1  0  0  0  0
 17 38  1  0  0  0  0
 17 39  1  0  0  0  0
 18 40  1  0  0  0  0
 18 41  1  0  0  0  0
 18 42  1  0  0  0  0
M  CHG  1   9   1
M  END
> <s_m_source_file>
AV-unprocessed.smi

> <i_m_source_file_index>
3313

> <i_lp_mmshare_version>
43012

> <i_f3d_flags>
0

> <s_epik_input>
bjFbY0hdW2NIXVtjSF1uMVtDSDJdW0NAQEhdKFtDSDNdKVtOSF1bQ0gyXVtDSDJdQyg9TylbTkhdQyhbQ0gzXSkoW0NIM10pW0NIM10=

> <s_epik_cmdline>
J2VwaWtfcHl0aG9uJywgJy1waCcsICc3LjAnLCAnLXRuJywgJzgnLCAnLW1hJywgJzIwMCcsICctbWV0YWxfYmluZGluZycsICctaW1hZScsICc8aW5maWxlLm1hZT4nLCAnLW9tYWUnLCAnPG91dGZpbGUubWFlPic=

> <r_lp_tautomer_probability>
1

> <r_epik_Ionization_Penalty>
0.0056766

> <r_epik_Ionization_Penalty_Charging>
0.00567288

> <r_epik_Ionization_Penalty_Neutral>
3.71277e-06

> <r_epik_State_Penalty>
0.0041598

> <r_epik_Charging_Adjusted_Penalty>
0.00983268

> <i_epik_Tot_Q>
1

> <i_epik_Tot_abs_Q>
1

> <r_epik_Metal_State_Penalty>
-0

> <b_epik_Metal_Only>
0

> <s_lp_Force_Field>
OPLS_2005

> <r_lp_Energy>
7.49453

> <b_lp_Chiralities_Consistent>
1

> <s_lp_Variant>
AV-unprocessed.smi:3313-1

> <Gold.Version>
5.8.1

> <Gold.Id.Protein>
6NUR|6NUR_protein|mol2

> <Gold.PLP.Fitness>
46.2886

> <Gold.PLP.PLP>
-37.6114

> <Gold.PLP.part.hbond>
-2.0000

> <Gold.PLP.part.metal>
0.0000

> <Gold.PLP.part.buried>
-3.6116

> <Gold.PLP.part.nonpolar>
-32.1026

> <Gold.PLP.part.repulsive>
0.2504

> <Gold.PLP.ligand.clash>
0.0000

> <Gold.PLP.ligand.torsion>
1.6871

> <Gold.PLP.Chemscore.Hbond>
2.9920

> <Gold.PLP.Chemscore.CHOScore>
1.0000

> <Gold.PLP.Chemscore.Metal>
0.0000

> <Gold.Chemscore.Hbonds>
donor molecule, donor type, donor heavy atom, donor atom, acceptor molecule, acceptor atom, score
      L1  H     9    43       P1  8028  2.00
      L1  H    14    33       P1  8028  0.80
      L1  C     5    25       P1  8028  0.73

> <Gold.PLP.Chemscore.Internal.Correction>
0.0753

> <Gold.Rescore>
     Score         DG    S(hbond)    S(metal)    S(lipo)     H(rot)  DE(clash)    DE(int)     intcor
      9.70     -13.96       1.36        0.00      81.75       2.20       0.06       4.19       ----

> <Gold.Chemscore.Fitness>
9.7030

> <Gold.Chemscore.DG>
-13.9561

> <Gold.Chemscore.ZeroCoef>
-5.4800

> <Gold.Chemscore.Hbond>
1.3623

> <Gold.Chemscore.Metal>
0.0000

> <Gold.Chemscore.Lipo>
81.7512

> <Gold.Chemscore.Internal_Hbond>
0.0000

> <Gold.Chemscore.DEClash>
0.0610

> <Gold.Chemscore.DEInternal>
4.1921

> <Gold.Chemscore.Rot>
2.2027

> <Gold.Chemscore.Internal.Correction>
   9.000000E+99

> <Gold.Chemscore.Hbonds>
donor molecule, donor type, donor heavy atom, donor atom, acceptor molecule, acceptor atom, score
      L1  H     9    43       P1  8028  0.95
      L1  H    14    33       P1  8028  0.56

> <Gold.Chemscore.Hbond.Weighted>
-4.5502

> <Gold.Chemscore.Metal.Weighted>
-0.0000

> <Gold.Chemscore.Lipo.Weighted>
-9.5649

> <Gold.Chemscore.Internal_Hbond.Weighted>
0.0000

> <Gold.Chemscore.DEClash.Weighted>
0.0610

> <Gold.Chemscore.DEInternal.Weighted>
4.1921

> <Gold.Chemscore.Rot.Weighted>
5.6390

> <Gold.Chemscore.Internal.Correction.Weighted>
   9.000000E+99

> <Gold.Protein.RotatedTorsions>
[ 6907 6896 6895 6894 ] final  102.55 input  -60.11 | X-H torsion
[ 7974 7965 7964 7962 ] final   97.43 input  175.53 | X-H torsion
[ 8008 7997 7996 7995 ] final  -13.71 input   59.86 | X-H torsion
[ 10167 10162 10161 10158 ] final  108.69 input  -65.29 | X-H torsion
[ 10718 10713 10712 10709 ] final  176.21 input   66.30 | X-H torsion
[ 10763 10752 10751 10750 ] final  -56.13 input  -60.55 | X-H torsion
[ 11005 11000 10999 10996 ] final -124.56 input  -57.11 | X-H torsion

> <Gold.Protein.ActiveResidues>
 VAL166  LYS551  ARG553  GLY616  TRP617  ASP618  TYR619  PRO620  LYS621  CYS622 
 ASP623  PHE694  ASN695  SER759  ASP760  ASP761  ALA762  ILE779  LEU786  VAL792 
 PHE793  MET794  SER795  GLU796  ALA797  LYS798  CYS799  TRP800  GLU811  SER814 

> <Gold.Protein.RotatedAtoms>
  152.5320  133.9959  159.7871 H   0  0  0  0  0  0  0  0  0  0  0  0  # atno 6907 bound_to 6896
  151.0186  133.5890  159.2681 H   0  0  0  0  0  0  0  0  0  0  0  0  # atno 6908 bound_to 6896
  151.2938  135.0756  159.9267 H   0  0  0  0  0  0  0  0  0  0  0  0  # atno 6909 bound_to 6896
  145.4256  139.2316  143.3172 H   0  0  0  0  0  0  0  0  0  0  0  0  # atno 7974 bound_to 7965
  154.5270  140.2242  155.8872 H   0  0  0  0  0  0  0  0  0  0  0  0  # atno 8008 bound_to 7997
  156.1723  140.3119  155.8961 H   0  0  0  0  0  0  0  0  0  0  0  0  # atno 8009 bound_to 7997
  155.3531  140.0457  157.3037 H   0  0  0  0  0  0  0  0  0  0  0  0  # atno 8010 bound_to 7997
  139.6826  144.7117  151.1489 H   0  0  0  0  0  0  0  0  0  0  0  0  # atno 10167 bound_to 10162
  156.9236  130.9948  151.3000 H   0  0  0  0  0  0  0  0  0  0  0  0  # atno 10718 bound_to 10713
  154.2017  135.6410  153.5089 H   0  0  0  0  0  0  0  0  0  0  0  0  # atno 10763 bound_to 10752
  153.0010  135.5453  154.6308 H   0  0  0  0  0  0  0  0  0  0  0  0  # atno 10764 bound_to 10752
  154.5723  135.2918  155.0788 H   0  0  0  0  0  0  0  0  0  0  0  0  # atno 10765 bound_to 10752
  140.9831  134.0645  157.3742 H   0  0  0  0  0  0  0  0  0  0  0  0  # atno 11005 bound_to 11000
  146.2634  140.4986  142.8844 LP  0  0  0  0  0  0  0  0  0  0  0  0  # atno 17320 bound_to 7965
  144.8216  140.6560  143.6349 LP  0  0  0  0  0  0  0  0  0  0  0  0  # atno 17321 bound_to 7965
  140.7657  143.5677  150.9030 LP  0  0  0  0  0  0  0  0  0  0  0  0  # atno 17342 bound_to 10162
  139.9350  143.6449  152.3067 LP  0  0  0  0  0  0  0  0  0  0  0  0  # atno 17343 bound_to 10162
  157.5892  130.8431  149.8634 LP  0  0  0  0  0  0  0  0  0  0  0  0  # atno 17370 bound_to 10713
  156.0480  130.3724  150.1271 LP  0  0  0  0  0  0  0  0  0  0  0  0  # atno 17371 bound_to 10713
  139.8959  135.0143  156.7023 LP  0  0  0  0  0  0  0  0  0  0  0  0  # atno 17394 bound_to 11000
  140.7156  133.9185  155.8113 LP  0  0  0  0  0  0  0  0  0  0  0  0  # atno 17395 bound_to 11000

$$$$
