#       Name:                AV-unprocessed.smi:79
#       Creating user name   scv26
#       Creation time:       Thu Mar 26 17:14:14 2020


#       File generated by GOLD software.
#

@<TRIPOS>MOLECULE
AV-unprocessed.smi:79
    66    69     1
SMALL
NO_CHARGES


@<TRIPOS>ATOM
      1 ****        -7.2651   2.2622  -1.5150 C.3            1 S1                 0.0000
      2 ****        -5.7388   2.3151  -1.6629 C.3            1 S1                 0.0000
      3 ****        -5.4444   2.5833  -3.0193 O.3            1 S1                 0.0000
      4 ****        -5.0796   0.9839  -1.2472 C.3            1 S1                 0.0000
      5 ****        -3.5949   1.0452  -1.2419 N.4            1 S1                 1.0000
      6 ****        -2.9778  -0.2954  -1.3912 C.3            1 S1                 0.0000
      7 ****        -1.4485  -0.1889  -1.4803 C.3            1 S1                 0.0000
      8 ****        -0.9047   0.5524  -0.3461 N.3            1 S1                 0.0000
      9 ****         0.4470   0.5185  -0.3335 C.ar           1 S1                 0.0000
     10 ****         1.1527   1.1817  -1.2870 N.ar           1 S1                 0.0000
     11 ****         2.4891   1.1599  -1.2602 C.ar           1 S1                 0.0000
     12 ****         3.2970   0.5529  -0.3875 N.ar           1 S1                 0.0000
     13 ****         2.5867  -0.1133   0.5680 C.ar           1 S1                 0.0000
     14 ****         1.1698  -0.1828   0.6657 C.ar           1 S1                 0.0000
     15 ****         0.8017  -0.9449   1.7662 N.2            1 S1                 0.0000
     16 ****         1.9405  -1.3064   2.2931 C.2            1 S1                 0.0000
     17 ****         3.0636  -0.8564   1.6341 N.pl3          1 S1                 0.0000
     18 ****         4.4498  -1.1000   2.0033 C.3            1 S1                 0.0000
     19 ****         4.9929  -2.4601   1.5277 C.3            1 S1                 0.0000
     20 ****         4.9366  -2.5016  -0.0129 C.3            1 S1                 0.0000
     21 ****         5.5195  -3.6749  -0.5445 O.3            1 S1                 0.0000
     22 ****         6.3201  -2.8854   2.1721 C.3            1 S1                 0.0000
     23 ****         5.7790  -4.1595   2.5860 O.3            1 S1                 0.0000
     24 ****         4.4503  -3.6993   2.2541 C.3            1 S1                 0.0000
     25 ****        -1.4991   1.8789  -0.1432 C.3            1 S1                 0.0000
     26 ****        -0.9633   2.5884   1.1173 C.3            1 S1                 0.0000
     27 ****        -3.0366   1.7667  -0.0686 C.3            1 S1                 0.0000
     28 ****        -7.5509   2.0789  -0.4787 H              1 S1                 0.0000
     29 ****        -7.6982   1.4680  -2.1243 H              1 S1                 0.0000
     30 ****        -7.7237   3.2037  -1.8197 H              1 S1                 0.0000
     31 ****        -5.3681   3.1429  -1.0598 H              1 S1                 0.0000
     32 ****        -4.5246   2.7830  -3.1021 H              1 S1                 0.0000
     33 ****        -5.4256   0.6802  -0.2579 H              1 S1                 0.0000
     34 ****        -5.4138   0.2053  -1.9352 H              1 S1                 0.0000
     35 ****        -3.2607  -0.9222  -0.5438 H              1 S1                 0.0000
     36 ****        -3.3575  -0.7827  -2.2900 H              1 S1                 0.0000
     37 ****        -1.0118  -1.1882  -1.5131 H              1 S1                 0.0000
     38 ****        -1.1712   0.3108  -2.4098 H              1 S1                 0.0000
     39 ****         2.9820   1.7094  -2.0488 H              1 S1                 0.0000
     40 ****         1.9906  -1.9133   3.1853 H              1 S1                 0.0000
     41 ****         5.0606  -0.2863   1.6104 H              1 S1                 0.0000
     42 ****         4.5191  -1.0201   3.0890 H              1 S1                 0.0000
     43 ****         3.9075  -2.4656  -0.3701 H              1 S1                 0.0000
     44 ****         5.4523  -1.6429  -0.4437 H              1 S1                 0.0000
     45 ****         5.4520  -3.6443  -1.4866 H              1 S1                 0.0000
     46 ****         7.1502  -2.9872   1.4723 H              1 S1                 0.0000
     47 ****         6.6128  -2.2760   3.0284 H              1 S1                 0.0000
     48 ****         3.8711  -3.4744   3.1502 H              1 S1                 0.0000
     49 ****         3.9126  -4.3959   1.6099 H              1 S1                 0.0000
     50 ****        -1.2487   2.4926  -1.0102 H              1 S1                 0.0000
     51 ****        -1.4592   3.5483   1.2646 H              1 S1                 0.0000
     52 ****         0.1056   2.7920   1.0489 H              1 S1                 0.0000
     53 ****        -1.1322   1.9879   2.0118 H              1 S1                 0.0000
     54 ****        -3.4630   2.7667  -0.0021 H              1 S1                 0.0000
     55 ****        -3.3257   1.2404   0.8428 H              1 S1                 0.0000
     56 ****        -3.3268   1.5664  -2.0642 H              1 S1                 0.0000
     57 ****        -5.9860   3.3638  -3.3316 LP             1 S1                 0.0000
     58 ****        -5.6643   1.7814  -3.5747 LP             1 S1                 0.0000
     59 ****        -1.1957   0.0665   0.4781 LP             1 S1                 0.0000
     60 ****         0.6737   1.6846  -2.0065 LP             1 S1                 0.0000
     61 ****         4.2957   0.5828  -0.4290 LP             1 S1                 0.0000
     62 ****        -0.1210  -1.1656   2.0820 LP             1 S1                 0.0000
     63 ****         5.0357  -4.4784  -0.1979 LP             1 S1                 0.0000
     64 ****         6.4818  -3.7241  -0.2770 LP             1 S1                 0.0000
     65 ****         5.9104  -4.3636   3.5561 LP             1 S1                 0.0000
     66 ****         6.0922  -4.9343   2.0369 LP             1 S1                 0.0000
@<TRIPOS>BOND
    1    1    2 1     
    2    1   28 1     
    3    1   29 1     
    4    1   30 1     
    5    2    3 1     
    6    2    4 1     
    7    2   31 1     
    8    3   32 1     
    9    4    5 1     
   10    4   33 1     
   11    4   34 1     
   12    5   27 1     
   13    5    6 1     
   14    5   56 1     
   15    6    7 1     
   16    6   35 1     
   17    6   36 1     
   18    7    8 1     
   19    7   37 1     
   20    7   38 1     
   21    8    9 1     
   22    8   25 1     
   23    9   14 ar    
   24    9   10 ar    
   25   10   11 ar    
   26   11   12 ar    
   27   11   39 1     
   28   12   13 ar    
   29   13   17 1     
   30   13   14 ar    
   31   14   15 1     
   32   15   16 2     
   33   16   17 1     
   34   16   40 1     
   35   17   18 1     
   36   18   19 1     
   37   18   41 1     
   38   18   42 1     
   39   19   24 1     
   40   19   20 1     
   41   19   22 1     
   42   20   21 1     
   43   20   43 1     
   44   20   44 1     
   45   21   45 1     
   46   22   23 1     
   47   22   46 1     
   48   22   47 1     
   49   23   24 1     
   50   24   48 1     
   51   24   49 1     
   52   25   26 1     
   53   25   27 1     
   54   25   50 1     
   55   26   51 1     
   56   26   52 1     
   57   26   53 1     
   58   27   54 1     
   59   27   55 1     
   60    3   57 1     
   61    3   58 1     
   62    8   59 1     
   63   10   60 1     
   64   12   61 1     
   65   15   62 1     
   66   21   63 1     
   67   21   64 1     
   68   23   65 1     
   69   23   66 1     
@<TRIPOS>SUBSTRUCTURE
      1 S1             1
@<TRIPOS>SET
LONE_PAIRS      STATIC     ATOMS    <user>   **** ""
10 57 58 59 60 61 62 63 64 65 66
DONOR_HYDROGENS      STATIC     ATOMS    <user>   **** ""
3 32 56 45
ATOM$BLUE        STATIC     ATOMS    COLORGROUP SYSTEM
10 57 58 59 60 61 62 63 64 65 66
ATOM$RED        STATIC     ATOMS    COLORGROUP SYSTEM
3 32 56 45
