AV-unprocessed.smi:1005|AV-procd|sdf|4370|dock5
  -GOLD-   22720 2283D 1   1.00000     0.00000
 Structure written by MMmdl.
 57 59  0  0  0  0  0  0  0  0  3 V2000
  153.1919  142.7103  161.4252 C   0  0  0  0  0  0  0  0  0  0  0  0
  152.5610  142.5123  160.0582 C   0  0  0  0  0  0  0  0  0  0  0  0
  152.8559  141.3383  159.3289 C   0  0  0  0  0  0  0  0  0  0  0  0
  152.2898  141.1152  158.0547 C   0  0  0  0  0  0  0  0  0  0  0  0
  152.4256  140.0485  157.1831 N   0  0  0  0  0  0  0  0  0  0  0  0
  151.6437  140.4227  156.1745 C   0  0  0  0  0  0  0  0  0  0  0  0
  151.0099  141.6050  156.2929 N   0  0  0  0  0  0  0  0  0  0  0  0
  150.0911  142.2036  155.3407 C   0  0  0  0  0  0  0  0  0  0  0  0
  149.1458  141.1696  154.6921 C   0  0  2  0  0  0  0  0  0  0  0  0
  149.7320  140.7566  153.4743 O   0  0  0  0  0  0  0  0  0  0  0  0
  147.7327  141.7270  154.4094 C   0  0  0  0  0  0  0  0  0  0  0  0
  147.1564  142.5107  155.5350 N   0  3  1  0  0  0  0  0  0  0  0  0
  145.8325  143.1274  155.2615 C   0  0  0  0  0  0  0  0  0  0  0  0
  144.6962  142.0888  155.3333 C   0  0  0  0  0  0  0  0  0  0  0  0
  144.7385  141.4112  156.5847 O   0  0  0  0  0  0  0  0  0  0  0  0
  145.9596  140.7084  156.7868 C   0  0  2  0  0  0  0  0  0  0  0  0
  145.8373  139.9251  158.1084 C   0  0  0  0  0  0  0  0  0  0  0  0
  144.7002  138.9673  158.1273 N   0  3  0  0  0  0  0  0  0  0  0  0
  144.8043  137.9672  157.0414 C   0  0  0  0  0  0  0  0  0  0  0  0
  144.4915  138.3171  159.4429 C   0  0  0  0  0  0  0  0  0  0  0  0
  147.1094  141.7422  156.8035 C   0  0  0  0  0  0  0  0  0  0  0  0
  151.4170  142.1093  157.5245 C   0  0  0  0  0  0  0  0  0  0  0  0
  151.1207  143.2847  158.2381 C   0  0  0  0  0  0  0  0  0  0  0  0
  151.6884  143.4879  159.5129 C   0  0  0  0  0  0  0  0  0  0  0  0
  151.3540  144.7553  160.2794 C   0  0  0  0  0  0  0  0  0  0  0  0
  153.8569  141.8848  161.6807 H   0  0  0  0  0  0  0  0  0  0  0  0
  152.4234  142.7712  162.1958 H   0  0  0  0  0  0  0  0  0  0  0  0
  153.7781  143.6294  161.4464 H   0  0  0  0  0  0  0  0  0  0  0  0
  153.5204  140.5950  159.7448 H   0  0  0  0  0  0  0  0  0  0  0  0
  151.5157  139.7967  155.3031 H   0  0  0  0  0  0  0  0  0  0  0  0
  149.5168  142.9719  155.8607 H   0  0  0  0  0  0  0  0  0  0  0  0
  150.6735  142.7179  154.5745 H   0  0  0  0  0  0  0  0  0  0  0  0
  149.0857  140.3038  155.3505 H   0  0  0  0  0  0  0  0  0  0  0  0
  149.1046  140.2373  152.9944 H   0  0  0  0  0  0  0  0  0  0  0  0
  147.7422  142.3513  153.5181 H   0  0  0  0  0  0  0  0  0  0  0  0
  147.0750  140.8860  154.1851 H   0  0  0  0  0  0  0  0  0  0  0  0
  145.6579  143.8950  156.0166 H   0  0  0  0  0  0  0  0  0  0  0  0
  145.8217  143.6441  154.3034 H   0  0  0  0  0  0  0  0  0  0  0  0
  143.7315  142.5871  155.2390 H   0  0  0  0  0  0  0  0  0  0  0  0
  144.7569  141.3725  154.5129 H   0  0  0  0  0  0  0  0  0  0  0  0
  146.0843  140.0067  155.9624 H   0  0  0  0  0  0  0  0  0  0  0  0
  146.7701  139.3844  158.2758 H   0  0  0  0  0  0  0  0  0  0  0  0
  145.7321  140.6172  158.9455 H   0  0  0  0  0  0  0  0  0  0  0  0
  145.6899  137.3431  157.1681 H   0  0  0  0  0  0  0  0  0  0  0  0
  144.8658  138.4549  156.0679 H   0  0  0  0  0  0  0  0  0  0  0  0
  143.9279  137.3185  157.0276 H   0  0  0  0  0  0  0  0  0  0  0  0
  145.3808  137.7679  159.7542 H   0  0  0  0  0  0  0  0  0  0  0  0
  143.6601  137.6131  159.3951 H   0  0  0  0  0  0  0  0  0  0  0  0
  144.2466  139.0425  160.2178 H   0  0  0  0  0  0  0  0  0  0  0  0
  148.0699  141.2588  156.9851 H   0  0  0  0  0  0  0  0  0  0  0  0
  146.9612  142.4430  157.6260 H   0  0  0  0  0  0  0  0  0  0  0  0
  150.4583  144.0223  157.8105 H   0  0  0  0  0  0  0  0  0  0  0  0
  150.6196  145.3604  159.7472 H   0  0  0  0  0  0  0  0  0  0  0  0
  152.2494  145.3609  160.4211 H   0  0  0  0  0  0  0  0  0  0  0  0
  150.9401  144.5145  161.2586 H   0  0  0  0  0  0  0  0  0  0  0  0
  143.8657  139.5009  157.9298 H   0  0  0  0  0  0  0  0  0  0  0  0
  147.8048  143.2713  155.6852 H   0  0  0  0  0  0  0  0  0  0  0  0
  1  2  1  0  0  0  0
  1 26  1  0  0  0  0
  1 27  1  0  0  0  0
  1 28  1  0  0  0  0
  2 24  1  0  0  0  0
  2  3  2  0  0  0  0
  3  4  1  0  0  0  0
  3 29  1  0  0  0  0
  4 22  2  0  0  0  0
  4  5  1  0  0  0  0
  5  6  2  0  0  0  0
  6  7  1  0  0  0  0
  6 30  1  0  0  0  0
  7  8  1  0  0  0  0
  7 22  1  0  0  0  0
  8  9  1  0  0  0  0
  8 31  1  0  0  0  0
  8 32  1  0  0  0  0
  9 10  1  0  0  0  0
  9 11  1  0  0  0  0
  9 33  1  0  0  0  0
 10 34  1  0  0  0  0
 11 12  1  0  0  0  0
 11 35  1  0  0  0  0
 11 36  1  0  0  0  0
 12 21  1  0  0  0  0
 12 13  1  0  0  0  0
 12 57  1  0  0  0  0
 13 14  1  0  0  0  0
 13 37  1  0  0  0  0
 13 38  1  0  0  0  0
 14 15  1  0  0  0  0
 14 39  1  0  0  0  0
 14 40  1  0  0  0  0
 15 16  1  0  0  0  0
 16 17  1  0  0  0  0
 16 21  1  0  0  0  0
 16 41  1  0  0  0  0
 17 18  1  0  0  0  0
 17 42  1  0  0  0  0
 17 43  1  0  0  0  0
 18 19  1  0  0  0  0
 18 20  1  0  0  0  0
 18 56  1  0  0  0  0
 19 44  1  0  0  0  0
 19 45  1  0  0  0  0
 19 46  1  0  0  0  0
 20 47  1  0  0  0  0
 20 48  1  0  0  0  0
 20 49  1  0  0  0  0
 21 50  1  0  0  0  0
 21 51  1  0  0  0  0
 22 23  1  0  0  0  0
 23 24  2  0  0  0  0
 23 52  1  0  0  0  0
 24 25  1  0  0  0  0
 25 53  1  0  0  0  0
 25 54  1  0  0  0  0
 25 55  1  0  0  0  0
M  CHG  1  12   1
M  CHG  1  18   1
M  END
> <s_m_source_file>
AV-unprocessed.smi

> <i_m_source_file_index>
1005

> <i_lp_mmshare_version>
43012

> <i_f3d_flags>
0

> <s_epik_input>
W0NIM11jKFtjSF0xKWMoW0NIM10pW2NIXWMoYzEyKW4oW2NIXW4yKVtDSDJdW0NASF0oW09IXSlbQ0gyXU4zW0NIMl1bQ0gyXU9bQ0BIXShbQ0gyXTMpW0NIMl1OKFtDSDNdKVtDSDNd

> <s_epik_cmdline>
J2VwaWtfcHl0aG9uJywgJy1waCcsICc3LjAnLCAnLXRuJywgJzgnLCAnLW1hJywgJzIwMCcsICctbWV0YWxfYmluZGluZycsICctaW1hZScsICc8aW5maWxlLm1hZT4nLCAnLW9tYWUnLCAnPG91dGZpbGUubWFlPic=

> <r_epik_Ionization_Penalty>
1.0968

> <r_epik_Ionization_Penalty_Charging>
1.0096

> <r_epik_Ionization_Penalty_Neutral>
0.0871956

> <r_epik_State_Penalty>
1.31185

> <r_epik_Charging_Adjusted_Penalty>
2.32145

> <i_epik_Tot_Q>
2

> <i_epik_Tot_abs_Q>
2

> <r_epik_Metal_State_Penalty>
1.22442

> <b_epik_Metal_Only>
0

> <s_lp_Force_Field>
OPLS_2005

> <r_lp_Energy>
36.3086

> <b_lp_Chiralities_Consistent>
1

> <s_lp_Variant>
AV-unprocessed.smi:1005-9

> <Gold.Version>
5.8.1

> <Gold.Id.Protein>
6NUR|6NUR_protein|mol2

> <Gold.PLP.Fitness>
55.0436

> <Gold.PLP.PLP>
-42.9378

> <Gold.PLP.part.hbond>
-4.5378

> <Gold.PLP.part.metal>
0.0000

> <Gold.PLP.part.buried>
-2.7619

> <Gold.PLP.part.nonpolar>
-34.5178

> <Gold.PLP.part.repulsive>
0.1431

> <Gold.PLP.ligand.clash>
0.0000

> <Gold.PLP.ligand.torsion>
0.8791

> <Gold.PLP.Chemscore.Hbond>
4.5665

> <Gold.PLP.Chemscore.CHOScore>
0.0000

> <Gold.PLP.Chemscore.Metal>
0.0000

> <Gold.Chemscore.Hbonds>
donor molecule, donor type, donor heavy atom, donor atom, acceptor molecule, acceptor atom, score
      L1  H    10    34       P1  7957  0.24
      L1  H    12    57       P1  8028  2.00
      P1  H  7989  7998       L1    10  0.35
      P1  H  7997  8009       L1     5  1.00
      P1  H  8011  8017       L1    10  1.00

> <Gold.PLP.Chemscore.Internal.Correction>
0.1645

> <Gold.Rescore>
     Score         DG    S(hbond)    S(metal)    S(lipo)     H(rot)  DE(clash)    DE(int)     intcor
     16.88     -19.32       2.05        0.00     114.16       2.48       1.58       0.86       ----

> <Gold.Chemscore.Fitness>
16.8805

> <Gold.Chemscore.DG>
-19.3216

> <Gold.Chemscore.ZeroCoef>
-5.4800

> <Gold.Chemscore.Hbond>
2.0469

> <Gold.Chemscore.Metal>
0.0000

> <Gold.Chemscore.Lipo>
114.1640

> <Gold.Chemscore.Internal_Hbond>
0.0000

> <Gold.Chemscore.DEClash>
1.5845

> <Gold.Chemscore.DEInternal>
0.8566

> <Gold.Chemscore.Rot>
2.4814

> <Gold.Chemscore.Internal.Correction>
   9.000000E+99

> <Gold.Chemscore.Hbonds>
donor molecule, donor type, donor heavy atom, donor atom, acceptor molecule, acceptor atom, score
      L1  H    10    34       P1  7957  0.24
      L1  H    12    57       P1  8028  0.30
      P1  H  7989  7998       L1    10  0.32
      P1  H  7997  8009       L1     5  0.31
      P1  H  8011  8017       L1    10  0.16

> <Gold.Chemscore.Hbond.Weighted>
-6.8368

> <Gold.Chemscore.Metal.Weighted>
-0.0000

> <Gold.Chemscore.Lipo.Weighted>
-13.3572

> <Gold.Chemscore.Internal_Hbond.Weighted>
0.0000

> <Gold.Chemscore.DEClash.Weighted>
1.5845

> <Gold.Chemscore.DEInternal.Weighted>
0.8566

> <Gold.Chemscore.Rot.Weighted>
6.3524

> <Gold.Chemscore.Internal.Correction.Weighted>
   9.000000E+99

> <Gold.Protein.RotatedTorsions>
[ 6907 6896 6895 6894 ] final -179.87 input  -60.11 | X-H torsion
[ 7974 7965 7964 7962 ] final -117.98 input  175.53 | X-H torsion
[ 8008 7997 7996 7995 ] final -178.98 input   59.86 | X-H torsion
[ 10167 10162 10161 10158 ] final  139.04 input  -65.29 | X-H torsion
[ 10718 10713 10712 10709 ] final  -59.91 input   66.30 | X-H torsion
[ 10763 10752 10751 10750 ] final   80.45 input  -60.55 | X-H torsion
[ 11005 11000 10999 10996 ] final  161.24 input  -57.11 | X-H torsion

> <Gold.Protein.ActiveResidues>
 VAL166  LYS551  ARG553  GLY616  TRP617  ASP618  TYR619  PRO620  LYS621  CYS622 
 ASP623  PHE694  ASN695  SER759  ASP760  ASP761  ALA762  ILE779  LEU786  VAL792 
 PHE793  MET794  SER795  GLU796  ALA797  LYS798  CYS799  TRP800  GLU811  SER814 

> <Gold.Protein.RotatedAtoms>
  151.6604  133.3317  159.3172 H   0  0  0  0  0  0  0  0  0  0  0  0  # atno 6907 bound_to 6896
  150.7916  134.6948  159.6526 H   0  0  0  0  0  0  0  0  0  0  0  0  # atno 6908 bound_to 6896
  152.3996  134.6311  160.0127 H   0  0  0  0  0  0  0  0  0  0  0  0  # atno 6909 bound_to 6896
  145.0790  140.8412  143.4050 H   0  0  0  0  0  0  0  0  0  0  0  0  # atno 7974 bound_to 7965
  156.0252  140.1270  157.0316 H   0  0  0  0  0  0  0  0  0  0  0  0  # atno 8008 bound_to 7997
  154.4327  140.1060  156.6091 H   0  0  0  0  0  0  0  0  0  0  0  0  # atno 8009 bound_to 7997
  155.5887  140.3469  155.4562 H   0  0  0  0  0  0  0  0  0  0  0  0  # atno 8010 bound_to 7997
  139.5091  144.6318  151.5798 H   0  0  0  0  0  0  0  0  0  0  0  0  # atno 10167 bound_to 10162
  156.1028  130.4184  150.0780 H   0  0  0  0  0  0  0  0  0  0  0  0  # atno 10718 bound_to 10713
  153.1034  135.4802  154.8908 H   0  0  0  0  0  0  0  0  0  0  0  0  # atno 10763 bound_to 10752
  154.7404  135.3081  154.8740 H   0  0  0  0  0  0  0  0  0  0  0  0  # atno 10764 bound_to 10752
  153.9350  135.6840  153.4798 H   0  0  0  0  0  0  0  0  0  0  0  0  # atno 10765 bound_to 10752
  140.2138  134.8247  157.3149 H   0  0  0  0  0  0  0  0  0  0  0  0  # atno 11005 bound_to 11000
  145.1201  139.2699  143.5593 LP  0  0  0  0  0  0  0  0  0  0  0  0  # atno 17320 bound_to 7965
  146.3530  140.0822  142.8617 LP  0  0  0  0  0  0  0  0  0  0  0  0  # atno 17321 bound_to 7965
  140.6053  143.9535  150.6414 LP  0  0  0  0  0  0  0  0  0  0  0  0  # atno 17342 bound_to 10162
  140.2760  143.3422  152.1194 LP  0  0  0  0  0  0  0  0  0  0  0  0  # atno 17343 bound_to 10162
  156.8763  130.9541  151.3604 LP  0  0  0  0  0  0  0  0  0  0  0  0  # atno 17370 bound_to 10713
  157.6201  130.8648  149.9094 LP  0  0  0  0  0  0  0  0  0  0  0  0  # atno 17371 bound_to 10713
  140.1922  134.4357  155.7709 LP  0  0  0  0  0  0  0  0  0  0  0  0  # atno 17394 bound_to 11000
  141.2225  133.7032  156.8046 LP  0  0  0  0  0  0  0  0  0  0  0  0  # atno 17395 bound_to 11000

$$$$
