AV-unprocessed.smi:3025|AV-procd|sdf|11505|dock3
  -GOLD-   2272016443D 1   1.00000     0.00000
 Structure written by MMmdl.
 42 43  0  0  0  0  0  0  0  0  2 V2000
  151.9581  143.2861  158.2676 C   0  0  0  0  0  0  0  0  0  0  0  0
  151.0250  142.8306  157.1405 C   0  0  0  0  0  0  0  0  0  0  0  0
  151.0482  141.3060  156.9375 C   0  0  0  0  0  0  0  0  0  0  0  0
  150.4292  140.8380  155.6041 C   0  0  2  0  0  0  0  0  0  0  0  0
  148.8979  141.0292  155.5589 C   0  0  0  0  0  0  0  0  0  0  0  0
  148.2986  140.5415  154.2295 C   0  0  0  0  0  0  0  0  0  0  0  0
  148.6582  139.0678  153.9489 C   0  0  1  0  0  0  0  0  0  0  0  0
  148.1350  138.6202  152.6390 N   0  3  0  0  0  0  0  0  0  0  0  0
  146.6895  138.8441  152.4270 C   0  0  0  0  0  0  0  0  0  0  0  0
  145.8572  137.7517  153.1114 C   0  0  0  0  0  0  0  0  0  0  0  0
  145.3506  136.7315  152.1452 C   0  0  0  0  0  0  0  0  0  0  0  0
  146.1634  136.0318  151.3509 N   0  0  0  0  0  0  0  0  0  0  0  0
  145.4277  135.2050  150.5788 N   0  0  0  0  0  0  0  0  0  0  0  0
  144.1873  135.4789  150.9787 C   0  0  0  0  0  0  0  0  0  0  0  0
  144.0711  136.4294  151.9547 N   0  0  0  0  0  0  0  0  0  0  0  0
  150.1853  138.8805  153.9912 C   0  0  0  0  0  0  0  0  0  0  0  0
  150.7764  139.3617  155.3258 C   0  0  0  0  0  0  0  0  0  0  0  0
  147.1713  136.0788  151.3025 H   0  0  0  0  0  0  0  0  0  0  0  0
  151.9204  144.3688  158.3893 H   0  0  0  0  0  0  0  0  0  0  0  0
  152.9923  143.0116  158.0587 H   0  0  0  0  0  0  0  0  0  0  0  0
  151.6760  142.8348  159.2192 H   0  0  0  0  0  0  0  0  0  0  0  0
  150.0135  143.1655  157.3684 H   0  0  0  0  0  0  0  0  0  0  0  0
  151.3151  143.3285  156.2147 H   0  0  0  0  0  0  0  0  0  0  0  0
  152.0869  140.9750  156.9767 H   0  0  0  0  0  0  0  0  0  0  0  0
  150.5452  140.8150  157.7716 H   0  0  0  0  0  0  0  0  0  0  0  0
  150.8707  141.4355  154.8047 H   0  0  0  0  0  0  0  0  0  0  0  0
  148.4344  140.4901  156.3864 H   0  0  0  0  0  0  0  0  0  0  0  0
  148.6403  142.0794  155.6935 H   0  0  0  0  0  0  0  0  0  0  0  0
  147.2175  140.6746  154.2630 H   0  0  0  0  0  0  0  0  0  0  0  0
  148.6617  141.1723  153.4167 H   0  0  0  0  0  0  0  0  0  0  0  0
  148.2206  138.4380  154.7255 H   0  0  0  0  0  0  0  0  0  0  0  0
  148.6561  139.0803  151.9061 H   0  0  0  0  0  0  0  0  0  0  0  0
  146.4162  139.8224  152.8253 H   0  0  0  0  0  0  0  0  0  0  0  0
  146.4674  138.8557  151.3601 H   0  0  0  0  0  0  0  0  0  0  0  0
  146.4527  137.2494  153.8754 H   0  0  0  0  0  0  0  0  0  0  0  0
  145.0030  138.1957  153.6244 H   0  0  0  0  0  0  0  0  0  0  0  0
  143.3322  134.9777  150.5493 H   0  0  0  0  0  0  0  0  0  0  0  0
  150.4373  137.8302  153.8403 H   0  0  0  0  0  0  0  0  0  0  0  0
  150.6506  139.4302  153.1715 H   0  0  0  0  0  0  0  0  0  0  0  0
  151.8590  139.2295  155.3087 H   0  0  0  0  0  0  0  0  0  0  0  0
  150.4030  138.7348  156.1369 H   0  0  0  0  0  0  0  0  0  0  0  0
  148.2969  137.6256  152.5697 H   0  0  0  0  0  0  0  0  0  0  0  0
  1  2  1  0  0  0  0
  1 19  1  0  0  0  0
  1 20  1  0  0  0  0
  1 21  1  0  0  0  0
  2  3  1  0  0  0  0
  2 22  1  0  0  0  0
  2 23  1  0  0  0  0
  3  4  1  0  0  0  0
  3 24  1  0  0  0  0
  3 25  1  0  0  0  0
  4 17  1  0  0  0  0
  4  5  1  0  0  0  0
  4 26  1  0  0  0  0
  5  6  1  0  0  0  0
  5 27  1  0  0  0  0
  5 28  1  0  0  0  0
  6  7  1  0  0  0  0
  6 29  1  0  0  0  0
  6 30  1  0  0  0  0
  7  8  1  0  0  0  0
  7 16  1  0  0  0  0
  7 31  1  0  0  0  0
  8  9  1  0  0  0  0
  8 32  1  0  0  0  0
  8 42  1  0  0  0  0
  9 10  1  0  0  0  0
  9 33  1  0  0  0  0
  9 34  1  0  0  0  0
 10 35  1  0  0  0  0
 10 36  1  0  0  0  0
 10 11  1  0  0  0  0
 11 15  2  0  0  0  0
 11 12  1  0  0  0  0
 12 18  1  0  0  0  0
 12 13  1  0  0  0  0
 13 14  2  0  0  0  0
 14 15  1  0  0  0  0
 14 37  1  0  0  0  0
 16 17  1  0  0  0  0
 16 38  1  0  0  0  0
 16 39  1  0  0  0  0
 17 40  1  0  0  0  0
 17 41  1  0  0  0  0
M  CHG  1   8   1
M  END
> <s_m_source_file>
AV-unprocessed.smi

> <i_m_source_file_index>
3025

> <i_lp_mmshare_version>
43012

> <i_f3d_flags>
0

> <s_epik_input>
W0NIM11bQ0gyXVtDSDJdW0NAQEhdMVtDSDJdW0NIMl1bQ0BIXShbQ0gyXVtDSDJdMSlbTkhdW0NIMl1bQ0gyXWMybm5bY0hdW25IXTI=

> <s_epik_cmdline>
J2VwaWtfcHl0aG9uJywgJy1waCcsICc3LjAnLCAnLXRuJywgJzgnLCAnLW1hJywgJzIwMCcsICctbWV0YWxfYmluZGluZycsICctaW1hZScsICc8aW5maWxlLm1hZT4nLCAnLW9tYWUnLCAnPG91dGZpbGUubWFlPic=

> <r_lp_tautomer_probability>
0.948284

> <r_epik_Ionization_Penalty>
0.0093758

> <r_epik_Ionization_Penalty_Charging>
0.000546397

> <r_epik_Ionization_Penalty_Neutral>
0.00882941

> <r_epik_State_Penalty>
0.401098

> <r_epik_Charging_Adjusted_Penalty>
0.401645

> <i_epik_Tot_Q>
1

> <i_epik_Tot_abs_Q>
1

> <r_epik_Metal_State_Penalty>
0.634803

> <b_epik_Metal_Only>
0

> <s_lp_Force_Field>
OPLS_2005

> <r_lp_Energy>
13.6193

> <b_lp_Chiralities_Consistent>
1

> <s_lp_Variant>
AV-unprocessed.smi:3025-1

> <Gold.Version>
5.8.1

> <Gold.Id.Protein>
6NUR|6NUR_protein|mol2

> <Gold.PLP.Fitness>
45.9681

> <Gold.PLP.PLP>
-32.4611

> <Gold.PLP.part.hbond>
-2.9620

> <Gold.PLP.part.metal>
0.0000

> <Gold.PLP.part.buried>
-3.7217

> <Gold.PLP.part.nonpolar>
-28.5977

> <Gold.PLP.part.repulsive>
1.3266

> <Gold.PLP.ligand.clash>
0.0000

> <Gold.PLP.ligand.torsion>
0.5446

> <Gold.PLP.Chemscore.Hbond>
4.0000

> <Gold.PLP.Chemscore.CHOScore>
0.8343

> <Gold.PLP.Chemscore.Metal>
0.0000

> <Gold.Chemscore.Hbonds>
donor molecule, donor type, donor heavy atom, donor atom, acceptor molecule, acceptor atom, score
      L1  H     8    32       P1  7957  0.98
      L1  H     8    42       P1  7948  2.00
      L1  H    12    18       P1  7948  1.00
      L1  C    14    37       P1 10186  0.86

> <Gold.PLP.Chemscore.Internal.Correction>
0.0934

> <Gold.Rescore>
     Score         DG    S(hbond)    S(metal)    S(lipo)     H(rot)  DE(clash)    DE(int)     intcor
     17.53     -18.08       2.92        0.00      80.23       2.56       0.08       0.47       ----

> <Gold.Chemscore.Fitness>
17.5313

> <Gold.Chemscore.DG>
-18.0782

> <Gold.Chemscore.ZeroCoef>
-5.4800

> <Gold.Chemscore.Hbond>
2.9237

> <Gold.Chemscore.Metal>
0.0000

> <Gold.Chemscore.Lipo>
80.2322

> <Gold.Chemscore.Internal_Hbond>
0.0000

> <Gold.Chemscore.DEClash>
0.0790

> <Gold.Chemscore.DEInternal>
0.4679

> <Gold.Chemscore.Rot>
2.5602

> <Gold.Chemscore.Internal.Correction>
   9.000000E+99

> <Gold.Chemscore.Hbonds>
donor molecule, donor type, donor heavy atom, donor atom, acceptor molecule, acceptor atom, score
      L1  H     8    32       P1  7957  0.87
      L1  H     8    42       P1  7948  0.97
      L1  H    12    18       P1  7948  1.00

> <Gold.Chemscore.Hbond.Weighted>
-9.7652

> <Gold.Chemscore.Metal.Weighted>
-0.0000

> <Gold.Chemscore.Lipo.Weighted>
-9.3872

> <Gold.Chemscore.Internal_Hbond.Weighted>
0.0000

> <Gold.Chemscore.DEClash.Weighted>
0.0790

> <Gold.Chemscore.DEInternal.Weighted>
0.4679

> <Gold.Chemscore.Rot.Weighted>
6.5542

> <Gold.Chemscore.Internal.Correction.Weighted>
   9.000000E+99

> <Gold.Protein.RotatedTorsions>
[ 6907 6896 6895 6894 ] final  156.33 input  -60.11 | X-H torsion
[ 7974 7965 7964 7962 ] final -152.47 input  175.53 | X-H torsion
[ 8008 7997 7996 7995 ] final  -49.19 input   59.86 | X-H torsion
[ 10167 10162 10161 10158 ] final   68.83 input  -65.29 | X-H torsion
[ 10718 10713 10712 10709 ] final  -72.40 input   66.30 | X-H torsion
[ 10763 10752 10751 10750 ] final   -8.23 input  -60.55 | X-H torsion
[ 11005 11000 10999 10996 ] final -138.82 input  -57.11 | X-H torsion

> <Gold.Protein.ActiveResidues>
 VAL166  LYS551  ARG553  GLY616  TRP617  ASP618  TYR619  PRO620  LYS621  CYS622 
 ASP623  PHE694  ASN695  SER759  ASP760  ASP761  ALA762  ILE779  LEU786  VAL792 
 PHE793  MET794  SER795  GLU796  ALA797  LYS798  CYS799  TRP800  GLU811  SER814 

> <Gold.Protein.RotatedAtoms>
  152.0313  133.3938  159.4298 H   0  0  0  0  0  0  0  0  0  0  0  0  # atno 6907 bound_to 6896
  150.6882  134.3518  159.4921 H   0  0  0  0  0  0  0  0  0  0  0  0  # atno 6908 bound_to 6896
  152.1304  134.9138  160.0609 H   0  0  0  0  0  0  0  0  0  0  0  0  # atno 6909 bound_to 6896
  144.7793  140.4658  143.5851 H   0  0  0  0  0  0  0  0  0  0  0  0  # atno 7974 bound_to 7965
  154.4040  140.1303  156.4462 H   0  0  0  0  0  0  0  0  0  0  0  0  # atno 8008 bound_to 7997
  155.7411  140.3490  155.5085 H   0  0  0  0  0  0  0  0  0  0  0  0  # atno 8009 bound_to 7997
  155.9038  140.1024  157.1320 H   0  0  0  0  0  0  0  0  0  0  0  0  # atno 8010 bound_to 7997
  140.0744  144.5125  150.7205 H   0  0  0  0  0  0  0  0  0  0  0  0  # atno 10167 bound_to 10162
  156.0322  130.4371  150.2587 H   0  0  0  0  0  0  0  0  0  0  0  0  # atno 10718 bound_to 10713
  153.4376  135.7013  153.6190 H   0  0  0  0  0  0  0  0  0  0  0  0  # atno 10763 bound_to 10752
  153.4579  135.3743  155.2321 H   0  0  0  0  0  0  0  0  0  0  0  0  # atno 10764 bound_to 10752
  154.8727  135.4012  154.3769 H   0  0  0  0  0  0  0  0  0  0  0  0  # atno 10765 bound_to 10752
  140.8579  134.2205  157.4724 H   0  0  0  0  0  0  0  0  0  0  0  0  # atno 11005 bound_to 11000
  145.6097  139.1512  143.3083 LP  0  0  0  0  0  0  0  0  0  0  0  0  # atno 17320 bound_to 7965
  146.1991  140.6213  142.9110 LP  0  0  0  0  0  0  0  0  0  0  0  0  # atno 17321 bound_to 7965
  140.7110  143.2505  151.4582 LP  0  0  0  0  0  0  0  0  0  0  0  0  # atno 17342 bound_to 10162
  139.5817  144.1695  152.1976 LP  0  0  0  0  0  0  0  0  0  0  0  0  # atno 17343 bound_to 10162
  157.0689  131.0111  151.3197 LP  0  0  0  0  0  0  0  0  0  0  0  0  # atno 17370 bound_to 10713
  157.5014  130.7882  149.7609 LP  0  0  0  0  0  0  0  0  0  0  0  0  # atno 17371 bound_to 10713
  139.8706  134.9715  156.4740 LP  0  0  0  0  0  0  0  0  0  0  0  0  # atno 17394 bound_to 11000
  140.8716  133.7984  155.9371 LP  0  0  0  0  0  0  0  0  0  0  0  0  # atno 17395 bound_to 11000

$$$$
