AV-unprocessed.smi:1973|AV-procd|sdf|7976|dock9
  -GOLD-   2272010153D 1   1.00000     0.00000
 Structure written by MMmdl.
 48 50  0  0  0  0  0  0  0  0  2 V2000
  152.5555  142.1578  159.8384 C   0  0  0  0  0  0  0  0  0  0  0  0
  151.8950  142.4968  158.6317 O   0  0  0  0  0  0  0  0  0  0  0  0
  151.3851  141.3603  157.9549 C   0  0  0  0  0  0  0  0  0  0  0  0
  150.9652  141.7733  156.5361 C   0  0  0  0  0  0  0  0  0  0  0  0
  150.6990  140.6066  155.6877 N   0  0  0  0  0  0  0  0  0  0  0  0
  149.4741  140.6440  155.0424 N   0  0  0  0  0  0  0  0  0  0  0  0
  149.1113  139.6689  154.2754 C   0  0  0  0  0  0  0  0  0  0  0  0
  147.7845  139.7147  153.5966 C   0  0  0  0  0  0  0  0  0  0  0  0
  146.9865  140.6265  153.8208 O   0  0  0  0  0  0  0  0  0  0  0  0
  147.5149  138.7137  152.7403 N   0  0  0  0  0  0  0  0  0  0  0  0
  146.2739  138.5588  151.9887 C   0  0  0  0  0  0  0  0  0  0  0  0
  145.6607  137.1560  152.1617 C   0  0  2  0  0  0  0  0  0  0  0  0
  146.1733  136.4003  153.3845 C   0  0  0  0  0  0  0  0  0  0  0  0
  145.8203  134.9539  153.0501 C   0  0  0  0  0  0  0  0  0  0  0  0
  146.0249  134.8281  151.5916 N   0  3  1  0  0  0  0  0  0  0  0  0
  145.1452  133.8304  150.9464 C   0  0  0  0  0  0  0  0  0  0  0  0
  145.4685  132.4053  151.3259 C   0  0  0  0  0  0  0  0  0  0  0  0
  145.8662  132.9367  149.9658 C   0  0  0  0  0  0  0  0  0  0  0  0
  145.9382  136.1852  151.0029 C   0  0  0  0  0  0  0  0  0  0  0  0
  149.9869  138.5227  154.0649 C   0  0  0  0  0  0  0  0  0  0  0  0
  151.1812  138.5054  154.6960 C   0  0  0  0  0  0  0  0  0  0  0  0
  151.6098  139.5934  155.5755 C   0  0  0  0  0  0  0  0  0  0  0  0
  152.6922  139.5977  156.1610 O   0  0  0  0  0  0  0  0  0  0  0  0
  152.9375  143.0614  160.3138 H   0  0  0  0  0  0  0  0  0  0  0  0
  153.3994  141.4917  159.6537 H   0  0  0  0  0  0  0  0  0  0  0  0
  151.8729  141.6732  160.5376 H   0  0  0  0  0  0  0  0  0  0  0  0
  152.1481  140.5816  157.9094 H   0  0  0  0  0  0  0  0  0  0  0  0
  150.5322  140.9550  158.5015 H   0  0  0  0  0  0  0  0  0  0  0  0
  150.0852  142.4175  156.5793 H   0  0  0  0  0  0  0  0  0  0  0  0
  151.7511  142.3866  156.0911 H   0  0  0  0  0  0  0  0  0  0  0  0
  148.2164  137.9976  152.6168 H   0  0  0  0  0  0  0  0  0  0  0  0
  145.5737  139.3190  152.3367 H   0  0  0  0  0  0  0  0  0  0  0  0
  146.4520  138.7664  150.9323 H   0  0  0  0  0  0  0  0  0  0  0  0
  144.5787  137.2513  152.2685 H   0  0  0  0  0  0  0  0  0  0  0  0
  147.2553  136.5088  153.4752 H   0  0  0  0  0  0  0  0  0  0  0  0
  145.7194  136.7412  154.3155 H   0  0  0  0  0  0  0  0  0  0  0  0
  146.4252  134.2346  153.6028 H   0  0  0  0  0  0  0  0  0  0  0  0
  144.7725  134.7706  153.2949 H   0  0  0  0  0  0  0  0  0  0  0  0
  144.1162  134.1356  150.7625 H   0  0  0  0  0  0  0  0  0  0  0  0
  146.2632  132.2321  152.0497 H   0  0  0  0  0  0  0  0  0  0  0  0
  144.6445  131.6956  151.3619 H   0  0  0  0  0  0  0  0  0  0  0  0
  145.3034  132.5770  149.1066 H   0  0  0  0  0  0  0  0  0  0  0  0
  146.9249  133.1162  149.7861 H   0  0  0  0  0  0  0  0  0  0  0  0
  145.1674  136.2592  150.2339 H   0  0  0  0  0  0  0  0  0  0  0  0
  146.8952  136.4054  150.5285 H   0  0  0  0  0  0  0  0  0  0  0  0
  149.7114  137.6999  153.4226 H   0  0  0  0  0  0  0  0  0  0  0  0
  151.8422  137.6640  154.5483 H   0  0  0  0  0  0  0  0  0  0  0  0
  146.9779  134.5223  151.4568 H   0  0  0  0  0  0  0  0  0  0  0  0
  1  2  1  0  0  0  0
  1 24  1  0  0  0  0
  1 25  1  0  0  0  0
  1 26  1  0  0  0  0
  2  3  1  0  0  0  0
  3  4  1  0  0  0  0
  3 27  1  0  0  0  0
  3 28  1  0  0  0  0
  4  5  1  0  0  0  0
  4 29  1  0  0  0  0
  4 30  1  0  0  0  0
  5 22  1  0  0  0  0
  5  6  1  0  0  0  0
  6  7  2  0  0  0  0
  7  8  1  0  0  0  0
  7 20  1  0  0  0  0
  8  9  2  0  0  0  0
  8 10  1  0  0  0  0
 10 11  1  0  0  0  0
 10 31  1  0  0  0  0
 11 12  1  0  0  0  0
 11 32  1  0  0  0  0
 11 33  1  0  0  0  0
 12 19  1  0  0  0  0
 12 13  1  0  0  0  0
 12 34  1  0  0  0  0
 13 14  1  0  0  0  0
 13 35  1  0  0  0  0
 13 36  1  0  0  0  0
 14 15  1  0  0  0  0
 14 37  1  0  0  0  0
 14 38  1  0  0  0  0
 15 16  1  0  0  0  0
 15 19  1  0  0  0  0
 15 48  1  0  0  0  0
 16 18  1  0  0  0  0
 16 17  1  0  0  0  0
 16 39  1  0  0  0  0
 17 18  1  0  0  0  0
 17 40  1  0  0  0  0
 17 41  1  0  0  0  0
 18 42  1  0  0  0  0
 18 43  1  0  0  0  0
 19 44  1  0  0  0  0
 19 45  1  0  0  0  0
 20 21  2  0  0  0  0
 20 46  1  0  0  0  0
 21 22  1  0  0  0  0
 21 47  1  0  0  0  0
 22 23  2  0  0  0  0
M  CHG  1  15   1
M  END
> <s_m_source_file>
AV-unprocessed.smi

> <i_m_source_file_index>
1973

> <i_lp_mmshare_version>
43012

> <i_f3d_flags>
0

> <s_epik_input>
W0NIM11PW0NIMl1bQ0gyXW4xbmMoW2NIXVtjSF1jMT1PKUMoPU8pW05IXVtDSDJdW0NAQEhdMltDSDJdW0NIMl1OKFtDSDJdMilbQ0hdM1tDSDJdW0NIMl0z

> <s_epik_cmdline>
J2VwaWtfcHl0aG9uJywgJy1waCcsICc3LjAnLCAnLXRuJywgJzgnLCAnLW1hJywgJzIwMCcsICctbWV0YWxfYmluZGluZycsICctaW1hZScsICc8aW5maWxlLm1hZT4nLCAnLW9tYWUnLCAnPG91dGZpbGUubWFlPic=

> <r_lp_tautomer_probability>
1

> <r_epik_Ionization_Penalty>
0.000225706

> <r_epik_Ionization_Penalty_Charging>
0.000223776

> <r_epik_Ionization_Penalty_Neutral>
1.93004e-06

> <r_epik_State_Penalty>
-0

> <r_epik_Charging_Adjusted_Penalty>
0.000223776

> <i_epik_Tot_Q>
1

> <i_epik_Tot_abs_Q>
1

> <r_epik_Metal_State_Penalty>
-0

> <b_epik_Metal_Only>
0

> <s_lp_Force_Field>
OPLS_2005

> <r_lp_Energy>
57.8958

> <b_lp_Chiralities_Consistent>
1

> <s_lp_Variant>
AV-unprocessed.smi:1973-1

> <Gold.Version>
5.8.1

> <Gold.Id.Protein>
6NUR|6NUR_protein|mol2

> <Gold.PLP.Fitness>
46.9419

> <Gold.PLP.PLP>
-42.5126

> <Gold.PLP.part.hbond>
-3.3842

> <Gold.PLP.part.metal>
0.0000

> <Gold.PLP.part.buried>
-1.3253

> <Gold.PLP.part.nonpolar>
-38.4701

> <Gold.PLP.part.repulsive>
0.3531

> <Gold.PLP.ligand.clash>
0.0000

> <Gold.PLP.ligand.torsion>
1.4243

> <Gold.PLP.Chemscore.Hbond>
2.0000

> <Gold.PLP.Chemscore.CHOScore>
0.0000

> <Gold.PLP.Chemscore.Metal>
0.0000

> <Gold.Chemscore.Hbonds>
donor molecule, donor type, donor heavy atom, donor atom, acceptor molecule, acceptor atom, score
      L1  H    10    31       P1  7948  0.99
      P1  H  7997  8008       L1    23  1.00

> <Gold.PLP.Chemscore.Internal.Correction>
1.2780

> <Gold.Rescore>
     Score         DG    S(hbond)    S(metal)    S(lipo)     H(rot)  DE(clash)    DE(int)     intcor
     16.20     -17.98       1.98        0.00      93.46       1.97       0.14       1.63       ----

> <Gold.Chemscore.Fitness>
16.2044

> <Gold.Chemscore.DG>
-17.9753

> <Gold.Chemscore.ZeroCoef>
-5.4800

> <Gold.Chemscore.Hbond>
1.9781

> <Gold.Chemscore.Metal>
0.0000

> <Gold.Chemscore.Lipo>
93.4564

> <Gold.Chemscore.Internal_Hbond>
0.0000

> <Gold.Chemscore.DEClash>
0.1383

> <Gold.Chemscore.DEInternal>
1.6326

> <Gold.Chemscore.Rot>
1.9711

> <Gold.Chemscore.Internal.Correction>
   9.000000E+99

> <Gold.Chemscore.Hbonds>
donor molecule, donor type, donor heavy atom, donor atom, acceptor molecule, acceptor atom, score
      L1  H    10    31       P1  7948  0.91
      P1  H  7997  8008       L1    23  1.00

> <Gold.Chemscore.Hbond.Weighted>
-6.6069

> <Gold.Chemscore.Metal.Weighted>
-0.0000

> <Gold.Chemscore.Lipo.Weighted>
-10.9344

> <Gold.Chemscore.Internal_Hbond.Weighted>
0.0000

> <Gold.Chemscore.DEClash.Weighted>
0.1383

> <Gold.Chemscore.DEInternal.Weighted>
1.6326

> <Gold.Chemscore.Rot.Weighted>
5.0460

> <Gold.Chemscore.Internal.Correction.Weighted>
   9.000000E+99

> <Gold.Protein.RotatedTorsions>
[ 6907 6896 6895 6894 ] final   -5.01 input  -60.11 | X-H torsion
[ 7974 7965 7964 7962 ] final -129.22 input  175.53 | X-H torsion
[ 8008 7997 7996 7995 ] final  -41.20 input   59.86 | X-H torsion
[ 10167 10162 10161 10158 ] final -157.60 input  -65.29 | X-H torsion
[ 10718 10713 10712 10709 ] final  -99.59 input   66.30 | X-H torsion
[ 10763 10752 10751 10750 ] final   65.69 input  -60.55 | X-H torsion
[ 11005 11000 10999 10996 ] final -176.33 input  -57.11 | X-H torsion

> <Gold.Protein.ActiveResidues>
 VAL166  LYS551  ARG553  GLY616  TRP617  ASP618  TYR619  PRO620  LYS621  CYS622 
 ASP623  PHE694  ASN695  SER759  ASP760  ASP761  ALA762  ILE779  LEU786  VAL792 
 PHE793  MET794  SER795  GLU796  ALA797  LYS798  CYS799  TRP800  GLU811  SER814 

> <Gold.Protein.RotatedAtoms>
  151.4884  135.1056  159.9796 H   0  0  0  0  0  0  0  0  0  0  0  0  # atno 6907 bound_to 6896
  152.4751  133.8115  159.7016 H   0  0  0  0  0  0  0  0  0  0  0  0  # atno 6908 bound_to 6896
  150.8784  133.7345  159.2966 H   0  0  0  0  0  0  0  0  0  0  0  0  # atno 6909 bound_to 6896
  144.9593  140.7430  143.4739 H   0  0  0  0  0  0  0  0  0  0  0  0  # atno 7974 bound_to 7965
  154.4006  140.1505  156.3151 H   0  0  0  0  0  0  0  0  0  0  0  0  # atno 8008 bound_to 7997
  155.8580  140.3455  155.5716 H   0  0  0  0  0  0  0  0  0  0  0  0  # atno 8009 bound_to 7997
  155.7911  140.0857  157.1999 H   0  0  0  0  0  0  0  0  0  0  0  0  # atno 8010 bound_to 7997
  139.6758  143.9667  152.2309 H   0  0  0  0  0  0  0  0  0  0  0  0  # atno 10167 bound_to 10162
  156.0138  130.5289  150.6693 H   0  0  0  0  0  0  0  0  0  0  0  0  # atno 10718 bound_to 10713
  153.0107  135.5347  154.6707 H   0  0  0  0  0  0  0  0  0  0  0  0  # atno 10763 bound_to 10752
  154.5892  135.2857  155.0655 H   0  0  0  0  0  0  0  0  0  0  0  0  # atno 10764 bound_to 10752
  154.1754  135.6525  153.5073 H   0  0  0  0  0  0  0  0  0  0  0  0  # atno 10765 bound_to 10752
  140.4533  134.6322  157.4811 H   0  0  0  0  0  0  0  0  0  0  0  0  # atno 11005 bound_to 11000
  145.2724  139.1949  143.4834 LP  0  0  0  0  0  0  0  0  0  0  0  0  # atno 17320 bound_to 7965
  146.3348  140.2672  142.8604 LP  0  0  0  0  0  0  0  0  0  0  0  0  # atno 17321 bound_to 7965
  139.9443  144.6661  150.8235 LP  0  0  0  0  0  0  0  0  0  0  0  0  # atno 17342 bound_to 10162
  140.7635  143.3224  151.2593 LP  0  0  0  0  0  0  0  0  0  0  0  0  # atno 17343 bound_to 10162
  157.4419  131.0862  151.0935 LP  0  0  0  0  0  0  0  0  0  0  0  0  # atno 17370 bound_to 10713
  157.1476  130.6170  149.5573 LP  0  0  0  0  0  0  0  0  0  0  0  0  # atno 17371 bound_to 10713
  139.9992  134.6863  155.9558 LP  0  0  0  0  0  0  0  0  0  0  0  0  # atno 17394 bound_to 11000
  141.1654  133.6537  156.4462 LP  0  0  0  0  0  0  0  0  0  0  0  0  # atno 17395 bound_to 11000

$$$$
