#       Name:                AV-unprocessed.smi:158
#       Creating user name   scv26
#       Creation time:       Thu Mar 26 19:03:37 2020


#       File generated by GOLD software.
#

@<TRIPOS>MOLECULE
AV-unprocessed.smi:158
    40    42     1
SMALL
NO_CHARGES


@<TRIPOS>ATOM
      1 ****        -5.0180   0.2514  -0.3233 N.pl3          1 S1                 0.0000
      2 ****        -3.6931   0.4485  -0.2645 C.ar           1 S1                 0.0000
      3 ****        -3.2335   1.7193  -0.1889 N.ar           1 S1                 0.0000
      4 ****        -1.9179   1.9593  -0.1296 C.ar           1 S1                 0.0000
      5 ****        -1.4402   3.6136  -0.0385 Cl             1 S1                 0.0000
      6 ****        -0.9292   1.0598  -0.1343 N.ar           1 S1                 0.0000
      7 ****        -1.3867  -0.2232  -0.2093 C.ar           1 S1                 0.0000
      8 ****        -2.7520  -0.6102  -0.2786 C.ar           1 S1                 0.0000
      9 ****        -2.8496  -1.9932  -0.3475 N.2            1 S1                 0.0000
     10 ****        -1.6074  -2.3965  -0.3200 C.2            1 S1                 0.0000
     11 ****        -0.6613  -1.3980  -0.2354 N.pl3          1 S1                 0.0000
     12 ****         0.8277  -1.5567  -0.1859 C.3            1 S1                 0.0000
     13 ****         1.3901  -0.5907  -1.0213 O.3            1 S1                 0.0000
     14 ****         2.4426   0.0900  -0.3464 C.3            1 S1                 0.0000
     15 ****         2.5886   1.5076  -0.9228 C.3            1 S1                 0.0000
     16 ****         3.7856   2.1049  -0.4711 O.3            1 S1                 0.0000
     17 ****         2.0418   0.0319   1.1313 C.3            1 S1                 0.0000
     18 ****         3.1649   0.1121   1.9864 O.3            1 S1                 0.0000
     19 ****         1.3885  -1.3352   1.2300 C.3            1 S1                 0.0000
     20 ****         0.4325  -1.3781   2.1611 F              1 S1                 0.0000
     21 ****         1.0116  -2.5615  -0.5680 H              1 S1                 0.0000
     22 ****         3.3532  -0.4881  -0.5161 H              1 S1                 0.0000
     23 ****         1.3263   0.8175   1.3745 H              1 S1                 0.0000
     24 ****         2.1153  -2.1208   1.4414 H              1 S1                 0.0000
     25 ****        -5.3838  -0.6882  -0.3808 H              1 S1                 0.0000
     26 ****        -5.6474   1.0409  -0.3088 H              1 S1                 0.0000
     27 ****        -1.3453  -3.4439  -0.3581 H              1 S1                 0.0000
     28 ****         2.6244   1.4654  -2.0116 H              1 S1                 0.0000
     29 ****         1.7376   2.1338  -0.6535 H              1 S1                 0.0000
     30 ****         3.8441   2.9743  -0.8370 H              1 S1                 0.0000
     31 ****         3.7906  -0.5463   1.7263 H              1 S1                 0.0000
     32 ****        -3.8797   2.4824  -0.1773 LP             1 S1                 0.0000
     33 ****         0.0402   1.3010  -0.0879 LP             1 S1                 0.0000
     34 ****        -3.6778  -2.5508  -0.4048 LP             1 S1                 0.0000
     35 ****         0.6859   0.0686  -1.2849 LP             1 S1                 0.0000
     36 ****         1.7550  -1.0339  -1.8401 LP             1 S1                 0.0000
     37 ****         4.5685   1.5596  -0.7706 LP             1 S1                 0.0000
     38 ****         3.7796   2.1590   0.5274 LP             1 S1                 0.0000
     39 ****         2.8805  -0.0484   2.9316 LP             1 S1                 0.0000
     40 ****         3.5801   1.0189   1.9127 LP             1 S1                 0.0000
@<TRIPOS>BOND
    1    1    2 1     
    2    1   25 1     
    3    1   26 1     
    4    2    8 ar    
    5    2    3 ar    
    6    3    4 ar    
    7    4    5 1     
    8    4    6 ar    
    9    6    7 ar    
   10    7   11 1     
   11    7    8 ar    
   12    8    9 1     
   13    9   10 2     
   14   10   11 1     
   15   10   27 1     
   16   11   12 1     
   17   12   21 1     
   18   12   19 1     
   19   12   13 1     
   20   13   14 1     
   21   14   22 1     
   22   14   15 1     
   23   14   17 1     
   24   15   16 1     
   25   15   28 1     
   26   15   29 1     
   27   16   30 1     
   28   17   23 1     
   29   17   18 1     
   30   17   19 1     
   31   18   31 1     
   32   19   24 1     
   33   19   20 1     
   34    3   32 1     
   35    6   33 1     
   36    9   34 1     
   37   13   35 1     
   38   13   36 1     
   39   16   37 1     
   40   16   38 1     
   41   18   39 1     
   42   18   40 1     
@<TRIPOS>SUBSTRUCTURE
      1 S1             1
@<TRIPOS>SET
LONE_PAIRS      STATIC     ATOMS    <user>   **** ""
9 32 33 34 35 36 37 38 39 40
DONOR_HYDROGENS      STATIC     ATOMS    <user>   **** ""
4 25 26 30 31
ATOM$BLUE        STATIC     ATOMS    COLORGROUP SYSTEM
9 32 33 34 35 36 37 38 39 40
ATOM$RED        STATIC     ATOMS    COLORGROUP SYSTEM
4 25 26 30 31
