AV-unprocessed.smi:1978|AV-procd|sdf|8012|dock6
  -GOLD-   2272010203D 1   1.00000     0.00000
 Structure written by MMmdl.
 44 45  0  0  0  0  0  0  0  0  3 V2000
  147.2386  134.2187  162.8054 C   0  0  0  0  0  0  0  0  0  0  0  0
  147.5906  135.0560  161.6242 C   0  0  0  0  0  0  0  0  0  0  0  0
  147.6832  134.7873  160.2877 C   0  0  0  0  0  0  0  0  0  0  0  0
  148.0688  136.0375  159.7347 C   0  0  0  0  0  0  0  0  0  0  0  0
  148.2742  136.1779  158.3366 N   0  0  0  0  0  0  0  0  0  0  0  0
  148.9140  135.3494  157.4909 C   0  0  0  0  0  0  0  0  0  0  0  0
  149.4141  134.2969  157.9056 O   0  0  0  0  0  0  0  0  0  0  0  0
  148.9166  135.8209  156.2141 N   0  5  0  0  0  0  0  0  0  0  0  0
  148.4954  135.0519  155.0432 C   0  0  0  0  0  0  0  0  0  0  0  0
  147.1062  135.5345  154.5427 C   0  0  2  0  0  0  0  0  0  0  0  0
  145.9257  135.1644  155.4774 C   0  0  0  0  0  0  0  0  0  0  0  0
  146.8783  135.1108  153.1172 N   0  3  1  0  0  0  0  0  0  0  0  0
  146.9158  133.6274  152.9070 C   0  0  0  0  0  0  0  0  0  0  0  0
  146.9463  133.2611  151.4189 C   0  0  0  0  0  0  0  0  0  0  0  0
  145.7166  133.8322  150.7147 C   0  0  0  0  0  0  0  0  0  0  0  0
  145.6671  135.3460  150.9334 C   0  0  0  0  0  0  0  0  0  0  0  0
  145.6933  135.7325  152.4311 C   0  0  2  0  0  0  0  0  0  0  0  0
  145.6575  137.2745  152.5192 C   0  0  0  0  0  0  0  0  0  0  0  0
  148.1950  136.9850  160.6523 N   0  0  0  0  0  0  0  0  0  0  0  0
  147.8893  136.3608  161.8674 O   0  0  0  0  0  0  0  0  0  0  0  0
  147.2079  133.1621  162.5388 H   0  0  0  0  0  0  0  0  0  0  0  0
  146.2608  134.4976  163.1981 H   0  0  0  0  0  0  0  0  0  0  0  0
  147.9723  134.3447  163.6017 H   0  0  0  0  0  0  0  0  0  0  0  0
  147.5061  133.8466  159.7878 H   0  0  0  0  0  0  0  0  0  0  0  0
  147.8822  137.0092  157.9206 H   0  0  0  0  0  0  0  0  0  0  0  0
  149.2073  135.1576  154.2229 H   0  0  0  0  0  0  0  0  0  0  0  0
  148.4503  133.9837  155.2566 H   0  0  0  0  0  0  0  0  0  0  0  0
  147.1772  136.6168  154.5800 H   0  0  0  0  0  0  0  0  0  0  0  0
  146.0280  135.6242  156.4619 H   0  0  0  0  0  0  0  0  0  0  0  0
  145.8279  134.0889  155.6346 H   0  0  0  0  0  0  0  0  0  0  0  0
  144.9817  135.5238  155.0671 H   0  0  0  0  0  0  0  0  0  0  0  0
  147.7910  133.1881  153.3861 H   0  0  0  0  0  0  0  0  0  0  0  0
  146.0420  133.1640  153.3671 H   0  0  0  0  0  0  0  0  0  0  0  0
  147.8568  133.6470  150.9584 H   0  0  0  0  0  0  0  0  0  0  0  0
  146.9715  132.1773  151.3020 H   0  0  0  0  0  0  0  0  0  0  0  0
  145.7500  133.6041  149.6489 H   0  0  0  0  0  0  0  0  0  0  0  0
  144.8104  133.3692  151.1077 H   0  0  0  0  0  0  0  0  0  0  0  0
  146.5126  135.8085  150.4215 H   0  0  0  0  0  0  0  0  0  0  0  0
  144.7689  135.7438  150.4593 H   0  0  0  0  0  0  0  0  0  0  0  0
  144.7889  135.3435  152.9013 H   0  0  0  0  0  0  0  0  0  0  0  0
  144.9195  137.6873  151.8307 H   0  0  0  0  0  0  0  0  0  0  0  0
  146.6232  137.7116  152.2626 H   0  0  0  0  0  0  0  0  0  0  0  0
  145.3682  137.6332  153.5061 H   0  0  0  0  0  0  0  0  0  0  0  0
  147.6796  135.4772  152.6230 H   0  0  0  0  0  0  0  0  0  0  0  0
  1  2  1  0  0  0  0
  1 21  1  0  0  0  0
  1 22  1  0  0  0  0
  1 23  1  0  0  0  0
  2 20  1  0  0  0  0
  2  3  2  0  0  0  0
  3  4  1  0  0  0  0
  3 24  1  0  0  0  0
  4  5  1  0  0  0  0
  4 19  2  0  0  0  0
  5  6  1  0  0  0  0
  5 25  1  0  0  0  0
  6  7  2  0  0  0  0
  6  8  1  0  0  0  0
  8  9  1  0  0  0  0
  9 10  1  0  0  0  0
  9 26  1  0  0  0  0
  9 27  1  0  0  0  0
 10 11  1  0  0  0  0
 10 12  1  0  0  0  0
 10 28  1  0  0  0  0
 11 29  1  0  0  0  0
 11 30  1  0  0  0  0
 11 31  1  0  0  0  0
 12 17  1  0  0  0  0
 12 13  1  0  0  0  0
 12 44  1  0  0  0  0
 13 14  1  0  0  0  0
 13 32  1  0  0  0  0
 13 33  1  0  0  0  0
 14 15  1  0  0  0  0
 14 34  1  0  0  0  0
 14 35  1  0  0  0  0
 15 16  1  0  0  0  0
 15 36  1  0  0  0  0
 15 37  1  0  0  0  0
 16 17  1  0  0  0  0
 16 38  1  0  0  0  0
 16 39  1  0  0  0  0
 17 18  1  0  0  0  0
 17 40  1  0  0  0  0
 18 41  1  0  0  0  0
 18 42  1  0  0  0  0
 18 43  1  0  0  0  0
 19 20  1  0  0  0  0
M  CHG  1   8  -1
M  CHG  1  12   1
M  END
> <s_m_source_file>
AV-unprocessed.smi

> <i_m_source_file_index>
1978

> <i_lp_mmshare_version>
43012

> <i_f3d_flags>
0

> <s_epik_input>
W0NIM11jMVtjSF1jKG5vMSlbTkhdQyg9TylbTkhdW0NIMl1bQ0BIXShbQ0gzXSlOMltDSDJdW0NIMl1bQ0gyXVtDSDJdW0NASF0yW0NIM10=

> <s_epik_cmdline>
J2VwaWtfcHl0aG9uJywgJy1waCcsICc3LjAnLCAnLXRuJywgJzgnLCAnLW1hJywgJzIwMCcsICctbWV0YWxfYmluZGluZycsICctaW1hZScsICc8aW5maWxlLm1hZT4nLCAnLW9tYWUnLCAnPG91dGZpbGUubWFlPic=

> <r_epik_Ionization_Penalty>
6.7666

> <r_epik_Ionization_Penalty_Charging>
6.7666

> <r_epik_Ionization_Penalty_Neutral>
5.77131e-06

> <r_epik_State_Penalty>
6.79217

> <r_epik_Charging_Adjusted_Penalty>
13.5588

> <i_epik_Tot_Q>
0

> <i_epik_Tot_abs_Q>
2

> <r_epik_Metal_State_Penalty>
2.72569

> <b_epik_Metal_Only>
1

> <s_lp_Force_Field>
OPLS_2005

> <r_lp_Energy>
22.8368

> <b_lp_Chiralities_Consistent>
1

> <s_lp_Variant>
AV-unprocessed.smi:1978-21

> <Gold.Version>
5.8.1

> <Gold.Id.Protein>
6NUR|6NUR_protein|mol2

> <Gold.PLP.Fitness>
38.7910

> <Gold.PLP.PLP>
-29.6900

> <Gold.PLP.part.hbond>
-5.0000

> <Gold.PLP.part.metal>
0.0000

> <Gold.PLP.part.buried>
-4.0417

> <Gold.PLP.part.nonpolar>
-20.7669

> <Gold.PLP.part.repulsive>
0.1006

> <Gold.PLP.ligand.clash>
0.0000

> <Gold.PLP.ligand.torsion>
1.0681

> <Gold.PLP.Chemscore.Hbond>
3.6880

> <Gold.PLP.Chemscore.CHOScore>
0.0000

> <Gold.PLP.Chemscore.Metal>
0.0000

> <Gold.Chemscore.Hbonds>
donor molecule, donor type, donor heavy atom, donor atom, acceptor molecule, acceptor atom, score
      L1  H    12    44       P1  7948  2.00
      P1  H  6896  6907       L1     7  1.00
      P1  H  6931  6943       L1    19  0.04
      P1  H  6934  6947       L1    19  0.26

> <Gold.PLP.Chemscore.Internal.Correction>
0.1733

> <Gold.Rescore>
     Score         DG    S(hbond)    S(metal)    S(lipo)     H(rot)  DE(clash)    DE(int)     intcor
     16.99     -18.33       2.94        0.00      59.20       1.52       0.12       1.23       ----

> <Gold.Chemscore.Fitness>
16.9902

> <Gold.Chemscore.DG>
-18.3317

> <Gold.Chemscore.ZeroCoef>
-5.4800

> <Gold.Chemscore.Hbond>
2.9382

> <Gold.Chemscore.Metal>
0.0000

> <Gold.Chemscore.Lipo>
59.2046

> <Gold.Chemscore.Internal_Hbond>
0.0000

> <Gold.Chemscore.DEClash>
0.1162

> <Gold.Chemscore.DEInternal>
1.2253

> <Gold.Chemscore.Rot>
1.5190

> <Gold.Chemscore.Internal.Correction>
   9.000000E+99

> <Gold.Chemscore.Hbonds>
donor molecule, donor type, donor heavy atom, donor atom, acceptor molecule, acceptor atom, score
      L1  H    12    44       P1  7948  1.00
      P1  H  6896  6907       L1     7  0.99
      P1  H  6934  6947       L1    19  0.09

> <Gold.Chemscore.Hbond.Weighted>
-9.8134

> <Gold.Chemscore.Metal.Weighted>
-0.0000

> <Gold.Chemscore.Lipo.Weighted>
-6.9269

> <Gold.Chemscore.Internal_Hbond.Weighted>
0.0000

> <Gold.Chemscore.DEClash.Weighted>
0.1162

> <Gold.Chemscore.DEInternal.Weighted>
1.2253

> <Gold.Chemscore.Rot.Weighted>
3.8886

> <Gold.Chemscore.Internal.Correction.Weighted>
   9.000000E+99

> <Gold.Protein.RotatedTorsions>
[ 6907 6896 6895 6894 ] final  -92.52 input  -60.11 | X-H torsion
[ 7974 7965 7964 7962 ] final   99.14 input  175.53 | X-H torsion
[ 8008 7997 7996 7995 ] final    7.26 input   59.86 | X-H torsion
[ 10167 10162 10161 10158 ] final  122.78 input  -65.29 | X-H torsion
[ 10718 10713 10712 10709 ] final   71.66 input   66.30 | X-H torsion
[ 10763 10752 10751 10750 ] final  -70.09 input  -60.55 | X-H torsion
[ 11005 11000 10999 10996 ] final   11.31 input  -57.11 | X-H torsion

> <Gold.Protein.ActiveResidues>
 VAL166  LYS551  ARG553  GLY616  TRP617  ASP618  TYR619  PRO620  LYS621  CYS622 
 ASP623  PHE694  ASN695  SER759  ASP760  ASP761  ALA762  ILE779  LEU786  VAL792 
 PHE793  MET794  SER795  GLU796  ALA797  LYS798  CYS799  TRP800  GLU811  SER814 

> <Gold.Protein.RotatedAtoms>
  150.6907  134.2109  159.4358 H   0  0  0  0  0  0  0  0  0  0  0  0  # atno 6907 bound_to 6896
  152.0071  134.9894  160.0576 H   0  0  0  0  0  0  0  0  0  0  0  0  # atno 6908 bound_to 6896
  152.1524  133.4495  159.4857 H   0  0  0  0  0  0  0  0  0  0  0  0  # atno 6909 bound_to 6896
  145.4028  139.2345  143.3290 H   0  0  0  0  0  0  0  0  0  0  0  0  # atno 7974 bound_to 7965
  154.7516  140.2768  155.6288 H   0  0  0  0  0  0  0  0  0  0  0  0  # atno 8008 bound_to 7997
  156.2897  140.2677  156.2198 H   0  0  0  0  0  0  0  0  0  0  0  0  # atno 8009 bound_to 7997
  155.0130  140.0372  157.2396 H   0  0  0  0  0  0  0  0  0  0  0  0  # atno 8010 bound_to 7997
  139.5838  144.6998  151.3460 H   0  0  0  0  0  0  0  0  0  0  0  0  # atno 10167 bound_to 10162
  157.6462  130.9539  150.0820 H   0  0  0  0  0  0  0  0  0  0  0  0  # atno 10718 bound_to 10713
  154.4127  135.6005  153.5962 H   0  0  0  0  0  0  0  0  0  0  0  0  # atno 10763 bound_to 10752
  152.9791  135.5933  154.4050 H   0  0  0  0  0  0  0  0  0  0  0  0  # atno 10764 bound_to 10752
  154.3865  135.2841  155.2159 H   0  0  0  0  0  0  0  0  0  0  0  0  # atno 10765 bound_to 10752
  140.5047  134.0711  155.7802 H   0  0  0  0  0  0  0  0  0  0  0  0  # atno 11005 bound_to 11000
  146.2743  140.4729  142.8802 LP  0  0  0  0  0  0  0  0  0  0  0  0  # atno 17320 bound_to 7965
  144.8362  140.6785  143.6259 LP  0  0  0  0  0  0  0  0  0  0  0  0  # atno 17321 bound_to 7965
  140.7113  143.7383  150.7572 LP  0  0  0  0  0  0  0  0  0  0  0  0  # atno 17342 bound_to 10162
  140.0923  143.4866  152.2472 LP  0  0  0  0  0  0  0  0  0  0  0  0  # atno 17343 bound_to 10162
  156.1793  130.3649  149.9057 LP  0  0  0  0  0  0  0  0  0  0  0  0  # atno 17370 bound_to 10713
  156.7013  130.8934  151.3599 LP  0  0  0  0  0  0  0  0  0  0  0  0  # atno 17371 bound_to 10713
  141.1417  133.9126  157.2310 LP  0  0  0  0  0  0  0  0  0  0  0  0  # atno 17394 bound_to 11000
  139.9693  135.0133  156.9470 LP  0  0  0  0  0  0  0  0  0  0  0  0  # atno 17395 bound_to 11000

$$$$
