AV-unprocessed.smi:2291|AV-procd|sdf|9212|dock4
  -GOLD-   2272012433D 1   1.00000     0.00000
 Structure written by MMmdl.
 44 46  0  0  0  0  0  0  0  0  1 V2000
  146.7513  137.4557  154.2550 O   0  0  0  0  0  0  0  0  0  0  0  0
  145.8824  138.1881  153.7799 C   0  0  0  0  0  0  0  0  0  0  0  0
  145.0056  137.8328  152.8246 N   0  0  0  0  0  0  0  0  0  0  0  0
  144.9012  136.5882  152.1482 C   0  0  0  0  0  0  0  0  0  0  0  0
  146.1336  135.9591  151.8600 C   0  0  0  0  0  0  0  0  0  0  0  0
  146.1396  134.7175  151.1952 C   0  0  0  0  0  0  0  0  0  0  0  0
  144.9100  134.1380  150.8345 C   0  0  0  0  0  0  0  0  0  0  0  0
  144.8533  132.6182  150.0201 Cl  0  0  0  0  0  0  0  0  0  0  0  0
  143.7279  134.8303  151.1559 C   0  0  0  0  0  0  0  0  0  0  0  0
  143.7211  136.0203  151.7934 N   0  0  0  0  0  0  0  0  0  0  0  0
  145.6966  139.4656  154.1563 N   0  0  0  0  0  0  0  0  0  0  0  0
  146.4811  140.2292  155.1368 C   0  0  0  0  0  0  0  0  0  0  0  0
  145.6744  141.4814  155.5778 C   0  0  0  0  0  0  0  0  0  0  0  0
  146.1472  142.2339  156.4312 O   0  0  0  0  0  0  0  0  0  0  0  0
  144.4624  141.6878  155.0375 N   0  0  0  0  0  0  0  0  0  0  0  0
  143.5742  142.7945  155.3658 C   0  0  0  0  0  0  0  0  0  0  0  0
  144.2192  144.1666  155.3232 C   0  0  0  0  0  0  0  0  0  0  0  0
  143.4272  145.3918  154.9276 C   0  0  0  0  0  0  0  0  0  0  0  0
  144.4832  144.8441  153.9987 C   0  0  0  0  0  0  0  0  0  0  0  0
  146.7483  139.3165  156.3715 C   0  0  0  0  0  0  0  0  0  0  0  0
  148.2660  139.1548  156.5118 C   0  0  0  0  0  0  0  0  0  0  0  0
  148.8571  140.3472  155.7732 C   0  0  0  0  0  0  0  0  0  0  0  0
  147.9102  140.5291  154.5917 C   0  0  0  0  0  0  0  0  0  0  0  0
  144.3493  138.5416  152.5327 H   0  0  0  0  0  0  0  0  0  0  0  0
  147.0688  136.4185  152.1461 H   0  0  0  0  0  0  0  0  0  0  0  0
  147.0714  134.2208  150.9684 H   0  0  0  0  0  0  0  0  0  0  0  0
  142.7630  134.4204  150.8962 H   0  0  0  0  0  0  0  0  0  0  0  0
  144.9553  139.9759  153.6997 H   0  0  0  0  0  0  0  0  0  0  0  0
  144.1274  141.0190  154.3590 H   0  0  0  0  0  0  0  0  0  0  0  0
  142.7559  142.7818  154.6455 H   0  0  0  0  0  0  0  0  0  0  0  0
  143.1207  142.6299  156.3448 H   0  0  0  0  0  0  0  0  0  0  0  0
  144.9870  144.3124  156.0809 H   0  0  0  0  0  0  0  0  0  0  0  0
  142.3861  145.2534  154.6418 H   0  0  0  0  0  0  0  0  0  0  0  0
  143.6465  146.3193  155.4521 H   0  0  0  0  0  0  0  0  0  0  0  0
  145.4073  145.4097  153.8990 H   0  0  0  0  0  0  0  0  0  0  0  0
  144.1439  144.3415  153.0948 H   0  0  0  0  0  0  0  0  0  0  0  0
  146.3649  139.7520  157.2959 H   0  0  0  0  0  0  0  0  0  0  0  0
  146.2716  138.3390  156.2831 H   0  0  0  0  0  0  0  0  0  0  0  0
  148.5885  139.1051  157.5523 H   0  0  0  0  0  0  0  0  0  0  0  0
  148.5817  138.2318  156.0237 H   0  0  0  0  0  0  0  0  0  0  0  0
  148.8344  141.2326  156.4102 H   0  0  0  0  0  0  0  0  0  0  0  0
  149.8891  140.1800  155.4636 H   0  0  0  0  0  0  0  0  0  0  0  0
  148.1789  139.7945  153.8304 H   0  0  0  0  0  0  0  0  0  0  0  0
  148.0352  141.5016  154.1161 H   0  0  0  0  0  0  0  0  0  0  0  0
  1  2  2  0  0  0  0
  2  3  1  0  0  0  0
  2 11  1  0  0  0  0
  3  4  1  0  0  0  0
  3 24  1  0  0  0  0
  4 10  1  0  0  0  0
  4  5  2  0  0  0  0
  5  6  1  0  0  0  0
  5 25  1  0  0  0  0
  6  7  2  0  0  0  0
  6 26  1  0  0  0  0
  7  8  1  0  0  0  0
  7  9  1  0  0  0  0
  9 10  2  0  0  0  0
  9 27  1  0  0  0  0
 11 12  1  0  0  0  0
 11 28  1  0  0  0  0
 12 23  1  0  0  0  0
 12 13  1  0  0  0  0
 12 20  1  0  0  0  0
 13 14  2  0  0  0  0
 13 15  1  0  0  0  0
 15 16  1  0  0  0  0
 15 29  1  0  0  0  0
 16 17  1  0  0  0  0
 16 30  1  0  0  0  0
 16 31  1  0  0  0  0
 17 19  1  0  0  0  0
 17 18  1  0  0  0  0
 17 32  1  0  0  0  0
 18 19  1  0  0  0  0
 18 33  1  0  0  0  0
 18 34  1  0  0  0  0
 19 35  1  0  0  0  0
 19 36  1  0  0  0  0
 20 21  1  0  0  0  0
 20 37  1  0  0  0  0
 20 38  1  0  0  0  0
 21 22  1  0  0  0  0
 21 39  1  0  0  0  0
 21 40  1  0  0  0  0
 22 23  1  0  0  0  0
 22 41  1  0  0  0  0
 22 42  1  0  0  0  0
 23 43  1  0  0  0  0
 23 44  1  0  0  0  0
M  END
> <s_m_source_file>
AV-unprocessed.smi

> <i_m_source_file_index>
2291

> <i_lp_mmshare_version>
43012

> <i_f3d_flags>
0

> <s_epik_input>
bjFbY0hdYyhDbClbY0hdW2NIXWMxW05IXUMoPU8pW05IXUMyKFtDSDJdW0NIMl1bQ0gyXVtDSDJdMilDKD1PKVtOSF1bQ0gyXVtDSF0zW0NIMl1bQ0gyXTM=

> <s_epik_cmdline>
J2VwaWtfcHl0aG9uJywgJy1waCcsICc3LjAnLCAnLXRuJywgJzgnLCAnLW1hJywgJzIwMCcsICctbWV0YWxfYmluZGluZycsICctaW1hZScsICc8aW5maWxlLm1hZT4nLCAnLW9tYWUnLCAnPG91dGZpbGUubWFlPic=

> <r_lp_tautomer_probability>
1

> <r_epik_Ionization_Penalty>
3.27384e-05

> <r_epik_Ionization_Penalty_Charging>
0

> <r_epik_Ionization_Penalty_Neutral>
3.27384e-05

> <r_epik_State_Penalty>
-0

> <r_epik_Charging_Adjusted_Penalty>
0

> <i_epik_Tot_Q>
0

> <i_epik_Tot_abs_Q>
0

> <r_epik_Metal_State_Penalty>
-0

> <b_epik_Metal_Only>
0

> <s_lp_Force_Field>
OPLS_2005

> <r_lp_Energy>
31.8647

> <b_lp_Chiralities_Consistent>
1

> <s_lp_Variant>
AV-unprocessed.smi:2291-1

> <Gold.Version>
5.8.1

> <Gold.Id.Protein>
6NUR|6NUR_protein|mol2

> <Gold.PLP.Fitness>
41.4188

> <Gold.PLP.PLP>
-31.3569

> <Gold.PLP.part.hbond>
-3.4715

> <Gold.PLP.part.metal>
0.0000

> <Gold.PLP.part.buried>
-1.1959

> <Gold.PLP.part.nonpolar>
-28.1872

> <Gold.PLP.part.repulsive>
2.2050

> <Gold.PLP.ligand.clash>
0.0000

> <Gold.PLP.ligand.torsion>
0.8909

> <Gold.PLP.Chemscore.Hbond>
3.0000

> <Gold.PLP.Chemscore.CHOScore>
0.7323

> <Gold.PLP.Chemscore.Metal>
0.0000

> <Gold.Chemscore.Hbonds>
donor molecule, donor type, donor heavy atom, donor atom, acceptor molecule, acceptor atom, score
      L1  H     3    24       P1 10175  1.00
      L1  H    11    28       P1 10175  1.00
      L1  H    15    29       P1 10175  1.00
      L1  C     9    27       P1 10186  1.00

> <Gold.PLP.Chemscore.Internal.Correction>
0.6467

> <Gold.Rescore>
     Score         DG    S(hbond)    S(metal)    S(lipo)     H(rot)  DE(clash)    DE(int)     intcor
     12.59     -18.25       2.57        0.00      73.08       1.71       0.85       4.80       ----

> <Gold.Chemscore.Fitness>
12.5939

> <Gold.Chemscore.DG>
-18.2506

> <Gold.Chemscore.ZeroCoef>
-5.4800

> <Gold.Chemscore.Hbond>
2.5710

> <Gold.Chemscore.Metal>
0.0000

> <Gold.Chemscore.Lipo>
73.0808

> <Gold.Chemscore.Internal_Hbond>
0.0000

> <Gold.Chemscore.DEClash>
0.8545

> <Gold.Chemscore.DEInternal>
4.8021

> <Gold.Chemscore.Rot>
1.7059

> <Gold.Chemscore.Internal.Correction>
   9.000000E+99

> <Gold.Chemscore.Hbonds>
donor molecule, donor type, donor heavy atom, donor atom, acceptor molecule, acceptor atom, score
      L1  H     3    24       P1 10175  0.92
      L1  H    11    28       P1 10175  1.00
      L1  H    15    29       P1 10175  0.82

> <Gold.Chemscore.Hbond.Weighted>
-8.5872

> <Gold.Chemscore.Metal.Weighted>
-0.0000

> <Gold.Chemscore.Lipo.Weighted>
-8.5505

> <Gold.Chemscore.Internal_Hbond.Weighted>
0.0000

> <Gold.Chemscore.DEClash.Weighted>
0.8545

> <Gold.Chemscore.DEInternal.Weighted>
4.8021

> <Gold.Chemscore.Rot.Weighted>
4.3671

> <Gold.Chemscore.Internal.Correction.Weighted>
   9.000000E+99

> <Gold.Protein.RotatedTorsions>
[ 6907 6896 6895 6894 ] final   -0.31 input  -60.11 | X-H torsion
[ 7974 7965 7964 7962 ] final -146.93 input  175.53 | X-H torsion
[ 8008 7997 7996 7995 ] final  119.90 input   59.86 | X-H torsion
[ 10167 10162 10161 10158 ] final   44.31 input  -65.29 | X-H torsion
[ 10718 10713 10712 10709 ] final   14.65 input   66.30 | X-H torsion
[ 10763 10752 10751 10750 ] final   19.92 input  -60.55 | X-H torsion
[ 11005 11000 10999 10996 ] final   77.07 input  -57.11 | X-H torsion

> <Gold.Protein.ActiveResidues>
 VAL166  LYS551  ARG553  GLY616  TRP617  ASP618  TYR619  PRO620  LYS621  CYS622 
 ASP623  PHE694  ASN695  SER759  ASP760  ASP761  ALA762  ILE779  LEU786  VAL792 
 PHE793  MET794  SER795  GLU796  ALA797  LYS798  CYS799  TRP800  GLU811  SER814 

> <Gold.Protein.RotatedAtoms>
  151.5643  135.1064  159.9979 H   0  0  0  0  0  0  0  0  0  0  0  0  # atno 6907 bound_to 6896
  152.4431  133.7482  159.6690 H   0  0  0  0  0  0  0  0  0  0  0  0  # atno 6908 bound_to 6896
  150.8341  133.7974  159.3110 H   0  0  0  0  0  0  0  0  0  0  0  0  # atno 6909 bound_to 6896
  144.8127  140.5393  143.5632 H   0  0  0  0  0  0  0  0  0  0  0  0  # atno 7974 bound_to 7965
  156.2618  140.2842  156.1064 H   0  0  0  0  0  0  0  0  0  0  0  0  # atno 8008 bound_to 7997
  155.1304  140.0393  157.2791 H   0  0  0  0  0  0  0  0  0  0  0  0  # atno 8009 bound_to 7997
  154.6604  140.2565  155.7121 H   0  0  0  0  0  0  0  0  0  0  0  0  # atno 8010 bound_to 7997
  140.3355  144.2535  150.6162 H   0  0  0  0  0  0  0  0  0  0  0  0  # atno 10167 bound_to 10162
  157.0422  130.6236  149.5753 H   0  0  0  0  0  0  0  0  0  0  0  0  # atno 10718 bound_to 10713
  153.1121  135.6699  153.9482 H   0  0  0  0  0  0  0  0  0  0  0  0  # atno 10763 bound_to 10752
  153.9023  135.3034  155.3450 H   0  0  0  0  0  0  0  0  0  0  0  0  # atno 10764 bound_to 10752
  154.7540  135.5021  153.9418 H   0  0  0  0  0  0  0  0  0  0  0  0  # atno 10765 bound_to 10752
  139.9270  134.7653  156.1476 H   0  0  0  0  0  0  0  0  0  0  0  0  # atno 11005 bound_to 11000
  145.5287  139.1475  143.3512 LP  0  0  0  0  0  0  0  0  0  0  0  0  # atno 17320 bound_to 7965
  146.2427  140.5428  142.8927 LP  0  0  0  0  0  0  0  0  0  0  0  0  # atno 17321 bound_to 7965
  140.5357  143.2234  151.8166 LP  0  0  0  0  0  0  0  0  0  0  0  0  # atno 17342 bound_to 10162
  139.4849  144.4664  151.9479 LP  0  0  0  0  0  0  0  0  0  0  0  0  # atno 17343 bound_to 10162
  156.0034  130.5117  150.7745 LP  0  0  0  0  0  0  0  0  0  0  0  0  # atno 17370 bound_to 10713
  157.5095  131.0924  151.0215 LP  0  0  0  0  0  0  0  0  0  0  0  0  # atno 17371 bound_to 10713
  141.0834  133.6744  156.2385 LP  0  0  0  0  0  0  0  0  0  0  0  0  # atno 17394 bound_to 11000
  140.6308  134.5266  157.5559 LP  0  0  0  0  0  0  0  0  0  0  0  0  # atno 17395 bound_to 11000

$$$$
