AV-unprocessed.smi:2461|AV-procd|sdf|9716|dock10
  -GOLD-   2272013353D 1   1.00000     0.00000
 Structure written by MMmdl.
 36 37  0  0  0  0  0  0  0  0  1 V2000
  145.9242  130.7048  152.7735 C   0  0  0  0  0  0  0  0  0  0  0  0
  147.0524  131.1711  153.7047 C   0  0  0  0  0  0  0  0  0  0  0  0
  147.4062  132.6455  153.5407 C   0  0  0  0  0  0  0  0  0  0  0  0
  148.6298  133.0397  154.3721 C   0  0  0  0  0  0  0  0  0  0  0  0
  149.1008  134.4092  154.1992 N   0  0  0  0  0  0  0  0  0  0  0  0
  149.9456  135.0417  155.0257 C   0  0  0  0  0  0  0  0  0  0  0  0
  150.3877  134.5403  156.0596 O   0  0  0  0  0  0  0  0  0  0  0  0
  150.2439  136.2702  154.5683 N   0  0  0  0  0  0  0  0  0  0  0  0
  151.1171  137.2297  155.1452 C   0  0  0  0  0  0  0  0  0  0  0  0
  150.7786  138.5823  154.9169 C   0  0  0  0  0  0  0  0  0  0  0  0
  151.6249  139.5674  155.4658 C   0  0  0  0  0  0  0  0  0  0  0  0
  151.3353  140.8998  155.2563 O   0  0  0  0  0  0  0  0  0  0  0  0
  149.9727  141.2724  155.0846 C   0  0  0  0  0  0  0  0  0  0  0  0
  152.7179  139.2299  156.1921 N   0  0  0  0  0  0  0  0  0  0  0  0
  152.9502  137.9271  156.3567 C   0  0  0  0  0  0  0  0  0  0  0  0
  152.2167  136.9214  155.8763 N   0  0  0  0  0  0  0  0  0  0  0  0
  147.1635  133.3150  152.1971 C   0  0  0  0  0  0  0  0  0  0  0  0
  146.2847  133.6535  153.3679 C   0  0  0  0  0  0  0  0  0  0  0  0
  145.7297  129.6408  152.9086 H   0  0  0  0  0  0  0  0  0  0  0  0
  146.1865  130.8622  151.7272 H   0  0  0  0  0  0  0  0  0  0  0  0
  144.9925  131.2354  152.9680 H   0  0  0  0  0  0  0  0  0  0  0  0
  146.7855  130.9777  154.7439 H   0  0  0  0  0  0  0  0  0  0  0  0
  147.9397  130.5695  153.5045 H   0  0  0  0  0  0  0  0  0  0  0  0
  148.3873  132.9123  155.4271 H   0  0  0  0  0  0  0  0  0  0  0  0
  149.4578  132.3547  154.1844 H   0  0  0  0  0  0  0  0  0  0  0  0
  148.7836  134.8979  153.3748 H   0  0  0  0  0  0  0  0  0  0  0  0
  149.8153  136.5413  153.6957 H   0  0  0  0  0  0  0  0  0  0  0  0
  149.9090  138.8588  154.3385 H   0  0  0  0  0  0  0  0  0  0  0  0
  149.9093  142.3511  154.9429 H   0  0  0  0  0  0  0  0  0  0  0  0
  149.3758  141.0189  155.9620 H   0  0  0  0  0  0  0  0  0  0  0  0
  149.5364  140.7970  154.2050 H   0  0  0  0  0  0  0  0  0  0  0  0
  153.8203  137.6587  156.9376 H   0  0  0  0  0  0  0  0  0  0  0  0
  147.8562  134.0848  151.8637 H   0  0  0  0  0  0  0  0  0  0  0  0
  146.7274  132.7151  151.4009 H   0  0  0  0  0  0  0  0  0  0  0  0
  145.2632  133.2792  153.3503 H   0  0  0  0  0  0  0  0  0  0  0  0
  146.4080  134.6390  153.8125 H   0  0  0  0  0  0  0  0  0  0  0  0
  1  2  1  0  0  0  0
  1 19  1  0  0  0  0
  1 20  1  0  0  0  0
  1 21  1  0  0  0  0
  2  3  1  0  0  0  0
  2 22  1  0  0  0  0
  2 23  1  0  0  0  0
  3 18  1  0  0  0  0
  3  4  1  0  0  0  0
  3 17  1  0  0  0  0
  4  5  1  0  0  0  0
  4 24  1  0  0  0  0
  4 25  1  0  0  0  0
  5  6  1  0  0  0  0
  5 26  1  0  0  0  0
  6  7  2  0  0  0  0
  6  8  1  0  0  0  0
  8  9  1  0  0  0  0
  8 27  1  0  0  0  0
  9 16  1  0  0  0  0
  9 10  2  0  0  0  0
 10 11  1  0  0  0  0
 10 28  1  0  0  0  0
 11 12  1  0  0  0  0
 11 14  2  0  0  0  0
 12 13  1  0  0  0  0
 13 29  1  0  0  0  0
 13 30  1  0  0  0  0
 13 31  1  0  0  0  0
 14 15  1  0  0  0  0
 15 16  2  0  0  0  0
 15 32  1  0  0  0  0
 17 18  1  0  0  0  0
 17 33  1  0  0  0  0
 17 34  1  0  0  0  0
 18 35  1  0  0  0  0
 18 36  1  0  0  0  0
M  END
> <s_m_source_file>
AV-unprocessed.smi

> <i_m_source_file_index>
2461

> <i_lp_mmshare_version>
43012

> <i_f3d_flags>
0

> <s_epik_input>
W0NIM11bQ0gyXUMxKFtDSDJdW0NIMl0xKVtDSDJdW05IXUMoPU8pW05IXWMyW2NIXWMoT1tDSDNdKW5bY0hdbjI=

> <s_epik_cmdline>
J2VwaWtfcHl0aG9uJywgJy1waCcsICc3LjAnLCAnLXRuJywgJzgnLCAnLW1hJywgJzIwMCcsICctbWV0YWxfYmluZGluZycsICctaW1hZScsICc8aW5maWxlLm1hZT4nLCAnLW9tYWUnLCAnPG91dGZpbGUubWFlPic=

> <r_lp_tautomer_probability>
1

> <r_epik_Ionization_Penalty>
2.7206e-05

> <r_epik_Ionization_Penalty_Charging>
0

> <r_epik_Ionization_Penalty_Neutral>
2.7206e-05

> <r_epik_State_Penalty>
-0

> <r_epik_Charging_Adjusted_Penalty>
0

> <i_epik_Tot_Q>
0

> <i_epik_Tot_abs_Q>
0

> <r_epik_Metal_State_Penalty>
-0

> <b_epik_Metal_Only>
0

> <s_lp_Force_Field>
OPLS_2005

> <r_lp_Energy>
17.684

> <b_lp_Chiralities_Consistent>
1

> <s_lp_Variant>
AV-unprocessed.smi:2461-1

> <Gold.Version>
5.8.1

> <Gold.Id.Protein>
6NUR|6NUR_protein|mol2

> <Gold.PLP.Fitness>
43.7706

> <Gold.PLP.PLP>
-32.4269

> <Gold.PLP.part.hbond>
-6.0000

> <Gold.PLP.part.metal>
0.0000

> <Gold.PLP.part.buried>
-2.3612

> <Gold.PLP.part.nonpolar>
-25.1252

> <Gold.PLP.part.repulsive>
0.2044

> <Gold.PLP.ligand.clash>
0.0000

> <Gold.PLP.ligand.torsion>
1.2702

> <Gold.PLP.Chemscore.Hbond>
4.2376

> <Gold.PLP.Chemscore.CHOScore>
0.0000

> <Gold.PLP.Chemscore.Metal>
0.0000

> <Gold.Chemscore.Hbonds>
donor molecule, donor type, donor heavy atom, donor atom, acceptor molecule, acceptor atom, score
      L1  H     5    26       P1  7948  1.00
      L1  H     8    27       P1  7948  1.00
      P1  H  7989  7998       L1    12  0.38
      P1  H  7997  8009       L1    14  1.00
      P1  H 10752 10765       L1    16  0.99

> <Gold.PLP.Chemscore.Internal.Correction>
1.1714

> <Gold.Rescore>
     Score         DG    S(hbond)    S(metal)    S(lipo)     H(rot)  DE(clash)    DE(int)     intcor
     11.38     -13.79       2.53        0.00      39.75       1.87       0.03       2.38       ----

> <Gold.Chemscore.Fitness>
11.3766

> <Gold.Chemscore.DG>
-13.7889

> <Gold.Chemscore.ZeroCoef>
-5.4800

> <Gold.Chemscore.Hbond>
2.5258

> <Gold.Chemscore.Metal>
0.0000

> <Gold.Chemscore.Lipo>
39.7502

> <Gold.Chemscore.Internal_Hbond>
0.0000

> <Gold.Chemscore.DEClash>
0.0291

> <Gold.Chemscore.DEInternal>
2.3832

> <Gold.Chemscore.Rot>
1.8664

> <Gold.Chemscore.Internal.Correction>
   9.000000E+99

> <Gold.Chemscore.Hbonds>
donor molecule, donor type, donor heavy atom, donor atom, acceptor molecule, acceptor atom, score
      L1  H     5    26       P1  7948  0.43
      L1  H     8    27       P1  7948  0.37
      P1  H  7989  7998       L1    12  0.01
      P1  H  7997  8009       L1    14  0.55
      P1  H 10752 10765       L1    16  0.50

> <Gold.Chemscore.Hbond.Weighted>
-8.4362

> <Gold.Chemscore.Metal.Weighted>
-0.0000

> <Gold.Chemscore.Lipo.Weighted>
-4.6508

> <Gold.Chemscore.Internal_Hbond.Weighted>
0.0000

> <Gold.Chemscore.DEClash.Weighted>
0.0291

> <Gold.Chemscore.DEInternal.Weighted>
2.3832

> <Gold.Chemscore.Rot.Weighted>
4.7781

> <Gold.Chemscore.Internal.Correction.Weighted>
   9.000000E+99

> <Gold.Protein.RotatedTorsions>
[ 6907 6896 6895 6894 ] final  -10.86 input  -60.11 | X-H torsion
[ 7974 7965 7964 7962 ] final  -56.24 input  175.53 | X-H torsion
[ 8008 7997 7996 7995 ] final -171.20 input   59.86 | X-H torsion
[ 10167 10162 10161 10158 ] final  -27.09 input  -65.29 | X-H torsion
[ 10718 10713 10712 10709 ] final  121.25 input   66.30 | X-H torsion
[ 10763 10752 10751 10750 ] final -158.21 input  -60.55 | X-H torsion
[ 11005 11000 10999 10996 ] final -141.66 input  -57.11 | X-H torsion

> <Gold.Protein.ActiveResidues>
 VAL166  LYS551  ARG553  GLY616  TRP617  ASP618  TYR619  PRO620  LYS621  CYS622 
 ASP623  PHE694  ASN695  SER759  ASP760  ASP761  ALA762  ILE779  LEU786  VAL792 
 PHE793  MET794  SER795  GLU796  ALA797  LYS798  CYS799  TRP800  GLU811  SER814 

> <Gold.Protein.RotatedAtoms>
  151.3953  135.0962  159.9538 H   0  0  0  0  0  0  0  0  0  0  0  0  # atno 6907 bound_to 6896
  152.5067  133.8941  159.7419 H   0  0  0  0  0  0  0  0  0  0  0  0  # atno 6908 bound_to 6896
  150.9403  133.6608  159.2821 H   0  0  0  0  0  0  0  0  0  0  0  0  # atno 6909 bound_to 6896
  145.8650  140.8258  142.9917 H   0  0  0  0  0  0  0  0  0  0  0  0  # atno 7974 bound_to 7965
  155.9285  140.1087  157.1151 H   0  0  0  0  0  0  0  0  0  0  0  0  # atno 8008 bound_to 7997
  154.4066  140.1242  156.4837 H   0  0  0  0  0  0  0  0  0  0  0  0  # atno 8009 bound_to 7997
  155.7109  140.3471  155.4976 H   0  0  0  0  0  0  0  0  0  0  0  0  # atno 8010 bound_to 7997
  140.7279  143.4123  151.1085 H   0  0  0  0  0  0  0  0  0  0  0  0  # atno 10167 bound_to 10162
  157.5831  131.1073  150.8148 H   0  0  0  0  0  0  0  0  0  0  0  0  # atno 10718 bound_to 10713
  154.7575  135.3108  154.8442 H   0  0  0  0  0  0  0  0  0  0  0  0  # atno 10763 bound_to 10752
  153.9212  135.6795  153.4752 H   0  0  0  0  0  0  0  0  0  0  0  0  # atno 10764 bound_to 10752
  153.1173  135.4839  154.9067 H   0  0  0  0  0  0  0  0  0  0  0  0  # atno 10765 bound_to 10752
  140.8302  134.2526  157.4860 H   0  0  0  0  0  0  0  0  0  0  0  0  # atno 11005 bound_to 11000
  144.6726  140.1152  143.7453 LP  0  0  0  0  0  0  0  0  0  0  0  0  # atno 17320 bound_to 7965
  145.9204  139.2542  143.1385 LP  0  0  0  0  0  0  0  0  0  0  0  0  # atno 17321 bound_to 7965
  139.7758  143.8428  152.3129 LP  0  0  0  0  0  0  0  0  0  0  0  0  # atno 17342 bound_to 10162
  139.8362  144.7231  150.9389 LP  0  0  0  0  0  0  0  0  0  0  0  0  # atno 17343 bound_to 10162
  156.8589  130.5106  149.5305 LP  0  0  0  0  0  0  0  0  0  0  0  0  # atno 17370 bound_to 10713
  156.0878  130.5872  150.9679 LP  0  0  0  0  0  0  0  0  0  0  0  0  # atno 17371 bound_to 10713
  139.8705  134.9582  156.4293 LP  0  0  0  0  0  0  0  0  0  0  0  0  # atno 17394 bound_to 11000
  140.9006  133.7782  155.9676 LP  0  0  0  0  0  0  0  0  0  0  0  0  # atno 17395 bound_to 11000

$$$$
