AV-unprocessed.smi:131|AV-procd|sdf|1161|dock7
  -GOLD-   2262018303D 1   1.00000     0.00000
 Structure written by MMmdl.
 55 58  0  0  0  0  0  0  0  0  1 V2000
  151.5027  136.9008  159.2492 O   0  0  0  0  0  0  0  0  0  0  0  0
  151.2342  137.8106  158.4640 C   0  0  0  0  0  0  0  0  0  0  0  0
  152.3326  138.7838  158.0066 C   0  0  0  0  0  0  0  0  0  0  0  0
  152.4680  139.9629  158.8896 N   0  0  0  0  0  0  0  0  0  0  0  0
  153.2253  139.8307  160.0800 C   0  0  0  0  0  0  0  0  0  0  0  0
  153.7522  138.7600  160.3857 O   0  0  0  0  0  0  0  0  0  0  0  0
  153.3342  141.0357  160.8945 C   0  0  0  0  0  0  0  0  0  0  0  0
  154.0191  140.9977  162.0500 F   0  0  0  0  0  0  0  0  0  0  0  0
  152.7568  142.1915  160.5071 C   0  0  0  0  0  0  0  0  0  0  0  0
  152.0377  142.3118  159.3310 N   0  0  0  0  0  0  0  0  0  0  0  0
  151.4065  143.6203  158.9028 C   0  0  2  0  0  0  0  0  0  0  0  0
  152.4850  144.7027  158.7005 C   0  0  0  0  0  0  0  0  0  0  0  0
  151.9715  145.8518  159.5453 C   0  0  0  0  0  0  0  0  0  0  0  0
  151.1936  145.1222  160.6298 C   0  0  0  0  0  0  0  0  0  0  0  0
  150.5468  144.0846  159.9047 O   0  0  0  0  0  0  0  0  0  0  0  0
  151.8697  141.1842  158.4981 C   0  0  0  0  0  0  0  0  0  0  0  0
  151.2245  141.2690  157.4507 O   0  0  0  0  0  0  0  0  0  0  0  0
  150.0229  138.0153  157.9143 N   0  0  0  0  0  0  0  0  0  0  0  0
  148.8034  137.3165  158.1326 C   0  0  0  0  0  0  0  0  0  0  0  0
  148.6993  136.5752  159.3295 C   0  0  0  0  0  0  0  0  0  0  0  0
  147.5351  135.8378  159.6191 C   0  0  0  0  0  0  0  0  0  0  0  0
  146.4667  135.8389  158.7022 C   0  0  0  0  0  0  0  0  0  0  0  0
  144.9924  134.8863  159.0438 S   0  0  0  0  0  0  0  0  0  0  0  0
  143.8964  135.3462  158.1762 O   0  0  0  0  0  0  0  0  0  0  0  0
  145.3762  133.4662  159.0653 O   0  0  0  0  0  0  0  0  0  0  0  0
  144.6131  135.3476  160.6689 N   0  0  0  0  0  0  0  0  0  0  0  0
  144.7256  134.3514  161.7415 C   0  0  0  0  0  0  0  0  0  0  0  0
  143.4428  134.4864  162.5632 C   0  0  0  0  0  0  0  0  0  0  0  0
  143.0466  135.9424  162.3628 C   0  0  0  0  0  0  0  0  0  0  0  0
  143.4570  136.2179  160.9169 C   0  0  0  0  0  0  0  0  0  0  0  0
  146.5596  136.5616  157.4977 C   0  0  0  0  0  0  0  0  0  0  0  0
  147.7268  137.2952  157.2102 C   0  0  0  0  0  0  0  0  0  0  0  0
  153.2692  138.2289  157.9363 H   0  0  0  0  0  0  0  0  0  0  0  0
  152.1342  139.0966  156.9798 H   0  0  0  0  0  0  0  0  0  0  0  0
  152.8735  143.0447  161.1574 H   0  0  0  0  0  0  0  0  0  0  0  0
  150.8296  143.3892  158.0055 H   0  0  0  0  0  0  0  0  0  0  0  0
  153.4476  144.3538  159.0784 H   0  0  0  0  0  0  0  0  0  0  0  0
  152.5900  144.9580  157.6458 H   0  0  0  0  0  0  0  0  0  0  0  0
  152.7684  146.4820  159.9410 H   0  0  0  0  0  0  0  0  0  0  0  0
  151.2969  146.4772  158.9591 H   0  0  0  0  0  0  0  0  0  0  0  0
  151.8690  144.6987  161.3747 H   0  0  0  0  0  0  0  0  0  0  0  0
  150.4755  145.7643  161.1397 H   0  0  0  0  0  0  0  0  0  0  0  0
  149.9780  138.7489  157.2217 H   0  0  0  0  0  0  0  0  0  0  0  0
  149.5169  136.5699  160.0358 H   0  0  0  0  0  0  0  0  0  0  0  0
  147.4697  135.2760  160.5388 H   0  0  0  0  0  0  0  0  0  0  0  0
  144.8405  133.3441  161.3396 H   0  0  0  0  0  0  0  0  0  0  0  0
  145.6046  134.5812  162.3442 H   0  0  0  0  0  0  0  0  0  0  0  0
  142.6704  133.8339  162.1536 H   0  0  0  0  0  0  0  0  0  0  0  0
  143.5835  134.2255  163.6124 H   0  0  0  0  0  0  0  0  0  0  0  0
  141.9866  136.1228  162.5437 H   0  0  0  0  0  0  0  0  0  0  0  0
  143.6185  136.5787  163.0397 H   0  0  0  0  0  0  0  0  0  0  0  0
  143.7123  137.2639  160.7452 H   0  0  0  0  0  0  0  0  0  0  0  0
  142.6458  135.9477  160.2402 H   0  0  0  0  0  0  0  0  0  0  0  0
  145.7423  136.5493  156.7914 H   0  0  0  0  0  0  0  0  0  0  0  0
  147.7733  137.8190  156.2689 H   0  0  0  0  0  0  0  0  0  0  0  0
  1  2  2  0  0  0  0
  2  3  1  0  0  0  0
  2 18  1  0  0  0  0
  3  4  1  0  0  0  0
  3 33  1  0  0  0  0
  3 34  1  0  0  0  0
  4 16  1  0  0  0  0
  4  5  1  0  0  0  0
  5  6  2  0  0  0  0
  5  7  1  0  0  0  0
  7  8  1  0  0  0  0
  7  9  2  0  0  0  0
  9 10  1  0  0  0  0
  9 35  1  0  0  0  0
 10 11  1  0  0  0  0
 10 16  1  0  0  0  0
 11 15  1  0  0  0  0
 11 12  1  0  0  0  0
 11 36  1  0  0  0  0
 12 13  1  0  0  0  0
 12 37  1  0  0  0  0
 12 38  1  0  0  0  0
 13 14  1  0  0  0  0
 13 39  1  0  0  0  0
 13 40  1  0  0  0  0
 14 15  1  0  0  0  0
 14 41  1  0  0  0  0
 14 42  1  0  0  0  0
 16 17  2  0  0  0  0
 18 19  1  0  0  0  0
 18 43  1  0  0  0  0
 19 32  1  0  0  0  0
 19 20  2  0  0  0  0
 20 21  1  0  0  0  0
 20 44  1  0  0  0  0
 21 22  2  0  0  0  0
 21 45  1  0  0  0  0
 22 23  1  0  0  0  0
 22 31  1  0  0  0  0
 23 24  2  0  0  0  0
 23 25  2  0  0  0  0
 23 26  1  0  0  0  0
 26 30  1  0  0  0  0
 26 27  1  0  0  0  0
 27 28  1  0  0  0  0
 27 46  1  0  0  0  0
 27 47  1  0  0  0  0
 28 29  1  0  0  0  0
 28 48  1  0  0  0  0
 28 49  1  0  0  0  0
 29 30  1  0  0  0  0
 29 50  1  0  0  0  0
 29 51  1  0  0  0  0
 30 52  1  0  0  0  0
 30 53  1  0  0  0  0
 31 32  2  0  0  0  0
 31 54  1  0  0  0  0
 32 55  1  0  0  0  0
M  END
> <s_m_source_file>
AV-unprocessed.smi

> <i_m_source_file_index>
131

> <i_lp_mmshare_version>
43012

> <i_f3d_flags>
0

> <s_epik_input>
W0NIMl0xW0NIMl1bQ0gyXVtDSDJdTjFTKD1PKSg9TyljKFtjSF1bY0hdMilbY0hdW2NIXWMyW05IXUMoPU8pW0NIMl1uM2MoPU8pYyhGKVtjSF1uKGMzPU8pW0NAQEhdNFtDSDJdW0NIMl1bQ0gyXU80

> <s_epik_cmdline>
J2VwaWtfcHl0aG9uJywgJy1waCcsICc3LjAnLCAnLXRuJywgJzgnLCAnLW1hJywgJzIwMCcsICctbWV0YWxfYmluZGluZycsICctaW1hZScsICc8aW5maWxlLm1hZT4nLCAnLW9tYWUnLCAnPG91dGZpbGUubWFlPic=

> <r_lp_tautomer_probability>
1

> <r_epik_Ionization_Penalty>
1.92533e-06

> <r_epik_Ionization_Penalty_Charging>
3.88729e-08

> <r_epik_Ionization_Penalty_Neutral>
1.88646e-06

> <r_epik_State_Penalty>
-0

> <r_epik_Charging_Adjusted_Penalty>
3.88729e-08

> <i_epik_Tot_Q>
0

> <i_epik_Tot_abs_Q>
0

> <r_epik_Metal_State_Penalty>
-0

> <b_epik_Metal_Only>
0

> <s_epik_Chemistry_Notes>
This compound contains an acetal/aminal-like group ( X-CH(R)-Y where X, Y are N, S, or O) that may be acid/base labile, releasing an aldehyde.

> <s_lp_Force_Field>
OPLS_2005

> <r_lp_Energy>
42.8804

> <b_lp_Chiralities_Consistent>
1

> <s_lp_Variant>
AV-unprocessed.smi:131-1

> <Gold.Version>
5.8.1

> <Gold.Id.Protein>
6NUR|6NUR_protein|mol2

> <Gold.PLP.Fitness>
52.5381

> <Gold.PLP.PLP>
-51.2729

> <Gold.PLP.part.hbond>
-1.0000

> <Gold.PLP.part.metal>
0.0000

> <Gold.PLP.part.buried>
-3.9950

> <Gold.PLP.part.nonpolar>
-46.5657

> <Gold.PLP.part.repulsive>
0.2373

> <Gold.PLP.ligand.clash>
0.0000

> <Gold.PLP.ligand.torsion>
2.1962

> <Gold.PLP.Chemscore.Hbond>
1.0000

> <Gold.PLP.Chemscore.CHOScore>
0.0000

> <Gold.PLP.Chemscore.Metal>
0.0000

> <Gold.Chemscore.Hbonds>
donor molecule, donor type, donor heavy atom, donor atom, acceptor molecule, acceptor atom, score
      P1  H  6896  6908       L1     1  1.00

> <Gold.PLP.Chemscore.Internal.Correction>
2.6577

> <Gold.Rescore>
     Score         DG    S(hbond)    S(metal)    S(lipo)     H(rot)  DE(clash)    DE(int)     intcor
     12.48     -15.99       1.00        0.00     103.36       1.92       0.08       3.43       ----

> <Gold.Chemscore.Fitness>
12.4841

> <Gold.Chemscore.DG>
-15.9910

> <Gold.Chemscore.ZeroCoef>
-5.4800

> <Gold.Chemscore.Hbond>
0.9954

> <Gold.Chemscore.Metal>
0.0000

> <Gold.Chemscore.Lipo>
103.3573

> <Gold.Chemscore.Internal_Hbond>
0.0000

> <Gold.Chemscore.DEClash>
0.0790

> <Gold.Chemscore.DEInternal>
3.4278

> <Gold.Chemscore.Rot>
1.9166

> <Gold.Chemscore.Internal.Correction>
   9.000000E+99

> <Gold.Chemscore.Hbonds>
donor molecule, donor type, donor heavy atom, donor atom, acceptor molecule, acceptor atom, score
      P1  H  6896  6908       L1     1  0.98

> <Gold.Chemscore.Hbond.Weighted>
-3.3245

> <Gold.Chemscore.Metal.Weighted>
-0.0000

> <Gold.Chemscore.Lipo.Weighted>
-12.0928

> <Gold.Chemscore.Internal_Hbond.Weighted>
0.0000

> <Gold.Chemscore.DEClash.Weighted>
0.0790

> <Gold.Chemscore.DEInternal.Weighted>
3.4278

> <Gold.Chemscore.Rot.Weighted>
4.9064

> <Gold.Chemscore.Internal.Correction.Weighted>
   9.000000E+99

> <Gold.Protein.RotatedTorsions>
[ 6907 6896 6895 6894 ] final -133.33 input  -60.11 | X-H torsion
[ 7974 7965 7964 7962 ] final -177.65 input  175.53 | X-H torsion
[ 8008 7997 7996 7995 ] final   29.56 input   59.86 | X-H torsion
[ 10167 10162 10161 10158 ] final -131.46 input  -65.29 | X-H torsion
[ 10718 10713 10712 10709 ] final  -71.23 input   66.30 | X-H torsion
[ 10763 10752 10751 10750 ] final -102.52 input  -60.55 | X-H torsion
[ 11005 11000 10999 10996 ] final  -48.54 input  -57.11 | X-H torsion

> <Gold.Protein.ActiveResidues>
 VAL166  LYS551  ARG553  GLY616  TRP617  ASP618  TYR619  PRO620  LYS621  CYS622 
 ASP623  PHE694  ASN695  SER759  ASP760  ASP761  ALA762  ILE779  LEU786  VAL792 
 PHE793  MET794  SER795  GLU796  ALA797  LYS798  CYS799  TRP800  GLU811  SER814 

> <Gold.Protein.RotatedAtoms>
  150.9727  133.6327  159.2735 H   0  0  0  0  0  0  0  0  0  0  0  0  # atno 6907 bound_to 6896
  151.3610  135.0903  159.9444 H   0  0  0  0  0  0  0  0  0  0  0  0  # atno 6908 bound_to 6896
  152.5188  133.9301  159.7631 H   0  0  0  0  0  0  0  0  0  0  0  0  # atno 6909 bound_to 6896
  144.7128  140.0988  143.6417 H   0  0  0  0  0  0  0  0  0  0  0  0  # atno 7974 bound_to 7965
  155.0765  140.3205  155.4614 H   0  0  0  0  0  0  0  0  0  0  0  0  # atno 8008 bound_to 7997
  156.2778  140.2102  156.5838 H   0  0  0  0  0  0  0  0  0  0  0  0  # atno 8009 bound_to 7997
  154.7013  140.0507  157.0448 H   0  0  0  0  0  0  0  0  0  0  0  0  # atno 8010 bound_to 7997
  139.9187  143.6408  152.2559 H   0  0  0  0  0  0  0  0  0  0  0  0  # atno 10167 bound_to 10162
  156.0372  130.4347  150.2412 H   0  0  0  0  0  0  0  0  0  0  0  0  # atno 10718 bound_to 10713
  154.7740  135.4857  153.9706 H   0  0  0  0  0  0  0  0  0  0  0  0  # atno 10763 bound_to 10752
  153.1404  135.6771  153.9043 H   0  0  0  0  0  0  0  0  0  0  0  0  # atno 10764 bound_to 10752
  153.8719  135.3142  155.3421 H   0  0  0  0  0  0  0  0  0  0  0  0  # atno 10765 bound_to 10752
  141.0707  133.6680  156.3456 H   0  0  0  0  0  0  0  0  0  0  0  0  # atno 11005 bound_to 11000
  145.9556  139.2764  143.1186 LP  0  0  0  0  0  0  0  0  0  0  0  0  # atno 17320 bound_to 7965
  145.9276  140.9071  143.0373 LP  0  0  0  0  0  0  0  0  0  0  0  0  # atno 17321 bound_to 7965
  139.6880  144.7649  151.1489 LP  0  0  0  0  0  0  0  0  0  0  0  0  # atno 17342 bound_to 10162
  140.7668  143.5629  150.9079 LP  0  0  0  0  0  0  0  0  0  0  0  0  # atno 17343 bound_to 10162
  157.0511  131.0063  151.3253 LP  0  0  0  0  0  0  0  0  0  0  0  0  # atno 17370 bound_to 10713
  157.5140  130.7956  149.7736 LP  0  0  0  0  0  0  0  0  0  0  0  0  # atno 17371 bound_to 10713
  140.5680  134.5869  157.5450 LP  0  0  0  0  0  0  0  0  0  0  0  0  # atno 17394 bound_to 11000
  139.9520  134.7600  156.0426 LP  0  0  0  0  0  0  0  0  0  0  0  0  # atno 17395 bound_to 11000

$$$$
