AV-unprocessed.smi:1014|AV-procd|sdf|4431|dock1
  -GOLD-   22720 2383D 1   1.00000     0.00000
 Structure written by MMmdl.
 34 34  0  0  0  0  0  0  0  0  2 V2000
  146.4912  142.7601  154.0059 C   0  0  0  0  0  0  0  0  0  0  0  0
  147.1550  141.3932  153.7757 C   0  0  0  0  0  0  0  0  0  0  0  0
  148.6675  141.3479  154.0865 C   0  0  1  0  0  0  0  0  0  0  0  0
  148.8942  141.8340  155.4675 N   0  3  0  0  0  0  0  0  0  0  0  0
  150.3075  141.8741  155.9003 C   0  0  0  0  0  0  0  0  0  0  0  0
  150.4350  141.5048  157.3855 C   0  0  0  0  0  0  0  0  0  0  0  0
  151.1592  142.5130  158.1354 N   0  0  0  0  0  0  0  0  0  0  0  0
  150.8674  143.8530  158.2780 C   0  0  0  0  0  0  0  0  0  0  0  0
  151.8234  144.3979  159.0878 C   0  0  0  0  0  0  0  0  0  0  0  0
  151.9600  145.8194  159.5517 C   0  0  0  0  0  0  0  0  0  0  0  0
  152.6656  143.2919  159.3962 C   0  0  0  0  0  0  0  0  0  0  0  0
  152.2648  142.1665  158.8277 N   0  0  0  0  0  0  0  0  0  0  0  0
  149.2353  139.9307  153.9016 C   0  0  0  0  0  0  0  0  0  0  0  0
  148.4357  139.0185  153.3428 N   0  0  0  0  0  0  0  0  0  0  0  0
  150.3782  139.6620  154.2672 O   0  0  0  0  0  0  0  0  0  0  0  0
  145.4157  142.6974  153.8392 H   0  0  0  0  0  0  0  0  0  0  0  0
  146.8799  143.5191  153.3269 H   0  0  0  0  0  0  0  0  0  0  0  0
  146.6475  143.1086  155.0271 H   0  0  0  0  0  0  0  0  0  0  0  0
  146.6447  140.6631  154.4055 H   0  0  0  0  0  0  0  0  0  0  0  0
  146.9749  141.0755  152.7474 H   0  0  0  0  0  0  0  0  0  0  0  0
  149.1758  142.0312  153.4037 H   0  0  0  0  0  0  0  0  0  0  0  0
  148.5304  142.7739  155.5291 H   0  0  0  0  0  0  0  0  0  0  0  0
  150.8939  141.1832  155.2934 H   0  0  0  0  0  0  0  0  0  0  0  0
  150.7095  142.8739  155.7307 H   0  0  0  0  0  0  0  0  0  0  0  0
  149.4471  141.3833  157.8320 H   0  0  0  0  0  0  0  0  0  0  0  0
  150.9549  140.5525  157.5002 H   0  0  0  0  0  0  0  0  0  0  0  0
  150.0118  144.3048  157.7977 H   0  0  0  0  0  0  0  0  0  0  0  0
  152.8958  145.9835  160.0865 H   0  0  0  0  0  0  0  0  0  0  0  0
  151.1514  146.1012  160.2264 H   0  0  0  0  0  0  0  0  0  0  0  0
  151.9414  146.5194  158.7163 H   0  0  0  0  0  0  0  0  0  0  0  0
  153.5508  143.2737  160.0149 H   0  0  0  0  0  0  0  0  0  0  0  0
  148.7652  138.0758  153.1932 H   0  0  0  0  0  0  0  0  0  0  0  0
  147.5005  139.2781  153.0629 H   0  0  0  0  0  0  0  0  0  0  0  0
  148.3725  141.2442  156.1006 H   0  0  0  0  0  0  0  0  0  0  0  0
  1  2  1  0  0  0  0
  1 16  1  0  0  0  0
  1 17  1  0  0  0  0
  1 18  1  0  0  0  0
  2  3  1  0  0  0  0
  2 19  1  0  0  0  0
  2 20  1  0  0  0  0
  3  4  1  0  0  0  0
  3 13  1  0  0  0  0
  3 21  1  0  0  0  0
  4  5  1  0  0  0  0
  4 22  1  0  0  0  0
  4 34  1  0  0  0  0
  5  6  1  0  0  0  0
  5 23  1  0  0  0  0
  5 24  1  0  0  0  0
  6  7  1  0  0  0  0
  6 25  1  0  0  0  0
  6 26  1  0  0  0  0
  7 12  1  0  0  0  0
  7  8  1  0  0  0  0
  8  9  2  0  0  0  0
  8 27  1  0  0  0  0
  9 10  1  0  0  0  0
  9 11  1  0  0  0  0
 10 28  1  0  0  0  0
 10 29  1  0  0  0  0
 10 30  1  0  0  0  0
 11 12  2  0  0  0  0
 11 31  1  0  0  0  0
 13 14  1  0  0  0  0
 13 15  2  0  0  0  0
 14 32  1  0  0  0  0
 14 33  1  0  0  0  0
M  CHG  1   4   1
M  END
> <s_m_source_file>
AV-unprocessed.smi

> <i_m_source_file_index>
1014

> <i_lp_mmshare_version>
43012

> <i_f3d_flags>
0

> <s_epik_input>
W0NIM11bQ0gyXVtDQEBIXShDKD1PKVtOSDJdKVtOSF1bQ0gyXVtDSDJdbjFbY0hdYyhbQ0gzXSlbY0hdbjE=

> <s_epik_cmdline>
J2VwaWtfcHl0aG9uJywgJy1waCcsICc3LjAnLCAnLXRuJywgJzgnLCAnLW1hJywgJzIwMCcsICctbWV0YWxfYmluZGluZycsICctaW1hZScsICc8aW5maWxlLm1hZT4nLCAnLW9tYWUnLCAnPG91dGZpbGUubWFlPic=

> <r_lp_tautomer_probability>
1

> <r_epik_Ionization_Penalty>
0.19042

> <r_epik_Ionization_Penalty_Charging>
0.190412

> <r_epik_Ionization_Penalty_Neutral>
7.5834e-06

> <r_epik_State_Penalty>
0.180404

> <r_epik_Charging_Adjusted_Penalty>
0.370816

> <i_epik_Tot_Q>
1

> <i_epik_Tot_abs_Q>
1

> <r_epik_Metal_State_Penalty>
0.180563

> <b_epik_Metal_Only>
0

> <s_lp_Force_Field>
OPLS_2005

> <r_lp_Energy>
2.60817

> <b_lp_Chiralities_Consistent>
1

> <s_lp_Variant>
AV-unprocessed.smi:1014-2

> <Gold.Version>
5.8.1

> <Gold.Id.Protein>
6NUR|6NUR_protein|mol2

> <Gold.PLP.Fitness>
49.0767

> <Gold.PLP.PLP>
-37.1399

> <Gold.PLP.part.hbond>
-3.6776

> <Gold.PLP.part.metal>
0.0000

> <Gold.PLP.part.buried>
-1.9425

> <Gold.PLP.part.nonpolar>
-31.6930

> <Gold.PLP.part.repulsive>
0.3466

> <Gold.PLP.ligand.clash>
0.6345

> <Gold.PLP.ligand.torsion>
0.8200

> <Gold.PLP.Chemscore.Hbond>
3.5513

> <Gold.PLP.Chemscore.CHOScore>
1.1103

> <Gold.PLP.Chemscore.Metal>
0.0000

> <Gold.Chemscore.Hbonds>
donor molecule, donor type, donor heavy atom, donor atom, acceptor molecule, acceptor atom, score
      L1  H     4    22       P1  8028  1.98
      L1  H    14    32       P1  7948  0.42
      P1  H  7989  7998       L1    15  1.00
      L1  C     8    27       P1  8028  0.97
      L1  C     8    27       P1  8029  0.16

> <Gold.PLP.Chemscore.Internal.Correction>
0.2267

> <Gold.Rescore>
     Score         DG    S(hbond)    S(metal)    S(lipo)     H(rot)  DE(clash)    DE(int)     intcor
     11.98     -15.74       2.21        0.00      81.19       2.59       1.49       2.26       ----

> <Gold.Chemscore.Fitness>
11.9824

> <Gold.Chemscore.DG>
-15.7372

> <Gold.Chemscore.ZeroCoef>
-5.4800

> <Gold.Chemscore.Hbond>
2.2104

> <Gold.Chemscore.Metal>
0.0000

> <Gold.Chemscore.Lipo>
81.1901

> <Gold.Chemscore.Internal_Hbond>
0.0000

> <Gold.Chemscore.DEClash>
1.4945

> <Gold.Chemscore.DEInternal>
2.2602

> <Gold.Chemscore.Rot>
2.5878

> <Gold.Chemscore.Internal.Correction>
   9.000000E+99

> <Gold.Chemscore.Hbonds>
donor molecule, donor type, donor heavy atom, donor atom, acceptor molecule, acceptor atom, score
      L1  H     4    22       P1  8028  0.92
      L1  H    14    32       P1  7948  0.41
      P1  H  7989  7998       L1    15  0.74

> <Gold.Chemscore.Hbond.Weighted>
-7.3827

> <Gold.Chemscore.Metal.Weighted>
-0.0000

> <Gold.Chemscore.Lipo.Weighted>
-9.4992

> <Gold.Chemscore.Internal_Hbond.Weighted>
0.0000

> <Gold.Chemscore.DEClash.Weighted>
1.4945

> <Gold.Chemscore.DEInternal.Weighted>
2.2602

> <Gold.Chemscore.Rot.Weighted>
6.6247

> <Gold.Chemscore.Internal.Correction.Weighted>
   9.000000E+99

> <Gold.Protein.RotatedTorsions>
[ 6907 6896 6895 6894 ] final  -88.37 input  -60.11 | X-H torsion
[ 7974 7965 7964 7962 ] final  -56.62 input  175.53 | X-H torsion
[ 8008 7997 7996 7995 ] final    0.29 input   59.86 | X-H torsion
[ 10167 10162 10161 10158 ] final   91.30 input  -65.29 | X-H torsion
[ 10718 10713 10712 10709 ] final -155.88 input   66.30 | X-H torsion
[ 10763 10752 10751 10750 ] final -150.63 input  -60.55 | X-H torsion
[ 11005 11000 10999 10996 ] final   52.21 input  -57.11 | X-H torsion

> <Gold.Protein.ActiveResidues>
 VAL166  LYS551  ARG553  GLY616  TRP617  ASP618  TYR619  PRO620  LYS621  CYS622 
 ASP623  PHE694  ASN695  SER759  ASP760  ASP761  ALA762  ILE779  LEU786  VAL792 
 PHE793  MET794  SER795  GLU796  ALA797  LYS798  CYS799  TRP800  GLU811  SER814 

> <Gold.Protein.RotatedAtoms>
  150.6868  134.2753  159.4604 H   0  0  0  0  0  0  0  0  0  0  0  0  # atno 6907 bound_to 6896
  152.0671  134.9554  160.0584 H   0  0  0  0  0  0  0  0  0  0  0  0  # atno 6908 bound_to 6896
  152.0959  133.4189  159.4602 H   0  0  0  0  0  0  0  0  0  0  0  0  # atno 6909 bound_to 6896
  145.8605  140.8288  142.9939 H   0  0  0  0  0  0  0  0  0  0  0  0  # atno 7974 bound_to 7965
  154.6664  140.2602  155.7053 H   0  0  0  0  0  0  0  0  0  0  0  0  # atno 8008 bound_to 7997
  156.2640  140.2838  156.1078 H   0  0  0  0  0  0  0  0  0  0  0  0  # atno 8009 bound_to 7997
  155.1232  140.0377  157.2745 H   0  0  0  0  0  0  0  0  0  0  0  0  # atno 8010 bound_to 7997
  139.8388  144.6651  150.9309 H   0  0  0  0  0  0  0  0  0  0  0  0  # atno 10167 bound_to 10162
  156.5189  130.8469  151.2674 H   0  0  0  0  0  0  0  0  0  0  0  0  # atno 10718 bound_to 10713
  154.8107  135.3279  154.7312 H   0  0  0  0  0  0  0  0  0  0  0  0  # atno 10763 bound_to 10752
  153.7962  135.6907  153.4867 H   0  0  0  0  0  0  0  0  0  0  0  0  # atno 10764 bound_to 10752
  153.1884  135.4560  155.0064 H   0  0  0  0  0  0  0  0  0  0  0  0  # atno 10765 bound_to 10752
  140.0868  134.5263  155.8891 H   0  0  0  0  0  0  0  0  0  0  0  0  # atno 11005 bound_to 11000
  144.6726  140.1089  143.7456 LP  0  0  0  0  0  0  0  0  0  0  0  0  # atno 17320 bound_to 7965
  145.9253  139.2571  143.1357 LP  0  0  0  0  0  0  0  0  0  0  0  0  # atno 17321 bound_to 7965
  140.7800  143.3932  151.1275 LP  0  0  0  0  0  0  0  0  0  0  0  0  # atno 17342 bound_to 10162
  139.7580  143.8679  152.3093 LP  0  0  0  0  0  0  0  0  0  0  0  0  # atno 17343 bound_to 10162
  157.7440  130.9924  150.2635 LP  0  0  0  0  0  0  0  0  0  0  0  0  # atno 17370 bound_to 10713
  156.3169  130.3780  149.7611 LP  0  0  0  0  0  0  0  0  0  0  0  0  # atno 17371 bound_to 10713
  141.2065  133.6656  156.6247 LP  0  0  0  0  0  0  0  0  0  0  0  0  # atno 17394 bound_to 11000
  140.3408  134.7850  157.4396 LP  0  0  0  0  0  0  0  0  0  0  0  0  # atno 17395 bound_to 11000

$$$$
