AV-unprocessed.smi:2190|AV-procd|sdf|8891|dock10
  -GOLD-   2272012 93D 1   1.00000     0.00000
 Structure written by MMmdl.
 47 49  0  0  0  0  0  0  0  0  2 V2000
  153.4115  142.3124  163.1750 C   0  0  0  0  0  0  0  0  0  0  0  0
  152.7678  142.9138  161.9426 C   0  0  0  0  0  0  0  0  0  0  0  0
  152.4773  144.2905  161.8933 C   0  0  0  0  0  0  0  0  0  0  0  0
  151.8773  144.8409  160.7466 C   0  0  0  0  0  0  0  0  0  0  0  0
  151.5632  144.0200  159.6438 C   0  0  0  0  0  0  0  0  0  0  0  0
  150.9152  144.6313  158.4156 C   0  0  0  0  0  0  0  0  0  0  0  0
  151.8488  142.6351  159.6800 C   0  0  0  0  0  0  0  0  0  0  0  0
  151.5162  141.8884  158.5682 O   0  0  0  0  0  0  0  0  0  0  0  0
  152.0829  140.5927  158.4264 C   0  0  0  0  0  0  0  0  0  0  0  0
  151.3089  139.8299  157.3401 C   0  0  1  0  0  0  0  0  0  0  0  0
  150.0090  139.5567  157.8251 O   0  0  0  0  0  0  0  0  0  0  0  0
  151.2022  140.6441  156.0355 C   0  0  0  0  0  0  0  0  0  0  0  0
  150.3630  139.9886  155.0176 N   0  0  0  0  0  0  0  0  0  0  0  0
  150.5488  138.8126  154.3502 C   0  0  0  0  0  0  0  0  0  0  0  0
  151.6887  137.8597  154.5022 C   0  0  0  0  0  0  0  0  0  0  0  0
  151.3684  136.5654  154.0430 O   0  0  0  0  0  0  0  0  0  0  0  0
  149.4843  138.6489  153.5156 N   0  3  0  0  0  0  0  0  0  0  0  0
  148.6077  139.7257  153.6499 C   0  0  0  0  0  0  0  0  0  0  0  0
  147.3993  139.9990  153.0163 C   0  0  0  0  0  0  0  0  0  0  0  0
  146.7447  141.1909  153.3895 C   0  0  0  0  0  0  0  0  0  0  0  0
  147.2923  142.0562  154.3585 C   0  0  0  0  0  0  0  0  0  0  0  0
  148.5189  141.7689  154.9926 C   0  0  0  0  0  0  0  0  0  0  0  0
  149.1629  140.5899  154.6161 C   0  0  0  0  0  0  0  0  0  0  0  0
  152.4534  142.0911  160.8422 C   0  0  0  0  0  0  0  0  0  0  0  0
  153.8298  143.0852  163.8207 H   0  0  0  0  0  0  0  0  0  0  0  0
  154.2178  141.6346  162.8933 H   0  0  0  0  0  0  0  0  0  0  0  0
  152.6738  141.7501  163.7476 H   0  0  0  0  0  0  0  0  0  0  0  0
  152.7121  144.9285  162.7328 H   0  0  0  0  0  0  0  0  0  0  0  0
  151.6588  145.8984  160.7182 H   0  0  0  0  0  0  0  0  0  0  0  0
  151.5426  144.4730  157.5379 H   0  0  0  0  0  0  0  0  0  0  0  0
  150.7650  145.7046  158.5352 H   0  0  0  0  0  0  0  0  0  0  0  0
  149.9437  144.1721  158.2318 H   0  0  0  0  0  0  0  0  0  0  0  0
  153.1460  140.6400  158.1827 H   0  0  0  0  0  0  0  0  0  0  0  0
  151.9806  140.0678  159.3778 H   0  0  0  0  0  0  0  0  0  0  0  0
  151.8120  138.8858  157.1282 H   0  0  0  0  0  0  0  0  0  0  0  0
  149.3854  140.0003  157.2703 H   0  0  0  0  0  0  0  0  0  0  0  0
  150.8241  141.6481  156.2278 H   0  0  0  0  0  0  0  0  0  0  0  0
  152.1921  140.7799  155.5995 H   0  0  0  0  0  0  0  0  0  0  0  0
  152.5473  138.2318  153.9428 H   0  0  0  0  0  0  0  0  0  0  0  0
  151.9900  137.8045  155.5479 H   0  0  0  0  0  0  0  0  0  0  0  0
  151.1599  136.6152  153.1224 H   0  0  0  0  0  0  0  0  0  0  0  0
  146.9760  139.3356  152.2766 H   0  0  0  0  0  0  0  0  0  0  0  0
  145.8025  141.4448  152.9255 H   0  0  0  0  0  0  0  0  0  0  0  0
  146.7602  142.9585  154.6230 H   0  0  0  0  0  0  0  0  0  0  0  0
  148.9231  142.4371  155.7383 H   0  0  0  0  0  0  0  0  0  0  0  0
  152.6863  141.0398  160.9144 H   0  0  0  0  0  0  0  0  0  0  0  0
  149.3658  137.8518  152.9038 H   0  0  0  0  0  0  0  0  0  0  0  0
  1  2  1  0  0  0  0
  1 25  1  0  0  0  0
  1 26  1  0  0  0  0
  1 27  1  0  0  0  0
  2 24  1  0  0  0  0
  2  3  2  0  0  0  0
  3  4  1  0  0  0  0
  3 28  1  0  0  0  0
  4  5  2  0  0  0  0
  4 29  1  0  0  0  0
  5  6  1  0  0  0  0
  5  7  1  0  0  0  0
  6 30  1  0  0  0  0
  6 31  1  0  0  0  0
  6 32  1  0  0  0  0
  7  8  1  0  0  0  0
  7 24  2  0  0  0  0
  8  9  1  0  0  0  0
  9 10  1  0  0  0  0
  9 33  1  0  0  0  0
  9 34  1  0  0  0  0
 10 11  1  0  0  0  0
 10 12  1  0  0  0  0
 10 35  1  0  0  0  0
 11 36  1  0  0  0  0
 12 13  1  0  0  0  0
 12 37  1  0  0  0  0
 12 38  1  0  0  0  0
 13 23  1  0  0  0  0
 13 14  1  0  0  0  0
 14 15  1  0  0  0  0
 14 17  2  0  0  0  0
 15 16  1  0  0  0  0
 15 39  1  0  0  0  0
 15 40  1  0  0  0  0
 16 41  1  0  0  0  0
 17 18  1  0  0  0  0
 17 47  1  0  0  0  0
 18 23  2  0  0  0  0
 18 19  1  0  0  0  0
 19 20  2  0  0  0  0
 19 42  1  0  0  0  0
 20 21  1  0  0  0  0
 20 43  1  0  0  0  0
 21 22  2  0  0  0  0
 21 44  1  0  0  0  0
 22 23  1  0  0  0  0
 22 45  1  0  0  0  0
 24 46  1  0  0  0  0
M  CHG  1  17   1
M  END
> <s_m_source_file>
AV-unprocessed.smi

> <i_m_source_file_index>
2190

> <i_lp_mmshare_version>
43012

> <i_f3d_flags>
0

> <s_epik_input>
W0NIM11jMVtjSF1bY0hdYyhbQ0gzXSljKFtjSF0xKU9bQ0gyXVtDQEhdKFtPSF0pW0NIMl1uKGMobjIpW0NIMl1bT0hdKWMoYzIzKVtjSF1bY0hdW2NIXVtjSF0z

> <s_epik_cmdline>
J2VwaWtfcHl0aG9uJywgJy1waCcsICc3LjAnLCAnLXRuJywgJzgnLCAnLW1hJywgJzIwMCcsICctbWV0YWxfYmluZGluZycsICctaW1hZScsICc8aW5maWxlLm1hZT4nLCAnLW9tYWUnLCAnPG91dGZpbGUubWFlPic=

> <r_lp_tautomer_probability>
1

> <r_epik_Ionization_Penalty>
1.43125

> <r_epik_Ionization_Penalty_Charging>
1.43039

> <r_epik_Ionization_Penalty_Neutral>
0.000858184

> <r_epik_State_Penalty>
1.51493

> <r_epik_Charging_Adjusted_Penalty>
2.94531

> <i_epik_Tot_Q>
1

> <i_epik_Tot_abs_Q>
1

> <r_epik_Metal_State_Penalty>
5.5599

> <b_epik_Metal_Only>
0

> <s_lp_Force_Field>
OPLS_2005

> <r_lp_Energy>
19.5123

> <b_lp_Chiralities_Consistent>
1

> <s_lp_Variant>
AV-unprocessed.smi:2190-4

> <Gold.Version>
5.8.1

> <Gold.Id.Protein>
6NUR|6NUR_protein|mol2

> <Gold.PLP.Fitness>
68.2958

> <Gold.PLP.PLP>
-57.5198

> <Gold.PLP.part.hbond>
-4.2584

> <Gold.PLP.part.metal>
0.0000

> <Gold.PLP.part.buried>
0.1654

> <Gold.PLP.part.nonpolar>
-54.2709

> <Gold.PLP.part.repulsive>
0.0851

> <Gold.PLP.ligand.clash>
0.0000

> <Gold.PLP.ligand.torsion>
0.6118

> <Gold.PLP.Chemscore.Hbond>
3.9920

> <Gold.PLP.Chemscore.CHOScore>
0.0000

> <Gold.PLP.Chemscore.Metal>
0.0000

> <Gold.Chemscore.Hbonds>
donor molecule, donor type, donor heavy atom, donor atom, acceptor molecule, acceptor atom, score
      L1  H    16    41       P1  7949  1.00
      L1  H    17    47       P1  7948  2.00
      P1  H 10752 10764       L1    16  0.94

> <Gold.PLP.Chemscore.Internal.Correction>
0.0236

> <Gold.Rescore>
     Score         DG    S(hbond)    S(metal)    S(lipo)     H(rot)  DE(clash)    DE(int)     intcor
     21.16     -23.68       2.32        0.00     155.99       3.05       1.96       0.56       ----

> <Gold.Chemscore.Fitness>
21.1603

> <Gold.Chemscore.DG>
-23.6753

> <Gold.Chemscore.ZeroCoef>
-5.4800

> <Gold.Chemscore.Hbond>
2.3194

> <Gold.Chemscore.Metal>
0.0000

> <Gold.Chemscore.Lipo>
155.9860

> <Gold.Chemscore.Internal_Hbond>
0.0000

> <Gold.Chemscore.DEClash>
1.9560

> <Gold.Chemscore.DEInternal>
0.5590

> <Gold.Chemscore.Rot>
3.0476

> <Gold.Chemscore.Internal.Correction>
   9.000000E+99

> <Gold.Chemscore.Hbonds>
donor molecule, donor type, donor heavy atom, donor atom, acceptor molecule, acceptor atom, score
      L1  H    16    41       P1  7949  0.48
      L1  H    17    47       P1  7948  0.92
      P1  H 10752 10764       L1    16  0.26

> <Gold.Chemscore.Hbond.Weighted>
-7.7468

> <Gold.Chemscore.Metal.Weighted>
-0.0000

> <Gold.Chemscore.Lipo.Weighted>
-18.2504

> <Gold.Chemscore.Internal_Hbond.Weighted>
0.0000

> <Gold.Chemscore.DEClash.Weighted>
1.9560

> <Gold.Chemscore.DEInternal.Weighted>
0.5590

> <Gold.Chemscore.Rot.Weighted>
7.8018

> <Gold.Chemscore.Internal.Correction.Weighted>
   9.000000E+99

> <Gold.Protein.RotatedTorsions>
[ 6907 6896 6895 6894 ] final   94.42 input  -60.11 | X-H torsion
[ 7974 7965 7964 7962 ] final  162.21 input  175.53 | X-H torsion
[ 8008 7997 7996 7995 ] final   -1.73 input   59.86 | X-H torsion
[ 10167 10162 10161 10158 ] final  123.20 input  -65.29 | X-H torsion
[ 10718 10713 10712 10709 ] final -177.53 input   66.30 | X-H torsion
[ 10763 10752 10751 10750 ] final  -57.37 input  -60.55 | X-H torsion
[ 11005 11000 10999 10996 ] final    9.30 input  -57.11 | X-H torsion

> <Gold.Protein.ActiveResidues>
 VAL166  LYS551  ARG553  GLY616  TRP617  ASP618  TYR619  PRO620  LYS621  CYS622 
 ASP623  PHE694  ASN695  SER759  ASP760  ASP761  ALA762  ILE779  LEU786  VAL792 
 PHE793  MET794  SER795  GLU796  ALA797  LYS798  CYS799  TRP800  GLU811  SER814 

> <Gold.Protein.RotatedAtoms>
  152.5449  134.1197  159.8393 H   0  0  0  0  0  0  0  0  0  0  0  0  # atno 6907 bound_to 6896
  151.1254  133.5067  159.2608 H   0  0  0  0  0  0  0  0  0  0  0  0  # atno 6908 bound_to 6896
  151.1733  135.0338  159.8816 H   0  0  0  0  0  0  0  0  0  0  0  0  # atno 6909 bound_to 6896
  144.7648  139.8007  143.6319 H   0  0  0  0  0  0  0  0  0  0  0  0  # atno 7974 bound_to 7965
  154.6436  140.2552  155.7294 H   0  0  0  0  0  0  0  0  0  0  0  0  # atno 8008 bound_to 7997
  156.2541  140.2882  156.0760 H   0  0  0  0  0  0  0  0  0  0  0  0  # atno 8009 bound_to 7997
  155.1559  140.0383  157.2822 H   0  0  0  0  0  0  0  0  0  0  0  0  # atno 8010 bound_to 7997
  139.5813  144.6987  151.3520 H   0  0  0  0  0  0  0  0  0  0  0  0  # atno 10167 bound_to 10162
  156.8308  130.9652  151.3106 H   0  0  0  0  0  0  0  0  0  0  0  0  # atno 10718 bound_to 10713
  154.2213  135.6377  153.5145 H   0  0  0  0  0  0  0  0  0  0  0  0  # atno 10763 bound_to 10752
  152.9968  135.5497  154.6111 H   0  0  0  0  0  0  0  0  0  0  0  0  # atno 10764 bound_to 10752
  154.5572  135.2906  155.0927 H   0  0  0  0  0  0  0  0  0  0  0  0  # atno 10765 bound_to 10752
  140.5273  134.0501  155.7862 H   0  0  0  0  0  0  0  0  0  0  0  0  # atno 11005 bound_to 11000
  146.1745  139.4909  142.9906 LP  0  0  0  0  0  0  0  0  0  0  0  0  # atno 17320 bound_to 7965
  145.6505  141.0264  143.1762 LP  0  0  0  0  0  0  0  0  0  0  0  0  # atno 17321 bound_to 7965
  140.7091  143.7437  150.7535 LP  0  0  0  0  0  0  0  0  0  0  0  0  # atno 17342 bound_to 10162
  140.0970  143.4823  152.2447 LP  0  0  0  0  0  0  0  0  0  0  0  0  # atno 17343 bound_to 10162
  157.6408  130.8804  149.9444 LP  0  0  0  0  0  0  0  0  0  0  0  0  # atno 17370 bound_to 10713
  156.0935  130.3661  150.0350 LP  0  0  0  0  0  0  0  0  0  0  0  0  # atno 17371 bound_to 10713
  141.1301  133.9316  157.2553 LP  0  0  0  0  0  0  0  0  0  0  0  0  # atno 17394 bound_to 11000
  139.9573  135.0162  156.9164 LP  0  0  0  0  0  0  0  0  0  0  0  0  # atno 17395 bound_to 11000

$$$$
