AV-unprocessed.smi:3131|AV-procd|sdf|11927|dock4
  -GOLD-   2272017313D 1   1.00000     0.00000
 Structure written by MMmdl.
 43 43  0  0  0  0  0  0  0  0  2 V2000
  144.3199  144.6396  154.3159 C   0  0  0  0  0  0  0  0  0  0  0  0
  144.7149  143.7005  155.4656 C   0  0  0  0  0  0  0  0  0  0  0  0
  146.2061  143.2873  155.4698 C   0  0  0  0  0  0  0  0  0  0  0  0
  146.5070  142.2676  154.3442 C   0  0  0  0  0  0  0  0  0  0  0  0
  147.9939  142.1495  153.9772 C   0  0  0  0  0  0  0  0  0  0  0  0
  146.6231  142.7198  156.8453 C   0  0  0  0  0  0  0  0  0  0  0  0
  148.0246  143.0506  157.1722 N   0  3  0  0  0  0  0  0  0  0  0  0
  148.8360  141.8952  157.6107 C   0  0  0  0  0  0  0  0  0  0  0  0
  150.3089  142.0241  157.1659 C   0  0  1  0  0  0  0  0  0  0  0  0
  150.9623  140.6352  157.0573 C   0  0  0  0  0  0  0  0  0  0  0  0
  150.3076  142.5554  155.8539 O   0  0  0  0  0  0  0  0  0  0  0  0
  151.0918  142.8941  158.1267 C   0  0  0  0  0  0  0  0  0  0  0  0
  152.2774  142.5699  158.8506 C   0  0  0  0  0  0  0  0  0  0  0  0
  152.7186  143.5688  159.5967 N   0  0  0  0  0  0  0  0  0  0  0  0
  151.8326  144.5621  159.3855 N   0  0  0  0  0  0  0  0  0  0  0  0
  152.0076  145.8301  160.0607 C   0  0  0  0  0  0  0  0  0  0  0  0
  150.8419  144.1848  158.5057 C   0  0  0  0  0  0  0  0  0  0  0  0
  143.2431  144.8111  154.3159 H   0  0  0  0  0  0  0  0  0  0  0  0
  144.5841  144.2117  153.3486 H   0  0  0  0  0  0  0  0  0  0  0  0
  144.7993  145.6145  154.3970 H   0  0  0  0  0  0  0  0  0  0  0  0
  144.4535  144.1591  156.4200 H   0  0  0  0  0  0  0  0  0  0  0  0
  144.0863  142.8153  155.3809 H   0  0  0  0  0  0  0  0  0  0  0  0
  146.8019  144.1819  155.2810 H   0  0  0  0  0  0  0  0  0  0  0  0
  146.1744  141.2747  154.6469 H   0  0  0  0  0  0  0  0  0  0  0  0
  145.9279  142.5150  153.4537 H   0  0  0  0  0  0  0  0  0  0  0  0
  148.1462  141.3513  153.2502 H   0  0  0  0  0  0  0  0  0  0  0  0
  148.5995  141.9159  154.8532 H   0  0  0  0  0  0  0  0  0  0  0  0
  148.3823  143.0656  153.5338 H   0  0  0  0  0  0  0  0  0  0  0  0
  146.0002  143.1320  157.6377 H   0  0  0  0  0  0  0  0  0  0  0  0
  146.4859  141.6378  156.8654 H   0  0  0  0  0  0  0  0  0  0  0  0
  148.4611  143.4519  156.3544 H   0  0  0  0  0  0  0  0  0  0  0  0
  148.7830  141.8294  158.6985 H   0  0  0  0  0  0  0  0  0  0  0  0
  148.3977  140.9760  157.2186 H   0  0  0  0  0  0  0  0  0  0  0  0
  150.9781  140.1259  158.0214 H   0  0  0  0  0  0  0  0  0  0  0  0
  151.9935  140.7082  156.7086 H   0  0  0  0  0  0  0  0  0  0  0  0
  150.4237  139.9929  156.3594 H   0  0  0  0  0  0  0  0  0  0  0  0
  149.9059  143.4109  155.8728 H   0  0  0  0  0  0  0  0  0  0  0  0
  152.8323  141.6432  158.8509 H   0  0  0  0  0  0  0  0  0  0  0  0
  151.2642  146.5468  159.7099 H   0  0  0  0  0  0  0  0  0  0  0  0
  153.0036  146.2245  159.8562 H   0  0  0  0  0  0  0  0  0  0  0  0
  151.8892  145.6942  161.1362 H   0  0  0  0  0  0  0  0  0  0  0  0
  150.0483  144.8602  158.2217 H   0  0  0  0  0  0  0  0  0  0  0  0
  148.0304  143.7414  157.9092 H   0  0  0  0  0  0  0  0  0  0  0  0
  1  2  1  0  0  0  0
  1 18  1  0  0  0  0
  1 19  1  0  0  0  0
  1 20  1  0  0  0  0
  2  3  1  0  0  0  0
  2 21  1  0  0  0  0
  2 22  1  0  0  0  0
  3  4  1  0  0  0  0
  3  6  1  0  0  0  0
  3 23  1  0  0  0  0
  4  5  1  0  0  0  0
  4 24  1  0  0  0  0
  4 25  1  0  0  0  0
  5 26  1  0  0  0  0
  5 27  1  0  0  0  0
  5 28  1  0  0  0  0
  6  7  1  0  0  0  0
  6 29  1  0  0  0  0
  6 30  1  0  0  0  0
  7  8  1  0  0  0  0
  7 31  1  0  0  0  0
  7 43  1  0  0  0  0
  8  9  1  0  0  0  0
  8 32  1  0  0  0  0
  8 33  1  0  0  0  0
  9 10  1  0  0  0  0
  9 11  1  0  0  0  0
  9 12  1  0  0  0  0
 10 34  1  0  0  0  0
 10 35  1  0  0  0  0
 10 36  1  0  0  0  0
 11 37  1  0  0  0  0
 12 17  2  0  0  0  0
 12 13  1  0  0  0  0
 13 14  2  0  0  0  0
 13 38  1  0  0  0  0
 14 15  1  0  0  0  0
 15 16  1  0  0  0  0
 15 17  1  0  0  0  0
 16 39  1  0  0  0  0
 16 40  1  0  0  0  0
 16 41  1  0  0  0  0
 17 42  1  0  0  0  0
M  CHG  1   7   1
M  END
> <s_m_source_file>
AV-unprocessed.smi

> <i_m_source_file_index>
3131

> <i_lp_mmshare_version>
43012

> <i_f3d_flags>
0

> <s_epik_input>
W0NIM11bQ0gyXVtDSF0oW0NIMl1bQ0gzXSlbQ0gyXVtOSF1bQ0gyXVtDQEBdKFtDSDNdKShbT0hdKWMxW2NIXW5uKFtDSDNdKVtjSF0x

> <s_epik_cmdline>
J2VwaWtfcHl0aG9uJywgJy1waCcsICc3LjAnLCAnLXRuJywgJzgnLCAnLW1hJywgJzIwMCcsICctbWV0YWxfYmluZGluZycsICctaW1hZScsICc8aW5maWxlLm1hZT4nLCAnLW9tYWUnLCAnPG91dGZpbGUubWFlPic=

> <r_lp_tautomer_probability>
1

> <r_epik_Ionization_Penalty>
0.00304809

> <r_epik_Ionization_Penalty_Charging>
0.00302982

> <r_epik_Ionization_Penalty_Neutral>
1.82731e-05

> <r_epik_State_Penalty>
0.00212874

> <r_epik_Charging_Adjusted_Penalty>
0.00515857

> <i_epik_Tot_Q>
1

> <i_epik_Tot_abs_Q>
1

> <r_epik_Metal_State_Penalty>
-0

> <b_epik_Metal_Only>
0

> <s_lp_Force_Field>
OPLS_2005

> <r_lp_Energy>
10.206

> <b_lp_Chiralities_Consistent>
1

> <s_lp_Variant>
AV-unprocessed.smi:3131-1

> <Gold.Version>
5.8.1

> <Gold.Id.Protein>
6NUR|6NUR_protein|mol2

> <Gold.PLP.Fitness>
44.9411

> <Gold.PLP.PLP>
-35.6327

> <Gold.PLP.part.hbond>
-2.8746

> <Gold.PLP.part.metal>
0.0000

> <Gold.PLP.part.buried>
-4.4109

> <Gold.PLP.part.nonpolar>
-28.6576

> <Gold.PLP.part.repulsive>
0.0346

> <Gold.PLP.ligand.clash>
0.0000

> <Gold.PLP.ligand.torsion>
1.6035

> <Gold.PLP.Chemscore.Hbond>
3.0000

> <Gold.PLP.Chemscore.CHOScore>
1.0689

> <Gold.PLP.Chemscore.Metal>
0.0000

> <Gold.Chemscore.Hbonds>
donor molecule, donor type, donor heavy atom, donor atom, acceptor molecule, acceptor atom, score
      L1  H     7    31       P1  8028  1.63
      L1  H     7    43       P1  8029  0.13
      L1  H    11    37       P1  8028  1.00
      L1  C    17    42       P1  8028  0.14
      L1  C    17    42       P1  8029  0.77

> <Gold.PLP.Chemscore.Internal.Correction>
0.3087

> <Gold.Rescore>
     Score         DG    S(hbond)    S(metal)    S(lipo)     H(rot)  DE(clash)    DE(int)     intcor
     11.82     -13.65       1.42        0.00      80.60       2.34       0.12       1.71       ----

> <Gold.Chemscore.Fitness>
11.8195

> <Gold.Chemscore.DG>
-13.6503

> <Gold.Chemscore.ZeroCoef>
-5.4800

> <Gold.Chemscore.Hbond>
1.4183

> <Gold.Chemscore.Metal>
0.0000

> <Gold.Chemscore.Lipo>
80.6023

> <Gold.Chemscore.Internal_Hbond>
0.0000

> <Gold.Chemscore.DEClash>
0.1229

> <Gold.Chemscore.DEInternal>
1.7079

> <Gold.Chemscore.Rot>
2.3426

> <Gold.Chemscore.Internal.Correction>
   9.000000E+99

> <Gold.Chemscore.Hbonds>
donor molecule, donor type, donor heavy atom, donor atom, acceptor molecule, acceptor atom, score
      L1  H     7    31       P1  8028  0.46
      L1  H    11    37       P1  8028  1.00

> <Gold.Chemscore.Hbond.Weighted>
-4.7370

> <Gold.Chemscore.Metal.Weighted>
-0.0000

> <Gold.Chemscore.Lipo.Weighted>
-9.4305

> <Gold.Chemscore.Internal_Hbond.Weighted>
0.0000

> <Gold.Chemscore.DEClash.Weighted>
0.1229

> <Gold.Chemscore.DEInternal.Weighted>
1.7079

> <Gold.Chemscore.Rot.Weighted>
5.9972

> <Gold.Chemscore.Internal.Correction.Weighted>
   9.000000E+99

> <Gold.Protein.RotatedTorsions>
[ 6907 6896 6895 6894 ] final  138.08 input  -60.11 | X-H torsion
[ 7974 7965 7964 7962 ] final   33.35 input  175.53 | X-H torsion
[ 8008 7997 7996 7995 ] final  -64.88 input   59.86 | X-H torsion
[ 10167 10162 10161 10158 ] final  158.04 input  -65.29 | X-H torsion
[ 10718 10713 10712 10709 ] final -108.60 input   66.30 | X-H torsion
[ 10763 10752 10751 10750 ] final -146.47 input  -60.55 | X-H torsion
[ 11005 11000 10999 10996 ] final   99.57 input  -57.11 | X-H torsion

> <Gold.Protein.ActiveResidues>
 VAL166  LYS551  ARG553  GLY616  TRP617  ASP618  TYR619  PRO620  LYS621  CYS622 
 ASP623  PHE694  ASN695  SER759  ASP760  ASP761  ALA762  ILE779  LEU786  VAL792 
 PHE793  MET794  SER795  GLU796  ALA797  LYS798  CYS799  TRP800  GLU811  SER814 

> <Gold.Protein.RotatedAtoms>
  152.2707  133.5380  159.5437 H   0  0  0  0  0  0  0  0  0  0  0  0  # atno 6907 bound_to 6896
  150.7158  134.0702  159.3870 H   0  0  0  0  0  0  0  0  0  0  0  0  # atno 6908 bound_to 6896
  151.8616  135.0522  160.0521 H   0  0  0  0  0  0  0  0  0  0  0  0  # atno 6909 bound_to 6896
  146.1426  139.6408  142.9153 H   0  0  0  0  0  0  0  0  0  0  0  0  # atno 7974 bound_to 7965
  154.4638  140.0944  156.6965 H   0  0  0  0  0  0  0  0  0  0  0  0  # atno 8008 bound_to 7997
  155.4917  140.3471  155.4338 H   0  0  0  0  0  0  0  0  0  0  0  0  # atno 8009 bound_to 7997
  156.0919  140.1399  156.9570 H   0  0  0  0  0  0  0  0  0  0  0  0  # atno 8010 bound_to 7997
  139.4825  144.4861  151.8375 H   0  0  0  0  0  0  0  0  0  0  0  0  # atno 10167 bound_to 10162
  156.0494  130.5721  150.7984 H   0  0  0  0  0  0  0  0  0  0  0  0  # atno 10718 bound_to 10713
  154.8334  135.3386  154.6666 H   0  0  0  0  0  0  0  0  0  0  0  0  # atno 10763 bound_to 10752
  153.7283  135.6953  153.5000 H   0  0  0  0  0  0  0  0  0  0  0  0  # atno 10764 bound_to 10752
  153.2330  135.4410  155.0568 H   0  0  0  0  0  0  0  0  0  0  0  0  # atno 10765 bound_to 10752
  139.8771  134.9101  156.4626 H   0  0  0  0  0  0  0  0  0  0  0  0  # atno 11005 bound_to 11000
  145.5011  141.0437  143.2540 LP  0  0  0  0  0  0  0  0  0  0  0  0  # atno 17320 bound_to 7965
  144.7810  139.6527  143.7154 LP  0  0  0  0  0  0  0  0  0  0  0  0  # atno 17321 bound_to 7965
  140.4341  144.2076  150.5889 LP  0  0  0  0  0  0  0  0  0  0  0  0  # atno 17342 bound_to 10162
  140.4750  143.2399  151.9036 LP  0  0  0  0  0  0  0  0  0  0  0  0  # atno 17343 bound_to 10162
  157.5404  131.0940  150.9835 LP  0  0  0  0  0  0  0  0  0  0  0  0  # atno 17370 bound_to 10713
  157.0119  130.5640  149.5322 LP  0  0  0  0  0  0  0  0  0  0  0  0  # atno 17371 bound_to 10713
  140.8853  133.7888  155.9511 LP  0  0  0  0  0  0  0  0  0  0  0  0  # atno 17394 bound_to 11000
  140.8811  134.2610  157.5143 LP  0  0  0  0  0  0  0  0  0  0  0  0  # atno 17395 bound_to 11000

$$$$
