AV-unprocessed.smi:2001|AV-procd|sdf|8109|dock5
  -GOLD-   2272010333D 1   1.00000     0.00000
 Structure written by MMmdl.
 50 51  0  0  0  0  0  0  0  0  3 V2000
  151.8091  144.3211  160.0427 C   0  0  0  0  0  0  0  0  0  0  0  0
  152.4105  143.0896  160.4012 O   0  0  0  0  0  0  0  0  0  0  0  0
  152.4946  142.1887  159.3097 C   0  0  0  0  0  0  0  0  0  0  0  0
  151.1254  141.5223  159.1076 C   0  0  0  0  0  0  0  0  0  0  0  0
  151.0980  140.7076  157.8888 N   0  0  0  0  0  0  0  0  0  0  0  0
  150.0833  141.0432  157.0085 N   0  0  0  0  0  0  0  0  0  0  0  0
  149.9476  140.4061  155.8903 C   0  0  0  0  0  0  0  0  0  0  0  0
  148.8496  140.7684  154.9370 C   0  0  0  0  0  0  0  0  0  0  0  0
  149.1720  141.5559  154.0369 O   0  0  0  0  0  0  0  0  0  0  0  0
  147.6069  140.2267  155.1168 N   0  5  0  0  0  0  0  0  0  0  0  0
  146.7484  139.7074  154.0538 C   0  0  0  0  0  0  0  0  0  0  0  0
  145.6874  138.7673  154.6580 C   0  0  0  0  0  0  0  0  0  0  0  0
  144.8671  138.1026  153.6104 N   0  3  1  0  0  0  0  0  0  0  0  0
  145.6343  137.1095  152.8206 C   0  0  0  0  0  0  0  0  0  0  0  0
  144.7609  136.5260  151.6939 C   0  0  1  0  0  0  0  0  0  0  0  0
  145.4934  135.4378  150.9012 C   0  0  0  0  0  0  0  0  0  0  0  0
  143.5890  135.9501  152.2615 O   0  0  0  0  0  0  0  0  0  0  0  0
  142.7921  136.9032  152.9571 C   0  0  1  0  0  0  0  0  0  0  0  0
  141.5189  136.2017  153.4425 C   0  0  0  0  0  0  0  0  0  0  0  0
  143.6133  137.4884  154.1207 C   0  0  0  0  0  0  0  0  0  0  0  0
  150.8637  139.3269  155.5410 C   0  0  0  0  0  0  0  0  0  0  0  0
  151.8522  139.0155  156.4075 C   0  0  0  0  0  0  0  0  0  0  0  0
  152.0238  139.7257  157.6748 C   0  0  0  0  0  0  0  0  0  0  0  0
  152.9221  139.4664  158.4752 O   0  0  0  0  0  0  0  0  0  0  0  0
  151.7696  144.9765  160.9127 H   0  0  0  0  0  0  0  0  0  0  0  0
  150.7888  144.1725  159.6867 H   0  0  0  0  0  0  0  0  0  0  0  0
  152.3814  144.8283  159.2650 H   0  0  0  0  0  0  0  0  0  0  0  0
  152.7876  142.7244  158.4052 H   0  0  0  0  0  0  0  0  0  0  0  0
  153.2586  141.4356  159.5094 H   0  0  0  0  0  0  0  0  0  0  0  0
  150.8729  140.9144  159.9783 H   0  0  0  0  0  0  0  0  0  0  0  0
  150.3523  142.2914  159.0582 H   0  0  0  0  0  0  0  0  0  0  0  0
  146.2398  140.5006  153.5047 H   0  0  0  0  0  0  0  0  0  0  0  0
  147.3266  139.1572  153.3109 H   0  0  0  0  0  0  0  0  0  0  0  0
  146.2076  138.0097  155.2468 H   0  0  0  0  0  0  0  0  0  0  0  0
  145.0416  139.3010  155.3576 H   0  0  0  0  0  0  0  0  0  0  0  0
  146.5161  137.5855  152.3894 H   0  0  0  0  0  0  0  0  0  0  0  0
  145.9867  136.3148  153.4806 H   0  0  0  0  0  0  0  0  0  0  0  0
  144.4713  137.3210  151.0045 H   0  0  0  0  0  0  0  0  0  0  0  0
  146.3944  135.8336  150.4318 H   0  0  0  0  0  0  0  0  0  0  0  0
  144.8575  135.0353  150.1123 H   0  0  0  0  0  0  0  0  0  0  0  0
  145.7883  134.6095  151.5463 H   0  0  0  0  0  0  0  0  0  0  0  0
  142.5068  137.7024  152.2705 H   0  0  0  0  0  0  0  0  0  0  0  0
  140.8653  136.8967  153.9704 H   0  0  0  0  0  0  0  0  0  0  0  0
  141.7533  135.3811  154.1211 H   0  0  0  0  0  0  0  0  0  0  0  0
  140.9569  135.7908  152.6036 H   0  0  0  0  0  0  0  0  0  0  0  0
  143.8582  136.7055  154.8407 H   0  0  0  0  0  0  0  0  0  0  0  0
  143.0164  138.2315  154.6508 H   0  0  0  0  0  0  0  0  0  0  0  0
  150.7717  138.7798  154.6146 H   0  0  0  0  0  0  0  0  0  0  0  0
  152.5381  138.2192  156.1583 H   0  0  0  0  0  0  0  0  0  0  0  0
  144.6009  138.8315  152.9636 H   0  0  0  0  0  0  0  0  0  0  0  0
  1  2  1  0  0  0  0
  1 25  1  0  0  0  0
  1 26  1  0  0  0  0
  1 27  1  0  0  0  0
  2  3  1  0  0  0  0
  3  4  1  0  0  0  0
  3 28  1  0  0  0  0
  3 29  1  0  0  0  0
  4  5  1  0  0  0  0
  4 30  1  0  0  0  0
  4 31  1  0  0  0  0
  5 23  1  0  0  0  0
  5  6  1  0  0  0  0
  6  7  2  0  0  0  0
  7  8  1  0  0  0  0
  7 21  1  0  0  0  0
  8  9  2  0  0  0  0
  8 10  1  0  0  0  0
 10 11  1  0  0  0  0
 11 12  1  0  0  0  0
 11 32  1  0  0  0  0
 11 33  1  0  0  0  0
 12 13  1  0  0  0  0
 12 34  1  0  0  0  0
 12 35  1  0  0  0  0
 13 20  1  0  0  0  0
 13 14  1  0  0  0  0
 13 50  1  0  0  0  0
 14 15  1  0  0  0  0
 14 36  1  0  0  0  0
 14 37  1  0  0  0  0
 15 16  1  0  0  0  0
 15 17  1  0  0  0  0
 15 38  1  0  0  0  0
 16 39  1  0  0  0  0
 16 40  1  0  0  0  0
 16 41  1  0  0  0  0
 17 18  1  0  0  0  0
 18 19  1  0  0  0  0
 18 20  1  0  0  0  0
 18 42  1  0  0  0  0
 19 43  1  0  0  0  0
 19 44  1  0  0  0  0
 19 45  1  0  0  0  0
 20 46  1  0  0  0  0
 20 47  1  0  0  0  0
 21 22  2  0  0  0  0
 21 48  1  0  0  0  0
 22 23  1  0  0  0  0
 22 49  1  0  0  0  0
 23 24  2  0  0  0  0
M  CHG  1  10  -1
M  CHG  1  13   1
M  END
> <s_m_source_file>
AV-unprocessed.smi

> <i_m_source_file_index>
2001

> <i_lp_mmshare_version>
43012

> <i_f3d_flags>
0

> <s_epik_input>
W0NIM11PW0NIMl1bQ0gyXW4xbmMoW2NIXVtjSF1jMT1PKUMoPU8pW05IXVtDSDJdW0NIMl1OMltDSDJdW0NAQEhdKFtDSDNdKU9bQ0BASF0oW0NIM10pW0NIMl0y

> <s_epik_cmdline>
J2VwaWtfcHl0aG9uJywgJy1waCcsICc3LjAnLCAnLXRuJywgJzgnLCAnLW1hJywgJzIwMCcsICctbWV0YWxfYmluZGluZycsICctaW1hZScsICc8aW5maWxlLm1hZT4nLCAnLW9tYWUnLCAnPG91dGZpbGUubWFlPic=

> <r_lp_tautomer_probability>
1

> <r_epik_Ionization_Penalty>
6.90846

> <r_epik_Ionization_Penalty_Charging>
6.90846

> <r_epik_Ionization_Penalty_Neutral>
1.08445e-11

> <r_epik_State_Penalty>
7.54671

> <r_epik_Charging_Adjusted_Penalty>
14.4552

> <i_epik_Tot_Q>
0

> <i_epik_Tot_abs_Q>
2

> <r_epik_Metal_State_Penalty>
3.46181

> <b_epik_Metal_Only>
1

> <s_lp_Force_Field>
OPLS_2005

> <r_lp_Energy>
40.5373

> <b_lp_Chiralities_Consistent>
1

> <s_lp_Variant>
AV-unprocessed.smi:2001-8

> <Gold.Version>
5.8.1

> <Gold.Id.Protein>
6NUR|6NUR_protein|mol2

> <Gold.PLP.Fitness>
47.1049

> <Gold.PLP.PLP>
-40.3739

> <Gold.PLP.part.hbond>
-3.9147

> <Gold.PLP.part.metal>
0.0000

> <Gold.PLP.part.buried>
-4.9171

> <Gold.PLP.part.nonpolar>
-31.8435

> <Gold.PLP.part.repulsive>
0.5248

> <Gold.PLP.ligand.clash>
0.0000

> <Gold.PLP.ligand.torsion>
2.1823

> <Gold.PLP.Chemscore.Hbond>
3.6400

> <Gold.PLP.Chemscore.CHOScore>
0.0000

> <Gold.PLP.Chemscore.Metal>
0.0000

> <Gold.Chemscore.Hbonds>
donor molecule, donor type, donor heavy atom, donor atom, acceptor molecule, acceptor atom, score
      L1  H    13    50       P1 10175  2.00
      P1  H  7997  8010       L1    24  0.26
      P1  H  8011  8017       L1     9  0.66

> <Gold.PLP.Chemscore.Internal.Correction>
0.1755

> <Gold.Rescore>
     Score         DG    S(hbond)    S(metal)    S(lipo)     H(rot)  DE(clash)    DE(int)     intcor
     14.54     -18.16       2.55        0.00      79.62       2.02       0.02       3.61       ----

> <Gold.Chemscore.Fitness>
14.5375

> <Gold.Chemscore.DG>
-18.1622

> <Gold.Chemscore.ZeroCoef>
-5.4800

> <Gold.Chemscore.Hbond>
2.5545

> <Gold.Chemscore.Metal>
0.0000

> <Gold.Chemscore.Lipo>
79.6247

> <Gold.Chemscore.Internal_Hbond>
0.0000

> <Gold.Chemscore.DEClash>
0.0191

> <Gold.Chemscore.DEInternal>
3.6057

> <Gold.Chemscore.Rot>
2.0179

> <Gold.Chemscore.Internal.Correction>
   9.000000E+99

> <Gold.Chemscore.Hbonds>
donor molecule, donor type, donor heavy atom, donor atom, acceptor molecule, acceptor atom, score
      L1  H    13    50       P1 10175  0.97
      P1  H  7997  8010       L1    24  0.03
      P1  H  8011  8017       L1     9  0.63

> <Gold.Chemscore.Hbond.Weighted>
-8.5320

> <Gold.Chemscore.Metal.Weighted>
-0.0000

> <Gold.Chemscore.Lipo.Weighted>
-9.3161

> <Gold.Chemscore.Internal_Hbond.Weighted>
0.0000

> <Gold.Chemscore.DEClash.Weighted>
0.0191

> <Gold.Chemscore.DEInternal.Weighted>
3.6057

> <Gold.Chemscore.Rot.Weighted>
5.1659

> <Gold.Chemscore.Internal.Correction.Weighted>
   9.000000E+99

> <Gold.Protein.RotatedTorsions>
[ 6907 6896 6895 6894 ] final   -3.58 input  -60.11 | X-H torsion
[ 7974 7965 7964 7962 ] final  123.47 input  175.53 | X-H torsion
[ 8008 7997 7996 7995 ] final   33.77 input   59.86 | X-H torsion
[ 10167 10162 10161 10158 ] final -174.18 input  -65.29 | X-H torsion
[ 10718 10713 10712 10709 ] final -156.20 input   66.30 | X-H torsion
[ 10763 10752 10751 10750 ] final -152.51 input  -60.55 | X-H torsion
[ 11005 11000 10999 10996 ] final  138.06 input  -57.11 | X-H torsion

> <Gold.Protein.ActiveResidues>
 VAL166  LYS551  ARG553  GLY616  TRP617  ASP618  TYR619  PRO620  LYS621  CYS622 
 ASP623  PHE694  ASN695  SER759  ASP760  ASP761  ALA762  ILE779  LEU786  VAL792 
 PHE793  MET794  SER795  GLU796  ALA797  LYS798  CYS799  TRP800  GLU811  SER814 

> <Gold.Protein.RotatedAtoms>
  151.5116  135.1065  159.9854 H   0  0  0  0  0  0  0  0  0  0  0  0  # atno 6907 bound_to 6896
  152.4659  133.7918  159.6917 H   0  0  0  0  0  0  0  0  0  0  0  0  # atno 6908 bound_to 6896
  150.8643  133.7534  159.3007 H   0  0  0  0  0  0  0  0  0  0  0  0  # atno 6909 bound_to 6896
  145.0955  139.3556  143.4838 H   0  0  0  0  0  0  0  0  0  0  0  0  # atno 7974 bound_to 7965
  155.1440  140.3268  155.4446 H   0  0  0  0  0  0  0  0  0  0  0  0  # atno 8008 bound_to 7997
  156.2596  140.1988  156.6504 H   0  0  0  0  0  0  0  0  0  0  0  0  # atno 8009 bound_to 7997
  154.6522  140.0557  156.9955 H   0  0  0  0  0  0  0  0  0  0  0  0  # atno 8010 bound_to 7997
  139.5648  144.1783  152.1295 H   0  0  0  0  0  0  0  0  0  0  0  0  # atno 10167 bound_to 10162
  156.5233  130.8488  151.2690 H   0  0  0  0  0  0  0  0  0  0  0  0  # atno 10718 bound_to 10713
  154.7989  135.3234  154.7599 H   0  0  0  0  0  0  0  0  0  0  0  0  # atno 10763 bound_to 10752
  153.8271  135.6882  153.4823 H   0  0  0  0  0  0  0  0  0  0  0  0  # atno 10764 bound_to 10752
  153.1695  135.4629  154.9826 H   0  0  0  0  0  0  0  0  0  0  0  0  # atno 10765 bound_to 10752
  140.0157  134.9419  157.0371 H   0  0  0  0  0  0  0  0  0  0  0  0  # atno 11005 bound_to 11000
  146.3531  140.0809  142.8618 LP  0  0  0  0  0  0  0  0  0  0  0  0  # atno 17320 bound_to 7965
  145.1016  140.9349  143.4709 LP  0  0  0  0  0  0  0  0  0  0  0  0  # atno 17321 bound_to 7965
  140.1303  144.5294  150.6806 LP  0  0  0  0  0  0  0  0  0  0  0  0  # atno 17342 bound_to 10162
  140.6930  143.2387  151.5078 LP  0  0  0  0  0  0  0  0  0  0  0  0  # atno 17343 bound_to 10162
  157.7433  130.9910  150.2584 LP  0  0  0  0  0  0  0  0  0  0  0  0  # atno 17370 bound_to 10713
  156.3128  130.3774  149.7645 LP  0  0  0  0  0  0  0  0  0  0  0  0  # atno 17371 bound_to 10713
  140.4475  134.1617  155.7178 LP  0  0  0  0  0  0  0  0  0  0  0  0  # atno 17394 bound_to 11000
  141.1741  133.8549  157.1477 LP  0  0  0  0  0  0  0  0  0  0  0  0  # atno 17395 bound_to 11000

$$$$
