AV-unprocessed.smi:552|AV-procd|sdf|2902|dock2
  -GOLD-   2262023393D 1   1.00000     0.00000
 Structure written by MMmdl.
 42 43  0  0  0  0  0  0  0  0  1 V2000
  146.7106  133.4980  152.5789 C   0  0  0  0  0  0  0  0  0  0  0  0
  148.0210  132.8269  153.0156 C   0  0  0  0  0  0  0  0  0  0  0  0
  148.5969  133.3900  154.3286 C   0  0  2  0  0  0  0  0  0  0  0  0
  147.6283  133.1869  155.5043 C   0  0  0  0  0  0  0  0  0  0  0  0
  148.9050  134.8108  154.1771 N   0  0  0  0  0  0  0  0  0  0  0  0
  149.3734  135.6129  155.1439 C   0  0  0  0  0  0  0  0  0  0  0  0
  149.5960  135.2351  156.2941 O   0  0  0  0  0  0  0  0  0  0  0  0
  149.5402  136.8684  154.6940 N   0  0  0  0  0  0  0  0  0  0  0  0
  150.0245  137.9996  155.4040 C   0  0  0  0  0  0  0  0  0  0  0  0
  150.0773  138.0892  156.8139 C   0  0  0  0  0  0  0  0  0  0  0  0
  150.5968  139.2572  157.4040 C   0  0  0  0  0  0  0  0  0  0  0  0
  151.0560  140.3086  156.5755 C   0  0  0  0  0  0  0  0  0  0  0  0
  151.5741  141.4921  157.1466 N   0  0  0  0  0  0  0  0  0  0  0  0
  150.9163  142.7565  156.8195 C   0  0  0  0  0  0  0  0  0  0  0  0
  151.7744  143.9454  157.2841 C   0  0  0  0  0  0  0  0  0  0  0  0
  152.0586  143.8177  158.6730 O   0  0  0  0  0  0  0  0  0  0  0  0
  152.7991  142.6349  158.9539 C   0  0  0  0  0  0  0  0  0  0  0  0
  151.9807  141.3973  158.5469 C   0  0  0  0  0  0  0  0  0  0  0  0
  151.0234  140.2080  155.2236 N   0  0  0  0  0  0  0  0  0  0  0  0
  150.5263  139.0865  154.6618 C   0  0  0  0  0  0  0  0  0  0  0  0
  146.3694  133.0943  151.6254 H   0  0  0  0  0  0  0  0  0  0  0  0
  146.8431  134.5731  152.4549 H   0  0  0  0  0  0  0  0  0  0  0  0
  145.9148  133.3397  153.3070 H   0  0  0  0  0  0  0  0  0  0  0  0
  147.8617  131.7522  153.1119 H   0  0  0  0  0  0  0  0  0  0  0  0
  148.7559  132.9531  152.2197 H   0  0  0  0  0  0  0  0  0  0  0  0
  149.5165  132.8442  154.5483 H   0  0  0  0  0  0  0  0  0  0  0  0
  147.3999  132.1301  155.6459 H   0  0  0  0  0  0  0  0  0  0  0  0
  146.6867  133.7113  155.3387 H   0  0  0  0  0  0  0  0  0  0  0  0
  148.0555  133.5560  156.4374 H   0  0  0  0  0  0  0  0  0  0  0  0
  148.7489  135.2116  153.2638 H   0  0  0  0  0  0  0  0  0  0  0  0
  149.2266  137.0493  153.7517 H   0  0  0  0  0  0  0  0  0  0  0  0
  149.7482  137.2831  157.4511 H   0  0  0  0  0  0  0  0  0  0  0  0
  150.6527  139.3223  158.4802 H   0  0  0  0  0  0  0  0  0  0  0  0
  150.7518  142.8310  155.7438 H   0  0  0  0  0  0  0  0  0  0  0  0
  149.9390  142.7900  157.3030 H   0  0  0  0  0  0  0  0  0  0  0  0
  152.7037  144.0009  156.7147 H   0  0  0  0  0  0  0  0  0  0  0  0
  151.2414  144.8812  157.1152 H   0  0  0  0  0  0  0  0  0  0  0  0
  153.7555  142.6582  158.4289 H   0  0  0  0  0  0  0  0  0  0  0  0
  153.0229  142.6022  160.0203 H   0  0  0  0  0  0  0  0  0  0  0  0
  151.0866  141.3214  159.1672 H   0  0  0  0  0  0  0  0  0  0  0  0
  152.5747  140.5050  158.7382 H   0  0  0  0  0  0  0  0  0  0  0  0
  150.5248  139.0609  153.5819 H   0  0  0  0  0  0  0  0  0  0  0  0
  1  2  1  0  0  0  0
  1 21  1  0  0  0  0
  1 22  1  0  0  0  0
  1 23  1  0  0  0  0
  2  3  1  0  0  0  0
  2 24  1  0  0  0  0
  2 25  1  0  0  0  0
  3  4  1  0  0  0  0
  3  5  1  0  0  0  0
  3 26  1  0  0  0  0
  4 27  1  0  0  0  0
  4 28  1  0  0  0  0
  4 29  1  0  0  0  0
  5  6  1  0  0  0  0
  5 30  1  0  0  0  0
  6  7  2  0  0  0  0
  6  8  1  0  0  0  0
  8  9  1  0  0  0  0
  8 31  1  0  0  0  0
  9 20  1  0  0  0  0
  9 10  2  0  0  0  0
 10 11  1  0  0  0  0
 10 32  1  0  0  0  0
 11 12  2  0  0  0  0
 11 33  1  0  0  0  0
 12 13  1  0  0  0  0
 12 19  1  0  0  0  0
 13 18  1  0  0  0  0
 13 14  1  0  0  0  0
 14 15  1  0  0  0  0
 14 34  1  0  0  0  0
 14 35  1  0  0  0  0
 15 16  1  0  0  0  0
 15 36  1  0  0  0  0
 15 37  1  0  0  0  0
 16 17  1  0  0  0  0
 17 18  1  0  0  0  0
 17 38  1  0  0  0  0
 17 39  1  0  0  0  0
 18 40  1  0  0  0  0
 18 41  1  0  0  0  0
 19 20  2  0  0  0  0
 20 42  1  0  0  0  0
M  END
> <s_m_source_file>
AV-unprocessed.smi

> <i_m_source_file_index>
552

> <i_lp_mmshare_version>
43012

> <i_f3d_flags>
0

> <s_epik_input>
W0NIM11bQ0gyXVtDQEhdKFtDSDNdKVtOSF1DKD1PKVtOSF1jMVtjSF1bY0hdYyhuW2NIXTEpTjJbQ0gyXVtDSDJdT1tDSDJdW0NIMl0y

> <s_epik_cmdline>
J2VwaWtfcHl0aG9uJywgJy1waCcsICc3LjAnLCAnLXRuJywgJzgnLCAnLW1hJywgJzIwMCcsICctbWV0YWxfYmluZGluZycsICctaW1hZScsICc8aW5maWxlLm1hZT4nLCAnLW9tYWUnLCAnPG91dGZpbGUubWFlPic=

> <r_lp_tautomer_probability>
1

> <r_epik_Ionization_Penalty>
0.00215965

> <r_epik_Ionization_Penalty_Charging>
0

> <r_epik_Ionization_Penalty_Neutral>
0.00215965

> <r_epik_State_Penalty>
0.00145276

> <r_epik_Charging_Adjusted_Penalty>
0.00145276

> <i_epik_Tot_Q>
0

> <i_epik_Tot_abs_Q>
0

> <r_epik_Metal_State_Penalty>
-0

> <b_epik_Metal_Only>
0

> <s_lp_Force_Field>
OPLS_2005

> <r_lp_Energy>
20.9108

> <b_lp_Chiralities_Consistent>
1

> <s_lp_Variant>
AV-unprocessed.smi:552-1

> <Gold.Version>
5.8.1

> <Gold.Id.Protein>
6NUR|6NUR_protein|mol2

> <Gold.PLP.Fitness>
39.7612

> <Gold.PLP.PLP>
-31.2533

> <Gold.PLP.part.hbond>
-3.0000

> <Gold.PLP.part.metal>
0.0000

> <Gold.PLP.part.buried>
-2.0752

> <Gold.PLP.part.nonpolar>
-25.9708

> <Gold.PLP.part.repulsive>
0.1647

> <Gold.PLP.ligand.clash>
0.0000

> <Gold.PLP.ligand.torsion>
0.3552

> <Gold.PLP.Chemscore.Hbond>
2.4699

> <Gold.PLP.Chemscore.CHOScore>
0.4844

> <Gold.PLP.Chemscore.Metal>
0.0000

> <Gold.Chemscore.Hbonds>
donor molecule, donor type, donor heavy atom, donor atom, acceptor molecule, acceptor atom, score
      L1  H     5    30       P1  7948  1.00
      L1  H     8    31       P1  7948  0.83
      P1  H  7989  7998       L1    19  0.60
      L1  C    20    42       P1  7957  0.44

> <Gold.PLP.Chemscore.Internal.Correction>
0.3552

> <Gold.Rescore>
     Score         DG    S(hbond)    S(metal)    S(lipo)     H(rot)  DE(clash)    DE(int)     intcor
     12.82     -16.08       1.54        0.00      76.21       1.35       0.53       2.72       ----

> <Gold.Chemscore.Fitness>
12.8233

> <Gold.Chemscore.DG>
-16.0800

> <Gold.Chemscore.ZeroCoef>
-5.4800

> <Gold.Chemscore.Hbond>
1.5412

> <Gold.Chemscore.Metal>
0.0000

> <Gold.Chemscore.Lipo>
76.2061

> <Gold.Chemscore.Internal_Hbond>
0.0000

> <Gold.Chemscore.DEClash>
0.5332

> <Gold.Chemscore.DEInternal>
2.7236

> <Gold.Chemscore.Rot>
1.3530

> <Gold.Chemscore.Internal.Correction>
   9.000000E+99

> <Gold.Chemscore.Hbonds>
donor molecule, donor type, donor heavy atom, donor atom, acceptor molecule, acceptor atom, score
      L1  H     5    30       P1  7948  0.70
      L1  H     8    31       P1  7948  0.77
      P1  H  7989  7998       L1    19  0.04

> <Gold.Chemscore.Hbond.Weighted>
-5.1477

> <Gold.Chemscore.Metal.Weighted>
-0.0000

> <Gold.Chemscore.Lipo.Weighted>
-8.9161

> <Gold.Chemscore.Internal_Hbond.Weighted>
0.0000

> <Gold.Chemscore.DEClash.Weighted>
0.5332

> <Gold.Chemscore.DEInternal.Weighted>
2.7236

> <Gold.Chemscore.Rot.Weighted>
3.4638

> <Gold.Chemscore.Internal.Correction.Weighted>
   9.000000E+99

> <Gold.Protein.RotatedTorsions>
[ 6907 6896 6895 6894 ] final    5.32 input  -60.11 | X-H torsion
[ 7974 7965 7964 7962 ] final -122.50 input  175.53 | X-H torsion
[ 8008 7997 7996 7995 ] final  143.60 input   59.86 | X-H torsion
[ 10167 10162 10161 10158 ] final   56.91 input  -65.29 | X-H torsion
[ 10718 10713 10712 10709 ] final -130.36 input   66.30 | X-H torsion
[ 10763 10752 10751 10750 ] final  165.11 input  -60.55 | X-H torsion
[ 11005 11000 10999 10996 ] final -102.75 input  -57.11 | X-H torsion

> <Gold.Protein.ActiveResidues>
 VAL166  LYS551  ARG553  GLY616  TRP617  ASP618  TYR619  PRO620  LYS621  CYS622 
 ASP623  PHE694  ASN695  SER759  ASP760  ASP761  ALA762  ILE779  LEU786  VAL792 
 PHE793  MET794  SER795  GLU796  ALA797  LYS798  CYS799  TRP800  GLU811  SER814 

> <Gold.Protein.RotatedAtoms>
  151.6556  135.0996  160.0169 H   0  0  0  0  0  0  0  0  0  0  0  0  # atno 6907 bound_to 6896
  152.3976  133.6765  159.6297 H   0  0  0  0  0  0  0  0  0  0  0  0  # atno 6908 bound_to 6896
  150.7880  133.8764  159.3314 H   0  0  0  0  0  0  0  0  0  0  0  0  # atno 6909 bound_to 6896
  145.0288  140.8050  143.4336 H   0  0  0  0  0  0  0  0  0  0  0  0  # atno 7974 bound_to 7965
  156.2927  140.2258  156.4917 H   0  0  0  0  0  0  0  0  0  0  0  0  # atno 8008 bound_to 7997
  154.7766  140.0463  157.1115 H   0  0  0  0  0  0  0  0  0  0  0  0  # atno 8009 bound_to 7997
  154.9810  140.3078  155.4950 H   0  0  0  0  0  0  0  0  0  0  0  0  # atno 8010 bound_to 7997
  140.2037  144.3961  150.6518 H   0  0  0  0  0  0  0  0  0  0  0  0  # atno 10167 bound_to 10162
  156.2137  130.6934  151.0678 H   0  0  0  0  0  0  0  0  0  0  0  0  # atno 10718 bound_to 10713
  154.3191  135.2756  155.2528 H   0  0  0  0  0  0  0  0  0  0  0  0  # atno 10763 bound_to 10752
  154.4890  135.5838  153.6448 H   0  0  0  0  0  0  0  0  0  0  0  0  # atno 10764 bound_to 10752
  152.9879  135.6130  154.3374 H   0  0  0  0  0  0  0  0  0  0  0  0  # atno 10765 bound_to 10752
  141.1176  133.8583  157.1399 H   0  0  0  0  0  0  0  0  0  0  0  0  # atno 11005 bound_to 11000
  145.1798  139.2358  143.5298 LP  0  0  0  0  0  0  0  0  0  0  0  0  # atno 17320 bound_to 7965
  146.3496  140.1569  142.8591 LP  0  0  0  0  0  0  0  0  0  0  0  0  # atno 17321 bound_to 7965
  140.6372  143.2197  151.6368 LP  0  0  0  0  0  0  0  0  0  0  0  0  # atno 17342 bound_to 10162
  139.5207  144.3215  152.0906 LP  0  0  0  0  0  0  0  0  0  0  0  0  # atno 17343 bound_to 10162
  157.7052  131.0759  150.6691 LP  0  0  0  0  0  0  0  0  0  0  0  0  # atno 17370 bound_to 10713
  156.6751  130.4551  149.5645 LP  0  0  0  0  0  0  0  0  0  0  0  0  # atno 17371 bound_to 10713
  140.0109  134.9988  157.0392 LP  0  0  0  0  0  0  0  0  0  0  0  0  # atno 17394 bound_to 11000
  140.4602  134.1492  155.7190 LP  0  0  0  0  0  0  0  0  0  0  0  0  # atno 17395 bound_to 11000

$$$$
