AV-unprocessed.smi:21|AV-procd|sdf|166|dock9
  -GOLD-   2262015413D 1   1.00000     0.00000
 Structure written by MMmdl.
 61 64  0  0  0  0  0  0  0  0  1 V2000
  155.6814  139.8910  160.7527 C   0  0  0  0  0  0  0  0  0  0  0  0
  155.1952  141.2009  160.5058 O   0  0  0  0  0  0  0  0  0  0  0  0
  153.7855  141.3158  160.6392 C   0  0  2  0  0  0  0  0  0  0  0  0
  153.0144  140.4407  159.6334 C   0  0  0  0  0  0  0  0  0  0  0  0
  152.2260  141.4413  158.7747 C   0  0  1  0  0  0  0  0  0  0  0  0
  150.9064  140.8683  158.2101 C   0  0  0  0  0  0  0  0  0  0  0  0
  151.1085  139.7307  157.3122 N   0  0  0  0  0  0  0  0  0  0  0  0
  151.3930  140.0148  155.9065 C   0  0  0  0  0  0  0  0  0  0  0  0
  150.6174  138.5012  157.6472 C   0  0  0  0  0  0  0  0  0  0  0  0
  150.4598  138.2039  158.9662 N   0  0  0  0  0  0  0  0  0  0  0  0
  150.0085  137.0088  159.3534 C   0  0  0  0  0  0  0  0  0  0  0  0
  149.6541  135.9694  158.5992 N   0  0  0  0  0  0  0  0  0  0  0  0
  149.7916  136.2537  157.2737 C   0  0  0  0  0  0  0  0  0  0  0  0
  150.2572  137.4798  156.7131 C   0  0  0  0  0  0  0  0  0  0  0  0
  150.2463  137.3811  155.3249 N   0  0  0  0  0  0  0  0  0  0  0  0
  149.8166  136.1742  155.0826 C   0  0  0  0  0  0  0  0  0  0  0  0
  149.5132  135.4296  156.1973 N   0  0  0  0  0  0  0  0  0  0  0  0
  149.0222  134.0622  156.2167 C   0  0  0  0  0  0  0  0  0  0  0  0
  147.5873  133.9145  155.6540 C   0  0  1  0  0  0  0  0  0  0  0  0
  146.5936  134.7631  156.4821 C   0  0  0  0  0  0  0  0  0  0  0  0
  146.6330  134.3871  157.8430 O   0  0  0  0  0  0  0  0  0  0  0  0
  147.5114  134.1888  154.1254 C   0  0  1  0  0  0  0  0  0  0  0  0
  148.2571  133.1856  153.2426 C   0  0  0  0  0  0  0  0  0  0  0  0
  147.2139  132.7377  152.2200 C   0  0  0  0  0  0  0  0  0  0  0  0
  146.2936  133.8153  152.1804 O   0  0  0  0  0  0  0  0  0  0  0  0
  146.0996  134.2295  153.5224 C   0  0  0  0  0  0  0  0  0  0  0  0
  152.0642  142.6112  159.6214 N   0  0  0  0  0  0  0  0  0  0  0  0
  151.6977  143.8171  158.8903 C   0  0  0  0  0  0  0  0  0  0  0  0
  153.3499  142.7396  160.2789 C   0  0  0  0  0  0  0  0  0  0  0  0
  153.4703  141.0896  161.6595 H   0  0  0  0  0  0  0  0  0  0  0  0
  152.8715  141.7231  157.9412 H   0  0  0  0  0  0  0  0  0  0  0  0
  156.7644  139.8766  160.6338 H   0  0  0  0  0  0  0  0  0  0  0  0
  155.2602  139.1649  160.0567 H   0  0  0  0  0  0  0  0  0  0  0  0
  155.4525  139.5716  161.7701 H   0  0  0  0  0  0  0  0  0  0  0  0
  153.6679  139.8255  159.0144 H   0  0  0  0  0  0  0  0  0  0  0  0
  152.3417  139.7724  160.1725 H   0  0  0  0  0  0  0  0  0  0  0  0
  150.2735  140.5572  159.0417 H   0  0  0  0  0  0  0  0  0  0  0  0
  150.3273  141.6329  157.6969 H   0  0  0  0  0  0  0  0  0  0  0  0
  152.0647  139.2643  155.4881 H   0  0  0  0  0  0  0  0  0  0  0  0
  151.8752  140.9856  155.7905 H   0  0  0  0  0  0  0  0  0  0  0  0
  150.4741  140.0242  155.3196 H   0  0  0  0  0  0  0  0  0  0  0  0
  149.9225  136.8645  160.4202 H   0  0  0  0  0  0  0  0  0  0  0  0
  149.7035  135.7929  154.0781 H   0  0  0  0  0  0  0  0  0  0  0  0
  149.7213  133.4560  155.6398 H   0  0  0  0  0  0  0  0  0  0  0  0
  149.0659  133.6868  157.2396 H   0  0  0  0  0  0  0  0  0  0  0  0
  147.2981  132.8701  155.7833 H   0  0  0  0  0  0  0  0  0  0  0  0
  146.8247  135.8258  156.4072 H   0  0  0  0  0  0  0  0  0  0  0  0
  145.5690  134.6360  156.1354 H   0  0  0  0  0  0  0  0  0  0  0  0
  145.9064  134.7954  158.2890 H   0  0  0  0  0  0  0  0  0  0  0  0
  147.9740  135.1550  153.9208 H   0  0  0  0  0  0  0  0  0  0  0  0
  149.0845  133.6858  152.7377 H   0  0  0  0  0  0  0  0  0  0  0  0
  148.6796  132.3404  153.7857 H   0  0  0  0  0  0  0  0  0  0  0  0
  147.6439  132.5384  151.2383 H   0  0  0  0  0  0  0  0  0  0  0  0
  146.7018  131.8358  152.5598 H   0  0  0  0  0  0  0  0  0  0  0  0
  145.4188  133.5301  154.0070 H   0  0  0  0  0  0  0  0  0  0  0  0
  145.6518  135.2218  153.5688 H   0  0  0  0  0  0  0  0  0  0  0  0
  151.6530  144.6740  159.5631 H   0  0  0  0  0  0  0  0  0  0  0  0
  150.7166  143.7116  158.4281 H   0  0  0  0  0  0  0  0  0  0  0  0
  152.4208  144.0398  158.1045 H   0  0  0  0  0  0  0  0  0  0  0  0
  153.2936  143.3906  161.1516 H   0  0  0  0  0  0  0  0  0  0  0  0
  154.0746  143.1759  159.5887 H   0  0  0  0  0  0  0  0  0  0  0  0
  1  2  1  0  0  0  0
  1 32  1  0  0  0  0
  1 33  1  0  0  0  0
  1 34  1  0  0  0  0
  2  3  1  0  0  0  0
  3 30  1  0  0  0  0
  3 29  1  0  0  0  0
  3  4  1  0  0  0  0
  4  5  1  0  0  0  0
  4 35  1  0  0  0  0
  4 36  1  0  0  0  0
  5 31  1  0  0  0  0
  5  6  1  0  0  0  0
  5 27  1  0  0  0  0
  6  7  1  0  0  0  0
  6 37  1  0  0  0  0
  6 38  1  0  0  0  0
  7  8  1  0  0  0  0
  7  9  1  0  0  0  0
  8 39  1  0  0  0  0
  8 40  1  0  0  0  0
  8 41  1  0  0  0  0
  9 14  1  0  0  0  0
  9 10  2  0  0  0  0
 10 11  1  0  0  0  0
 11 12  2  0  0  0  0
 11 42  1  0  0  0  0
 12 13  1  0  0  0  0
 13 17  1  0  0  0  0
 13 14  2  0  0  0  0
 14 15  1  0  0  0  0
 15 16  2  0  0  0  0
 16 17  1  0  0  0  0
 16 43  1  0  0  0  0
 17 18  1  0  0  0  0
 18 19  1  0  0  0  0
 18 44  1  0  0  0  0
 18 45  1  0  0  0  0
 19 20  1  0  0  0  0
 19 22  1  0  0  0  0
 19 46  1  0  0  0  0
 20 21  1  0  0  0  0
 20 47  1  0  0  0  0
 20 48  1  0  0  0  0
 21 49  1  0  0  0  0
 22 26  1  0  0  0  0
 22 23  1  0  0  0  0
 22 50  1  0  0  0  0
 23 24  1  0  0  0  0
 23 51  1  0  0  0  0
 23 52  1  0  0  0  0
 24 25  1  0  0  0  0
 24 53  1  0  0  0  0
 24 54  1  0  0  0  0
 25 26  1  0  0  0  0
 26 55  1  0  0  0  0
 26 56  1  0  0  0  0
 27 28  1  0  0  0  0
 27 29  1  0  0  0  0
 28 57  1  0  0  0  0
 28 58  1  0  0  0  0
 28 59  1  0  0  0  0
 29 60  1  0  0  0  0
 29 61  1  0  0  0  0
M  END
> <s_m_source_file>
AV-unprocessed.smi

> <i_m_source_file_index>
21

> <i_lp_mmshare_version>
43012

> <i_f3d_flags>
0

> <s_epik_input>
W0NIM11PW0NASF0xW0NIMl1bQ0BIXShOKFtDSDNdKVtDSDJdMSlbQ0gyXU4oW0NIM10pYyhuW2NIXW4yKWMoYzIzKW5bY0hdbjNbQ0gyXVtDQEhdKFtDSDJdW09IXSlbQ0BASF00W0NIMl1bQ0gyXU9bQ0gyXTQ=

> <s_epik_cmdline>
J2VwaWtfcHl0aG9uJywgJy1waCcsICc3LjAnLCAnLXRuJywgJzgnLCAnLW1hJywgJzIwMCcsICctbWV0YWxfYmluZGluZycsICctaW1hZScsICc8aW5maWxlLm1hZT4nLCAnLW9tYWUnLCAnPG91dGZpbGUubWFlPic=

> <r_lp_tautomer_probability>
1

> <r_epik_Ionization_Penalty>
2.17574

> <r_epik_Ionization_Penalty_Charging>
0

> <r_epik_Ionization_Penalty_Neutral>
2.17574

> <r_epik_State_Penalty>
2.31336

> <r_epik_Charging_Adjusted_Penalty>
2.31336

> <i_epik_Tot_Q>
0

> <i_epik_Tot_abs_Q>
0

> <r_epik_Metal_State_Penalty>
2.31025

> <b_epik_Metal_Only>
0

> <s_lp_Force_Field>
OPLS_2005

> <r_lp_Energy>
69.2807

> <b_lp_Chiralities_Consistent>
1

> <s_lp_Variant>
AV-unprocessed.smi:21-46

> <Gold.Version>
5.8.1

> <Gold.Id.Protein>
6NUR|6NUR_protein|mol2

> <Gold.PLP.Fitness>
43.7424

> <Gold.PLP.PLP>
-38.3156

> <Gold.PLP.part.hbond>
-2.3576

> <Gold.PLP.part.metal>
0.0000

> <Gold.PLP.part.buried>
-5.5550

> <Gold.PLP.part.nonpolar>
-31.6225

> <Gold.PLP.part.repulsive>
0.2259

> <Gold.PLP.ligand.clash>
0.0000

> <Gold.PLP.ligand.torsion>
0.5285

> <Gold.PLP.Chemscore.Hbond>
0.9913

> <Gold.PLP.Chemscore.CHOScore>
1.0000

> <Gold.PLP.Chemscore.Metal>
0.0000

> <Gold.Chemscore.Hbonds>
donor molecule, donor type, donor heavy atom, donor atom, acceptor molecule, acceptor atom, score
      P1  H  6896  6907       L1    12  1.00
      L1  C    16    43       P1  7948  1.00

> <Gold.PLP.Chemscore.Internal.Correction>
0.5100

> <Gold.Rescore>
     Score         DG    S(hbond)    S(metal)    S(lipo)     H(rot)  DE(clash)    DE(int)     intcor
      8.52     -10.48       0.58        0.00      91.98       3.00       0.14       1.81       ----

> <Gold.Chemscore.Fitness>
8.5220

> <Gold.Chemscore.DG>
-10.4785

> <Gold.Chemscore.ZeroCoef>
-5.4800

> <Gold.Chemscore.Hbond>
0.5764

> <Gold.Chemscore.Metal>
0.0000

> <Gold.Chemscore.Lipo>
91.9757

> <Gold.Chemscore.Internal_Hbond>
0.0000

> <Gold.Chemscore.DEClash>
0.1449

> <Gold.Chemscore.DEInternal>
1.8116

> <Gold.Chemscore.Rot>
3.0031

> <Gold.Chemscore.Internal.Correction>
   9.000000E+99

> <Gold.Chemscore.Hbonds>
donor molecule, donor type, donor heavy atom, donor atom, acceptor molecule, acceptor atom, score
      P1  H  6896  6907       L1    12  0.23

> <Gold.Chemscore.Hbond.Weighted>
-1.9253

> <Gold.Chemscore.Metal.Weighted>
-0.0000

> <Gold.Chemscore.Lipo.Weighted>
-10.7612

> <Gold.Chemscore.Internal_Hbond.Weighted>
0.0000

> <Gold.Chemscore.DEClash.Weighted>
0.1449

> <Gold.Chemscore.DEInternal.Weighted>
1.8116

> <Gold.Chemscore.Rot.Weighted>
7.6880

> <Gold.Chemscore.Internal.Correction.Weighted>
   9.000000E+99

> <Gold.Protein.RotatedTorsions>
[ 6907 6896 6895 6894 ] final  -76.61 input  -60.11 | X-H torsion
[ 7974 7965 7964 7962 ] final  178.93 input  175.53 | X-H torsion
[ 8008 7997 7996 7995 ] final  -61.80 input   59.86 | X-H torsion
[ 10167 10162 10161 10158 ] final -111.71 input  -65.29 | X-H torsion
[ 10718 10713 10712 10709 ] final -167.44 input   66.30 | X-H torsion
[ 10763 10752 10751 10750 ] final  128.60 input  -60.55 | X-H torsion
[ 11005 11000 10999 10996 ] final   48.95 input  -57.11 | X-H torsion

> <Gold.Protein.ActiveResidues>
 VAL166  LYS551  ARG553  GLY616  TRP617  ASP618  TYR619  PRO620  LYS621  CYS622 
 ASP623  PHE694  ASN695  SER759  ASP760  ASP761  ALA762  ILE779  LEU786  VAL792 
 PHE793  MET794  SER795  GLU796  ALA797  LYS798  CYS799  TRP800  GLU811  SER814 

> <Gold.Protein.RotatedAtoms>
  150.7022  134.4547  159.5352 H   0  0  0  0  0  0  0  0  0  0  0  0  # atno 6907 bound_to 6896
  152.2233  134.8389  160.0492 H   0  0  0  0  0  0  0  0  0  0  0  0  # atno 6908 bound_to 6896
  151.9232  133.3556  159.3941 H   0  0  0  0  0  0  0  0  0  0  0  0  # atno 6909 bound_to 6896
  144.7151  140.0472  143.6436 H   0  0  0  0  0  0  0  0  0  0  0  0  # atno 7974 bound_to 7965
  154.4466  140.1010  156.6488 H   0  0  0  0  0  0  0  0  0  0  0  0  # atno 8008 bound_to 7997
  155.5421  140.3484  155.4430 H   0  0  0  0  0  0  0  0  0  0  0  0  # atno 8009 bound_to 7997
  156.0590  140.1322  156.9953 H   0  0  0  0  0  0  0  0  0  0  0  0  # atno 8010 bound_to 7997
  140.1306  143.4364  152.1630 H   0  0  0  0  0  0  0  0  0  0  0  0  # atno 10167 bound_to 10162
  156.6824  130.9127  151.3058 H   0  0  0  0  0  0  0  0  0  0  0  0  # atno 10718 bound_to 10713
  153.7282  135.3243  155.3280 H   0  0  0  0  0  0  0  0  0  0  0  0  # atno 10763 bound_to 10752
  154.8334  135.4516  154.1148 H   0  0  0  0  0  0  0  0  0  0  0  0  # atno 10764 bound_to 10752
  153.2288  135.6957  153.7994 H   0  0  0  0  0  0  0  0  0  0  0  0  # atno 10765 bound_to 10752
  140.1146  134.4910  155.8649 H   0  0  0  0  0  0  0  0  0  0  0  0  # atno 11005 bound_to 11000
  145.9974  139.3063  143.0948 LP  0  0  0  0  0  0  0  0  0  0  0  0  # atno 17320 bound_to 7965
  145.8833  140.9349  143.0590 LP  0  0  0  0  0  0  0  0  0  0  0  0  # atno 17321 bound_to 7965
  139.5521  144.7346  151.4402 LP  0  0  0  0  0  0  0  0  0  0  0  0  # atno 17342 bound_to 10162
  140.6819  143.8062  150.7133 LP  0  0  0  0  0  0  0  0  0  0  0  0  # atno 17343 bound_to 10162
  157.7039  130.9363  150.0869 LP  0  0  0  0  0  0  0  0  0  0  0  0  # atno 17370 bound_to 10713
  156.1858  130.3652  149.8975 LP  0  0  0  0  0  0  0  0  0  0  0  0  # atno 17371 bound_to 10713
  141.2138  133.6739  156.6770 LP  0  0  0  0  0  0  0  0  0  0  0  0  # atno 17394 bound_to 11000
  140.3046  134.8136  157.4126 LP  0  0  0  0  0  0  0  0  0  0  0  0  # atno 17395 bound_to 11000

$$$$
