AV-unprocessed.smi:3048|AV-procd|sdf|11628|dock9
  -GOLD-   2272017 13D 1   1.00000     0.00000
 Structure written by MMmdl.
 37 38  0  0  0  0  0  0  0  0  1 V2000
  154.3529  140.9420  161.3456 C   0  0  0  0  0  0  0  0  0  0  0  0
  153.5787  142.1499  160.9027 C   0  0  0  0  0  0  0  0  0  0  0  0
  152.7331  142.9833  161.6891 C   0  0  0  0  0  0  0  0  0  0  0  0
  152.1907  143.9692  160.9933 N   0  0  0  0  0  0  0  0  0  0  0  0
  152.6684  143.8005  159.7421 N   0  0  0  0  0  0  0  0  0  0  0  0
  152.2712  144.7156  158.6875 C   0  0  0  0  0  0  0  0  0  0  0  0
  151.8050  143.9811  157.4202 C   0  0  0  0  0  0  0  0  0  0  0  0
  150.5327  143.2972  157.6347 N   0  0  0  0  0  0  0  0  0  0  0  0
  150.6173  141.8494  157.4769 C   0  0  0  0  0  0  0  0  0  0  0  0
  150.3116  141.4312  156.0307 C   0  0  1  0  0  0  0  0  0  0  0  0
  150.5888  139.9328  155.8008 C   0  0  0  0  0  0  0  0  0  0  0  0
  150.1909  139.5219  154.3782 C   0  0  0  0  0  0  0  0  0  0  0  0
  148.7421  139.9396  154.1051 C   0  0  0  0  0  0  0  0  0  0  0  0
  148.5470  141.4291  154.4285 C   0  0  0  0  0  0  0  0  0  0  0  0
  148.9312  141.6854  155.7758 O   0  0  0  0  0  0  0  0  0  0  0  0
  153.5096  142.7113  159.6592 C   0  0  0  0  0  0  0  0  0  0  0  0
  154.6300  141.0031  162.3982 H   0  0  0  0  0  0  0  0  0  0  0  0
  155.2756  140.8225  160.7775 H   0  0  0  0  0  0  0  0  0  0  0  0
  153.7746  140.0268  161.2174 H   0  0  0  0  0  0  0  0  0  0  0  0
  152.4980  142.9003  162.7400 H   0  0  0  0  0  0  0  0  0  0  0  0
  151.4669  145.3477  159.0668 H   0  0  0  0  0  0  0  0  0  0  0  0
  153.1079  145.3782  158.4613 H   0  0  0  0  0  0  0  0  0  0  0  0
  151.7175  144.6914  156.5971 H   0  0  0  0  0  0  0  0  0  0  0  0
  152.5652  143.2571  157.1253 H   0  0  0  0  0  0  0  0  0  0  0  0
  149.8349  143.6685  156.9976 H   0  0  0  0  0  0  0  0  0  0  0  0
  151.6253  141.5218  157.7350 H   0  0  0  0  0  0  0  0  0  0  0  0
  149.9392  141.3456  158.1669 H   0  0  0  0  0  0  0  0  0  0  0  0
  150.9268  142.0190  155.3463 H   0  0  0  0  0  0  0  0  0  0  0  0
  151.6436  139.7130  155.9685 H   0  0  0  0  0  0  0  0  0  0  0  0
  150.0266  139.3393  156.5230 H   0  0  0  0  0  0  0  0  0  0  0  0
  150.8538  140.0033  153.6582 H   0  0  0  0  0  0  0  0  0  0  0  0
  150.3091  138.4461  154.2443 H   0  0  0  0  0  0  0  0  0  0  0  0
  148.4800  139.7395  153.0658 H   0  0  0  0  0  0  0  0  0  0  0  0
  148.0662  139.3432  154.7193 H   0  0  0  0  0  0  0  0  0  0  0  0
  149.1262  142.0555  153.7482 H   0  0  0  0  0  0  0  0  0  0  0  0
  147.5004  141.7064  154.3016 H   0  0  0  0  0  0  0  0  0  0  0  0
  153.9810  142.4267  158.7298 H   0  0  0  0  0  0  0  0  0  0  0  0
  1  2  1  0  0  0  0
  1 17  1  0  0  0  0
  1 18  1  0  0  0  0
  1 19  1  0  0  0  0
  2 16  2  0  0  0  0
  2  3  1  0  0  0  0
  3  4  2  0  0  0  0
  3 20  1  0  0  0  0
  4  5  1  0  0  0  0
  5  6  1  0  0  0  0
  5 16  1  0  0  0  0
  6  7  1  0  0  0  0
  6 21  1  0  0  0  0
  6 22  1  0  0  0  0
  7  8  1  0  0  0  0
  7 23  1  0  0  0  0
  7 24  1  0  0  0  0
  8  9  1  0  0  0  0
  8 25  1  0  0  0  0
  9 10  1  0  0  0  0
  9 26  1  0  0  0  0
  9 27  1  0  0  0  0
 10 15  1  0  0  0  0
 10 11  1  0  0  0  0
 10 28  1  0  0  0  0
 11 12  1  0  0  0  0
 11 29  1  0  0  0  0
 11 30  1  0  0  0  0
 12 13  1  0  0  0  0
 12 31  1  0  0  0  0
 12 32  1  0  0  0  0
 13 14  1  0  0  0  0
 13 33  1  0  0  0  0
 13 34  1  0  0  0  0
 14 15  1  0  0  0  0
 14 35  1  0  0  0  0
 14 36  1  0  0  0  0
 16 37  1  0  0  0  0
M  END
> <s_m_source_file>
AV-unprocessed.smi

> <i_m_source_file_index>
3048

> <i_lp_mmshare_version>
43012

> <i_f3d_flags>
0

> <s_epik_input>
W0NIM11jMVtjSF1ubihbY0hdMSlbQ0gyXVtDSDJdW05IXVtDSDJdW0NAQEhdMltDSDJdW0NIMl1bQ0gyXVtDSDJdTzI=

> <s_epik_cmdline>
J2VwaWtfcHl0aG9uJywgJy1waCcsICc3LjAnLCAnLXRuJywgJzgnLCAnLW1hJywgJzIwMCcsICctbWV0YWxfYmluZGluZycsICctaW1hZScsICc8aW5maWxlLm1hZT4nLCAnLW9tYWUnLCAnPG91dGZpbGUubWFlPic=

> <r_lp_tautomer_probability>
1

> <r_epik_Ionization_Penalty>
2.52229

> <r_epik_Ionization_Penalty_Charging>
0

> <r_epik_Ionization_Penalty_Neutral>
2.52229

> <r_epik_State_Penalty>
2.68614

> <r_epik_Charging_Adjusted_Penalty>
2.68614

> <i_epik_Tot_Q>
0

> <i_epik_Tot_abs_Q>
0

> <r_epik_Metal_State_Penalty>
2.68365

> <b_epik_Metal_Only>
0

> <s_lp_Force_Field>
OPLS_2005

> <r_lp_Energy>
12.9812

> <b_lp_Chiralities_Consistent>
1

> <s_lp_Variant>
AV-unprocessed.smi:3048-4

> <Gold.Version>
5.8.1

> <Gold.Id.Protein>
6NUR|6NUR_protein|mol2

> <Gold.PLP.Fitness>
46.5039

> <Gold.PLP.PLP>
-44.9679

> <Gold.PLP.part.hbond>
-1.0000

> <Gold.PLP.part.metal>
0.0000

> <Gold.PLP.part.buried>
-2.4443

> <Gold.PLP.part.nonpolar>
-41.8652

> <Gold.PLP.part.repulsive>
0.9432

> <Gold.PLP.ligand.clash>
0.0000

> <Gold.PLP.ligand.torsion>
0.7458

> <Gold.PLP.Chemscore.Hbond>
1.0000

> <Gold.PLP.Chemscore.CHOScore>
0.0000

> <Gold.PLP.Chemscore.Metal>
0.0000

> <Gold.Chemscore.Hbonds>
donor molecule, donor type, donor heavy atom, donor atom, acceptor molecule, acceptor atom, score
      L1  H     8    25       P1  8028  1.00

> <Gold.PLP.Chemscore.Internal.Correction>
0.0276

> <Gold.Rescore>
     Score         DG    S(hbond)    S(metal)    S(lipo)     H(rot)  DE(clash)    DE(int)     intcor
     17.36     -18.15       0.97        0.00     114.41       1.54       0.14       0.64       ----

> <Gold.Chemscore.Fitness>
17.3650

> <Gold.Chemscore.DG>
-18.1496

> <Gold.Chemscore.ZeroCoef>
-5.4800

> <Gold.Chemscore.Hbond>
0.9666

> <Gold.Chemscore.Metal>
0.0000

> <Gold.Chemscore.Lipo>
114.4141

> <Gold.Chemscore.Internal_Hbond>
0.0000

> <Gold.Chemscore.DEClash>
0.1438

> <Gold.Chemscore.DEInternal>
0.6408

> <Gold.Chemscore.Rot>
1.5411

> <Gold.Chemscore.Internal.Correction>
   9.000000E+99

> <Gold.Chemscore.Hbonds>
donor molecule, donor type, donor heavy atom, donor atom, acceptor molecule, acceptor atom, score
      L1  H     8    25       P1  8028  0.96

> <Gold.Chemscore.Hbond.Weighted>
-3.2283

> <Gold.Chemscore.Metal.Weighted>
-0.0000

> <Gold.Chemscore.Lipo.Weighted>
-13.3865

> <Gold.Chemscore.Internal_Hbond.Weighted>
0.0000

> <Gold.Chemscore.DEClash.Weighted>
0.1438

> <Gold.Chemscore.DEInternal.Weighted>
0.6408

> <Gold.Chemscore.Rot.Weighted>
3.9452

> <Gold.Chemscore.Internal.Correction.Weighted>
   9.000000E+99

> <Gold.Protein.RotatedTorsions>
[ 6907 6896 6895 6894 ] final   24.08 input  -60.11 | X-H torsion
[ 7974 7965 7964 7962 ] final   83.24 input  175.53 | X-H torsion
[ 8008 7997 7996 7995 ] final  124.89 input   59.86 | X-H torsion
[ 10167 10162 10161 10158 ] final   14.07 input  -65.29 | X-H torsion
[ 10718 10713 10712 10709 ] final  -36.05 input   66.30 | X-H torsion
[ 10763 10752 10751 10750 ] final  175.02 input  -60.55 | X-H torsion
[ 11005 11000 10999 10996 ] final  -88.37 input  -57.11 | X-H torsion

> <Gold.Protein.ActiveResidues>
 VAL166  LYS551  ARG553  GLY616  TRP617  ASP618  TYR619  PRO620  LYS621  CYS622 
 ASP623  PHE694  ASN695  SER759  ASP760  ASP761  ALA762  ILE779  LEU786  VAL792 
 PHE793  MET794  SER795  GLU796  ALA797  LYS798  CYS799  TRP800  GLU811  SER814 

> <Gold.Protein.RotatedAtoms>
  151.9520  135.0164  160.0542 H   0  0  0  0  0  0  0  0  0  0  0  0  # atno 6907 bound_to 6896
  152.1944  133.4791  159.5033 H   0  0  0  0  0  0  0  0  0  0  0  0  # atno 6908 bound_to 6896
  150.6941  134.1588  159.4211 H   0  0  0  0  0  0  0  0  0  0  0  0  # atno 6909 bound_to 6896
  145.6146  139.2374  143.2173 H   0  0  0  0  0  0  0  0  0  0  0  0  # atno 7974 bound_to 7965
  156.2816  140.2729  156.1860 H   0  0  0  0  0  0  0  0  0  0  0  0  # atno 8008 bound_to 7997
  155.0507  140.0386  157.2560 H   0  0  0  0  0  0  0  0  0  0  0  0  # atno 8009 bound_to 7997
  154.7198  140.2685  155.6557 H   0  0  0  0  0  0  0  0  0  0  0  0  # atno 8010 bound_to 7997
  140.5960  143.8700  150.6919 H   0  0  0  0  0  0  0  0  0  0  0  0  # atno 10167 bound_to 10162
  156.3314  130.4280  149.7869 H   0  0  0  0  0  0  0  0  0  0  0  0  # atno 10718 bound_to 10713
  154.4619  135.2768  155.1707 H   0  0  0  0  0  0  0  0  0  0  0  0  # atno 10763 bound_to 10752
  154.3491  135.6154  153.5637 H   0  0  0  0  0  0  0  0  0  0  0  0  # atno 10764 bound_to 10752
  152.9855  135.5807  154.4983 H   0  0  0  0  0  0  0  0  0  0  0  0  # atno 10765 bound_to 10752
  141.1603  133.7566  156.9442 H   0  0  0  0  0  0  0  0  0  0  0  0  # atno 11005 bound_to 11000
  146.1478  140.6968  142.9336 LP  0  0  0  0  0  0  0  0  0  0  0  0  # atno 17320 bound_to 7965
  144.7256  140.4513  143.6976 LP  0  0  0  0  0  0  0  0  0  0  0  0  # atno 17321 bound_to 7965
  140.2235  143.3791  152.1624 LP  0  0  0  0  0  0  0  0  0  0  0  0  # atno 17342 bound_to 10162
  139.5259  144.7101  151.5233 LP  0  0  0  0  0  0  0  0  0  0  0  0  # atno 17343 bound_to 10162
  156.5140  130.8185  151.3179 LP  0  0  0  0  0  0  0  0  0  0  0  0  # atno 17370 bound_to 10713
  157.7431  130.9904  150.2566 LP  0  0  0  0  0  0  0  0  0  0  0  0  # atno 17371 bound_to 10713
  140.1301  134.9361  157.2325 LP  0  0  0  0  0  0  0  0  0  0  0  0  # atno 17394 bound_to 11000
  140.2964  134.3182  155.7301 LP  0  0  0  0  0  0  0  0  0  0  0  0  # atno 17395 bound_to 11000

$$$$
