#       Name:                AV-unprocessed.smi:560
#       Creating user name   scv26
#       Creation time:       Thu Mar 26 23:43:16 2020


#       File generated by GOLD software.
#

@<TRIPOS>MOLECULE
AV-unprocessed.smi:560
    47    48     1
SMALL
NO_CHARGES


@<TRIPOS>ATOM
      1 ****        -2.2073  -3.8195   0.6234 C.3            1 S1                 0.0000
      2 ****        -1.7758  -2.4882  -0.0254 C.3            1 S1                 0.0000
      3 ****        -0.2618  -2.2366   0.0697 C.2            1 S1                 0.0000
      4 ****         0.5156  -3.1511   0.3456 O.2            1 S1                 0.0000
      5 ****         0.1430  -0.9764  -0.1563 N.am           1 S1                 0.0000
      6 ****         1.5290  -0.5123  -0.1345 C.3            1 S1                 0.0000
      7 ****         2.0423  -0.3096   1.3045 C.3            1 S1                 0.0000
      8 ****         1.3743   0.8955   1.9898 C.3            1 S1                 0.0000
      9 ****         1.5523   2.1353   1.1921 N.4            1 S1                 1.0000
     10 ****         1.0351   3.3346   1.8973 C.3            1 S1                 0.0000
     11 ****         1.7441   4.5956   1.3923 C.2            1 S1                 0.0000
     12 ****         0.9023   5.4467   0.7758 N.pl3          1 S1                -1.0000
     13 ****         2.9551   4.7208   1.5623 O.2            1 S1                 0.0000
     14 ****         1.0083   1.9855  -0.1850 C.3            1 S1                 0.0000
     15 ****         1.6650   0.8026  -0.9203 C.3            1 S1                 0.0000
     16 ****        -2.2264  -2.3834  -1.4089 N.pl3          1 S1                 0.0000
     17 ****        -2.8872  -1.3309  -2.0099 C.2            1 S1                 0.0000
     18 ****        -3.0797  -1.6613  -3.3206 C.2            1 S1                 0.0000
     19 ****        -2.4857  -2.9488  -3.4356 C.2            1 S1                 0.0000
     20 ****        -1.9691  -3.3739  -2.2946 N.2            1 S1                 0.0000
     21 ****        -1.9127  -3.8614   1.6724 H              1 S1                 0.0000
     22 ****        -1.7651  -4.6813   0.1221 H              1 S1                 0.0000
     23 ****        -3.2907  -3.9364   0.5849 H              1 S1                 0.0000
     24 ****        -2.2642  -1.6873   0.5324 H              1 S1                 0.0000
     25 ****        -0.5628  -0.2908  -0.3825 H              1 S1                 0.0000
     26 ****         2.1451  -1.2666  -0.6273 H              1 S1                 0.0000
     27 ****         1.8879  -1.2104   1.8994 H              1 S1                 0.0000
     28 ****         3.1208  -0.1491   1.2786 H              1 S1                 0.0000
     29 ****         0.3102   0.7066   2.1404 H              1 S1                 0.0000
     30 ****         1.8138   1.0291   2.9792 H              1 S1                 0.0000
     31 ****        -0.0517   3.3935   1.8039 H              1 S1                 0.0000
     32 ****         1.2493   3.2604   2.9643 H              1 S1                 0.0000
     33 ****         1.2777   6.3266   0.4013 H              1 S1                 0.0000
     34 ****        -0.0731   1.8487  -0.1361 H              1 S1                 0.0000
     35 ****         1.1808   2.8955  -0.7603 H              1 S1                 0.0000
     36 ****         2.7230   1.0218  -1.0706 H              1 S1                 0.0000
     37 ****         1.2345   0.6946  -1.9167 H              1 S1                 0.0000
     38 ****        -3.1640  -0.4432  -1.4603 H              1 S1                 0.0000
     39 ****        -3.5684  -1.0721  -4.0822 H              1 S1                 0.0000
     40 ****        -2.4121  -3.5815  -4.3080 H              1 S1                 0.0000
     41 ****         2.5485   2.2776   1.1023 H              1 S1                 0.0000
     42 ****         0.1647  -4.0727   0.5114 LP             1 S1                 0.0000
     43 ****         1.4977  -2.9720   0.4039 LP             1 S1                 0.0000
     44 ****        -0.0689   5.2267   0.6843 LP             1 S1                 0.0000
     45 ****         3.4716   4.0021   2.0278 LP             1 S1                 0.0000
     46 ****         3.4237   5.5414   1.2351 LP             1 S1                 0.0000
     47 ****        -1.4934  -4.2368  -2.1240 LP             1 S1                 0.0000
@<TRIPOS>BOND
    1    1    2 1     
    2    1   21 1     
    3    1   22 1     
    4    1   23 1     
    5    2    3 1     
    6    2   16 1     
    7    2   24 1     
    8    3    4 2     
    9    3    5 am    
   10    5    6 1     
   11    5   25 1     
   12    6   15 1     
   13    6    7 1     
   14    6   26 1     
   15    7    8 1     
   16    7   27 1     
   17    7   28 1     
   18    8    9 1     
   19    8   29 1     
   20    8   30 1     
   21    9   10 1     
   22    9   14 1     
   23    9   41 1     
   24   10   11 1     
   25   10   31 1     
   26   10   32 1     
   27   11   12 1     
   28   11   13 2     
   29   12   33 1     
   30   14   15 1     
   31   14   34 1     
   32   14   35 1     
   33   15   36 1     
   34   15   37 1     
   35   16   20 1     
   36   16   17 1     
   37   17   18 2     
   38   17   38 1     
   39   18   19 1     
   40   18   39 1     
   41   19   20 2     
   42   19   40 1     
   43    4   42 1     
   44    4   43 1     
   45   12   44 1     
   46   13   45 1     
   47   13   46 1     
   48   20   47 1     
@<TRIPOS>SUBSTRUCTURE
      1 S1             1
@<TRIPOS>SET
LONE_PAIRS      STATIC     ATOMS    <user>   **** ""
6 42 43 44 45 46 47
DONOR_HYDROGENS      STATIC     ATOMS    <user>   **** ""
3 25 41 33
ATOM$BLUE        STATIC     ATOMS    COLORGROUP SYSTEM
6 42 43 44 45 46 47
ATOM$RED        STATIC     ATOMS    COLORGROUP SYSTEM
3 25 41 33
