AV-unprocessed.smi:221|AV-procd|sdf|1700|dock10
  -GOLD-   2262020153D 1   1.00000     0.00000
 Structure written by MMmdl.
 50 53  0  0  0  0  0  0  0  0  1 V2000
  149.6701  142.1356  155.2803 N   0  0  0  0  0  0  0  0  0  0  0  0
  150.4848  141.1965  155.7719 C   0  0  0  0  0  0  0  0  0  0  0  0
  151.1243  140.4513  155.0328 O   0  0  0  0  0  0  0  0  0  0  0  0
  150.6249  141.0573  157.2992 C   0  0  2  0  0  0  0  0  0  0  0  0
  151.1836  142.3379  157.9392 C   0  0  0  0  0  0  0  0  0  0  0  0
  151.7905  141.8269  159.2376 C   0  0  2  0  0  0  0  0  0  0  0  0
  152.6978  142.6611  159.7446 F   0  0  0  0  0  0  0  0  0  0  0  0
  152.3897  140.4870  158.8204 C   0  0  0  0  0  0  0  0  0  0  0  0
  151.5504  139.9980  157.7294 N   0  0  0  0  0  0  0  0  0  0  0  0
  151.0069  138.7764  157.9350 C   0  0  0  0  0  0  0  0  0  0  0  0
  150.7379  138.3530  159.1984 N   0  0  0  0  0  0  0  0  0  0  0  0
  150.2048  137.1429  159.3960 C   0  0  0  0  0  0  0  0  0  0  0  0
  149.8744  136.2176  158.4917 N   0  0  0  0  0  0  0  0  0  0  0  0
  150.1504  136.6422  157.2251 C   0  0  0  0  0  0  0  0  0  0  0  0
  150.7160  137.8953  156.8615 C   0  0  0  0  0  0  0  0  0  0  0  0
  150.8599  137.9737  155.4820 N   0  0  0  0  0  0  0  0  0  0  0  0
  150.3998  136.8300  155.0521 C   0  0  0  0  0  0  0  0  0  0  0  0
  149.9462  135.9742  156.0312 N   0  0  0  0  0  0  0  0  0  0  0  0
  149.3858  134.6484  155.8411 C   0  0  0  0  0  0  0  0  0  0  0  0
  150.4387  133.5621  155.4928 C   0  0  1  0  0  0  0  0  0  0  0  0
  151.5812  133.4913  156.5384 C   0  0  0  0  0  0  0  0  0  0  0  0
  151.2099  132.7466  157.6803 O   0  0  0  0  0  0  0  0  0  0  0  0
  149.7541  132.1806  155.3230 C   0  0  1  0  0  0  0  0  0  0  0  0
  148.9315  132.0247  154.0543 C   0  0  0  0  0  0  0  0  0  0  0  0
  148.8006  130.5115  153.9372 C   0  0  0  0  0  0  0  0  0  0  0  0
  150.0225  129.9884  154.4421 O   0  0  0  0  0  0  0  0  0  0  0  0
  150.7179  130.9951  155.1719 C   0  0  0  0  0  0  0  0  0  0  0  0
  149.6280  140.8772  157.7055 H   0  0  0  0  0  0  0  0  0  0  0  0
  151.0125  141.6804  159.9881 H   0  0  0  0  0  0  0  0  0  0  0  0
  149.5704  142.2406  154.2813 H   0  0  0  0  0  0  0  0  0  0  0  0
  149.1595  142.7386  155.9097 H   0  0  0  0  0  0  0  0  0  0  0  0
  151.9636  142.7777  157.3145 H   0  0  0  0  0  0  0  0  0  0  0  0
  150.4180  143.0963  158.1060 H   0  0  0  0  0  0  0  0  0  0  0  0
  153.3969  140.6268  158.4255 H   0  0  0  0  0  0  0  0  0  0  0  0
  152.4648  139.8005  159.6658 H   0  0  0  0  0  0  0  0  0  0  0  0
  150.0151  136.8784  160.4258 H   0  0  0  0  0  0  0  0  0  0  0  0
  150.3719  136.5806  154.0014 H   0  0  0  0  0  0  0  0  0  0  0  0
  148.8453  134.3686  156.7463 H   0  0  0  0  0  0  0  0  0  0  0  0
  148.6395  134.7302  155.0511 H   0  0  0  0  0  0  0  0  0  0  0  0
  150.8832  133.8185  154.5296 H   0  0  0  0  0  0  0  0  0  0  0  0
  152.4828  133.0636  156.0990 H   0  0  0  0  0  0  0  0  0  0  0  0
  151.8504  134.4829  156.8987 H   0  0  0  0  0  0  0  0  0  0  0  0
  151.3077  131.8271  157.4850 H   0  0  0  0  0  0  0  0  0  0  0  0
  149.1029  131.9915  156.1783 H   0  0  0  0  0  0  0  0  0  0  0  0
  147.9607  132.5184  154.1039 H   0  0  0  0  0  0  0  0  0  0  0  0
  149.4742  132.4214  153.1949 H   0  0  0  0  0  0  0  0  0  0  0  0
  147.9826  130.1514  154.5625 H   0  0  0  0  0  0  0  0  0  0  0  0
  148.6156  130.1839  152.9139 H   0  0  0  0  0  0  0  0  0  0  0  0
  151.5998  131.2822  154.5975 H   0  0  0  0  0  0  0  0  0  0  0  0
  151.0543  130.6065  156.1332 H   0  0  0  0  0  0  0  0  0  0  0  0
  1  2  1  0  0  0  0
  1 30  1  0  0  0  0
  1 31  1  0  0  0  0
  2  3  2  0  0  0  0
  2  4  1  0  0  0  0
  4 28  1  0  0  0  0
  4  9  1  0  0  0  0
  4  5  1  0  0  0  0
  5  6  1  0  0  0  0
  5 32  1  0  0  0  0
  5 33  1  0  0  0  0
  6 29  1  0  0  0  0
  6  7  1  0  0  0  0
  6  8  1  0  0  0  0
  8  9  1  0  0  0  0
  8 34  1  0  0  0  0
  8 35  1  0  0  0  0
  9 10  1  0  0  0  0
 10 15  1  0  0  0  0
 10 11  2  0  0  0  0
 11 12  1  0  0  0  0
 12 13  2  0  0  0  0
 12 36  1  0  0  0  0
 13 14  1  0  0  0  0
 14 18  1  0  0  0  0
 14 15  2  0  0  0  0
 15 16  1  0  0  0  0
 16 17  2  0  0  0  0
 17 18  1  0  0  0  0
 17 37  1  0  0  0  0
 18 19  1  0  0  0  0
 19 20  1  0  0  0  0
 19 38  1  0  0  0  0
 19 39  1  0  0  0  0
 20 21  1  0  0  0  0
 20 23  1  0  0  0  0
 20 40  1  0  0  0  0
 21 22  1  0  0  0  0
 21 41  1  0  0  0  0
 21 42  1  0  0  0  0
 22 43  1  0  0  0  0
 23 27  1  0  0  0  0
 23 24  1  0  0  0  0
 23 44  1  0  0  0  0
 24 25  1  0  0  0  0
 24 45  1  0  0  0  0
 24 46  1  0  0  0  0
 25 26  1  0  0  0  0
 25 47  1  0  0  0  0
 25 48  1  0  0  0  0
 26 27  1  0  0  0  0
 27 49  1  0  0  0  0
 27 50  1  0  0  0  0
M  END
> <s_m_source_file>
AV-unprocessed.smi

> <i_m_source_file_index>
221

> <i_lp_mmshare_version>
43012

> <i_f3d_flags>
0

> <s_epik_input>
W05IMl1DKD1PKVtDQEBIXTFbQ0gyXVtDQEBIXShGKVtDSDJdTjFjKG5bY0hdbjIpYyhjMjMpbltjSF1uM1tDSDJdW0NASF0oW0NIMl1bT0hdKVtDQEBIXTRbQ0gyXVtDSDJdT1tDSDJdNA==

> <s_epik_cmdline>
J2VwaWtfcHl0aG9uJywgJy1waCcsICc3LjAnLCAnLXRuJywgJzgnLCAnLW1hJywgJzIwMCcsICctbWV0YWxfYmluZGluZycsICctaW1hZScsICc8aW5maWxlLm1hZT4nLCAnLW9tYWUnLCAnPG91dGZpbGUubWFlPic=

> <r_lp_tautomer_probability>
1

> <r_epik_Ionization_Penalty>
0.000818822

> <r_epik_Ionization_Penalty_Charging>
0

> <r_epik_Ionization_Penalty_Neutral>
0.000818822

> <r_epik_State_Penalty>
0.000440551

> <r_epik_Charging_Adjusted_Penalty>
0.000440551

> <i_epik_Tot_Q>
0

> <i_epik_Tot_abs_Q>
0

> <r_epik_Metal_State_Penalty>
-0

> <b_epik_Metal_Only>
0

> <s_lp_Force_Field>
OPLS_2005

> <r_lp_Energy>
51.3471

> <b_lp_Chiralities_Consistent>
1

> <s_lp_Variant>
AV-unprocessed.smi:221-15

> <Gold.Version>
5.8.1

> <Gold.Id.Protein>
6NUR|6NUR_protein|mol2

> <Gold.PLP.Fitness>
48.5260

> <Gold.PLP.PLP>
-39.6517

> <Gold.PLP.part.hbond>
-4.5329

> <Gold.PLP.part.metal>
0.0000

> <Gold.PLP.part.buried>
-6.8066

> <Gold.PLP.part.nonpolar>
-28.1968

> <Gold.PLP.part.repulsive>
0.3987

> <Gold.PLP.ligand.clash>
0.0000

> <Gold.PLP.ligand.torsion>
1.1841

> <Gold.PLP.Chemscore.Hbond>
2.7149

> <Gold.PLP.Chemscore.CHOScore>
0.9483

> <Gold.PLP.Chemscore.Metal>
0.0000

> <Gold.Chemscore.Hbonds>
donor molecule, donor type, donor heavy atom, donor atom, acceptor molecule, acceptor atom, score
      L1  H     1    31       P1  8028  0.51
      P1  H  6896  6907       L1    22  0.59
      P1  H  6896  6908       L1    13  0.63
      P1  H  7989  7998       L1     3  1.00
      L1  C    17    37       P1  7948  0.70
      L1  C    17    37       P1  7949  0.22

> <Gold.PLP.Chemscore.Internal.Correction>
0.2528

> <Gold.Rescore>
     Score         DG    S(hbond)    S(metal)    S(lipo)     H(rot)  DE(clash)    DE(int)     intcor
     10.05     -13.01       2.71        0.00      68.48       3.72       0.11       2.85       ----

> <Gold.Chemscore.Fitness>
10.0477

> <Gold.Chemscore.DG>
-13.0050

> <Gold.Chemscore.ZeroCoef>
-5.4800

> <Gold.Chemscore.Hbond>
2.7057

> <Gold.Chemscore.Metal>
0.0000

> <Gold.Chemscore.Lipo>
68.4775

> <Gold.Chemscore.Internal_Hbond>
0.0000

> <Gold.Chemscore.DEClash>
0.1081

> <Gold.Chemscore.DEInternal>
2.8492

> <Gold.Chemscore.Rot>
3.7202

> <Gold.Chemscore.Internal.Correction>
   9.000000E+99

> <Gold.Chemscore.Hbonds>
donor molecule, donor type, donor heavy atom, donor atom, acceptor molecule, acceptor atom, score
      L1  H     1    31       P1  8028  0.47
      P1  H  6896  6907       L1    22  0.53
      P1  H  6896  6908       L1    13  0.10
      P1  H  7989  7998       L1     3  0.95

> <Gold.Chemscore.Hbond.Weighted>
-9.0369

> <Gold.Chemscore.Metal.Weighted>
-0.0000

> <Gold.Chemscore.Lipo.Weighted>
-8.0119

> <Gold.Chemscore.Internal_Hbond.Weighted>
0.0000

> <Gold.Chemscore.DEClash.Weighted>
0.1081

> <Gold.Chemscore.DEInternal.Weighted>
2.8492

> <Gold.Chemscore.Rot.Weighted>
9.5237

> <Gold.Chemscore.Internal.Correction.Weighted>
   9.000000E+99

> <Gold.Protein.RotatedTorsions>
[ 6907 6896 6895 6894 ] final  166.81 input  -60.11 | X-H torsion
[ 7974 7965 7964 7962 ] final  134.44 input  175.53 | X-H torsion
[ 8008 7997 7996 7995 ] final  130.83 input   59.86 | X-H torsion
[ 10167 10162 10161 10158 ] final  -32.95 input  -65.29 | X-H torsion
[ 10718 10713 10712 10709 ] final  109.25 input   66.30 | X-H torsion
[ 10763 10752 10751 10750 ] final  -28.60 input  -60.55 | X-H torsion
[ 11005 11000 10999 10996 ] final  130.95 input  -57.11 | X-H torsion

> <Gold.Protein.ActiveResidues>
 VAL166  LYS551  ARG553  GLY616  TRP617  ASP618  TYR619  PRO620  LYS621  CYS622 
 ASP623  PHE694  ASN695  SER759  ASP760  ASP761  ALA762  ILE779  LEU786  VAL792 
 PHE793  MET794  SER795  GLU796  ALA797  LYS798  CYS799  TRP800  GLU811  SER814 

> <Gold.Protein.RotatedAtoms>
  151.8731  133.3479  159.3741 H   0  0  0  0  0  0  0  0  0  0  0  0  # atno 6907 bound_to 6896
  150.7147  134.5093  159.5609 H   0  0  0  0  0  0  0  0  0  0  0  0  # atno 6908 bound_to 6896
  152.2630  134.8014  160.0478 H   0  0  0  0  0  0  0  0  0  0  0  0  # atno 6909 bound_to 6896
  144.9763  139.4552  143.5408 H   0  0  0  0  0  0  0  0  0  0  0  0  # atno 7974 bound_to 7965
  156.2961  140.2586  156.2826 H   0  0  0  0  0  0  0  0  0  0  0  0  # atno 8008 bound_to 7997
  154.9587  140.0393  157.2198 H   0  0  0  0  0  0  0  0  0  0  0  0  # atno 8009 bound_to 7997
  154.7967  140.2821  155.5956 H   0  0  0  0  0  0  0  0  0  0  0  0  # atno 8010 bound_to 7997
  140.7213  143.3656  151.1876 H   0  0  0  0  0  0  0  0  0  0  0  0  # atno 10167 bound_to 10162
  157.6550  131.0910  150.6426 H   0  0  0  0  0  0  0  0  0  0  0  0  # atno 10718 bound_to 10713
  153.7511  135.6926  153.4945 H   0  0  0  0  0  0  0  0  0  0  0  0  # atno 10763 bound_to 10752
  153.2003  135.4439  155.0257 H   0  0  0  0  0  0  0  0  0  0  0  0  # atno 10764 bound_to 10752
  154.8187  135.3411  154.7031 H   0  0  0  0  0  0  0  0  0  0  0  0  # atno 10765 bound_to 10752
  139.9702  134.9579  156.9368 H   0  0  0  0  0  0  0  0  0  0  0  0  # atno 11005 bound_to 11000
  146.3396  139.9007  142.8795 LP  0  0  0  0  0  0  0  0  0  0  0  0  # atno 17320 bound_to 7965
  145.2485  141.0035  143.3894 LP  0  0  0  0  0  0  0  0  0  0  0  0  # atno 17321 bound_to 7965
  139.7218  143.9212  152.2988 LP  0  0  0  0  0  0  0  0  0  0  0  0  # atno 17342 bound_to 10162
  139.8971  144.6933  150.8706 LP  0  0  0  0  0  0  0  0  0  0  0  0  # atno 17343 bound_to 10162
  156.6733  130.4546  149.5650 LP  0  0  0  0  0  0  0  0  0  0  0  0  # atno 17370 bound_to 10713
  156.1982  130.6603  151.1137 LP  0  0  0  0  0  0  0  0  0  0  0  0  # atno 17371 bound_to 10713
  140.5310  134.0813  155.7316 LP  0  0  0  0  0  0  0  0  0  0  0  0  # atno 17394 bound_to 11000
  141.1381  133.9185  157.2387 LP  0  0  0  0  0  0  0  0  0  0  0  0  # atno 17395 bound_to 11000

$$$$
