#       Name:                AV-unprocessed.smi:1847
#       Creating user name   scv26
#       Creation time:       Fri Mar 27 09:22:36 2020


#       File generated by GOLD software.
#

@<TRIPOS>MOLECULE
AV-unprocessed.smi:1847
    32    33     1
SMALL
NO_CHARGES


@<TRIPOS>ATOM
      1 ****        -0.4457   2.1103  -0.1164 O.2            1 S1                 0.0000
      2 ****         0.1841   1.0550  -0.0338 C.2            1 S1                 0.0000
      3 ****        -0.3930  -0.1607   0.0268 N.am           1 S1                 0.0000
      4 ****        -1.7751  -0.4904   0.0201 C.ar           1 S1                 0.0000
      5 ****        -2.1362  -1.7869  -0.4091 C.ar           1 S1                 0.0000
      6 ****        -3.4953  -2.1613  -0.4227 C.ar           1 S1                 0.0000
      7 ****        -4.4385  -1.2852  -0.0153 N.pl3          1 S1                 1.0000
      8 ****        -4.1407  -0.0423   0.4203 C.ar           1 S1                 0.0000
      9 ****        -2.7988   0.3887   0.4564 C.ar           1 S1                 0.0000
     10 ****         1.6383   0.9552  -0.0106 C.2            1 S1                 0.0000
     11 ****         2.3841   2.0814  -0.0887 C.2            1 S1                 0.0000
     12 ****         3.7553   2.0933  -0.0352 O.3            1 S1                 0.0000
     13 ****         4.3439   0.8615   0.3649 C.3            1 S1                 0.0000
     14 ****         3.6129  -0.3181  -0.2927 C.3            1 S1                 0.0000
     15 ****         2.2294  -0.2885   0.0430 O.3            1 S1                 0.0000
     16 ****         0.2431  -0.9450   0.0075 H              1 S1                 0.0000
     17 ****        -1.3811  -2.4886  -0.7339 H              1 S1                 0.0000
     18 ****        -3.8531  -3.1285  -0.7440 H              1 S1                 0.0000
     19 ****        -4.9782   0.5655   0.7305 H              1 S1                 0.0000
     20 ****        -2.5811   1.3784   0.8277 H              1 S1                 0.0000
     21 ****         1.9833   3.0827  -0.1589 H              1 S1                 0.0000
     22 ****         5.3975   0.8618   0.0850 H              1 S1                 0.0000
     23 ****         4.2995   0.7789   1.4518 H              1 S1                 0.0000
     24 ****         3.7208  -0.2770  -1.3775 H              1 S1                 0.0000
     25 ****         4.0408  -1.2648   0.0376 H              1 S1                 0.0000
     26 ****        -5.4167  -1.5760  -0.0328 H              1 S1                 0.0000
     27 ****        -1.4452   2.0954  -0.1420 LP             1 S1                 0.0000
     28 ****         0.0426   2.9820  -0.1579 LP             1 S1                 0.0000
     29 ****         4.0358   2.7988   0.6157 LP             1 S1                 0.0000
     30 ****         4.1008   2.3229  -0.9451 LP             1 S1                 0.0000
     31 ****         1.7441  -0.8891  -0.5924 LP             1 S1                 0.0000
     32 ****         2.1297  -0.6383   0.9745 LP             1 S1                 0.0000
@<TRIPOS>BOND
    1    1    2 2     
    2    2    3 am    
    3    2   10 1     
    4    3    4 1     
    5    3   16 1     
    6    4    9 ar    
    7    4    5 ar    
    8    5    6 ar    
    9    5   17 1     
   10    6    7 ar    
   11    6   18 1     
   12    7    8 ar    
   13    7   26 1     
   14    8    9 ar    
   15    8   19 1     
   16    9   20 1     
   17   10   15 1     
   18   10   11 2     
   19   11   12 1     
   20   11   21 1     
   21   12   13 1     
   22   13   14 1     
   23   13   22 1     
   24   13   23 1     
   25   14   15 1     
   26   14   24 1     
   27   14   25 1     
   28    1   27 1     
   29    1   28 1     
   30   12   29 1     
   31   12   30 1     
   32   15   31 1     
   33   15   32 1     
@<TRIPOS>SUBSTRUCTURE
      1 S1             1
@<TRIPOS>SET
LONE_PAIRS      STATIC     ATOMS    <user>   **** ""
6 27 28 29 30 31 32
DONOR_HYDROGENS      STATIC     ATOMS    <user>   **** ""
2 16 26
ATOM$BLUE        STATIC     ATOMS    COLORGROUP SYSTEM
6 27 28 29 30 31 32
ATOM$RED        STATIC     ATOMS    COLORGROUP SYSTEM
2 16 26
