AV-unprocessed.smi:102|AV-procd|sdf|953|dock2
  -GOLD-   2262017483D 1   1.00000     0.00000
 Structure written by MMmdl.
 44 45  0  0  0  0  0  0  0  0  1 V2000
  152.1672  143.2456  161.5499 C   0  0  0  0  0  0  0  0  0  0  0  0
  151.8120  143.5855  160.1078 C   0  0  0  0  0  0  0  0  0  0  0  0
  152.2827  144.5761  159.5487 O   0  0  0  0  0  0  0  0  0  0  0  0
  150.9608  142.7024  159.5629 O   0  0  0  0  0  0  0  0  0  0  0  0
  150.6343  142.8043  158.1867 C   0  0  0  0  0  0  0  0  0  0  0  0
  150.6218  141.4048  157.5565 C   0  0  2  0  0  0  0  0  0  0  0  0
  149.6748  140.5620  158.2089 O   0  0  0  0  0  0  0  0  0  0  0  0
  150.1072  139.2336  158.1994 C   0  0  1  0  0  0  0  0  0  0  0  0
  149.0816  138.3614  157.4917 N   0  0  0  0  0  0  0  0  0  0  0  0
  148.9179  138.4831  156.1176 C   0  0  0  0  0  0  0  0  0  0  0  0
  148.0441  137.7345  155.4040 C   0  0  0  0  0  0  0  0  0  0  0  0
  147.9406  137.9198  154.0771 F   0  0  0  0  0  0  0  0  0  0  0  0
  147.2168  136.7284  156.0612 C   0  0  0  0  0  0  0  0  0  0  0  0
  146.3939  136.0056  155.5030 O   0  0  0  0  0  0  0  0  0  0  0  0
  147.4246  136.6241  157.4387 N   0  0  0  0  0  0  0  0  0  0  0  0
  148.3237  137.3874  158.1857 C   0  0  0  0  0  0  0  0  0  0  0  0
  148.4167  137.1966  159.3952 O   0  0  0  0  0  0  0  0  0  0  0  0
  151.5486  139.1862  157.6395 C   0  0  1  0  0  0  0  0  0  0  0  0
  151.6576  138.6357  156.3306 O   0  0  0  0  0  0  0  0  0  0  0  0
  152.7658  138.8373  155.5942 C   0  0  0  0  0  0  0  0  0  0  0  0
  152.6471  138.2455  154.1965 C   0  0  0  0  0  0  0  0  0  0  0  0
  153.7903  139.4094  155.9659 O   0  0  0  0  0  0  0  0  0  0  0  0
  151.9556  140.6529  157.6296 C   0  0  2  0  0  0  0  0  0  0  0  0
  152.6695  140.9713  158.8208 O   0  0  0  0  0  0  0  0  0  0  0  0
  153.7280  140.2313  159.1974 C   0  0  0  0  0  0  0  0  0  0  0  0
  154.2828  140.6577  160.5500 C   0  0  0  0  0  0  0  0  0  0  0  0
  154.2248  139.3017  158.5616 O   0  0  0  0  0  0  0  0  0  0  0  0
  146.8786  135.9358  157.9363 H   0  0  0  0  0  0  0  0  0  0  0  0
  151.6699  142.3296  161.8700 H   0  0  0  0  0  0  0  0  0  0  0  0
  151.8606  144.0542  162.2133 H   0  0  0  0  0  0  0  0  0  0  0  0
  153.2437  143.1063  161.6500 H   0  0  0  0  0  0  0  0  0  0  0  0
  149.6468  143.2587  158.0938 H   0  0  0  0  0  0  0  0  0  0  0  0
  151.3452  143.4514  157.6707 H   0  0  0  0  0  0  0  0  0  0  0  0
  150.3500  141.4950  156.5057 H   0  0  0  0  0  0  0  0  0  0  0  0
  150.0928  138.9115  159.2410 H   0  0  0  0  0  0  0  0  0  0  0  0
  149.5019  139.2141  155.5773 H   0  0  0  0  0  0  0  0  0  0  0  0
  152.1772  138.6247  158.3327 H   0  0  0  0  0  0  0  0  0  0  0  0
  152.2737  137.2225  154.2484 H   0  0  0  0  0  0  0  0  0  0  0  0
  153.6183  138.2337  153.7017 H   0  0  0  0  0  0  0  0  0  0  0  0
  151.9584  138.8372  153.5935 H   0  0  0  0  0  0  0  0  0  0  0  0
  152.5702  140.8989  156.7617 H   0  0  0  0  0  0  0  0  0  0  0  0
  154.4672  141.7320  160.5634 H   0  0  0  0  0  0  0  0  0  0  0  0
  155.2219  140.1442  160.7575 H   0  0  0  0  0  0  0  0  0  0  0  0
  153.5745  140.4166  161.3425 H   0  0  0  0  0  0  0  0  0  0  0  0
  1  2  1  0  0  0  0
  1 29  1  0  0  0  0
  1 30  1  0  0  0  0
  1 31  1  0  0  0  0
  2  3  2  0  0  0  0
  2  4  1  0  0  0  0
  4  5  1  0  0  0  0
  5  6  1  0  0  0  0
  5 32  1  0  0  0  0
  5 33  1  0  0  0  0
  6 23  1  0  0  0  0
  6  7  1  0  0  0  0
  6 34  1  0  0  0  0
  7  8  1  0  0  0  0
  8  9  1  0  0  0  0
  8 18  1  0  0  0  0
  8 35  1  0  0  0  0
  9 16  1  0  0  0  0
  9 10  1  0  0  0  0
 10 11  2  0  0  0  0
 10 36  1  0  0  0  0
 11 12  1  0  0  0  0
 11 13  1  0  0  0  0
 13 14  2  0  0  0  0
 13 15  1  0  0  0  0
 15 28  1  0  0  0  0
 15 16  1  0  0  0  0
 16 17  2  0  0  0  0
 18 19  1  0  0  0  0
 18 23  1  0  0  0  0
 18 37  1  0  0  0  0
 19 20  1  0  0  0  0
 20 21  1  0  0  0  0
 20 22  2  0  0  0  0
 21 38  1  0  0  0  0
 21 39  1  0  0  0  0
 21 40  1  0  0  0  0
 23 24  1  0  0  0  0
 23 41  1  0  0  0  0
 24 25  1  0  0  0  0
 25 26  1  0  0  0  0
 25 27  2  0  0  0  0
 26 42  1  0  0  0  0
 26 43  1  0  0  0  0
 26 44  1  0  0  0  0
M  END
> <s_m_source_file>
AV-unprocessed.smi

> <i_m_source_file_index>
102

> <i_lp_mmshare_version>
43012

> <i_f3d_flags>
0

> <s_epik_input>
W0NIM11DKD1PKU9bQ0gyXVtDQEBIXTFPW0NASF0oW0NAQEhdKE9DKD1PKVtDSDNdKVtDQEhdMU9DKD1PKVtDSDNdKW4yW2NIXWMoRiljKD1PKVtuSF1jMj1P

> <s_epik_cmdline>
J2VwaWtfcHl0aG9uJywgJy1waCcsICc3LjAnLCAnLXRuJywgJzgnLCAnLW1hJywgJzIwMCcsICctbWV0YWxfYmluZGluZycsICctaW1hZScsICc8aW5maWxlLm1hZT4nLCAnLW9tYWUnLCAnPG91dGZpbGUubWFlPic=

> <r_lp_tautomer_probability>
0.999537

> <r_epik_Ionization_Penalty>
0.058267

> <r_epik_Ionization_Penalty_Charging>
0.058267

> <r_epik_Ionization_Penalty_Neutral>
6.57791e-16

> <r_epik_State_Penalty>
0.0503774

> <r_epik_Charging_Adjusted_Penalty>
0.108644

> <i_epik_Tot_Q>
0

> <i_epik_Tot_abs_Q>
0

> <r_epik_Metal_State_Penalty>
2.6644

> <b_epik_Metal_Only>
0

> <s_epik_Chemistry_Notes>
This compound has an ester and may undergo hydrolysis at high or low pH. This compound contains an acetal/aminal-like group ( X-CH(R)-Y where X, Y are N, S, or O) that may be acid/base labile, releasing an aldehyde.

> <s_lp_Force_Field>
OPLS_2005

> <r_lp_Energy>
10.5548

> <b_lp_Chiralities_Consistent>
1

> <s_lp_Variant>
AV-unprocessed.smi:102-9

> <Gold.Version>
5.8.1

> <Gold.Id.Protein>
6NUR|6NUR_protein|mol2

> <Gold.PLP.Fitness>
37.8700

> <Gold.PLP.PLP>
-32.7957

> <Gold.PLP.part.hbond>
-3.5517

> <Gold.PLP.part.metal>
0.0000

> <Gold.PLP.part.buried>
-6.4565

> <Gold.PLP.part.nonpolar>
-23.1084

> <Gold.PLP.part.repulsive>
0.0632

> <Gold.PLP.ligand.clash>
0.0000

> <Gold.PLP.ligand.torsion>
0.6375

> <Gold.PLP.Chemscore.Hbond>
2.0503

> <Gold.PLP.Chemscore.CHOScore>
0.0000

> <Gold.PLP.Chemscore.Metal>
0.0000

> <Gold.Chemscore.Hbonds>
donor molecule, donor type, donor heavy atom, donor atom, acceptor molecule, acceptor atom, score
      P1  H  7997  8008       L1    27  1.00

> <Gold.PLP.Chemscore.Internal.Correction>
0.1985

> <Gold.Rescore>
     Score         DG    S(hbond)    S(metal)    S(lipo)     H(rot)  DE(clash)    DE(int)     intcor
     -2.56      -5.69       1.34        0.00      52.23       4.05       0.17       8.08       ----

> <Gold.Chemscore.Fitness>
-2.5606

> <Gold.Chemscore.DG>
-5.6894

> <Gold.Chemscore.ZeroCoef>
-5.4800

> <Gold.Chemscore.Hbond>
1.3390

> <Gold.Chemscore.Metal>
0.0000

> <Gold.Chemscore.Lipo>
52.2264

> <Gold.Chemscore.Internal_Hbond>
0.0000

> <Gold.Chemscore.DEClash>
0.1701

> <Gold.Chemscore.DEInternal>
8.0799

> <Gold.Chemscore.Rot>
4.0520

> <Gold.Chemscore.Internal.Correction>
   9.000000E+99

> <Gold.Chemscore.Hbonds>
donor molecule, donor type, donor heavy atom, donor atom, acceptor molecule, acceptor atom, score
      P1  H  7997  8008       L1    27  0.54
      P1  H  7997  8009       L1    22  0.03

> <Gold.Chemscore.Hbond.Weighted>
-4.4721

> <Gold.Chemscore.Metal.Weighted>
-0.0000

> <Gold.Chemscore.Lipo.Weighted>
-6.1105

> <Gold.Chemscore.Internal_Hbond.Weighted>
0.0000

> <Gold.Chemscore.DEClash.Weighted>
0.1701

> <Gold.Chemscore.DEInternal.Weighted>
8.0799

> <Gold.Chemscore.Rot.Weighted>
10.3732

> <Gold.Chemscore.Internal.Correction.Weighted>
   9.000000E+99

> <Gold.Protein.RotatedTorsions>
[ 6907 6896 6895 6894 ] final  -63.08 input  -60.11 | X-H torsion
[ 7974 7965 7964 7962 ] final   50.55 input  175.53 | X-H torsion
[ 8008 7997 7996 7995 ] final -124.31 input   59.86 | X-H torsion
[ 10167 10162 10161 10158 ] final  161.35 input  -65.29 | X-H torsion
[ 10718 10713 10712 10709 ] final  -51.15 input   66.30 | X-H torsion
[ 10763 10752 10751 10750 ] final  101.13 input  -60.55 | X-H torsion
[ 11005 11000 10999 10996 ] final   74.99 input  -57.11 | X-H torsion

> <Gold.Protein.ActiveResidues>
 VAL166  LYS551  ARG553  GLY616  TRP617  ASP618  TYR619  PRO620  LYS621  CYS622 
 ASP623  PHE694  ASN695  SER759  ASP760  ASP761  ALA762  ILE779  LEU786  VAL792 
 PHE793  MET794  SER795  GLU796  ALA797  LYS798  CYS799  TRP800  GLU811  SER814 

> <Gold.Protein.RotatedAtoms>
  150.7673  134.6484  159.6274 H   0  0  0  0  0  0  0  0  0  0  0  0  # atno 6907 bound_to 6896
  152.3710  134.6731  160.0185 H   0  0  0  0  0  0  0  0  0  0  0  0  # atno 6908 bound_to 6896
  151.7091  133.3276  159.3322 H   0  0  0  0  0  0  0  0  0  0  0  0  # atno 6909 bound_to 6896
  146.0001  139.4430  143.0020 H   0  0  0  0  0  0  0  0  0  0  0  0  # atno 7974 bound_to 7965
  155.1948  140.0414  157.2907 H   0  0  0  0  0  0  0  0  0  0  0  0  # atno 8008 bound_to 7997
  154.6114  140.2477  155.7636 H   0  0  0  0  0  0  0  0  0  0  0  0  # atno 8009 bound_to 7997
  156.2381  140.2914  156.0378 H   0  0  0  0  0  0  0  0  0  0  0  0  # atno 8010 bound_to 7997
  139.4848  144.4545  151.8787 H   0  0  0  0  0  0  0  0  0  0  0  0  # atno 10167 bound_to 10162
  156.1736  130.4149  149.9611 H   0  0  0  0  0  0  0  0  0  0  0  0  # atno 10718 bound_to 10713
  153.3227  135.4055  155.1430 H   0  0  0  0  0  0  0  0  0  0  0  0  # atno 10763 bound_to 10752
  154.8604  135.3591  154.5575 H   0  0  0  0  0  0  0  0  0  0  0  0  # atno 10764 bound_to 10752
  153.6009  135.7071  153.5444 H   0  0  0  0  0  0  0  0  0  0  0  0  # atno 10765 bound_to 10752
  139.9364  134.7480  156.1216 H   0  0  0  0  0  0  0  0  0  0  0  0  # atno 11005 bound_to 11000
  145.7500  140.9976  143.1255 LP  0  0  0  0  0  0  0  0  0  0  0  0  # atno 17320 bound_to 7965
  144.6916  139.9203  143.7467 LP  0  0  0  0  0  0  0  0  0  0  0  0  # atno 17321 bound_to 7965
  140.4003  144.2501  150.5893 LP  0  0  0  0  0  0  0  0  0  0  0  0  # atno 17342 bound_to 10162
  140.5063  143.2303  151.8603 LP  0  0  0  0  0  0  0  0  0  0  0  0  # atno 17343 bound_to 10162
  156.7403  130.9077  151.3631 LP  0  0  0  0  0  0  0  0  0  0  0  0  # atno 17370 bound_to 10713
  157.6820  130.9149  150.0290 LP  0  0  0  0  0  0  0  0  0  0  0  0  # atno 17371 bound_to 10713
  141.0980  133.6688  156.2689 LP  0  0  0  0  0  0  0  0  0  0  0  0  # atno 17394 bound_to 11000
  140.6064  134.5503  157.5526 LP  0  0  0  0  0  0  0  0  0  0  0  0  # atno 17395 bound_to 11000

$$$$
