AV-unprocessed.smi:3104|AV-procd|sdf|11817|dock6
  -GOLD-   2272017193D 1   1.00000     0.00000
 Structure written by MMmdl.
 37 38  0  0  0  0  0  0  0  0  2 V2000
  153.1219  142.9115  162.6138 C   0  0  0  0  0  0  0  0  0  0  0  0
  152.8912  142.5758  161.1688 C   0  0  0  0  0  0  0  0  0  0  0  0
  153.2894  141.4016  160.4703 C   0  0  0  0  0  0  0  0  0  0  0  0
  152.9182  141.4088  159.2010 N   0  0  0  0  0  0  0  0  0  0  0  0
  152.2881  142.5921  159.0354 N   0  0  0  0  0  0  0  0  0  0  0  0
  151.7073  142.9219  157.7382 C   0  0  2  0  0  0  0  0  0  0  0  0
  151.1933  144.3741  157.7476 C   0  0  0  0  0  0  0  0  0  0  0  0
  150.6240  141.8879  157.3279 C   0  0  1  0  0  0  0  0  0  0  0  0
  149.4387  141.8516  158.3069 C   0  0  0  0  0  0  0  0  0  0  0  0
  150.1057  142.1850  155.9714 N   0  3  0  0  0  0  0  0  0  0  0  0
  149.0430  141.2749  155.4987 C   0  0  0  0  0  0  0  0  0  0  0  0
  148.4760  141.7398  154.1743 C   0  0  0  0  0  0  0  0  0  0  0  0
  147.0788  142.3126  154.1078 C   0  0  0  0  0  0  0  0  0  0  0  0
  147.3706  140.9678  153.4904 C   0  0  0  0  0  0  0  0  0  0  0  0
  152.2500  143.3120  160.2134 C   0  0  0  0  0  0  0  0  0  0  0  0
  153.8680  142.2590  163.0680 H   0  0  0  0  0  0  0  0  0  0  0  0
  152.2082  142.8112  163.1998 H   0  0  0  0  0  0  0  0  0  0  0  0
  153.4743  143.9357  162.7380 H   0  0  0  0  0  0  0  0  0  0  0  0
  153.8267  140.5444  160.8492 H   0  0  0  0  0  0  0  0  0  0  0  0
  152.5124  142.8759  157.0019 H   0  0  0  0  0  0  0  0  0  0  0  0
  150.9217  144.7113  156.7477 H   0  0  0  0  0  0  0  0  0  0  0  0
  151.9608  145.0573  158.1135 H   0  0  0  0  0  0  0  0  0  0  0  0
  150.3167  144.4867  158.3862 H   0  0  0  0  0  0  0  0  0  0  0  0
  151.0731  140.8931  157.3256 H   0  0  0  0  0  0  0  0  0  0  0  0
  149.7431  141.5165  159.2982 H   0  0  0  0  0  0  0  0  0  0  0  0
  148.6690  141.1599  157.9626 H   0  0  0  0  0  0  0  0  0  0  0  0
  148.9781  142.8345  158.4121 H   0  0  0  0  0  0  0  0  0  0  0  0
  149.7377  143.1254  155.9675 H   0  0  0  0  0  0  0  0  0  0  0  0
  149.4299  140.2612  155.3914 H   0  0  0  0  0  0  0  0  0  0  0  0
  148.2410  141.2422  156.2370 H   0  0  0  0  0  0  0  0  0  0  0  0
  149.2045  142.2235  153.5262 H   0  0  0  0  0  0  0  0  0  0  0  0
  146.4897  142.3257  155.0227 H   0  0  0  0  0  0  0  0  0  0  0  0
  146.9092  143.1491  153.4327 H   0  0  0  0  0  0  0  0  0  0  0  0
  147.3972  140.9080  152.4044 H   0  0  0  0  0  0  0  0  0  0  0  0
  146.9751  140.0888  153.9957 H   0  0  0  0  0  0  0  0  0  0  0  0
  151.7697  144.2773  160.2774 H   0  0  0  0  0  0  0  0  0  0  0  0
  150.8800  142.1411  155.3232 H   0  0  0  0  0  0  0  0  0  0  0  0
  1  2  1  0  0  0  0
  1 16  1  0  0  0  0
  1 17  1  0  0  0  0
  1 18  1  0  0  0  0
  2 15  2  0  0  0  0
  2  3  1  0  0  0  0
  3  4  2  0  0  0  0
  3 19  1  0  0  0  0
  4  5  1  0  0  0  0
  5  6  1  0  0  0  0
  5 15  1  0  0  0  0
  6  7  1  0  0  0  0
  6  8  1  0  0  0  0
  6 20  1  0  0  0  0
  7 21  1  0  0  0  0
  7 22  1  0  0  0  0
  7 23  1  0  0  0  0
  8  9  1  0  0  0  0
  8 10  1  0  0  0  0
  8 24  1  0  0  0  0
  9 25  1  0  0  0  0
  9 26  1  0  0  0  0
  9 27  1  0  0  0  0
 10 11  1  0  0  0  0
 10 28  1  0  0  0  0
 10 37  1  0  0  0  0
 11 12  1  0  0  0  0
 11 29  1  0  0  0  0
 11 30  1  0  0  0  0
 12 14  1  0  0  0  0
 12 13  1  0  0  0  0
 12 31  1  0  0  0  0
 13 14  1  0  0  0  0
 13 32  1  0  0  0  0
 13 33  1  0  0  0  0
 14 34  1  0  0  0  0
 14 35  1  0  0  0  0
 15 36  1  0  0  0  0
M  CHG  1  10   1
M  END
> <s_m_source_file>
AV-unprocessed.smi

> <i_m_source_file_index>
3104

> <i_lp_mmshare_version>
43012

> <i_f3d_flags>
0

> <s_epik_input>
W0NIM11jMVtjSF1ubihbY0hdMSlbQ0BIXShbQ0gzXSlbQ0BIXShbQ0gzXSlbTkhdW0NIMl1bQ0hdMltDSDJdW0NIMl0y

> <s_epik_cmdline>
J2VwaWtfcHl0aG9uJywgJy1waCcsICc3LjAnLCAnLXRuJywgJzgnLCAnLW1hJywgJzIwMCcsICctbWV0YWxfYmluZGluZycsICctaW1hZScsICc8aW5maWxlLm1hZT4nLCAnLW9tYWUnLCAnPG91dGZpbGUubWFlPic=

> <r_lp_tautomer_probability>
1

> <r_epik_Ionization_Penalty>
0.00120445

> <r_epik_Ionization_Penalty_Charging>
0.00118273

> <r_epik_Ionization_Penalty_Neutral>
2.17265e-05

> <r_epik_State_Penalty>
-0

> <r_epik_Charging_Adjusted_Penalty>
0.00118273

> <i_epik_Tot_Q>
1

> <i_epik_Tot_abs_Q>
1

> <r_epik_Metal_State_Penalty>
-0

> <b_epik_Metal_Only>
0

> <s_lp_Force_Field>
OPLS_2005

> <r_lp_Energy>
20.7188

> <b_lp_Chiralities_Consistent>
1

> <s_lp_Variant>
AV-unprocessed.smi:3104-3

> <Gold.Version>
5.8.1

> <Gold.Id.Protein>
6NUR|6NUR_protein|mol2

> <Gold.PLP.Fitness>
46.0176

> <Gold.PLP.PLP>
-40.2791

> <Gold.PLP.part.hbond>
-1.0000

> <Gold.PLP.part.metal>
0.0000

> <Gold.PLP.part.buried>
-3.3863

> <Gold.PLP.part.nonpolar>
-35.8617

> <Gold.PLP.part.repulsive>
0.1253

> <Gold.PLP.ligand.clash>
0.0000

> <Gold.PLP.ligand.torsion>
0.4408

> <Gold.PLP.Chemscore.Hbond>
2.0000

> <Gold.PLP.Chemscore.CHOScore>
0.0000

> <Gold.PLP.Chemscore.Metal>
0.0000

> <Gold.Chemscore.Hbonds>
donor molecule, donor type, donor heavy atom, donor atom, acceptor molecule, acceptor atom, score
      L1  H    10    28       P1  8028  2.00

> <Gold.PLP.Chemscore.Internal.Correction>
0.6202

> <Gold.Rescore>
     Score         DG    S(hbond)    S(metal)    S(lipo)     H(rot)  DE(clash)    DE(int)     intcor
     16.82     -17.61       1.00        0.00     107.77       1.49       0.38       0.41       ----

> <Gold.Chemscore.Fitness>
16.8192

> <Gold.Chemscore.DG>
-17.6086

> <Gold.Chemscore.ZeroCoef>
-5.4800

> <Gold.Chemscore.Hbond>
1.0000

> <Gold.Chemscore.Metal>
0.0000

> <Gold.Chemscore.Lipo>
107.7686

> <Gold.Chemscore.Internal_Hbond>
0.0000

> <Gold.Chemscore.DEClash>
0.3764

> <Gold.Chemscore.DEInternal>
0.4130

> <Gold.Chemscore.Rot>
1.4923

> <Gold.Chemscore.Internal.Correction>
   9.000000E+99

> <Gold.Chemscore.Hbonds>
donor molecule, donor type, donor heavy atom, donor atom, acceptor molecule, acceptor atom, score
      L1  H    10    28       P1  8028  1.00

> <Gold.Chemscore.Hbond.Weighted>
-3.3400

> <Gold.Chemscore.Metal.Weighted>
-0.0000

> <Gold.Chemscore.Lipo.Weighted>
-12.6089

> <Gold.Chemscore.Internal_Hbond.Weighted>
0.0000

> <Gold.Chemscore.DEClash.Weighted>
0.3764

> <Gold.Chemscore.DEInternal.Weighted>
0.4130

> <Gold.Chemscore.Rot.Weighted>
3.8204

> <Gold.Chemscore.Internal.Correction.Weighted>
   9.000000E+99

> <Gold.Protein.RotatedTorsions>
[ 6907 6896 6895 6894 ] final   35.78 input  -60.11 | X-H torsion
[ 7974 7965 7964 7962 ] final  -58.16 input  175.53 | X-H torsion
[ 8008 7997 7996 7995 ] final  -90.89 input   59.86 | X-H torsion
[ 10167 10162 10161 10158 ] final  -72.83 input  -65.29 | X-H torsion
[ 10718 10713 10712 10709 ] final   24.47 input   66.30 | X-H torsion
[ 10763 10752 10751 10750 ] final  176.23 input  -60.55 | X-H torsion
[ 11005 11000 10999 10996 ] final -143.23 input  -57.11 | X-H torsion

> <Gold.Protein.ActiveResidues>
 VAL166  LYS551  ARG553  GLY616  TRP617  ASP618  TYR619  PRO620  LYS621  CYS622 
 ASP623  PHE694  ASN695  SER759  ASP760  ASP761  ALA762  ILE779  LEU786  VAL792 
 PHE793  MET794  SER795  GLU796  ALA797  LYS798  CYS799  TRP800  GLU811  SER814 

> <Gold.Protein.RotatedAtoms>
  152.1209  134.9206  160.0562 H   0  0  0  0  0  0  0  0  0  0  0  0  # atno 6907 bound_to 6896
  152.0348  133.3947  159.4320 H   0  0  0  0  0  0  0  0  0  0  0  0  # atno 6908 bound_to 6896
  150.6849  134.3402  159.4908 H   0  0  0  0  0  0  0  0  0  0  0  0  # atno 6909 bound_to 6896
  145.8426  140.8407  143.0027 H   0  0  0  0  0  0  0  0  0  0  0  0  # atno 7974 bound_to 7965
  154.7041  140.0525  157.0486 H   0  0  0  0  0  0  0  0  0  0  0  0  # atno 8008 bound_to 7997
  155.0645  140.3193  155.4631 H   0  0  0  0  0  0  0  0  0  0  0  0  # atno 8009 bound_to 7997
  156.2769  140.2093  156.5772 H   0  0  0  0  0  0  0  0  0  0  0  0  # atno 8010 bound_to 7997
  140.5160  143.2338  151.7511 H   0  0  0  0  0  0  0  0  0  0  0  0  # atno 10167 bound_to 10162
  157.1802  130.6799  149.6110 H   0  0  0  0  0  0  0  0  0  0  0  0  # atno 10718 bound_to 10713
  154.4784  135.2774  155.1590 H   0  0  0  0  0  0  0  0  0  0  0  0  # atno 10763 bound_to 10752
  154.3310  135.6190  153.5555 H   0  0  0  0  0  0  0  0  0  0  0  0  # atno 10764 bound_to 10752
  152.9872  135.5765  154.5179 H   0  0  0  0  0  0  0  0  0  0  0  0  # atno 10765 bound_to 10752
  140.8146  134.2703  157.4926 H   0  0  0  0  0  0  0  0  0  0  0  0  # atno 11005 bound_to 11000
  144.6733  140.0834  143.7468 LP  0  0  0  0  0  0  0  0  0  0  0  0  # atno 17320 bound_to 7965
  145.9448  139.2693  143.1247 LP  0  0  0  0  0  0  0  0  0  0  0  0  # atno 17321 bound_to 7965
  139.4909  144.4323  151.9859 LP  0  0  0  0  0  0  0  0  0  0  0  0  # atno 17342 bound_to 10162
  140.3417  144.3195  150.5966 LP  0  0  0  0  0  0  0  0  0  0  0  0  # atno 17343 bound_to 10162
  155.9725  130.4649  150.6235 LP  0  0  0  0  0  0  0  0  0  0  0  0  # atno 17370 bound_to 10713
  157.3960  131.0803  151.1351 LP  0  0  0  0  0  0  0  0  0  0  0  0  # atno 17371 bound_to 10713
  139.8712  134.9502  156.4048 LP  0  0  0  0  0  0  0  0  0  0  0  0  # atno 17394 bound_to 11000
  140.9162  133.7677  155.9851 LP  0  0  0  0  0  0  0  0  0  0  0  0  # atno 17395 bound_to 11000

$$$$
