AV-unprocessed.smi:1762|AV-procd|sdf|7099|dock10
  -GOLD-   22720 8313D 1   1.00000     0.00000
 Structure written by MMmdl.
 52 53  0  0  0  0  0  0  0  0  1 V2000
  147.3254  136.8151  160.1845 C   0  0  0  0  0  0  0  0  0  0  0  0
  147.6275  137.2751  158.7540 C   0  0  2  0  0  0  0  0  0  0  0  0
  149.1079  137.6541  158.5655 C   0  0  0  0  0  0  0  0  0  0  0  0
  149.3929  138.1737  157.2238 N   0  0  0  0  0  0  0  0  0  0  0  0
  150.8378  138.4680  157.0087 C   0  0  2  0  0  0  0  0  0  0  0  0
  151.4633  139.3133  158.1436 C   0  0  0  0  0  0  0  0  0  0  0  0
  151.0865  140.4692  158.3404 O   0  0  0  0  0  0  0  0  0  0  0  0
  152.3945  138.7104  158.9000 N   0  0  0  0  0  0  0  0  0  0  0  0
  153.0680  139.3198  160.0401 C   0  0  0  0  0  0  0  0  0  0  0  0
  153.8626  140.5681  159.6212 C   0  0  0  0  0  0  0  0  0  0  0  0
  153.1845  141.8539  160.0537 C   0  0  0  0  0  0  0  0  0  0  0  0
  152.9485  142.1179  161.4198 C   0  0  0  0  0  0  0  0  0  0  0  0
  152.3110  143.3237  161.7698 C   0  0  0  0  0  0  0  0  0  0  0  0
  151.9345  144.2138  160.7454 C   0  0  0  0  0  0  0  0  0  0  0  0
  152.2130  143.8564  159.4110 C   0  0  0  0  0  0  0  0  0  0  0  0
  152.8239  142.7026  159.0645 N   0  0  0  0  0  0  0  0  0  0  0  0
  151.1867  139.0738  155.6073 C   0  0  0  0  0  0  0  0  0  0  0  0
  152.5288  138.5734  155.0352 C   0  0  0  0  0  0  0  0  0  0  0  0
  151.1246  140.6132  155.5601 C   0  0  0  0  0  0  0  0  0  0  0  0
  148.4925  139.3115  156.9641 C   0  0  0  0  0  0  0  0  0  0  0  0
  147.0032  138.9776  157.1820 C   0  0  1  0  0  0  0  0  0  0  0  0
  146.4050  138.1042  156.0651 C   0  0  0  0  0  0  0  0  0  0  0  0
  146.8058  138.4027  158.4714 O   0  0  0  0  0  0  0  0  0  0  0  0
  147.9173  135.9383  160.4479 H   0  0  0  0  0  0  0  0  0  0  0  0
  146.2735  136.5505  160.2944 H   0  0  0  0  0  0  0  0  0  0  0  0
  147.5489  137.6000  160.9076 H   0  0  0  0  0  0  0  0  0  0  0  0
  147.3724  136.4605  158.0757 H   0  0  0  0  0  0  0  0  0  0  0  0
  149.3992  138.3894  159.3179 H   0  0  0  0  0  0  0  0  0  0  0  0
  149.6878  136.7556  158.7650 H   0  0  0  0  0  0  0  0  0  0  0  0
  151.3565  137.5073  157.0460 H   0  0  0  0  0  0  0  0  0  0  0  0
  152.6441  137.7578  158.6768 H   0  0  0  0  0  0  0  0  0  0  0  0
  152.3105  139.5885  160.7770 H   0  0  0  0  0  0  0  0  0  0  0  0
  153.7236  138.5914  160.5205 H   0  0  0  0  0  0  0  0  0  0  0  0
  154.8664  140.5370  160.0473 H   0  0  0  0  0  0  0  0  0  0  0  0
  153.9922  140.5830  158.5380 H   0  0  0  0  0  0  0  0  0  0  0  0
  153.2472  141.4136  162.1825 H   0  0  0  0  0  0  0  0  0  0  0  0
  152.1136  143.5612  162.8048 H   0  0  0  0  0  0  0  0  0  0  0  0
  151.4436  145.1475  160.9765 H   0  0  0  0  0  0  0  0  0  0  0  0
  151.9368  144.5145  158.6004 H   0  0  0  0  0  0  0  0  0  0  0  0
  150.4483  138.7066  154.8965 H   0  0  0  0  0  0  0  0  0  0  0  0
  153.3833  138.9687  155.5857 H   0  0  0  0  0  0  0  0  0  0  0  0
  152.6466  138.8811  153.9958 H   0  0  0  0  0  0  0  0  0  0  0  0
  152.5870  137.4849  155.0608 H   0  0  0  0  0  0  0  0  0  0  0  0
  151.8912  141.0718  156.1838 H   0  0  0  0  0  0  0  0  0  0  0  0
  150.1565  140.9868  155.8940 H   0  0  0  0  0  0  0  0  0  0  0  0
  151.2750  140.9751  154.5427 H   0  0  0  0  0  0  0  0  0  0  0  0
  148.7663  140.1429  157.6162 H   0  0  0  0  0  0  0  0  0  0  0  0
  148.5883  139.6808  155.9437 H   0  0  0  0  0  0  0  0  0  0  0  0
  146.4470  139.9154  157.1798 H   0  0  0  0  0  0  0  0  0  0  0  0
  146.4522  138.6178  155.1046 H   0  0  0  0  0  0  0  0  0  0  0  0
  145.3580  137.8773  156.2670 H   0  0  0  0  0  0  0  0  0  0  0  0
  146.9369  137.1596  155.9529 H   0  0  0  0  0  0  0  0  0  0  0  0
  1  2  1  0  0  0  0
  1 24  1  0  0  0  0
  1 25  1  0  0  0  0
  1 26  1  0  0  0  0
  2 23  1  0  0  0  0
  2  3  1  0  0  0  0
  2 27  1  0  0  0  0
  3  4  1  0  0  0  0
  3 28  1  0  0  0  0
  3 29  1  0  0  0  0
  4  5  1  0  0  0  0
  4 20  1  0  0  0  0
  5  6  1  0  0  0  0
  5 17  1  0  0  0  0
  5 30  1  0  0  0  0
  6  7  2  0  0  0  0
  6  8  1  0  0  0  0
  8  9  1  0  0  0  0
  8 31  1  0  0  0  0
  9 10  1  0  0  0  0
  9 32  1  0  0  0  0
  9 33  1  0  0  0  0
 10 11  1  0  0  0  0
 10 34  1  0  0  0  0
 10 35  1  0  0  0  0
 11 16  1  0  0  0  0
 11 12  2  0  0  0  0
 12 13  1  0  0  0  0
 12 36  1  0  0  0  0
 13 14  2  0  0  0  0
 13 37  1  0  0  0  0
 14 15  1  0  0  0  0
 14 38  1  0  0  0  0
 15 16  2  0  0  0  0
 15 39  1  0  0  0  0
 17 18  1  0  0  0  0
 17 19  1  0  0  0  0
 17 40  1  0  0  0  0
 18 41  1  0  0  0  0
 18 42  1  0  0  0  0
 18 43  1  0  0  0  0
 19 44  1  0  0  0  0
 19 45  1  0  0  0  0
 19 46  1  0  0  0  0
 20 21  1  0  0  0  0
 20 47  1  0  0  0  0
 20 48  1  0  0  0  0
 21 22  1  0  0  0  0
 21 23  1  0  0  0  0
 21 49  1  0  0  0  0
 22 50  1  0  0  0  0
 22 51  1  0  0  0  0
 22 52  1  0  0  0  0
M  END
> <s_m_source_file>
AV-unprocessed.smi

> <i_m_source_file_index>
1762

> <i_lp_mmshare_version>
43012

> <i_f3d_flags>
0

> <s_epik_input>
W0NIM11bQ0BASF0xW0NIMl1OKFtDSDJdW0NASF0oTzEpW0NIM10pW0NAQEhdKFtDSF0oW0NIM10pW0NIM10pQyg9TylbTkhdW0NIMl1bQ0gyXWMyW2NIXVtjSF1bY0hdW2NIXW4y

> <s_epik_cmdline>
J2VwaWtfcHl0aG9uJywgJy1waCcsICc3LjAnLCAnLXRuJywgJzgnLCAnLW1hJywgJzIwMCcsICctbWV0YWxfYmluZGluZycsICctaW1hZScsICc8aW5maWxlLm1hZT4nLCAnLW9tYWUnLCAnPG91dGZpbGUubWFlPic=

> <r_epik_Ionization_Penalty>
0.0399736

> <r_epik_Ionization_Penalty_Charging>
0

> <r_epik_Ionization_Penalty_Neutral>
0.0399736

> <r_epik_State_Penalty>
0.0317634

> <r_epik_Charging_Adjusted_Penalty>
0.0317634

> <i_epik_Tot_Q>
0

> <i_epik_Tot_abs_Q>
0

> <r_epik_Metal_State_Penalty>
0.0307795

> <b_epik_Metal_Only>
0

> <s_lp_Force_Field>
OPLS_2005

> <r_lp_Energy>
28.4472

> <b_lp_Chiralities_Consistent>
1

> <s_lp_Variant>
AV-unprocessed.smi:1762-1

> <Gold.Version>
5.8.1

> <Gold.Id.Protein>
6NUR|6NUR_protein|mol2

> <Gold.PLP.Fitness>
44.0073

> <Gold.PLP.PLP>
-44.4096

> <Gold.PLP.part.hbond>
-1.0000

> <Gold.PLP.part.metal>
0.0000

> <Gold.PLP.part.buried>
-6.5391

> <Gold.PLP.part.nonpolar>
-36.7171

> <Gold.PLP.part.repulsive>
0.0805

> <Gold.PLP.ligand.clash>
0.0000

> <Gold.PLP.ligand.torsion>
1.1677

> <Gold.PLP.Chemscore.Hbond>
0.5392

> <Gold.PLP.Chemscore.CHOScore>
0.0000

> <Gold.PLP.Chemscore.Metal>
0.0000

> <Gold.PLP.Chemscore.Internal.Correction>
0.3155

> <Gold.Rescore>
     Score         DG    S(hbond)    S(metal)    S(lipo)     H(rot)  DE(clash)    DE(int)     intcor
     12.39     -16.71       0.53        0.00     115.74       1.60       0.06       4.26       ----

> <Gold.Chemscore.Fitness>
12.3914

> <Gold.Chemscore.DG>
-16.7091

> <Gold.Chemscore.ZeroCoef>
-5.4800

> <Gold.Chemscore.Hbond>
0.5335

> <Gold.Chemscore.Metal>
0.0000

> <Gold.Chemscore.Lipo>
115.7382

> <Gold.Chemscore.Internal_Hbond>
0.0000

> <Gold.Chemscore.DEClash>
0.0553

> <Gold.Chemscore.DEInternal>
4.2624

> <Gold.Chemscore.Rot>
1.5993

> <Gold.Chemscore.Internal.Correction>
   9.000000E+99

> <Gold.Chemscore.Hbond.Weighted>
-1.7818

> <Gold.Chemscore.Metal.Weighted>
-0.0000

> <Gold.Chemscore.Lipo.Weighted>
-13.5414

> <Gold.Chemscore.Internal_Hbond.Weighted>
0.0000

> <Gold.Chemscore.DEClash.Weighted>
0.0553

> <Gold.Chemscore.DEInternal.Weighted>
4.2624

> <Gold.Chemscore.Rot.Weighted>
4.0941

> <Gold.Chemscore.Internal.Correction.Weighted>
   9.000000E+99

> <Gold.Protein.RotatedTorsions>
[ 6907 6896 6895 6894 ] final -160.12 input  -60.11 | X-H torsion
[ 7974 7965 7964 7962 ] final   60.59 input  175.53 | X-H torsion
[ 8008 7997 7996 7995 ] final  118.11 input   59.86 | X-H torsion
[ 10167 10162 10161 10158 ] final  -31.28 input  -65.29 | X-H torsion
[ 10718 10713 10712 10709 ] final  -54.56 input   66.30 | X-H torsion
[ 10763 10752 10751 10750 ] final  152.35 input  -60.55 | X-H torsion
[ 11005 11000 10999 10996 ] final    2.97 input  -57.11 | X-H torsion

> <Gold.Protein.ActiveResidues>
 VAL166  LYS551  ARG553  GLY616  TRP617  ASP618  TYR619  PRO620  LYS621  CYS622 
 ASP623  PHE694  ASN695  SER759  ASP760  ASP761  ALA762  ILE779  LEU786  VAL792 
 PHE793  MET794  SER795  GLU796  ALA797  LYS798  CYS799  TRP800  GLU811  SER814 

> <Gold.Protein.RotatedAtoms>
  151.3441  133.3951  159.2673 H   0  0  0  0  0  0  0  0  0  0  0  0  # atno 6907 bound_to 6896
  150.9854  134.9201  159.7879 H   0  0  0  0  0  0  0  0  0  0  0  0  # atno 6908 bound_to 6896
  152.5230  134.3405  159.9268 H   0  0  0  0  0  0  0  0  0  0  0  0  # atno 6909 bound_to 6896
  145.8942  139.3533  143.0631 H   0  0  0  0  0  0  0  0  0  0  0  0  # atno 7974 bound_to 7965
  156.2530  140.2881  156.0784 H   0  0  0  0  0  0  0  0  0  0  0  0  # atno 8008 bound_to 7997
  155.1593  140.0399  157.2856 H   0  0  0  0  0  0  0  0  0  0  0  0  # atno 8009 bound_to 7997
  154.6404  140.2521  155.7335 H   0  0  0  0  0  0  0  0  0  0  0  0  # atno 8010 bound_to 7997
  140.7238  143.3783  151.1648 H   0  0  0  0  0  0  0  0  0  0  0  0  # atno 10167 bound_to 10162
  156.1441  130.4153  150.0054 H   0  0  0  0  0  0  0  0  0  0  0  0  # atno 10718 bound_to 10713
  154.1186  135.2834  155.3214 H   0  0  0  0  0  0  0  0  0  0  0  0  # atno 10763 bound_to 10752
  154.6439  135.5392  153.7825 H   0  0  0  0  0  0  0  0  0  0  0  0  # atno 10764 bound_to 10752
  153.0320  135.6493  154.1341 H   0  0  0  0  0  0  0  0  0  0  0  0  # atno 10765 bound_to 10752
  140.5983  133.9859  155.8120 H   0  0  0  0  0  0  0  0  0  0  0  0  # atno 11005 bound_to 11000
  145.8870  140.9327  143.0571 LP  0  0  0  0  0  0  0  0  0  0  0  0  # atno 17320 bound_to 7965
  144.6732  140.0856  143.7467 LP  0  0  0  0  0  0  0  0  0  0  0  0  # atno 17321 bound_to 7965
  139.7367  143.8987  152.3037 LP  0  0  0  0  0  0  0  0  0  0  0  0  # atno 17342 bound_to 10162
  139.8795  144.7025  150.8894 LP  0  0  0  0  0  0  0  0  0  0  0  0  # atno 17343 bound_to 10162
  156.7931  130.9263  151.3646 LP  0  0  0  0  0  0  0  0  0  0  0  0  # atno 17370 bound_to 10713
  157.6601  130.8958  149.9811 LP  0  0  0  0  0  0  0  0  0  0  0  0  # atno 17371 bound_to 10713
  141.0889  133.9947  157.3269 LP  0  0  0  0  0  0  0  0  0  0  0  0  # atno 17394 bound_to 11000
  139.9243  135.0201  156.8179 LP  0  0  0  0  0  0  0  0  0  0  0  0  # atno 17395 bound_to 11000

$$$$
