AV-unprocessed.smi:959|AV-procd|sdf|4270|dock2
  -GOLD-   22720 2173D 1   1.00000     0.00000
 Structure written by MMmdl.
 33 34  0  0  0  0  0  0  0  0  2 V2000
  152.2385  144.4968  159.2524 C   0  0  0  0  0  0  0  0  0  0  0  0
  151.9891  143.2611  160.1347 C   0  0  0  0  0  0  0  0  0  0  0  0
  152.4617  143.4952  161.5772 C   0  0  0  0  0  0  0  0  0  0  0  0
  152.6013  142.0543  159.5849 N   0  0  0  0  0  0  0  0  0  0  0  0
  153.5729  141.2880  160.1123 C   0  0  0  0  0  0  0  0  0  0  0  0
  153.9196  140.2279  159.3859 N   0  0  0  0  0  0  0  0  0  0  0  0
  153.0941  140.2799  158.2847 N   0  0  0  0  0  0  0  0  0  0  0  0
  152.3165  141.3567  158.4599 C   0  0  0  0  0  0  0  0  0  0  0  0
  151.2565  141.7617  157.4718 C   0  0  1  0  0  0  0  0  0  0  0  0
  151.2014  140.8036  156.2672 C   0  0  0  0  0  0  0  0  0  0  0  0
  150.1007  141.2337  155.2855 C   0  0  0  0  0  0  0  0  0  0  0  0
  148.7454  141.3622  156.0004 C   0  0  0  0  0  0  0  0  0  0  0  0
  148.8441  142.2957  157.1435 N   0  3  0  0  0  0  0  0  0  0  0  0
  149.8676  141.8915  158.1328 C   0  0  0  0  0  0  0  0  0  0  0  0
  151.6835  145.3579  159.6261 H   0  0  0  0  0  0  0  0  0  0  0  0
  151.9157  144.3215  158.2256 H   0  0  0  0  0  0  0  0  0  0  0  0
  153.2926  144.7750  159.2324 H   0  0  0  0  0  0  0  0  0  0  0  0
  150.9101  143.1078  160.1436 H   0  0  0  0  0  0  0  0  0  0  0  0
  151.9781  144.3712  162.0106 H   0  0  0  0  0  0  0  0  0  0  0  0
  153.5395  143.6563  161.6186 H   0  0  0  0  0  0  0  0  0  0  0  0
  152.2290  142.6421  162.2149 H   0  0  0  0  0  0  0  0  0  0  0  0
  154.0494  141.5086  161.0559 H   0  0  0  0  0  0  0  0  0  0  0  0
  151.5013  142.7504  157.0869 H   0  0  0  0  0  0  0  0  0  0  0  0
  152.1661  140.7820  155.7585 H   0  0  0  0  0  0  0  0  0  0  0  0
  151.0064  139.7857  156.6081 H   0  0  0  0  0  0  0  0  0  0  0  0
  150.3678  142.1886  154.8308 H   0  0  0  0  0  0  0  0  0  0  0  0
  150.0263  140.5131  154.4705 H   0  0  0  0  0  0  0  0  0  0  0  0
  147.9849  141.7255  155.3088 H   0  0  0  0  0  0  0  0  0  0  0  0
  148.4110  140.3878  156.3596 H   0  0  0  0  0  0  0  0  0  0  0  0
  149.0819  143.2116  156.7901 H   0  0  0  0  0  0  0  0  0  0  0  0
  149.5637  140.9460  158.5849 H   0  0  0  0  0  0  0  0  0  0  0  0
  149.8952  142.6329  158.9324 H   0  0  0  0  0  0  0  0  0  0  0  0
  147.9460  142.3469  157.6031 H   0  0  0  0  0  0  0  0  0  0  0  0
  1  2  1  0  0  0  0
  1 15  1  0  0  0  0
  1 16  1  0  0  0  0
  1 17  1  0  0  0  0
  2  3  1  0  0  0  0
  2  4  1  0  0  0  0
  2 18  1  0  0  0  0
  3 19  1  0  0  0  0
  3 20  1  0  0  0  0
  3 21  1  0  0  0  0
  4  8  1  0  0  0  0
  4  5  1  0  0  0  0
  5  6  2  0  0  0  0
  5 22  1  0  0  0  0
  6  7  1  0  0  0  0
  7  8  2  0  0  0  0
  8  9  1  0  0  0  0
  9 14  1  0  0  0  0
  9 10  1  0  0  0  0
  9 23  1  0  0  0  0
 10 11  1  0  0  0  0
 10 24  1  0  0  0  0
 10 25  1  0  0  0  0
 11 12  1  0  0  0  0
 11 26  1  0  0  0  0
 11 27  1  0  0  0  0
 12 13  1  0  0  0  0
 12 28  1  0  0  0  0
 12 29  1  0  0  0  0
 13 14  1  0  0  0  0
 13 30  1  0  0  0  0
 13 33  1  0  0  0  0
 14 31  1  0  0  0  0
 14 32  1  0  0  0  0
M  CHG  1  13   1
M  END
> <s_m_source_file>
AV-unprocessed.smi

> <i_m_source_file_index>
959

> <i_lp_mmshare_version>
43012

> <i_f3d_flags>
0

> <s_epik_input>
W0NIM11bQ0hdKFtDSDNdKW4xW2NIXW5uYzFbQ0BASF0yW0NIMl1bQ0gyXVtDSDJdW05IXVtDSDJdMg==

> <s_epik_cmdline>
J2VwaWtfcHl0aG9uJywgJy1waCcsICc3LjAnLCAnLXRuJywgJzgnLCAnLW1hJywgJzIwMCcsICctbWV0YWxfYmluZGluZycsICctaW1hZScsICc8aW5maWxlLm1hZT4nLCAnLW9tYWUnLCAnPG91dGZpbGUubWFlPic=

> <r_lp_tautomer_probability>
1

> <r_epik_Ionization_Penalty>
0.000442722

> <r_epik_Ionization_Penalty_Charging>
0.000426856

> <r_epik_Ionization_Penalty_Neutral>
1.58656e-05

> <r_epik_State_Penalty>
-0

> <r_epik_Charging_Adjusted_Penalty>
0.000426856

> <i_epik_Tot_Q>
1

> <i_epik_Tot_abs_Q>
1

> <r_epik_Metal_State_Penalty>
-0

> <b_epik_Metal_Only>
0

> <s_lp_Force_Field>
OPLS_2005

> <r_lp_Energy>
20.311

> <b_lp_Chiralities_Consistent>
1

> <s_lp_Variant>
AV-unprocessed.smi:959-2

> <Gold.Version>
5.8.1

> <Gold.Id.Protein>
6NUR|6NUR_protein|mol2

> <Gold.PLP.Fitness>
42.0447

> <Gold.PLP.PLP>
-33.7140

> <Gold.PLP.part.hbond>
-2.2991

> <Gold.PLP.part.metal>
0.0000

> <Gold.PLP.part.buried>
-2.4370

> <Gold.PLP.part.nonpolar>
-27.6695

> <Gold.PLP.part.repulsive>
0.0323

> <Gold.PLP.ligand.clash>
0.0000

> <Gold.PLP.ligand.torsion>
0.1432

> <Gold.PLP.Chemscore.Hbond>
2.8480

> <Gold.PLP.Chemscore.CHOScore>
0.0000

> <Gold.PLP.Chemscore.Metal>
0.0000

> <Gold.Chemscore.Hbonds>
donor molecule, donor type, donor heavy atom, donor atom, acceptor molecule, acceptor atom, score
      L1  H    13    30       P1  8028  2.00
      P1  H  7997  8009       L1     7  0.81

> <Gold.PLP.Chemscore.Internal.Correction>
0.0730

> <Gold.Rescore>
     Score         DG    S(hbond)    S(metal)    S(lipo)     H(rot)  DE(clash)    DE(int)     intcor
     14.56     -14.68       1.34        0.00      67.34       1.24       0.07       0.05       ----

> <Gold.Chemscore.Fitness>
14.5599

> <Gold.Chemscore.DG>
-14.6793

> <Gold.Chemscore.ZeroCoef>
-5.4800

> <Gold.Chemscore.Hbond>
1.3423

> <Gold.Chemscore.Metal>
0.0000

> <Gold.Chemscore.Lipo>
67.3445

> <Gold.Chemscore.Internal_Hbond>
0.0000

> <Gold.Chemscore.DEClash>
0.0743

> <Gold.Chemscore.DEInternal>
0.0450

> <Gold.Chemscore.Rot>
1.2357

> <Gold.Chemscore.Internal.Correction>
   9.000000E+99

> <Gold.Chemscore.Hbonds>
donor molecule, donor type, donor heavy atom, donor atom, acceptor molecule, acceptor atom, score
      L1  H    13    30       P1  8028  0.92
      P1  H  7997  8009       L1     7  0.17

> <Gold.Chemscore.Hbond.Weighted>
-4.4833

> <Gold.Chemscore.Metal.Weighted>
-0.0000

> <Gold.Chemscore.Lipo.Weighted>
-7.8793

> <Gold.Chemscore.Internal_Hbond.Weighted>
0.0000

> <Gold.Chemscore.DEClash.Weighted>
0.0743

> <Gold.Chemscore.DEInternal.Weighted>
0.0450

> <Gold.Chemscore.Rot.Weighted>
3.1634

> <Gold.Chemscore.Internal.Correction.Weighted>
   9.000000E+99

> <Gold.Protein.RotatedTorsions>
[ 6907 6896 6895 6894 ] final  143.89 input  -60.11 | X-H torsion
[ 7974 7965 7964 7962 ] final   -3.58 input  175.53 | X-H torsion
[ 8008 7997 7996 7995 ] final  168.74 input   59.86 | X-H torsion
[ 10167 10162 10161 10158 ] final -100.54 input  -65.29 | X-H torsion
[ 10718 10713 10712 10709 ] final  146.75 input   66.30 | X-H torsion
[ 10763 10752 10751 10750 ] final   52.44 input  -60.55 | X-H torsion
[ 11005 11000 10999 10996 ] final  -14.08 input  -57.11 | X-H torsion

> <Gold.Protein.ActiveResidues>
 VAL166  LYS551  ARG553  GLY616  TRP617  ASP618  TYR619  PRO620  LYS621  CYS622 
 ASP623  PHE694  ASN695  SER759  ASP760  ASP761  ALA762  ILE779  LEU786  VAL792 
 PHE793  MET794  SER795  GLU796  ALA797  LYS798  CYS799  TRP800  GLU811  SER814 

> <Gold.Protein.RotatedAtoms>
  152.2006  133.4838  159.5056 H   0  0  0  0  0  0  0  0  0  0  0  0  # atno 6907 bound_to 6896
  150.6969  134.1595  159.4180 H   0  0  0  0  0  0  0  0  0  0  0  0  # atno 6908 bound_to 6896
  151.9513  135.0167  160.0593 H   0  0  0  0  0  0  0  0  0  0  0  0  # atno 6909 bound_to 6896
  146.2387  140.1743  142.8332 H   0  0  0  0  0  0  0  0  0  0  0  0  # atno 7974 bound_to 7965
  156.1520  140.1582  156.8754 H   0  0  0  0  0  0  0  0  0  0  0  0  # atno 8008 bound_to 7997
  154.5080  140.0808  156.7970 H   0  0  0  0  0  0  0  0  0  0  0  0  # atno 8009 bound_to 7997
  155.3877  140.3408  155.4252 H   0  0  0  0  0  0  0  0  0  0  0  0  # atno 8010 bound_to 7997
  140.2508  143.3474  152.0716 H   0  0  0  0  0  0  0  0  0  0  0  0  # atno 10167 bound_to 10162
  157.3294  131.0918  151.1175 H   0  0  0  0  0  0  0  0  0  0  0  0  # atno 10718 bound_to 10713
  152.9789  135.5812  154.4578 H   0  0  0  0  0  0  0  0  0  0  0  0  # atno 10763 bound_to 10752
  154.4158  135.2771  155.2009 H   0  0  0  0  0  0  0  0  0  0  0  0  # atno 10764 bound_to 10752
  154.3779  135.6153  153.5829 H   0  0  0  0  0  0  0  0  0  0  0  0  # atno 10765 bound_to 10752
  140.7828  133.8349  155.9307 H   0  0  0  0  0  0  0  0  0  0  0  0  # atno 11005 bound_to 11000
  144.9986  140.8612  143.5295 LP  0  0  0  0  0  0  0  0  0  0  0  0  # atno 17320 bound_to 7965
  145.1759  139.2378  143.5318 LP  0  0  0  0  0  0  0  0  0  0  0  0  # atno 17321 bound_to 7965
  139.5047  144.6780  151.6080 LP  0  0  0  0  0  0  0  0  0  0  0  0  # atno 17342 bound_to 10162
  140.6042  143.9555  150.6407 LP  0  0  0  0  0  0  0  0  0  0  0  0  # atno 17343 bound_to 10162
  157.2429  130.6578  149.5897 LP  0  0  0  0  0  0  0  0  0  0  0  0  # atno 17370 bound_to 10713
  155.9694  130.4563  150.5918 LP  0  0  0  0  0  0  0  0  0  0  0  0  # atno 17371 bound_to 10713
  140.9466  134.1832  157.4759 LP  0  0  0  0  0  0  0  0  0  0  0  0  # atno 17394 bound_to 11000
  139.8740  134.9893  156.5450 LP  0  0  0  0  0  0  0  0  0  0  0  0  # atno 17395 bound_to 11000

$$$$
