AV-unprocessed.smi:227|AV-procd|sdf|1733|dock9
  -GOLD-   2262020233D 1   1.00000     0.00000
 Structure written by MMmdl.
 54 58  0  0  0  0  0  0  0  0  1 V2000
  147.4395  139.8645  152.3467 O   0  0  0  0  0  0  0  0  0  0  0  0
  147.1053  141.0217  153.0865 C   0  0  0  0  0  0  0  0  0  0  0  0
  147.6820  140.9711  154.5205 C   0  0  2  0  0  0  0  0  0  0  0  0
  149.2252  140.8370  154.4496 C   0  0  0  0  0  0  0  0  0  0  0  0
  149.9017  141.0427  155.7184 N   0  0  0  0  0  0  0  0  0  0  0  0
  149.6386  142.0312  156.6386 C   0  0  0  0  0  0  0  0  0  0  0  0
  150.3895  142.0105  157.7049 N   0  0  0  0  0  0  0  0  0  0  0  0
  151.2548  140.9422  157.4974 C   0  0  0  0  0  0  0  0  0  0  0  0
  152.3171  140.3582  158.2468 C   0  0  0  0  0  0  0  0  0  0  0  0
  152.7233  140.8157  159.4628 N   0  0  0  0  0  0  0  0  0  0  0  0
  154.1298  141.0843  159.7348 C   0  0  1  0  0  0  0  0  0  0  0  0
  154.4172  142.3992  158.9796 C   0  0  0  0  0  0  0  0  0  0  0  0
  153.0645  143.1153  159.1032 C   0  0  0  0  0  0  0  0  0  0  0  0
  152.2615  142.1057  159.9532 C   0  0  2  0  0  0  0  0  0  0  0  0
  152.7576  142.0647  161.4176 C   0  0  2  0  0  0  0  0  0  0  0  0
  152.7974  143.3967  162.1897 C   0  0  0  0  0  0  0  0  0  0  0  0
  151.5264  144.0106  162.1711 O   0  0  0  0  0  0  0  0  0  0  0  0
  154.1248  141.3772  161.2456 C   0  0  0  0  0  0  0  0  0  0  0  0
  152.9262  139.2656  157.7133 N   0  0  0  0  0  0  0  0  0  0  0  0
  152.5503  138.7921  156.5225 C   0  0  0  0  0  0  0  0  0  0  0  0
  151.5930  139.2428  155.7109 N   0  0  0  0  0  0  0  0  0  0  0  0
  150.9609  140.3253  156.2471 C   0  0  0  0  0  0  0  0  0  0  0  0
  146.9879  139.8907  155.4008 C   0  0  2  0  0  0  0  0  0  0  0  0
  147.4326  139.8755  156.8553 C   0  0  0  0  0  0  0  0  0  0  0  0
  146.9760  138.4995  157.3158 C   0  0  0  0  0  0  0  0  0  0  0  0
  147.2336  137.6551  156.2049 O   0  0  0  0  0  0  0  0  0  0  0  0
  147.2558  138.4283  155.0080 C   0  0  0  0  0  0  0  0  0  0  0  0
  148.3636  139.8887  152.1500 H   0  0  0  0  0  0  0  0  0  0  0  0
  147.4841  141.8949  152.5546 H   0  0  0  0  0  0  0  0  0  0  0  0
  146.0206  141.1269  153.1024 H   0  0  0  0  0  0  0  0  0  0  0  0
  147.4582  141.9429  154.9626 H   0  0  0  0  0  0  0  0  0  0  0  0
  149.5010  139.8581  154.0564 H   0  0  0  0  0  0  0  0  0  0  0  0
  149.6310  141.5698  153.7512 H   0  0  0  0  0  0  0  0  0  0  0  0
  148.8598  142.7667  156.4978 H   0  0  0  0  0  0  0  0  0  0  0  0
  154.8112  140.2747  159.4709 H   0  0  0  0  0  0  0  0  0  0  0  0
  155.2382  142.9661  159.4200 H   0  0  0  0  0  0  0  0  0  0  0  0
  154.6603  142.2141  157.9328 H   0  0  0  0  0  0  0  0  0  0  0  0
  153.1385  144.1079  159.5445 H   0  0  0  0  0  0  0  0  0  0  0  0
  152.6085  143.2322  158.1192 H   0  0  0  0  0  0  0  0  0  0  0  0
  151.1865  142.2667  159.8966 H   0  0  0  0  0  0  0  0  0  0  0  0
  152.1070  141.3821  161.9680 H   0  0  0  0  0  0  0  0  0  0  0  0
  153.0743  143.2129  163.2281 H   0  0  0  0  0  0  0  0  0  0  0  0
  153.5428  144.0821  161.7880 H   0  0  0  0  0  0  0  0  0  0  0  0
  151.2180  144.0368  161.2783 H   0  0  0  0  0  0  0  0  0  0  0  0
  154.1627  140.4536  161.8245 H   0  0  0  0  0  0  0  0  0  0  0  0
  154.9663  142.0000  161.5515 H   0  0  0  0  0  0  0  0  0  0  0  0
  153.0934  137.9271  156.1714 H   0  0  0  0  0  0  0  0  0  0  0  0
  145.9090  140.0548  155.3845 H   0  0  0  0  0  0  0  0  0  0  0  0
  148.5188  139.9516  156.9266 H   0  0  0  0  0  0  0  0  0  0  0  0
  146.9919  140.6770  157.4491 H   0  0  0  0  0  0  0  0  0  0  0  0
  147.4969  138.1579  158.2104 H   0  0  0  0  0  0  0  0  0  0  0  0
  145.9047  138.5004  157.5211 H   0  0  0  0  0  0  0  0  0  0  0  0
  146.5100  138.0517  154.3088 H   0  0  0  0  0  0  0  0  0  0  0  0
  148.2390  138.3112  154.5514 H   0  0  0  0  0  0  0  0  0  0  0  0
  1  2  1  0  0  0  0
  1 28  1  0  0  0  0
  2  3  1  0  0  0  0
  2 29  1  0  0  0  0
  2 30  1  0  0  0  0
  3  4  1  0  0  0  0
  3 23  1  0  0  0  0
  3 31  1  0  0  0  0
  4  5  1  0  0  0  0
  4 32  1  0  0  0  0
  4 33  1  0  0  0  0
  5 22  1  0  0  0  0
  5  6  1  0  0  0  0
  6  7  2  0  0  0  0
  6 34  1  0  0  0  0
  7  8  1  0  0  0  0
  8 22  2  0  0  0  0
  8  9  1  0  0  0  0
  9 10  1  0  0  0  0
  9 19  2  0  0  0  0
 10 14  1  0  0  0  0
 10 11  1  0  0  0  0
 11 18  1  0  0  0  0
 11 12  1  0  0  0  0
 11 35  1  0  0  0  0
 12 13  1  0  0  0  0
 12 36  1  0  0  0  0
 12 37  1  0  0  0  0
 13 14  1  0  0  0  0
 13 38  1  0  0  0  0
 13 39  1  0  0  0  0
 14 15  1  0  0  0  0
 14 40  1  0  0  0  0
 15 16  1  0  0  0  0
 15 18  1  0  0  0  0
 15 41  1  0  0  0  0
 16 17  1  0  0  0  0
 16 42  1  0  0  0  0
 16 43  1  0  0  0  0
 17 44  1  0  0  0  0
 18 45  1  0  0  0  0
 18 46  1  0  0  0  0
 19 20  1  0  0  0  0
 20 21  2  0  0  0  0
 20 47  1  0  0  0  0
 21 22  1  0  0  0  0
 23 27  1  0  0  0  0
 23 24  1  0  0  0  0
 23 48  1  0  0  0  0
 24 25  1  0  0  0  0
 24 49  1  0  0  0  0
 24 50  1  0  0  0  0
 25 26  1  0  0  0  0
 25 51  1  0  0  0  0
 25 52  1  0  0  0  0
 26 27  1  0  0  0  0
 27 53  1  0  0  0  0
 27 54  1  0  0  0  0
M  END
> <s_m_source_file>
AV-unprocessed.smi

> <i_m_source_file_index>
227

> <i_lp_mmshare_version>
43012

> <i_f3d_flags>
0

> <s_epik_input>
W0NIMl0xT1tDSDJdW0NIMl1bQ0BIXTFbQ0BIXShbQ0gyXVtPSF0pW0NIMl1uKFtjSF1uMiljKGMyMyluW2NIXW5jM04oW0NASF00NSlbQ0BASF0oW0NIMl1bQ0gyXTQpW0NASF0oW0NIMl01KVtDSDJdW09IXQ==

> <s_epik_cmdline>
J2VwaWtfcHl0aG9uJywgJy1waCcsICc3LjAnLCAnLXRuJywgJzgnLCAnLW1hJywgJzIwMCcsICctbWV0YWxfYmluZGluZycsICctaW1hZScsICc8aW5maWxlLm1hZT4nLCAnLW9tYWUnLCAnPG91dGZpbGUubWFlPic=

> <r_lp_tautomer_probability>
1

> <r_epik_Ionization_Penalty>
0.0055791

> <r_epik_Ionization_Penalty_Charging>
0

> <r_epik_Ionization_Penalty_Neutral>
0.0055791

> <r_epik_State_Penalty>
0.00401299

> <r_epik_Charging_Adjusted_Penalty>
0.00401299

> <i_epik_Tot_Q>
0

> <i_epik_Tot_abs_Q>
0

> <r_epik_Metal_State_Penalty>
-0

> <b_epik_Metal_Only>
0

> <s_lp_Force_Field>
OPLS_2005

> <r_lp_Energy>
89.6515

> <b_lp_Chiralities_Consistent>
1

> <s_lp_Variant>
AV-unprocessed.smi:227-7

> <Gold.Version>
5.8.1

> <Gold.Id.Protein>
6NUR|6NUR_protein|mol2

> <Gold.PLP.Fitness>
48.3262

> <Gold.PLP.PLP>
-40.8762

> <Gold.PLP.part.hbond>
-3.7697

> <Gold.PLP.part.metal>
0.0000

> <Gold.PLP.part.buried>
-6.0444

> <Gold.PLP.part.nonpolar>
-30.5736

> <Gold.PLP.part.repulsive>
0.0869

> <Gold.PLP.ligand.clash>
0.0000

> <Gold.PLP.ligand.torsion>
0.5309

> <Gold.PLP.Chemscore.Hbond>
1.8000

> <Gold.PLP.Chemscore.CHOScore>
1.0000

> <Gold.PLP.Chemscore.Metal>
0.0000

> <Gold.Chemscore.Hbonds>
donor molecule, donor type, donor heavy atom, donor atom, acceptor molecule, acceptor atom, score
      L1  H     1    28       P1  7957  1.00
      P1  H  7997  8008       L1    19  0.85
      L1  C     6    34       P1  8028  1.00

> <Gold.PLP.Chemscore.Internal.Correction>
0.1118

> <Gold.Rescore>
     Score         DG    S(hbond)    S(metal)    S(lipo)     H(rot)  DE(clash)    DE(int)     intcor
      5.50     -12.23       0.98        0.00     108.73       3.61       4.70       2.03       ----

> <Gold.Chemscore.Fitness>
5.4993

> <Gold.Chemscore.DG>
-12.2287

> <Gold.Chemscore.ZeroCoef>
-5.4800

> <Gold.Chemscore.Hbond>
0.9767

> <Gold.Chemscore.Metal>
0.0000

> <Gold.Chemscore.Lipo>
108.7251

> <Gold.Chemscore.Internal_Hbond>
0.0000

> <Gold.Chemscore.DEClash>
4.6972

> <Gold.Chemscore.DEInternal>
2.0322

> <Gold.Chemscore.Rot>
3.6071

> <Gold.Chemscore.Internal.Correction>
   9.000000E+99

> <Gold.Chemscore.Hbonds>
donor molecule, donor type, donor heavy atom, donor atom, acceptor molecule, acceptor atom, score
      L1  H     1    28       P1  7957  0.94
      P1  H  7997  8008       L1    19  0.05

> <Gold.Chemscore.Hbond.Weighted>
-3.2620

> <Gold.Chemscore.Metal.Weighted>
-0.0000

> <Gold.Chemscore.Lipo.Weighted>
-12.7208

> <Gold.Chemscore.Internal_Hbond.Weighted>
0.0000

> <Gold.Chemscore.DEClash.Weighted>
4.6972

> <Gold.Chemscore.DEInternal.Weighted>
2.0322

> <Gold.Chemscore.Rot.Weighted>
9.2342

> <Gold.Chemscore.Internal.Correction.Weighted>
   9.000000E+99

> <Gold.Protein.RotatedTorsions>
[ 6907 6896 6895 6894 ] final  -34.51 input  -60.11 | X-H torsion
[ 7974 7965 7964 7962 ] final  -63.28 input  175.53 | X-H torsion
[ 8008 7997 7996 7995 ] final  -95.29 input   59.86 | X-H torsion
[ 10167 10162 10161 10158 ] final  164.90 input  -65.29 | X-H torsion
[ 10718 10713 10712 10709 ] final   67.51 input   66.30 | X-H torsion
[ 10763 10752 10751 10750 ] final  141.80 input  -60.55 | X-H torsion
[ 11005 11000 10999 10996 ] final  177.83 input  -57.11 | X-H torsion

> <Gold.Protein.ActiveResidues>
 VAL166  LYS551  ARG553  GLY616  TRP617  ASP618  TYR619  PRO620  LYS621  CYS622 
 ASP623  PHE694  ASN695  SER759  ASP760  ASP761  ALA762  ILE779  LEU786  VAL792 
 PHE793  MET794  SER795  GLU796  ALA797  LYS798  CYS799  TRP800  GLU811  SER814 

> <Gold.Protein.RotatedAtoms>
  151.0516  134.9677  159.8214 H   0  0  0  0  0  0  0  0  0  0  0  0  # atno 6907 bound_to 6896
  152.5381  134.2529  159.8916 H   0  0  0  0  0  0  0  0  0  0  0  0  # atno 6908 bound_to 6896
  151.2545  133.4290  159.2647 H   0  0  0  0  0  0  0  0  0  0  0  0  # atno 6909 bound_to 6896
  145.7810  140.8762  143.0330 H   0  0  0  0  0  0  0  0  0  0  0  0  # atno 7974 bound_to 7965
  154.7594  140.0481  157.0961 H   0  0  0  0  0  0  0  0  0  0  0  0  # atno 8008 bound_to 7997
  154.9956  140.3118  155.4868 H   0  0  0  0  0  0  0  0  0  0  0  0  # atno 8009 bound_to 7997
  156.2901  140.2210  156.5063 H   0  0  0  0  0  0  0  0  0  0  0  0  # atno 8010 bound_to 7997
  139.4896  144.4187  151.9212 H   0  0  0  0  0  0  0  0  0  0  0  0  # atno 10167 bound_to 10162
  157.6234  130.9324  150.0252 H   0  0  0  0  0  0  0  0  0  0  0  0  # atno 10718 bound_to 10713
  153.9453  135.2975  155.3441 H   0  0  0  0  0  0  0  0  0  0  0  0  # atno 10763 bound_to 10752
  154.7455  135.5005  153.9200 H   0  0  0  0  0  0  0  0  0  0  0  0  # atno 10764 bound_to 10752
  153.1021  135.6737  153.9760 H   0  0  0  0  0  0  0  0  0  0  0  0  # atno 10765 bound_to 10752
  140.3884  134.6884  157.4493 H   0  0  0  0  0  0  0  0  0  0  0  0  # atno 11005 bound_to 11000
  144.6796  139.9989  143.7484 LP  0  0  0  0  0  0  0  0  0  0  0  0  # atno 17320 bound_to 7965
  146.0074  139.3141  143.0891 LP  0  0  0  0  0  0  0  0  0  0  0  0  # atno 17321 bound_to 7965
  140.3631  144.2949  150.5930 LP  0  0  0  0  0  0  0  0  0  0  0  0  # atno 17342 bound_to 10162
  140.5386  143.2228  151.8123 LP  0  0  0  0  0  0  0  0  0  0  0  0  # atno 17343 bound_to 10162
  156.1392  130.3642  149.9608 LP  0  0  0  0  0  0  0  0  0  0  0  0  # atno 17370 bound_to 10713
  156.7653  130.9166  151.3643 LP  0  0  0  0  0  0  0  0  0  0  0  0  # atno 17371 bound_to 10713
  140.0425  134.6247  155.8963 LP  0  0  0  0  0  0  0  0  0  0  0  0  # atno 17394 bound_to 11000
  141.1899  133.6567  156.5389 LP  0  0  0  0  0  0  0  0  0  0  0  0  # atno 17395 bound_to 11000

$$$$
