AV-unprocessed.smi:2005|AV-procd|sdf|8125|dock2
  -GOLD-   2272010363D 1   1.00000     0.00000
 Structure written by MMmdl.
 39 40  0  0  0  0  0  0  0  0  1 V2000
  153.8958  132.7831  157.1996 C   0  0  0  0  0  0  0  0  0  0  0  0
  152.4582  132.2442  157.1994 C   0  0  0  0  0  0  0  0  0  0  0  0
  152.3776  130.7439  156.8817 C   0  0  0  0  0  0  0  0  0  0  0  0
  151.5503  133.0546  156.3273 C   0  0  0  0  0  0  0  0  0  0  0  0
  151.5733  134.3939  156.2952 N   0  0  0  0  0  0  0  0  0  0  0  0
  150.6463  134.9173  155.4050 N   0  0  0  0  0  0  0  0  0  0  0  0
  149.9465  133.9550  154.7892 C   0  0  0  0  0  0  0  0  0  0  0  0
  148.9344  134.2089  153.8261 N   0  0  0  0  0  0  0  0  0  0  0  0
  147.8368  133.4795  153.5584 C   0  0  0  0  0  0  0  0  0  0  0  0
  147.5257  132.4284  154.1194 O   0  0  0  0  0  0  0  0  0  0  0  0
  147.1004  134.0485  152.5926 N   0  0  0  0  0  0  0  0  0  0  0  0
  145.8350  133.5303  152.0808 C   0  0  2  0  0  0  0  0  0  0  0  0
  146.0740  132.1760  151.3864 C   0  0  0  0  0  0  0  0  0  0  0  0
  144.7794  131.6232  150.7684 C   0  0  0  0  0  0  0  0  0  0  0  0
  144.1546  132.6365  149.7945 C   0  0  1  0  0  0  0  0  0  0  0  0
  142.9368  132.1247  149.2959 O   0  0  0  0  0  0  0  0  0  0  0  0
  143.9003  133.9849  150.4889 C   0  0  0  0  0  0  0  0  0  0  0  0
  145.1928  134.5410  151.1079 C   0  0  0  0  0  0  0  0  0  0  0  0
  150.3633  132.3156  155.2571 S   0  0  0  0  0  0  0  0  0  0  0  0
  153.9231  133.8278  157.5109 H   0  0  0  0  0  0  0  0  0  0  0  0
  154.3443  132.7186  156.2077 H   0  0  0  0  0  0  0  0  0  0  0  0
  154.5266  132.2178  157.8862 H   0  0  0  0  0  0  0  0  0  0  0  0
  152.0884  132.3604  158.2189 H   0  0  0  0  0  0  0  0  0  0  0  0
  151.3548  130.3775  156.9729 H   0  0  0  0  0  0  0  0  0  0  0  0
  152.9983  130.1639  157.5650 H   0  0  0  0  0  0  0  0  0  0  0  0
  152.7174  130.5342  155.8669 H   0  0  0  0  0  0  0  0  0  0  0  0
  149.0515  135.0553  153.2892 H   0  0  0  0  0  0  0  0  0  0  0  0
  147.4326  134.9119  152.1883 H   0  0  0  0  0  0  0  0  0  0  0  0
  145.1521  133.3638  152.9163 H   0  0  0  0  0  0  0  0  0  0  0  0
  146.8262  132.2878  150.6042 H   0  0  0  0  0  0  0  0  0  0  0  0
  146.4752  131.4556  152.1002 H   0  0  0  0  0  0  0  0  0  0  0  0
  144.9883  130.6854  150.2522 H   0  0  0  0  0  0  0  0  0  0  0  0
  144.0714  131.3877  151.5644 H   0  0  0  0  0  0  0  0  0  0  0  0
  144.8260  132.7861  148.9482 H   0  0  0  0  0  0  0  0  0  0  0  0
  142.2832  132.8058  149.3417 H   0  0  0  0  0  0  0  0  0  0  0  0
  143.4941  134.7035  149.7762 H   0  0  0  0  0  0  0  0  0  0  0  0
  143.1487  133.8650  151.2705 H   0  0  0  0  0  0  0  0  0  0  0  0
  144.9752  135.4761  151.6252 H   0  0  0  0  0  0  0  0  0  0  0  0
  145.8970  134.7861  150.3117 H   0  0  0  0  0  0  0  0  0  0  0  0
  1  2  1  0  0  0  0
  1 20  1  0  0  0  0
  1 21  1  0  0  0  0
  1 22  1  0  0  0  0
  2  3  1  0  0  0  0
  2  4  1  0  0  0  0
  2 23  1  0  0  0  0
  3 24  1  0  0  0  0
  3 25  1  0  0  0  0
  3 26  1  0  0  0  0
  4 19  1  0  0  0  0
  4  5  2  0  0  0  0
  5  6  1  0  0  0  0
  6  7  2  0  0  0  0
  7  8  1  0  0  0  0
  7 19  1  0  0  0  0
  8  9  1  0  0  0  0
  8 27  1  0  0  0  0
  9 10  2  0  0  0  0
  9 11  1  0  0  0  0
 11 12  1  0  0  0  0
 11 28  1  0  0  0  0
 12 18  1  0  0  0  0
 12 13  1  0  0  0  0
 12 29  1  0  0  0  0
 13 14  1  0  0  0  0
 13 30  1  0  0  0  0
 13 31  1  0  0  0  0
 14 15  1  0  0  0  0
 14 32  1  0  0  0  0
 14 33  1  0  0  0  0
 15 16  1  0  0  0  0
 15 17  1  0  0  0  0
 15 34  1  0  0  0  0
 16 35  1  0  0  0  0
 17 18  1  0  0  0  0
 17 36  1  0  0  0  0
 17 37  1  0  0  0  0
 18 38  1  0  0  0  0
 18 39  1  0  0  0  0
M  END
> <s_m_source_file>
AV-unprocessed.smi

> <i_m_source_file_index>
2005

> <i_lp_mmshare_version>
43012

> <i_f3d_flags>
0

> <s_epik_input>
W0NIM11bQ0hdKFtDSDNdKWMxbm5jKHMxKVtOSF1DKD1PKVtOSF1bQ0BASF0yW0NIMl1bQ0gyXVtDQEBIXShbT0hdKVtDSDJdW0NIMl0y

> <s_epik_cmdline>
J2VwaWtfcHl0aG9uJywgJy1waCcsICc3LjAnLCAnLXRuJywgJzgnLCAnLW1hJywgJzIwMCcsICctbWV0YWxfYmluZGluZycsICctaW1hZScsICc8aW5maWxlLm1hZT4nLCAnLW9tYWUnLCAnPG91dGZpbGUubWFlPic=

> <r_lp_tautomer_probability>
1

> <r_epik_Ionization_Penalty>
0.000372581

> <r_epik_Ionization_Penalty_Charging>
0

> <r_epik_Ionization_Penalty_Neutral>
0.000372581

> <r_epik_State_Penalty>
-0

> <r_epik_Charging_Adjusted_Penalty>
0

> <i_epik_Tot_Q>
0

> <i_epik_Tot_abs_Q>
0

> <r_epik_Metal_State_Penalty>
0.186152

> <b_epik_Metal_Only>
0

> <s_lp_Force_Field>
OPLS_2005

> <r_lp_Energy>
0.700643

> <b_lp_Chiralities_Consistent>
1

> <s_lp_Variant>
AV-unprocessed.smi:2005-1

> <Gold.Version>
5.8.1

> <Gold.Id.Protein>
6NUR|6NUR_protein|mol2

> <Gold.PLP.Fitness>
42.3458

> <Gold.PLP.PLP>
-31.4107

> <Gold.PLP.part.hbond>
-6.0000

> <Gold.PLP.part.metal>
0.0000

> <Gold.PLP.part.buried>
-3.5057

> <Gold.PLP.part.nonpolar>
-21.3335

> <Gold.PLP.part.repulsive>
0.1514

> <Gold.PLP.ligand.clash>
0.0000

> <Gold.PLP.ligand.torsion>
0.5422

> <Gold.PLP.Chemscore.Hbond>
3.9800

> <Gold.PLP.Chemscore.CHOScore>
0.0000

> <Gold.PLP.Chemscore.Metal>
0.0000

> <Gold.Chemscore.Hbonds>
donor molecule, donor type, donor heavy atom, donor atom, acceptor molecule, acceptor atom, score
      L1  H     8    27       P1  7948  0.95
      L1  H    11    28       P1  7948  0.99
      L1  H    16    35       P1 10186  0.93
      P1  H 10752 10763       L1     5  0.17
      P1  H 10785 10796       L1    16  0.89

> <Gold.PLP.Chemscore.Internal.Correction>
0.0795

> <Gold.Rescore>
     Score         DG    S(hbond)    S(metal)    S(lipo)     H(rot)  DE(clash)    DE(int)     intcor
     17.33     -18.23       2.80        0.00      66.73       1.72       0.05       0.85       ----

> <Gold.Chemscore.Fitness>
17.3308

> <Gold.Chemscore.DG>
-18.2291

> <Gold.Chemscore.ZeroCoef>
-5.4800

> <Gold.Chemscore.Hbond>
2.7986

> <Gold.Chemscore.Metal>
0.0000

> <Gold.Chemscore.Lipo>
66.7254

> <Gold.Chemscore.Internal_Hbond>
0.0000

> <Gold.Chemscore.DEClash>
0.0529

> <Gold.Chemscore.DEInternal>
0.8454

> <Gold.Chemscore.Rot>
1.7207

> <Gold.Chemscore.Internal.Correction>
   9.000000E+99

> <Gold.Chemscore.Hbonds>
donor molecule, donor type, donor heavy atom, donor atom, acceptor molecule, acceptor atom, score
      L1  H     8    27       P1  7948  0.21
      L1  H    11    28       P1  7948  0.85
      L1  H    16    35       P1 10186  0.89
      P1  H 10752 10763       L1     5  0.01
      P1  H 10785 10796       L1    16  0.64

> <Gold.Chemscore.Hbond.Weighted>
-9.3474

> <Gold.Chemscore.Metal.Weighted>
-0.0000

> <Gold.Chemscore.Lipo.Weighted>
-7.8069

> <Gold.Chemscore.Internal_Hbond.Weighted>
0.0000

> <Gold.Chemscore.DEClash.Weighted>
0.0529

> <Gold.Chemscore.DEInternal.Weighted>
0.8454

> <Gold.Chemscore.Rot.Weighted>
4.4051

> <Gold.Chemscore.Internal.Correction.Weighted>
   9.000000E+99

> <Gold.Protein.RotatedTorsions>
[ 6907 6896 6895 6894 ] final  -98.08 input  -60.11 | X-H torsion
[ 7974 7965 7964 7962 ] final   95.20 input  175.53 | X-H torsion
[ 8008 7997 7996 7995 ] final  157.02 input   59.86 | X-H torsion
[ 10167 10162 10161 10158 ] final   49.43 input  -65.29 | X-H torsion
[ 10718 10713 10712 10709 ] final  161.27 input   66.30 | X-H torsion
[ 10763 10752 10751 10750 ] final  103.86 input  -60.55 | X-H torsion
[ 11005 11000 10999 10996 ] final  -90.54 input  -57.11 | X-H torsion

> <Gold.Protein.ActiveResidues>
 VAL166  LYS551  ARG553  GLY616  TRP617  ASP618  TYR619  PRO620  LYS621  CYS622 
 ASP623  PHE694  ASN695  SER759  ASP760  ASP761  ALA762  ILE779  LEU786  VAL792 
 PHE793  MET794  SER795  GLU796  ALA797  LYS798  CYS799  TRP800  GLU811  SER814 

> <Gold.Protein.RotatedAtoms>
  150.7035  134.1250  159.4048 H   0  0  0  0  0  0  0  0  0  0  0  0  # atno 6907 bound_to 6896
  151.9236  135.0285  160.0533 H   0  0  0  0  0  0  0  0  0  0  0  0  # atno 6908 bound_to 6896
  152.2235  133.4967  159.5212 H   0  0  0  0  0  0  0  0  0  0  0  0  # atno 6909 bound_to 6896
  145.4553  139.2290  143.3017 H   0  0  0  0  0  0  0  0  0  0  0  0  # atno 7974 bound_to 7965
  156.2388  140.1896  156.7044 H   0  0  0  0  0  0  0  0  0  0  0  0  # atno 8008 bound_to 7997
  154.6158  140.0615  156.9579 H   0  0  0  0  0  0  0  0  0  0  0  0  # atno 8009 bound_to 7997
  155.1942  140.3287  155.4356 H   0  0  0  0  0  0  0  0  0  0  0  0  # atno 8010 bound_to 7997
  140.2829  144.3135  150.6259 H   0  0  0  0  0  0  0  0  0  0  0  0  # atno 10167 bound_to 10162
  157.1388  131.0535  151.2336 H   0  0  0  0  0  0  0  0  0  0  0  0  # atno 10718 bound_to 10713
  153.3582  135.3962  155.1698 H   0  0  0  0  0  0  0  0  0  0  0  0  # atno 10763 bound_to 10752
  154.8674  135.3673  154.5133 H   0  0  0  0  0  0  0  0  0  0  0  0  # atno 10764 bound_to 10752
  153.5590  135.7081  153.5616 H   0  0  0  0  0  0  0  0  0  0  0  0  # atno 10765 bound_to 10752
  141.1563  133.7699  156.9752 H   0  0  0  0  0  0  0  0  0  0  0  0  # atno 11005 bound_to 11000
  146.2481  140.5317  142.8905 LP  0  0  0  0  0  0  0  0  0  0  0  0  # atno 17320 bound_to 7965
  144.8036  140.6258  143.6462 LP  0  0  0  0  0  0  0  0  0  0  0  0  # atno 17321 bound_to 7965
  140.5796  143.2174  151.7452 LP  0  0  0  0  0  0  0  0  0  0  0  0  # atno 17342 bound_to 10162
  139.4958  144.4099  152.0092 LP  0  0  0  0  0  0  0  0  0  0  0  0  # atno 17343 bound_to 10162
  157.4326  130.7499  149.7002 LP  0  0  0  0  0  0  0  0  0  0  0  0  # atno 17370 bound_to 10713
  155.9793  130.4042  150.3598 LP  0  0  0  0  0  0  0  0  0  0  0  0  # atno 17371 bound_to 10713
  140.1102  134.9481  157.2054 LP  0  0  0  0  0  0  0  0  0  0  0  0  # atno 17394 bound_to 11000
  140.3203  134.2923  155.7247 LP  0  0  0  0  0  0  0  0  0  0  0  0  # atno 17395 bound_to 11000

$$$$
