AV-unprocessed.smi:3331|AV-procd|sdf|12825|dock7
  -GOLD-   2272019203D 1   1.00000     0.00000
 Structure written by MMmdl.
 46 47  0  0  0  0  0  0  0  0  1 V2000
  147.1620  138.3155  155.3725 C   0  0  0  0  0  0  0  0  0  0  0  0
  147.9076  137.7452  156.5920 C   0  0  1  0  0  0  0  0  0  0  0  0
  148.6106  136.4067  156.2738 C   0  0  0  0  0  0  0  0  0  0  0  0
  149.9173  136.5906  155.4698 C   0  0  2  0  0  0  0  0  0  0  0  0
  150.6558  135.2572  155.2885 C   0  0  0  0  0  0  0  0  0  0  0  0
  150.8144  137.6493  156.1441 C   0  0  0  0  0  0  0  0  0  0  0  0
  150.0642  138.9058  156.2799 N   0  0  0  0  0  0  0  0  0  0  0  0
  150.3819  140.0247  155.5781 C   0  0  0  0  0  0  0  0  0  0  0  0
  151.3515  140.0594  154.8179 O   0  0  0  0  0  0  0  0  0  0  0  0
  149.5240  141.2988  155.7337 C   0  0  2  0  0  0  0  0  0  0  0  0
  148.8387  141.6954  154.4076 C   0  0  0  0  0  0  0  0  0  0  0  0
  150.3536  142.3996  156.2505 N   0  0  0  0  0  0  0  0  0  0  0  0
  151.0577  142.0538  157.4772 C   0  0  0  0  0  0  0  0  0  0  0  0
  151.5817  143.3361  158.1396 C   0  0  0  0  0  0  0  0  0  0  0  0
  152.1735  143.0642  159.4352 N   0  0  0  0  0  0  0  0  0  0  0  0
  153.2406  142.2438  159.7349 C   0  0  0  0  0  0  0  0  0  0  0  0
  153.4372  142.3102  161.0847 C   0  0  0  0  0  0  0  0  0  0  0  0
  152.4270  143.2085  161.5297 C   0  0  0  0  0  0  0  0  0  0  0  0
  151.6713  143.6571  160.5402 N   0  0  0  0  0  0  0  0  0  0  0  0
  148.9205  138.7449  157.1913 C   0  0  0  0  0  0  0  0  0  0  0  0
  147.8384  138.5390  154.5474 H   0  0  0  0  0  0  0  0  0  0  0  0
  146.6400  139.2371  155.6311 H   0  0  0  0  0  0  0  0  0  0  0  0
  146.4161  137.6102  155.0056 H   0  0  0  0  0  0  0  0  0  0  0  0
  147.1519  137.5460  157.3526 H   0  0  0  0  0  0  0  0  0  0  0  0
  148.8475  135.9100  157.2157 H   0  0  0  0  0  0  0  0  0  0  0  0
  147.9302  135.7378  155.7454 H   0  0  0  0  0  0  0  0  0  0  0  0
  149.6579  136.9553  154.4749 H   0  0  0  0  0  0  0  0  0  0  0  0
  150.9540  134.8348  156.2486 H   0  0  0  0  0  0  0  0  0  0  0  0
  151.5561  135.3857  154.6870 H   0  0  0  0  0  0  0  0  0  0  0  0
  150.0246  134.5254  154.7838 H   0  0  0  0  0  0  0  0  0  0  0  0
  151.1248  137.3078  157.1327 H   0  0  0  0  0  0  0  0  0  0  0  0
  151.7369  137.7680  155.5744 H   0  0  0  0  0  0  0  0  0  0  0  0
  148.7285  141.0704  156.4432 H   0  0  0  0  0  0  0  0  0  0  0  0
  148.2960  140.8534  153.9757 H   0  0  0  0  0  0  0  0  0  0  0  0
  149.5621  142.0398  153.6671 H   0  0  0  0  0  0  0  0  0  0  0  0
  148.1105  142.4929  154.5530 H   0  0  0  0  0  0  0  0  0  0  0  0
  149.8134  143.2422  156.3862 H   0  0  0  0  0  0  0  0  0  0  0  0
  150.3914  141.5315  158.1637 H   0  0  0  0  0  0  0  0  0  0  0  0
  151.8896  141.3847  157.2514 H   0  0  0  0  0  0  0  0  0  0  0  0
  152.3310  143.8168  157.5084 H   0  0  0  0  0  0  0  0  0  0  0  0
  150.7722  144.0551  158.2739 H   0  0  0  0  0  0  0  0  0  0  0  0
  153.7662  141.6890  158.9714 H   0  0  0  0  0  0  0  0  0  0  0  0
  154.1885  141.7964  161.6660 H   0  0  0  0  0  0  0  0  0  0  0  0
  152.2220  143.5457  162.5351 H   0  0  0  0  0  0  0  0  0  0  0  0
  148.4181  139.6758  157.4455 H   0  0  0  0  0  0  0  0  0  0  0  0
  149.2894  138.3616  158.1438 H   0  0  0  0  0  0  0  0  0  0  0  0
  1  2  1  0  0  0  0
  1 21  1  0  0  0  0
  1 22  1  0  0  0  0
  1 23  1  0  0  0  0
  2 20  1  0  0  0  0
  2  3  1  0  0  0  0
  2 24  1  0  0  0  0
  3  4  1  0  0  0  0
  3 25  1  0  0  0  0
  3 26  1  0  0  0  0
  4  5  1  0  0  0  0
  4  6  1  0  0  0  0
  4 27  1  0  0  0  0
  5 28  1  0  0  0  0
  5 29  1  0  0  0  0
  5 30  1  0  0  0  0
  6  7  1  0  0  0  0
  6 31  1  0  0  0  0
  6 32  1  0  0  0  0
  7  8  1  0  0  0  0
  7 20  1  0  0  0  0
  8  9  2  0  0  0  0
  8 10  1  0  0  0  0
 10 11  1  0  0  0  0
 10 12  1  0  0  0  0
 10 33  1  0  0  0  0
 11 34  1  0  0  0  0
 11 35  1  0  0  0  0
 11 36  1  0  0  0  0
 12 13  1  0  0  0  0
 12 37  1  0  0  0  0
 13 14  1  0  0  0  0
 13 38  1  0  0  0  0
 13 39  1  0  0  0  0
 14 15  1  0  0  0  0
 14 40  1  0  0  0  0
 14 41  1  0  0  0  0
 15 19  1  0  0  0  0
 15 16  1  0  0  0  0
 16 17  2  0  0  0  0
 16 42  1  0  0  0  0
 17 18  1  0  0  0  0
 17 43  1  0  0  0  0
 18 19  2  0  0  0  0
 18 44  1  0  0  0  0
 20 45  1  0  0  0  0
 20 46  1  0  0  0  0
M  END
> <s_m_source_file>
AV-unprocessed.smi

> <i_m_source_file_index>
3331

> <i_lp_mmshare_version>
43012

> <i_f3d_flags>
0

> <s_epik_input>
W0NIM11bQ0BASF0xW0NIMl1bQ0BASF0oW0NIM10pW0NIMl1OKFtDSDJdMSlDKD1PKVtDQEhdKFtDSDNdKVtOSF1bQ0gyXVtDSDJdbjJbY0hdW2NIXVtjSF1uMg==

> <s_epik_cmdline>
J2VwaWtfcHl0aG9uJywgJy1waCcsICc3LjAnLCAnLXRuJywgJzgnLCAnLW1hJywgJzIwMCcsICctbWV0YWxfYmluZGluZycsICctaW1hZScsICc8aW5maWxlLm1hZT4nLCAnLW9tYWUnLCAnPG91dGZpbGUubWFlPic=

> <r_lp_tautomer_probability>
1

> <r_epik_Ionization_Penalty>
0.767994

> <r_epik_Ionization_Penalty_Charging>
0

> <r_epik_Ionization_Penalty_Neutral>
0.767994

> <r_epik_State_Penalty>
0.795453

> <r_epik_Charging_Adjusted_Penalty>
0.795453

> <i_epik_Tot_Q>
0

> <i_epik_Tot_abs_Q>
0

> <r_epik_Metal_State_Penalty>
0.794784

> <b_epik_Metal_Only>
0

> <s_lp_Force_Field>
OPLS_2005

> <r_lp_Energy>
29.2756

> <b_lp_Chiralities_Consistent>
1

> <s_lp_Variant>
AV-unprocessed.smi:3331-9

> <Gold.Version>
5.8.1

> <Gold.Id.Protein>
6NUR|6NUR_protein|mol2

> <Gold.PLP.Fitness>
41.8382

> <Gold.PLP.PLP>
-35.9639

> <Gold.PLP.part.hbond>
-2.0000

> <Gold.PLP.part.metal>
0.0000

> <Gold.PLP.part.buried>
-4.6373

> <Gold.PLP.part.nonpolar>
-29.4234

> <Gold.PLP.part.repulsive>
0.1558

> <Gold.PLP.ligand.clash>
0.0000

> <Gold.PLP.ligand.torsion>
0.0872

> <Gold.PLP.Chemscore.Hbond>
2.0000

> <Gold.PLP.Chemscore.CHOScore>
0.0000

> <Gold.PLP.Chemscore.Metal>
0.0000

> <Gold.Chemscore.Hbonds>
donor molecule, donor type, donor heavy atom, donor atom, acceptor molecule, acceptor atom, score
      L1  H    12    37       P1  8028  0.99
      P1  H  7989  7998       L1     9  1.00

> <Gold.PLP.Chemscore.Internal.Correction>
0.0487

> <Gold.Rescore>
     Score         DG    S(hbond)    S(metal)    S(lipo)     H(rot)  DE(clash)    DE(int)     intcor
     17.80     -17.92       2.00        0.00      85.81       1.66       0.01       0.11       ----

> <Gold.Chemscore.Fitness>
17.7997

> <Gold.Chemscore.DG>
-17.9216

> <Gold.Chemscore.ZeroCoef>
-5.4800

> <Gold.Chemscore.Hbond>
1.9952

> <Gold.Chemscore.Metal>
0.0000

> <Gold.Chemscore.Lipo>
85.8084

> <Gold.Chemscore.Internal_Hbond>
0.0000

> <Gold.Chemscore.DEClash>
0.0139

> <Gold.Chemscore.DEInternal>
0.1080

> <Gold.Chemscore.Rot>
1.6649

> <Gold.Chemscore.Internal.Correction>
   9.000000E+99

> <Gold.Chemscore.Hbonds>
donor molecule, donor type, donor heavy atom, donor atom, acceptor molecule, acceptor atom, score
      L1  H    12    37       P1  8028  0.94
      P1  H  7989  7998       L1     9  0.96

> <Gold.Chemscore.Hbond.Weighted>
-6.6641

> <Gold.Chemscore.Metal.Weighted>
-0.0000

> <Gold.Chemscore.Lipo.Weighted>
-10.0396

> <Gold.Chemscore.Internal_Hbond.Weighted>
0.0000

> <Gold.Chemscore.DEClash.Weighted>
0.0139

> <Gold.Chemscore.DEInternal.Weighted>
0.1080

> <Gold.Chemscore.Rot.Weighted>
4.2621

> <Gold.Chemscore.Internal.Correction.Weighted>
   9.000000E+99

> <Gold.Protein.RotatedTorsions>
[ 6907 6896 6895 6894 ] final  144.85 input  -60.11 | X-H torsion
[ 7974 7965 7964 7962 ] final  -47.99 input  175.53 | X-H torsion
[ 8008 7997 7996 7995 ] final -160.00 input   59.86 | X-H torsion
[ 10167 10162 10161 10158 ] final  -78.44 input  -65.29 | X-H torsion
[ 10718 10713 10712 10709 ] final  120.25 input   66.30 | X-H torsion
[ 10763 10752 10751 10750 ] final  102.98 input  -60.55 | X-H torsion
[ 11005 11000 10999 10996 ] final  -50.21 input  -57.11 | X-H torsion

> <Gold.Protein.ActiveResidues>
 VAL166  LYS551  ARG553  GLY616  TRP617  ASP618  TYR619  PRO620  LYS621  CYS622 
 ASP623  PHE694  ASN695  SER759  ASP760  ASP761  ALA762  ILE779  LEU786  VAL792 
 PHE793  MET794  SER795  GLU796  ALA797  LYS798  CYS799  TRP800  GLU811  SER814 

> <Gold.Protein.RotatedAtoms>
  152.1884  133.4756  159.4994 H   0  0  0  0  0  0  0  0  0  0  0  0  # atno 6907 bound_to 6896
  150.6946  134.1744  159.4233 H   0  0  0  0  0  0  0  0  0  0  0  0  # atno 6908 bound_to 6896
  151.9658  135.0101  160.0601 H   0  0  0  0  0  0  0  0  0  0  0  0  # atno 6909 bound_to 6896
  145.9558  140.7528  142.9482 H   0  0  0  0  0  0  0  0  0  0  0  0  # atno 7974 bound_to 7965
  155.7710  140.0852  157.2108 H   0  0  0  0  0  0  0  0  0  0  0  0  # atno 8008 bound_to 7997
  154.3996  140.1525  156.2999 H   0  0  0  0  0  0  0  0  0  0  0  0  # atno 8009 bound_to 7997
  155.8747  140.3423  155.5848 H   0  0  0  0  0  0  0  0  0  0  0  0  # atno 8010 bound_to 7997
  140.4682  143.2434  151.8246 H   0  0  0  0  0  0  0  0  0  0  0  0  # atno 10167 bound_to 10162
  157.5904  131.1065  150.8010 H   0  0  0  0  0  0  0  0  0  0  0  0  # atno 10718 bound_to 10713
  153.3466  135.3992  155.1614 H   0  0  0  0  0  0  0  0  0  0  0  0  # atno 10763 bound_to 10752
  154.8654  135.3646  154.5276 H   0  0  0  0  0  0  0  0  0  0  0  0  # atno 10764 bound_to 10752
  153.5725  135.7078  153.5558 H   0  0  0  0  0  0  0  0  0  0  0  0  # atno 10765 bound_to 10752
  141.0803  133.6655  156.3698 H   0  0  0  0  0  0  0  0  0  0  0  0  # atno 11005 bound_to 11000
  144.6805  140.2509  143.7331 LP  0  0  0  0  0  0  0  0  0  0  0  0  # atno 17320 bound_to 7965
  145.8108  139.2002  143.1994 LP  0  0  0  0  0  0  0  0  0  0  0  0  # atno 17321 bound_to 7965
  139.4815  144.4925  151.9167 LP  0  0  0  0  0  0  0  0  0  0  0  0  # atno 17342 bound_to 10162
  140.4010  144.2493  150.5893 LP  0  0  0  0  0  0  0  0  0  0  0  0  # atno 17343 bound_to 10162
  156.8433  130.5055  149.5319 LP  0  0  0  0  0  0  0  0  0  0  0  0  # atno 17370 bound_to 10713
  156.0958  130.5931  150.9811 LP  0  0  0  0  0  0  0  0  0  0  0  0  # atno 17371 bound_to 10713
  140.5483  134.6053  157.5400 LP  0  0  0  0  0  0  0  0  0  0  0  0  # atno 17394 bound_to 11000
  139.9617  134.7442  156.0223 LP  0  0  0  0  0  0  0  0  0  0  0  0  # atno 17395 bound_to 11000

$$$$
