AV-unprocessed.smi:2375|AV-procd|sdf|9442|dock7
  -GOLD-   2272013 73D 1   1.00000     0.00000
 Structure written by MMmdl.
 37 38  0  0  0  0  0  0  0  0  1 V2000
  145.3361  136.6548  151.9321 C   0  0  0  0  0  0  0  0  0  0  0  0
  145.8557  137.9932  152.3335 C   0  0  0  0  0  0  0  0  0  0  0  0
  146.0006  139.1095  151.5475 C   0  0  0  0  0  0  0  0  0  0  0  0
  146.5261  140.2118  152.2245 N   0  0  0  0  0  0  0  0  0  0  0  0
  146.7875  139.9465  153.5076 C   0  0  0  0  0  0  0  0  0  0  0  0
  147.3968  140.9340  154.4560 C   0  0  2  0  0  0  0  0  0  0  0  0
  146.7009  142.3011  154.3898 C   0  0  0  0  0  0  0  0  0  0  0  0
  148.9317  141.0340  154.3295 C   0  0  0  0  0  0  0  0  0  0  0  0
  149.4748  142.1377  155.1188 N   0  0  0  0  0  0  0  0  0  0  0  0
  150.6640  142.1450  155.7463 C   0  0  0  0  0  0  0  0  0  0  0  0
  151.4788  141.2271  155.6741 O   0  0  0  0  0  0  0  0  0  0  0  0
  150.9050  143.2481  156.4766 N   0  0  0  0  0  0  0  0  0  0  0  0
  152.0942  143.5597  157.2707 C   0  0  0  0  0  0  0  0  0  0  0  0
  152.3721  142.4734  158.3377 C   0  0  0  0  0  0  0  0  0  0  0  0
  152.7027  143.2653  159.5740 C   0  0  0  0  0  0  0  0  0  0  0  0
  152.4876  144.5695  159.4139 C   0  0  0  0  0  0  0  0  0  0  0  0
  151.9708  144.8998  158.0406 C   0  0  0  0  0  0  0  0  0  0  0  0
  146.3759  138.2988  153.9694 S   0  0  0  0  0  0  0  0  0  0  0  0
  144.9987  136.6589  150.8953 H   0  0  0  0  0  0  0  0  0  0  0  0
  144.4938  136.3625  152.5591 H   0  0  0  0  0  0  0  0  0  0  0  0
  146.1114  135.8947  152.0308 H   0  0  0  0  0  0  0  0  0  0  0  0
  145.7587  139.2075  150.4996 H   0  0  0  0  0  0  0  0  0  0  0  0
  147.1999  140.5457  155.4563 H   0  0  0  0  0  0  0  0  0  0  0  0
  145.6312  142.2061  154.5792 H   0  0  0  0  0  0  0  0  0  0  0  0
  146.8265  142.7620  153.4096 H   0  0  0  0  0  0  0  0  0  0  0  0
  147.1090  142.9857  155.1337 H   0  0  0  0  0  0  0  0  0  0  0  0
  149.3885  140.0873  154.6223 H   0  0  0  0  0  0  0  0  0  0  0  0
  149.2084  141.1927  153.2869 H   0  0  0  0  0  0  0  0  0  0  0  0
  148.8803  142.9453  155.2348 H   0  0  0  0  0  0  0  0  0  0  0  0
  150.1985  143.9689  156.4457 H   0  0  0  0  0  0  0  0  0  0  0  0
  152.9678  143.6086  156.6179 H   0  0  0  0  0  0  0  0  0  0  0  0
  151.4992  141.8503  158.5373 H   0  0  0  0  0  0  0  0  0  0  0  0
  153.2024  141.8266  158.0525 H   0  0  0  0  0  0  0  0  0  0  0  0
  153.0506  142.7973  160.4831 H   0  0  0  0  0  0  0  0  0  0  0  0
  152.6335  145.3242  160.1728 H   0  0  0  0  0  0  0  0  0  0  0  0
  152.5602  145.6915  157.5769 H   0  0  0  0  0  0  0  0  0  0  0  0
  150.9371  145.2382  158.1236 H   0  0  0  0  0  0  0  0  0  0  0  0
  1  2  1  0  0  0  0
  1 19  1  0  0  0  0
  1 20  1  0  0  0  0
  1 21  1  0  0  0  0
  2 18  1  0  0  0  0
  2  3  2  0  0  0  0
  3  4  1  0  0  0  0
  3 22  1  0  0  0  0
  4  5  2  0  0  0  0
  5  6  1  0  0  0  0
  5 18  1  0  0  0  0
  6  7  1  0  0  0  0
  6  8  1  0  0  0  0
  6 23  1  0  0  0  0
  7 24  1  0  0  0  0
  7 25  1  0  0  0  0
  7 26  1  0  0  0  0
  8  9  1  0  0  0  0
  8 27  1  0  0  0  0
  8 28  1  0  0  0  0
  9 10  1  0  0  0  0
  9 29  1  0  0  0  0
 10 11  2  0  0  0  0
 10 12  1  0  0  0  0
 12 13  1  0  0  0  0
 12 30  1  0  0  0  0
 13 17  1  0  0  0  0
 13 14  1  0  0  0  0
 13 31  1  0  0  0  0
 14 15  1  0  0  0  0
 14 32  1  0  0  0  0
 14 33  1  0  0  0  0
 15 16  2  0  0  0  0
 15 34  1  0  0  0  0
 16 17  1  0  0  0  0
 16 35  1  0  0  0  0
 17 36  1  0  0  0  0
 17 37  1  0  0  0  0
M  END
> <s_m_source_file>
AV-unprocessed.smi

> <i_m_source_file_index>
2375

> <i_lp_mmshare_version>
43012

> <i_f3d_flags>
0

> <s_epik_input>
W0NIM11jMVtjSF1uYyhzMSlbQ0BIXShbQ0gzXSlbQ0gyXVtOSF1DKD1PKVtOSF1bQ0hdMltDSDJdW0NIXT1bQ0hdW0NIMl0y

> <s_epik_cmdline>
J2VwaWtfcHl0aG9uJywgJy1waCcsICc3LjAnLCAnLXRuJywgJzgnLCAnLW1hJywgJzIwMCcsICctbWV0YWxfYmluZGluZycsICctaW1hZScsICc8aW5maWxlLm1hZT4nLCAnLW9tYWUnLCAnPG91dGZpbGUubWFlPic=

> <r_epik_Ionization_Penalty>
0.000644205

> <r_epik_Ionization_Penalty_Charging>
0

> <r_epik_Ionization_Penalty_Neutral>
0.000644205

> <r_epik_State_Penalty>
0.000370883

> <r_epik_Charging_Adjusted_Penalty>
0.000370883

> <i_epik_Tot_Q>
0

> <i_epik_Tot_abs_Q>
0

> <r_epik_Metal_State_Penalty>
-0

> <b_epik_Metal_Only>
0

> <s_lp_Force_Field>
OPLS_2005

> <r_lp_Energy>
17.1523

> <b_lp_Chiralities_Consistent>
1

> <s_lp_Variant>
AV-unprocessed.smi:2375-1

> <Gold.Version>
5.8.1

> <Gold.Id.Protein>
6NUR|6NUR_protein|mol2

> <Gold.PLP.Fitness>
46.9611

> <Gold.PLP.PLP>
-41.0877

> <Gold.PLP.part.hbond>
-2.0000

> <Gold.PLP.part.metal>
0.0000

> <Gold.PLP.part.buried>
-5.3850

> <Gold.PLP.part.nonpolar>
-37.4098

> <Gold.PLP.part.repulsive>
2.7310

> <Gold.PLP.ligand.clash>
0.0000

> <Gold.PLP.ligand.torsion>
0.7289

> <Gold.PLP.Chemscore.Hbond>
2.0000

> <Gold.PLP.Chemscore.CHOScore>
0.4068

> <Gold.PLP.Chemscore.Metal>
0.0000

> <Gold.Chemscore.Hbonds>
donor molecule, donor type, donor heavy atom, donor atom, acceptor molecule, acceptor atom, score
      L1  H     9    29       P1  8028  0.88
      L1  H    12    30       P1  8028  1.00
      P1  H  7989  7998       L1    11  0.29
      L1  C     3    22       P1 10171  0.82

> <Gold.PLP.Chemscore.Internal.Correction>
0.1107

> <Gold.Rescore>
     Score         DG    S(hbond)    S(metal)    S(lipo)     H(rot)  DE(clash)    DE(int)     intcor
     19.06     -20.62       1.87        0.00     108.88       1.50       1.23       0.33       ----

> <Gold.Chemscore.Fitness>
19.0564

> <Gold.Chemscore.DG>
-20.6172

> <Gold.Chemscore.ZeroCoef>
-5.4800

> <Gold.Chemscore.Hbond>
1.8688

> <Gold.Chemscore.Metal>
0.0000

> <Gold.Chemscore.Lipo>
108.8759

> <Gold.Chemscore.Internal_Hbond>
0.0000

> <Gold.Chemscore.DEClash>
1.2306

> <Gold.Chemscore.DEInternal>
0.3303

> <Gold.Chemscore.Rot>
1.5012

> <Gold.Chemscore.Internal.Correction>
   9.000000E+99

> <Gold.Chemscore.Hbonds>
donor molecule, donor type, donor heavy atom, donor atom, acceptor molecule, acceptor atom, score
      L1  H     9    29       P1  8028  0.87
      L1  H    12    30       P1  8028  0.95
      P1  H  7989  7998       L1    11  0.12

> <Gold.Chemscore.Hbond.Weighted>
-6.2417

> <Gold.Chemscore.Metal.Weighted>
-0.0000

> <Gold.Chemscore.Lipo.Weighted>
-12.7385

> <Gold.Chemscore.Internal_Hbond.Weighted>
0.0000

> <Gold.Chemscore.DEClash.Weighted>
1.2306

> <Gold.Chemscore.DEInternal.Weighted>
0.3303

> <Gold.Chemscore.Rot.Weighted>
3.8429

> <Gold.Chemscore.Internal.Correction.Weighted>
   9.000000E+99

> <Gold.Protein.RotatedTorsions>
[ 6907 6896 6895 6894 ] final  -49.62 input  -60.11 | X-H torsion
[ 7974 7965 7964 7962 ] final -125.39 input  175.53 | X-H torsion
[ 8008 7997 7996 7995 ] final -151.14 input   59.86 | X-H torsion
[ 10167 10162 10161 10158 ] final  -12.32 input  -65.29 | X-H torsion
[ 10718 10713 10712 10709 ] final  -46.67 input   66.30 | X-H torsion
[ 10763 10752 10751 10750 ] final   23.37 input  -60.55 | X-H torsion
[ 11005 11000 10999 10996 ] final -136.38 input  -57.11 | X-H torsion

> <Gold.Protein.ActiveResidues>
 VAL166  LYS551  ARG553  GLY616  TRP617  ASP618  TYR619  PRO620  LYS621  CYS622 
 ASP623  PHE694  ASN695  SER759  ASP760  ASP761  ALA762  ILE779  LEU786  VAL792 
 PHE793  MET794  SER795  GLU796  ALA797  LYS798  CYS799  TRP800  GLU811  SER814 

> <Gold.Protein.RotatedAtoms>
  150.8787  134.8174  159.7208 H   0  0  0  0  0  0  0  0  0  0  0  0  # atno 6907 bound_to 6896
  152.4763  134.4831  159.9681 H   0  0  0  0  0  0  0  0  0  0  0  0  # atno 6908 bound_to 6896
  151.4909  133.3486  159.2888 H   0  0  0  0  0  0  0  0  0  0  0  0  # atno 6909 bound_to 6896
  144.9981  140.7795  143.4513 H   0  0  0  0  0  0  0  0  0  0  0  0  # atno 7974 bound_to 7965
  155.6347  140.0695  157.2638 H   0  0  0  0  0  0  0  0  0  0  0  0  # atno 8008 bound_to 7997
  154.4197  140.1761  156.1558 H   0  0  0  0  0  0  0  0  0  0  0  0  # atno 8009 bound_to 7997
  155.9905  140.3345  155.6751 H   0  0  0  0  0  0  0  0  0  0  0  0  # atno 8010 bound_to 7997
  140.7158  143.5545  150.9264 H   0  0  0  0  0  0  0  0  0  0  0  0  # atno 10167 bound_to 10162
  156.2160  130.4163  149.9053 H   0  0  0  0  0  0  0  0  0  0  0  0  # atno 10718 bound_to 10713
  153.0844  135.6628  153.9979 H   0  0  0  0  0  0  0  0  0  0  0  0  # atno 10763 bound_to 10752
  153.9593  135.2976  155.3436 H   0  0  0  0  0  0  0  0  0  0  0  0  # atno 10764 bound_to 10752
  154.7249  135.5148  153.8943 H   0  0  0  0  0  0  0  0  0  0  0  0  # atno 10765 bound_to 10752
  140.8810  134.1931  157.4591 H   0  0  0  0  0  0  0  0  0  0  0  0  # atno 11005 bound_to 11000
  145.2191  139.2167  143.5102 LP  0  0  0  0  0  0  0  0  0  0  0  0  # atno 17320 bound_to 7965
  146.3446  140.2045  142.8589 LP  0  0  0  0  0  0  0  0  0  0  0  0  # atno 17321 bound_to 7965
  139.9270  143.6538  152.3085 LP  0  0  0  0  0  0  0  0  0  0  0  0  # atno 17342 bound_to 10162
  139.6976  144.7639  151.1330 LP  0  0  0  0  0  0  0  0  0  0  0  0  # atno 17343 bound_to 10162
  156.6715  130.8822  151.3563 LP  0  0  0  0  0  0  0  0  0  0  0  0  # atno 17370 bound_to 10713
  157.7063  130.9389  150.0943 LP  0  0  0  0  0  0  0  0  0  0  0  0  # atno 17371 bound_to 10713
  139.8720  134.9817  156.5127 LP  0  0  0  0  0  0  0  0  0  0  0  0  # atno 17394 bound_to 11000
  140.8461  133.8168  155.9122 LP  0  0  0  0  0  0  0  0  0  0  0  0  # atno 17395 bound_to 11000

$$$$
