#       Name:                AV-unprocessed.smi:3193
#       Creating user name   scv26
#       Creation time:       Fri Mar 27 18:03:46 2020


#       File generated by GOLD software.
#

@<TRIPOS>MOLECULE
AV-unprocessed.smi:3193
    41    42     1
SMALL
NO_CHARGES


@<TRIPOS>ATOM
      1 ****        -3.1981   0.7336  -1.6099 C.3            1 S1                 0.0000
      2 ****        -2.6916   1.3648  -0.2994 C.3            1 S1                 0.0000
      3 ****        -3.1550   2.8358  -0.2304 C.3            1 S1                 0.0000
      4 ****        -2.7067   3.5249   1.0645 C.3            1 S1                 0.0000
      5 ****        -1.1860   3.4377   1.2260 C.3            1 S1                 0.0000
      6 ****        -0.7158   1.9774   1.1819 C.3            1 S1                 0.0000
      7 ****        -1.1492   1.2597  -0.1195 C.3            1 S1                 0.0000
      8 ****        -0.6458  -0.2019  -0.1252 C.3            1 S1                 0.0000
      9 ****         0.8294  -0.2758  -0.1203 N.4            1 S1                 1.0000
     10 ****         1.3628  -1.6511  -0.1543 C.3            1 S1                 0.0000
     11 ****         2.8971  -1.6486  -0.1351 C.3            1 S1                 0.0000
     12 ****         3.4288  -2.9951  -0.1938 N.pl3          1 S1                 0.0000
     13 ****         3.6495  -3.8569   0.8726 C.2            1 S1                 0.0000
     14 ****         4.1523  -5.0219   0.3384 C.2            1 S1                 0.0000
     15 ****         4.2490  -4.8989  -1.0459 N.2            1 S1                 0.0000
     16 ****         3.8044  -3.6727  -1.2873 C.2            1 S1                 0.0000
     17 ****        -2.6751   1.1420  -2.4752 H              1 S1                 0.0000
     18 ****        -4.2628   0.9242  -1.7492 H              1 S1                 0.0000
     19 ****        -3.0750  -0.3486  -1.6185 H              1 S1                 0.0000
     20 ****        -3.1666   0.8313   0.5257 H              1 S1                 0.0000
     21 ****        -2.7629   3.3860  -1.0871 H              1 S1                 0.0000
     22 ****        -4.2420   2.8886  -0.3050 H              1 S1                 0.0000
     23 ****        -3.0220   4.5688   1.0592 H              1 S1                 0.0000
     24 ****        -3.1963   3.0569   1.9196 H              1 S1                 0.0000
     25 ****        -0.6980   4.0063   0.4333 H              1 S1                 0.0000
     26 ****        -0.8857   3.8980   2.1678 H              1 S1                 0.0000
     27 ****         0.3691   1.9592   1.2864 H              1 S1                 0.0000
     28 ****        -1.1146   1.4447   2.0464 H              1 S1                 0.0000
     29 ****        -0.6835   1.7769  -0.9602 H              1 S1                 0.0000
     30 ****        -1.0438  -0.7440   0.7338 H              1 S1                 0.0000
     31 ****        -0.9865  -0.7241  -1.0180 H              1 S1                 0.0000
     32 ****         1.1776   0.2236  -0.9263 H              1 S1                 0.0000
     33 ****         0.9793  -2.2070   0.7026 H              1 S1                 0.0000
     34 ****         1.0019  -2.1533  -1.0532 H              1 S1                 0.0000
     35 ****         3.2899  -1.0824  -0.9809 H              1 S1                 0.0000
     36 ****         3.2691  -1.1686   0.7712 H              1 S1                 0.0000
     37 ****         3.4360  -3.5802   1.8948 H              1 S1                 0.0000
     38 ****         4.4487  -5.9319   0.8392 H              1 S1                 0.0000
     39 ****         3.7474  -3.2592  -2.2838 H              1 S1                 0.0000
     40 ****         1.1693   0.1806   0.7143 H              1 S1                 0.0000
     41 ****         4.5770  -5.5767  -1.7039 LP             1 S1                 0.0000
@<TRIPOS>BOND
    1    1    2 1     
    2    1   17 1     
    3    1   18 1     
    4    1   19 1     
    5    2    7 1     
    6    2    3 1     
    7    2   20 1     
    8    3    4 1     
    9    3   21 1     
   10    3   22 1     
   11    4    5 1     
   12    4   23 1     
   13    4   24 1     
   14    5    6 1     
   15    5   25 1     
   16    5   26 1     
   17    6    7 1     
   18    6   27 1     
   19    6   28 1     
   20    7    8 1     
   21    7   29 1     
   22    8    9 1     
   23    8   30 1     
   24    8   31 1     
   25    9   10 1     
   26    9   32 1     
   27    9   40 1     
   28   10   11 1     
   29   10   33 1     
   30   10   34 1     
   31   11   12 1     
   32   11   35 1     
   33   11   36 1     
   34   12   16 1     
   35   12   13 1     
   36   13   14 2     
   37   13   37 1     
   38   14   15 1     
   39   14   38 1     
   40   15   16 2     
   41   16   39 1     
   42   15   41 1     
@<TRIPOS>SUBSTRUCTURE
      1 S1             1
@<TRIPOS>SET
LONE_PAIRS      STATIC     ATOMS    <user>   **** ""
1 41
DONOR_HYDROGENS      STATIC     ATOMS    <user>   **** ""
2 32 40
ATOM$BLUE        STATIC     ATOMS    COLORGROUP SYSTEM
1 41
ATOM$RED        STATIC     ATOMS    COLORGROUP SYSTEM
2 32 40
