AV-unprocessed.smi:883|AV-procd|sdf|4040|dock5
  -GOLD-   22720 1533D 1   1.00000     0.00000
 Structure written by MMmdl.
 29 31  0  0  0  0  0  0  0  0  1 V2000
  152.0150  137.3897  154.0013 N   0  0  0  0  0  0  0  0  0  0  0  0
  151.7224  138.3260  154.6147 C   0  0  0  0  0  0  0  0  0  0  0  0
  151.3549  139.5014  155.3853 C   0  0  0  0  0  0  0  0  0  0  0  0
  151.9261  139.7436  156.6501 C   0  0  0  0  0  0  0  0  0  0  0  0
  151.5340  140.8946  157.3616 C   0  0  0  0  0  0  0  0  0  0  0  0
  150.5849  141.7633  156.7826 C   0  0  0  0  0  0  0  0  0  0  0  0
  150.1991  142.9058  157.4980 N   0  0  0  0  0  0  0  0  0  0  0  0
  150.5725  143.0876  158.8975 C   0  0  2  0  0  0  0  0  0  0  0  0
  150.0272  144.3847  159.5001 C   0  0  0  0  0  0  0  0  0  0  0  0
  151.2997  145.0264  160.0711 C   0  0  2  0  0  0  0  0  0  0  0  0
  152.1787  145.6175  158.9617 C   0  0  0  0  0  0  0  0  0  0  0  0
  152.7419  144.3572  158.3080 C   0  0  0  0  0  0  0  0  0  0  0  0
  152.0868  143.2443  159.1440 C   0  0  1  0  0  0  0  0  0  0  0  0
  152.0551  143.8762  160.4127 O   0  0  0  0  0  0  0  0  0  0  0  0
  150.0394  141.5339  155.5641 N   0  0  0  0  0  0  0  0  0  0  0  0
  150.4172  140.4282  154.8868 C   0  0  0  0  0  0  0  0  0  0  0  0
  152.6505  139.0626  157.0734 H   0  0  0  0  0  0  0  0  0  0  0  0
  151.9553  141.1018  158.3345 H   0  0  0  0  0  0  0  0  0  0  0  0
  149.8141  143.6940  156.9981 H   0  0  0  0  0  0  0  0  0  0  0  0
  150.1937  142.2487  159.4833 H   0  0  0  0  0  0  0  0  0  0  0  0
  149.5336  145.0344  158.7759 H   0  0  0  0  0  0  0  0  0  0  0  0
  149.3135  144.1608  160.2936 H   0  0  0  0  0  0  0  0  0  0  0  0
  151.1172  145.7094  160.9012 H   0  0  0  0  0  0  0  0  0  0  0  0
  151.6117  146.2390  158.2681 H   0  0  0  0  0  0  0  0  0  0  0  0
  152.9835  146.2213  159.3828 H   0  0  0  0  0  0  0  0  0  0  0  0
  152.5105  144.2876  157.2450 H   0  0  0  0  0  0  0  0  0  0  0  0
  153.8266  144.3282  158.4167 H   0  0  0  0  0  0  0  0  0  0  0  0
  152.6381  142.3037  159.1324 H   0  0  0  0  0  0  0  0  0  0  0  0
  149.9541  140.2837  153.9213 H   0  0  0  0  0  0  0  0  0  0  0  0
  1  2  3  0  0  0  0
  2  3  1  0  0  0  0
  3 16  1  0  0  0  0
  3  4  2  0  0  0  0
  4  5  1  0  0  0  0
  4 17  1  0  0  0  0
  5  6  2  0  0  0  0
  5 18  1  0  0  0  0
  6  7  1  0  0  0  0
  6 15  1  0  0  0  0
  7  8  1  0  0  0  0
  7 19  1  0  0  0  0
  8 13  1  0  0  0  0
  8  9  1  0  0  0  0
  8 20  1  0  0  0  0
  9 10  1  0  0  0  0
  9 21  1  0  0  0  0
  9 22  1  0  0  0  0
 10 14  1  0  0  0  0
 10 11  1  0  0  0  0
 10 23  1  0  0  0  0
 11 12  1  0  0  0  0
 11 24  1  0  0  0  0
 11 25  1  0  0  0  0
 12 13  1  0  0  0  0
 12 26  1  0  0  0  0
 12 27  1  0  0  0  0
 13 14  1  0  0  0  0
 13 28  1  0  0  0  0
 15 16  2  0  0  0  0
 16 29  1  0  0  0  0
M  END
> <s_m_source_file>
AV-unprocessed.smi

> <i_m_source_file_index>
883

> <i_lp_mmshare_version>
43012

> <i_f3d_flags>
0

> <s_epik_input>
TiNDYzFbY0hdW2NIXWMobltjSF0xKVtOSF1bQ0BIXShbQ0gyXVtDQEBIXTIzKVtDQEBIXShPMylbQ0gyXVtDSDJdMg==

> <s_epik_cmdline>
J2VwaWtfcHl0aG9uJywgJy1waCcsICc3LjAnLCAnLXRuJywgJzgnLCAnLW1hJywgJzIwMCcsICctbWV0YWxfYmluZGluZycsICctaW1hZScsICc8aW5maWxlLm1hZT4nLCAnLW9tYWUnLCAnPG91dGZpbGUubWFlPic=

> <r_lp_tautomer_probability>
1

> <r_epik_Ionization_Penalty>
1.50983e-05

> <r_epik_Ionization_Penalty_Charging>
0

> <r_epik_Ionization_Penalty_Neutral>
1.50983e-05

> <r_epik_State_Penalty>
-0

> <r_epik_Charging_Adjusted_Penalty>
0

> <i_epik_Tot_Q>
0

> <i_epik_Tot_abs_Q>
0

> <r_epik_Metal_State_Penalty>
-0

> <b_epik_Metal_Only>
0

> <s_lp_Force_Field>
OPLS_2005

> <r_lp_Energy>
39.3985

> <b_lp_Chiralities_Consistent>
1

> <s_lp_Variant>
AV-unprocessed.smi:883-3

> <Gold.Version>
5.8.1

> <Gold.Id.Protein>
6NUR|6NUR_protein|mol2

> <Gold.PLP.Fitness>
43.1623

> <Gold.PLP.PLP>
-35.7385

> <Gold.PLP.part.hbond>
-2.1083

> <Gold.PLP.part.metal>
0.0000

> <Gold.PLP.part.buried>
-2.0917

> <Gold.PLP.part.nonpolar>
-31.2607

> <Gold.PLP.part.repulsive>
1.6080

> <Gold.PLP.ligand.clash>
0.0000

> <Gold.PLP.ligand.torsion>
0.0411

> <Gold.PLP.Chemscore.Hbond>
1.9760

> <Gold.PLP.Chemscore.CHOScore>
0.5230

> <Gold.PLP.Chemscore.Metal>
0.0000

> <Gold.Chemscore.Hbonds>
donor molecule, donor type, donor heavy atom, donor atom, acceptor molecule, acceptor atom, score
      L1  H     7    19       P1  8028  1.00
      P1  H 10752 10763       L1     1  0.94
      L1  C    16    29       P1  7957  0.35

> <Gold.PLP.Chemscore.Internal.Correction>
0.0091

> <Gold.Rescore>
     Score         DG    S(hbond)    S(metal)    S(lipo)     H(rot)  DE(clash)    DE(int)     intcor
     18.22     -20.04       1.94        0.00      91.04       1.00       0.98       0.85       ----

> <Gold.Chemscore.Fitness>
18.2188

> <Gold.Chemscore.DG>
-20.0432

> <Gold.Chemscore.ZeroCoef>
-5.4800

> <Gold.Chemscore.Hbond>
1.9374

> <Gold.Chemscore.Metal>
0.0000

> <Gold.Chemscore.Lipo>
91.0446

> <Gold.Chemscore.Internal_Hbond>
0.0000

> <Gold.Chemscore.DEClash>
0.9770

> <Gold.Chemscore.DEInternal>
0.8473

> <Gold.Chemscore.Rot>
1.0000

> <Gold.Chemscore.Internal.Correction>
   9.000000E+99

> <Gold.Chemscore.Hbonds>
donor molecule, donor type, donor heavy atom, donor atom, acceptor molecule, acceptor atom, score
      L1  H     7    19       P1  8028  0.96
      P1  H 10752 10763       L1     1  0.90

> <Gold.Chemscore.Hbond.Weighted>
-6.4709

> <Gold.Chemscore.Metal.Weighted>
-0.0000

> <Gold.Chemscore.Lipo.Weighted>
-10.6522

> <Gold.Chemscore.Internal_Hbond.Weighted>
0.0000

> <Gold.Chemscore.DEClash.Weighted>
0.9770

> <Gold.Chemscore.DEInternal.Weighted>
0.8473

> <Gold.Chemscore.Rot.Weighted>
2.5600

> <Gold.Chemscore.Internal.Correction.Weighted>
   9.000000E+99

> <Gold.Protein.RotatedTorsions>
[ 6907 6896 6895 6894 ] final  101.99 input  -60.11 | X-H torsion
[ 7974 7965 7964 7962 ] final  -84.56 input  175.53 | X-H torsion
[ 8008 7997 7996 7995 ] final  -89.63 input   59.86 | X-H torsion
[ 10167 10162 10161 10158 ] final -167.94 input  -65.29 | X-H torsion
[ 10718 10713 10712 10709 ] final  -10.23 input   66.30 | X-H torsion
[ 10763 10752 10751 10750 ] final   23.58 input  -60.55 | X-H torsion
[ 11005 11000 10999 10996 ] final  121.84 input  -57.11 | X-H torsion

> <Gold.Protein.ActiveResidues>
 VAL166  LYS551  ARG553  GLY616  TRP617  ASP618  TYR619  PRO620  LYS621  CYS622 
 ASP623  PHE694  ASN695  SER759  ASP760  ASP761  ALA762  ILE779  LEU786  VAL792 
 PHE793  MET794  SER795  GLU796  ALA797  LYS798  CYS799  TRP800  GLU811  SER814 

> <Gold.Protein.RotatedAtoms>
  152.5335  134.0042  159.7908 H   0  0  0  0  0  0  0  0  0  0  0  0  # atno 6907 bound_to 6896
  151.0256  133.5829  159.2673 H   0  0  0  0  0  0  0  0  0  0  0  0  # atno 6908 bound_to 6896
  151.2853  135.0733  159.9238 H   0  0  0  0  0  0  0  0  0  0  0  0  # atno 6909 bound_to 6896
  145.5049  140.9544  143.1739 H   0  0  0  0  0  0  0  0  0  0  0  0  # atno 7974 bound_to 7965
  154.6889  140.0539  157.0343 H   0  0  0  0  0  0  0  0  0  0  0  0  # atno 8008 bound_to 7997
  155.0845  140.3213  155.4573 H   0  0  0  0  0  0  0  0  0  0  0  0  # atno 8009 bound_to 7997
  156.2721  140.2059  156.5973 H   0  0  0  0  0  0  0  0  0  0  0  0  # atno 8010 bound_to 7997
  139.6017  144.0997  152.1749 H   0  0  0  0  0  0  0  0  0  0  0  0  # atno 10167 bound_to 10162
  156.6765  130.5024  149.5984 H   0  0  0  0  0  0  0  0  0  0  0  0  # atno 10718 bound_to 10713
  153.0827  135.6624  154.0011 H   0  0  0  0  0  0  0  0  0  0  0  0  # atno 10763 bound_to 10752
  153.9629  135.2972  155.3434 H   0  0  0  0  0  0  0  0  0  0  0  0  # atno 10764 bound_to 10752
  154.7230  135.5156  153.8913 H   0  0  0  0  0  0  0  0  0  0  0  0  # atno 10765 bound_to 10752
  139.9243  134.9640  156.8019 H   0  0  0  0  0  0  0  0  0  0  0  0  # atno 11005 bound_to 11000
  144.7759  139.6631  143.7175 LP  0  0  0  0  0  0  0  0  0  0  0  0  # atno 17320 bound_to 7965
  146.2203  139.5623  142.9623 LP  0  0  0  0  0  0  0  0  0  0  0  0  # atno 17321 bound_to 7965
  140.0595  144.5868  150.7274 LP  0  0  0  0  0  0  0  0  0  0  0  0  # atno 17342 bound_to 10162
  140.7254  143.2631  151.4137 LP  0  0  0  0  0  0  0  0  0  0  0  0  # atno 17343 bound_to 10162
  156.1899  130.6553  151.1049 LP  0  0  0  0  0  0  0  0  0  0  0  0  # atno 17370 bound_to 10713
  157.7059  131.0756  150.6669 LP  0  0  0  0  0  0  0  0  0  0  0  0  # atno 17371 bound_to 10713
  140.6383  133.9842  155.7695 LP  0  0  0  0  0  0  0  0  0  0  0  0  # atno 17394 bound_to 11000
  141.0788  134.0094  157.3417 LP  0  0  0  0  0  0  0  0  0  0  0  0  # atno 17395 bound_to 11000

$$$$
