#       Name:                AV-unprocessed.smi:3158
#       Creating user name   scv26
#       Creation time:       Fri Mar 27 17:46:44 2020


#       File generated by GOLD software.
#

@<TRIPOS>MOLECULE
AV-unprocessed.smi:3158
    43    43     1
SMALL
NO_CHARGES


@<TRIPOS>ATOM
      1 ****        -1.9414   1.5302  -1.4450 C.3            1 S1                 0.0000
      2 ****        -2.1814   2.5323  -0.3060 C.3            1 S1                 0.0000
      3 ****        -1.9345   1.9616   1.1061 C.3            1 S1                 0.0000
      4 ****        -2.2951   2.9816   2.1949 C.3            1 S1                 0.0000
      5 ****        -0.5390   1.5590   1.2763 N.am           1 S1                 0.0000
      6 ****        -0.0717   0.3022   1.2108 C.2            1 S1                 0.0000
      7 ****        -0.7854  -0.6777   0.9923 O.2            1 S1                 0.0000
      8 ****         1.4368   0.1189   1.4236 C.3            1 S1                 0.0000
      9 ****         1.7128  -0.3301   2.8664 C.3            1 S1                 0.0000
     10 ****         1.9795  -0.8765   0.4739 N.4            1 S1                 1.0000
     11 ****         2.2352  -0.3621  -0.8896 C.3            1 S1                 0.0000
     12 ****         2.2888  -1.5063  -1.9147 C.3            1 S1                 0.0000
     13 ****         1.0215  -2.2099  -2.0176 N.pl3          1 S1                 0.0000
     14 ****         0.7626  -3.5476  -1.8032 C.2            1 S1                 0.0000
     15 ****        -0.5717  -3.7428  -2.0183 C.2            1 S1                 0.0000
     16 ****        -1.0499  -2.4513  -2.3762 C.2            1 S1                 0.0000
     17 ****        -0.0925  -1.5383  -2.3830 N.2            1 S1                 0.0000
     18 ****        -2.2196   1.9637  -2.4058 H              1 S1                 0.0000
     19 ****        -2.5327   0.6247  -1.3054 H              1 S1                 0.0000
     20 ****        -0.8931   1.2404  -1.5101 H              1 S1                 0.0000
     21 ****        -1.5569   3.4124  -0.4646 H              1 S1                 0.0000
     22 ****        -3.2130   2.8809  -0.3695 H              1 S1                 0.0000
     23 ****        -2.5886   1.0990   1.2455 H              1 S1                 0.0000
     24 ****        -3.3426   3.2761   2.1251 H              1 S1                 0.0000
     25 ****        -1.6899   3.8849   2.1109 H              1 S1                 0.0000
     26 ****        -2.1378   2.5660   3.1908 H              1 S1                 0.0000
     27 ****         0.1224   2.2995   1.4609 H              1 S1                 0.0000
     28 ****         1.9481   1.0692   1.2589 H              1 S1                 0.0000
     29 ****         1.3281   0.3929   3.5869 H              1 S1                 0.0000
     30 ****         2.7835  -0.4300   3.0465 H              1 S1                 0.0000
     31 ****         1.2500  -1.2940   3.0835 H              1 S1                 0.0000
     32 ****         2.8471  -1.2415   0.8391 H              1 S1                 0.0000
     33 ****         1.4641   0.3523  -1.1806 H              1 S1                 0.0000
     34 ****         3.1773   0.1864  -0.8845 H              1 S1                 0.0000
     35 ****         2.5408  -1.1141  -2.9007 H              1 S1                 0.0000
     36 ****         3.0699  -2.2202  -1.6500 H              1 S1                 0.0000
     37 ****         1.5383  -4.2418  -1.5140 H              1 S1                 0.0000
     38 ****        -1.1225  -4.6682  -1.9357 H              1 S1                 0.0000
     39 ****        -2.0559  -2.1522  -2.6321 H              1 S1                 0.0000
     40 ****         1.3100  -1.6311   0.4145 H              1 S1                 0.0000
     41 ****        -1.7685  -0.5590   0.8526 LP             1 S1                 0.0000
     42 ****        -0.3818  -1.5918   0.9546 LP             1 S1                 0.0000
     43 ****        -0.1750  -0.5675  -2.6084 LP             1 S1                 0.0000
@<TRIPOS>BOND
    1    1    2 1     
    2    1   18 1     
    3    1   19 1     
    4    1   20 1     
    5    2    3 1     
    6    2   21 1     
    7    2   22 1     
    8    3    4 1     
    9    3    5 1     
   10    3   23 1     
   11    4   24 1     
   12    4   25 1     
   13    4   26 1     
   14    5    6 am    
   15    5   27 1     
   16    6    7 2     
   17    6    8 1     
   18    8    9 1     
   19    8   10 1     
   20    8   28 1     
   21    9   29 1     
   22    9   30 1     
   23    9   31 1     
   24   10   11 1     
   25   10   32 1     
   26   10   40 1     
   27   11   12 1     
   28   11   33 1     
   29   11   34 1     
   30   12   13 1     
   31   12   35 1     
   32   12   36 1     
   33   13   17 1     
   34   13   14 1     
   35   14   15 2     
   36   14   37 1     
   37   15   16 1     
   38   15   38 1     
   39   16   17 2     
   40   16   39 1     
   41    7   41 1     
   42    7   42 1     
   43   17   43 1     
@<TRIPOS>SUBSTRUCTURE
      1 S1             1
@<TRIPOS>SET
LONE_PAIRS      STATIC     ATOMS    <user>   **** ""
3 41 42 43
DONOR_HYDROGENS      STATIC     ATOMS    <user>   **** ""
3 27 32 40
ATOM$BLUE        STATIC     ATOMS    COLORGROUP SYSTEM
3 41 42 43
ATOM$RED        STATIC     ATOMS    COLORGROUP SYSTEM
3 27 32 40
