AV-unprocessed.smi:112|AV-procd|sdf|1084|dock2
  -GOLD-   2262018173D 1   1.00000     0.00000
 Structure written by MMmdl.
 54 57  0  0  0  0  0  0  0  0  3 V2000
  151.3548  137.6944  158.7484 C   0  0  0  0  0  0  0  0  0  0  0  0
  152.4073  138.4527  159.5414 C   0  0  0  0  0  0  0  0  0  0  0  0
  152.4009  139.8017  159.6380 C   0  0  0  0  0  0  0  0  0  0  0  0
  153.3415  140.5256  160.3456 N   0  0  0  0  0  0  0  0  0  0  0  0
  153.2230  142.0300  160.4464 C   0  0  1  0  0  0  0  0  0  0  0  0
  153.6303  142.7442  159.1635 C   0  0  0  0  0  0  0  0  0  0  0  0
  152.8400  144.0241  159.3273 C   0  0  1  0  0  0  0  0  0  0  0  0
  152.6781  144.6984  158.0952 O   0  0  0  0  0  0  0  0  0  0  0  0
  151.5310  143.5533  159.9995 C   0  0  1  0  0  0  0  0  0  0  0  0
  150.3847  143.1980  159.0297 C   0  0  0  0  0  0  0  0  0  0  0  0
  149.8324  144.3781  158.4867 O   0  0  0  0  0  0  0  0  0  0  0  0
  151.8907  142.3531  160.6935 O   0  0  0  0  0  0  0  0  0  0  0  0
  154.3516  139.8440  161.0572 C   0  0  0  0  0  0  0  0  0  0  0  0
  155.1955  140.4575  161.7142 O   0  0  0  0  0  0  0  0  0  0  0  0
  154.3835  138.4323  160.9827 N   0  0  0  0  0  0  0  0  0  0  0  0
  155.4575  137.7083  161.7014 C   0  0  0  0  0  0  0  0  0  0  0  0
  154.9364  136.6409  162.6889 C   0  0  0  0  0  0  0  0  0  0  0  0
  154.4117  137.0095  163.7405 O   0  0  0  0  0  0  0  0  0  0  0  0
  155.0821  135.3363  162.3475 N   0  0  0  0  0  0  0  0  0  0  0  0
  155.6783  134.8902  161.0763 C   0  0  0  0  0  0  0  0  0  0  0  0
  155.6360  133.3465  161.0954 C   0  0  0  0  0  0  0  0  0  0  0  0
  155.0095  133.0405  162.4235 C   0  0  0  0  0  0  0  0  0  0  0  0
  154.7438  131.7659  162.9519 C   0  0  0  0  0  0  0  0  0  0  0  0
  154.1479  131.6667  164.2336 C   0  0  0  0  0  0  0  0  0  0  0  0
  153.8550  130.3443  164.8210 N   0  3  0  0  0  0  0  0  0  0  0  0
  154.5186  129.3822  164.4483 O   0  0  0  0  0  0  0  0  0  0  0  0
  152.9601  130.2652  165.6564 O   0  5  0  0  0  0  0  0  0  0  0  0
  153.8379  132.8566  164.9445 C   0  0  0  0  0  0  0  0  0  0  0  0
  154.1109  134.1296  164.3975 C   0  0  0  0  0  0  0  0  0  0  0  0
  154.7035  134.2048  163.1182 C   0  0  0  0  0  0  0  0  0  0  0  0
  153.4471  137.6833  160.2279 C   0  0  0  0  0  0  0  0  0  0  0  0
  153.5275  136.4547  160.1674 O   0  0  0  0  0  0  0  0  0  0  0  0
  150.6369  138.3685  158.2800 H   0  0  0  0  0  0  0  0  0  0  0  0
  150.8009  137.0171  159.3994 H   0  0  0  0  0  0  0  0  0  0  0  0
  151.8221  137.1051  157.9587 H   0  0  0  0  0  0  0  0  0  0  0  0
  151.6115  140.3418  159.1382 H   0  0  0  0  0  0  0  0  0  0  0  0
  153.8124  142.3724  161.2967 H   0  0  0  0  0  0  0  0  0  0  0  0
  154.7100  142.8879  159.1149 H   0  0  0  0  0  0  0  0  0  0  0  0
  153.2986  142.1892  158.2859 H   0  0  0  0  0  0  0  0  0  0  0  0
  153.3739  144.6833  160.0137 H   0  0  0  0  0  0  0  0  0  0  0  0
  152.5285  144.0562  157.4182 H   0  0  0  0  0  0  0  0  0  0  0  0
  151.1953  144.3132  160.7067 H   0  0  0  0  0  0  0  0  0  0  0  0
  150.7530  142.6142  158.1865 H   0  0  0  0  0  0  0  0  0  0  0  0
  149.6099  142.6063  159.5159 H   0  0  0  0  0  0  0  0  0  0  0  0
  149.6089  144.2169  157.5828 H   0  0  0  0  0  0  0  0  0  0  0  0
  156.1357  137.2362  160.9895 H   0  0  0  0  0  0  0  0  0  0  0  0
  156.0904  138.4101  162.2461 H   0  0  0  0  0  0  0  0  0  0  0  0
  155.1111  135.2723  160.2265 H   0  0  0  0  0  0  0  0  0  0  0  0
  156.7076  135.2405  160.9874 H   0  0  0  0  0  0  0  0  0  0  0  0
  155.0253  132.9473  160.2852 H   0  0  0  0  0  0  0  0  0  0  0  0
  156.6339  132.9113  161.0346 H   0  0  0  0  0  0  0  0  0  0  0  0
  154.9962  130.8856  162.3795 H   0  0  0  0  0  0  0  0  0  0  0  0
  153.3852  132.8045  165.9237 H   0  0  0  0  0  0  0  0  0  0  0  0
  153.8615  135.0076  164.9718 H   0  0  0  0  0  0  0  0  0  0  0  0
  1  2  1  0  0  0  0
  1 33  1  0  0  0  0
  1 34  1  0  0  0  0
  1 35  1  0  0  0  0
  2 31  1  0  0  0  0
  2  3  2  0  0  0  0
  3  4  1  0  0  0  0
  3 36  1  0  0  0  0
  4  5  1  0  0  0  0
  4 13  1  0  0  0  0
  5 12  1  0  0  0  0
  5  6  1  0  0  0  0
  5 37  1  0  0  0  0
  6  7  1  0  0  0  0
  6 38  1  0  0  0  0
  6 39  1  0  0  0  0
  7  8  1  0  0  0  0
  7  9  1  0  0  0  0
  7 40  1  0  0  0  0
  8 41  1  0  0  0  0
  9 10  1  0  0  0  0
  9 12  1  0  0  0  0
  9 42  1  0  0  0  0
 10 11  1  0  0  0  0
 10 43  1  0  0  0  0
 10 44  1  0  0  0  0
 11 45  1  0  0  0  0
 13 14  2  0  0  0  0
 13 15  1  0  0  0  0
 15 16  1  0  0  0  0
 15 31  1  0  0  0  0
 16 17  1  0  0  0  0
 16 46  1  0  0  0  0
 16 47  1  0  0  0  0
 17 18  2  0  0  0  0
 17 19  1  0  0  0  0
 19 30  1  0  0  0  0
 19 20  1  0  0  0  0
 20 21  1  0  0  0  0
 20 48  1  0  0  0  0
 20 49  1  0  0  0  0
 21 22  1  0  0  0  0
 21 50  1  0  0  0  0
 21 51  1  0  0  0  0
 22 30  2  0  0  0  0
 22 23  1  0  0  0  0
 23 24  2  0  0  0  0
 23 52  1  0  0  0  0
 24 25  1  0  0  0  0
 24 28  1  0  0  0  0
 25 26  2  0  0  0  0
 25 27  1  0  0  0  0
 28 29  2  0  0  0  0
 28 53  1  0  0  0  0
 29 30  1  0  0  0  0
 29 54  1  0  0  0  0
 31 32  2  0  0  0  0
M  CHG  1  25   1
M  CHG  1  27  -1
M  END
> <s_m_source_file>
AV-unprocessed.smi

> <i_m_source_file_index>
112

> <i_lp_mmshare_version>
43012

> <i_f3d_flags>
0

> <s_epik_input>
W09IXVtDSDJdW0NAQEhdKE8xKVtDQEhdKFtPSF0pW0NIMl1bQ0BIXTFuKFtjSF1jMltDSDNdKWMoPU8pbihjMj1PKVtDSDJdQyg9TylOKFtDSDJdW0NIMl0zKWMoYzM0KVtjSF1bY0hdYyhbY0hdNClbTitdKD1PKVtPLV0=

> <s_epik_cmdline>
J2VwaWtfcHl0aG9uJywgJy1waCcsICc3LjAnLCAnLXRuJywgJzgnLCAnLW1hJywgJzIwMCcsICctbWV0YWxfYmluZGluZycsICctaW1hZScsICc8aW5maWxlLm1hZT4nLCAnLW9tYWUnLCAnPG91dGZpbGUubWFlPic=

> <r_lp_tautomer_probability>
1

> <r_epik_Ionization_Penalty>
2.5696e-07

> <r_epik_Ionization_Penalty_Charging>
1.04886e-08

> <r_epik_Ionization_Penalty_Neutral>
2.46472e-07

> <r_epik_State_Penalty>
-0

> <r_epik_Charging_Adjusted_Penalty>
1.04886e-08

> <i_epik_Tot_Q>
0

> <i_epik_Tot_abs_Q>
2

> <r_epik_Metal_State_Penalty>
-0

> <b_epik_Metal_Only>
0

> <s_epik_Chemistry_Notes>
This compound contains an acetal/aminal-like group ( X-CH(R)-Y where X, Y are N, S, or O) that may be acid/base labile, releasing an aldehyde.

> <s_lp_Force_Field>
OPLS_2005

> <r_lp_Energy>
61.1797

> <b_lp_Chiralities_Consistent>
1

> <s_lp_Variant>
AV-unprocessed.smi:112-2

> <Gold.Version>
5.8.1

> <Gold.Id.Protein>
6NUR|6NUR_protein|mol2

> <Gold.PLP.Fitness>
54.8342

> <Gold.PLP.PLP>
-50.5740

> <Gold.PLP.part.hbond>
-4.6738

> <Gold.PLP.part.metal>
0.0000

> <Gold.PLP.part.buried>
-8.0312

> <Gold.PLP.part.nonpolar>
-38.0052

> <Gold.PLP.part.repulsive>
0.1452

> <Gold.PLP.ligand.clash>
0.0000

> <Gold.PLP.ligand.torsion>
0.8353

> <Gold.PLP.Chemscore.Hbond>
1.9588

> <Gold.PLP.Chemscore.CHOScore>
0.0000

> <Gold.PLP.Chemscore.Metal>
0.0000

> <Gold.Chemscore.Hbonds>
donor molecule, donor type, donor heavy atom, donor atom, acceptor molecule, acceptor atom, score
      L1  H    11    45       P1  8028  0.73
      P1  H  6896  6907       L1    32  1.00

> <Gold.PLP.Chemscore.Internal.Correction>
0.0545

> <Gold.Rescore>
     Score         DG    S(hbond)    S(metal)    S(lipo)     H(rot)  DE(clash)    DE(int)     intcor
     11.15     -14.45       1.54        0.00     104.67       3.29       0.33       2.97       ----

> <Gold.Chemscore.Fitness>
11.1464

> <Gold.Chemscore.DG>
-14.4472

> <Gold.Chemscore.ZeroCoef>
-5.4800

> <Gold.Chemscore.Hbond>
1.5413

> <Gold.Chemscore.Metal>
0.0000

> <Gold.Chemscore.Lipo>
104.6659

> <Gold.Chemscore.Internal_Hbond>
0.0000

> <Gold.Chemscore.DEClash>
0.3349

> <Gold.Chemscore.DEInternal>
2.9659

> <Gold.Chemscore.Rot>
3.2916

> <Gold.Chemscore.Internal.Correction>
   9.000000E+99

> <Gold.Chemscore.Hbonds>
donor molecule, donor type, donor heavy atom, donor atom, acceptor molecule, acceptor atom, score
      L1  H    11    45       P1  8028  0.12
      P1  H  6896  6907       L1    32  0.95
      P1  H  6933  6945       L1    12  0.01

> <Gold.Chemscore.Hbond.Weighted>
-5.1478

> <Gold.Chemscore.Metal.Weighted>
-0.0000

> <Gold.Chemscore.Lipo.Weighted>
-12.2459

> <Gold.Chemscore.Internal_Hbond.Weighted>
0.0000

> <Gold.Chemscore.DEClash.Weighted>
0.3349

> <Gold.Chemscore.DEInternal.Weighted>
2.9659

> <Gold.Chemscore.Rot.Weighted>
8.4265

> <Gold.Chemscore.Internal.Correction.Weighted>
   9.000000E+99

> <Gold.Protein.RotatedTorsions>
[ 6907 6896 6895 6894 ] final   39.00 input  -60.11 | X-H torsion
[ 7974 7965 7964 7962 ] final   -7.21 input  175.53 | X-H torsion
[ 8008 7997 7996 7995 ] final   75.52 input   59.86 | X-H torsion
[ 10167 10162 10161 10158 ] final  -87.56 input  -65.29 | X-H torsion
[ 10718 10713 10712 10709 ] final  110.46 input   66.30 | X-H torsion
[ 10763 10752 10751 10750 ] final  -29.39 input  -60.55 | X-H torsion
[ 11005 11000 10999 10996 ] final   20.26 input  -57.11 | X-H torsion

> <Gold.Protein.ActiveResidues>
 VAL166  LYS551  ARG553  GLY616  TRP617  ASP618  TYR619  PRO620  LYS621  CYS622 
 ASP623  PHE694  ASN695  SER759  ASP760  ASP761  ALA762  ILE779  LEU786  VAL792 
 PHE793  MET794  SER795  GLU796  ALA797  LYS798  CYS799  TRP800  GLU811  SER814 

> <Gold.Protein.RotatedAtoms>
  152.1638  134.8890  160.0539 H   0  0  0  0  0  0  0  0  0  0  0  0  # atno 6907 bound_to 6896
  151.9876  133.3774  159.4140 H   0  0  0  0  0  0  0  0  0  0  0  0  # atno 6908 bound_to 6896
  150.6891  134.3894  159.5113 H   0  0  0  0  0  0  0  0  0  0  0  0  # atno 6909 bound_to 6896
  146.2312  140.2285  142.8339 H   0  0  0  0  0  0  0  0  0  0  0  0  # atno 7974 bound_to 7965
  155.8142  140.3472  155.5475 H   0  0  0  0  0  0  0  0  0  0  0  0  # atno 8008 bound_to 7997
  155.8410  140.0941  157.1755 H   0  0  0  0  0  0  0  0  0  0  0  0  # atno 8009 bound_to 7997
  154.4005  140.1394  156.3715 H   0  0  0  0  0  0  0  0  0  0  0  0  # atno 8010 bound_to 7997
  140.3832  143.2739  151.9357 H   0  0  0  0  0  0  0  0  0  0  0  0  # atno 10167 bound_to 10162
  157.6493  131.0933  150.6605 H   0  0  0  0  0  0  0  0  0  0  0  0  # atno 10718 bound_to 10713
  153.7639  135.6917  153.4920 H   0  0  0  0  0  0  0  0  0  0  0  0  # atno 10763 bound_to 10752
  153.1920  135.4467  155.0160 H   0  0  0  0  0  0  0  0  0  0  0  0  # atno 10764 bound_to 10752
  154.8143  135.3391  154.7152 H   0  0  0  0  0  0  0  0  0  0  0  0  # atno 10765 bound_to 10752
  140.4046  134.1683  155.7665 H   0  0  0  0  0  0  0  0  0  0  0  0  # atno 11005 bound_to 11000
  144.9576  140.8242  143.5533 LP  0  0  0  0  0  0  0  0  0  0  0  0  # atno 17320 bound_to 7965
  145.2253  139.2140  143.5071 LP  0  0  0  0  0  0  0  0  0  0  0  0  # atno 17321 bound_to 7965
  139.4794  144.5798  151.7951 LP  0  0  0  0  0  0  0  0  0  0  0  0  # atno 17342 bound_to 10162
  140.4916  144.1302  150.5951 LP  0  0  0  0  0  0  0  0  0  0  0  0  # atno 17343 bound_to 10162
  156.6919  130.4597  149.5597 LP  0  0  0  0  0  0  0  0  0  0  0  0  # atno 17370 bound_to 10713
  156.1856  130.6527  151.1002 LP  0  0  0  0  0  0  0  0  0  0  0  0  # atno 17371 bound_to 10713
  141.1844  133.8344  157.1141 LP  0  0  0  0  0  0  0  0  0  0  0  0  # atno 17394 bound_to 11000
  140.0312  134.9900  157.0783 LP  0  0  0  0  0  0  0  0  0  0  0  0  # atno 17395 bound_to 11000

$$$$
