#       Name:                AV-unprocessed.smi:2467
#       Creating user name   scv26
#       Creation time:       Fri Mar 27 13:37:00 2020


#       File generated by GOLD software.
#

@<TRIPOS>MOLECULE
AV-unprocessed.smi:2467
    51    52     1
SMALL
NO_CHARGES


@<TRIPOS>ATOM
      1 ****        -4.4021  -0.8429   2.2988 C.3            1 S1                 0.0000
      2 ****        -2.8724  -0.6999   2.2722 C.3            1 S1                 0.0000
      3 ****        -2.3143   0.1944   1.1333 C.3            1 S1                 0.0000
      4 ****        -2.6937  -0.4002  -0.2504 C.3            1 S1                 0.0000
      5 ****        -2.2680   0.4193  -1.4758 C.3            1 S1                 0.0000
      6 ****        -0.7771   0.4146   1.2633 C.3            1 S1                 0.0000
      7 ****        -0.3319   1.8435   0.8607 C.3            1 S1                 0.0000
      8 ****         1.1925   2.0085   0.9616 C.3            1 S1                 0.0000
      9 ****         1.8386   1.2258  -0.0879 N.am           1 S1                 0.0000
     10 ****         3.0692   1.4152  -0.5874 C.2            1 S1                 0.0000
     11 ****         3.8204   2.3030  -0.1876 O.2            1 S1                 0.0000
     12 ****         3.4479   0.5645  -1.5661 N.am           1 S1                 0.0000
     13 ****         4.6589   0.4659  -2.3163 C.ar           1 S1                 0.0000
     14 ****         4.6695  -0.5688  -3.2794 C.ar           1 S1                 0.0000
     15 ****         5.8123  -0.7649  -4.0789 C.ar           1 S1                 0.0000
     16 ****         6.9212   0.0801  -3.8965 C.ar           1 S1                 0.0000
     17 ****         6.8326   1.0860  -2.9177 C.ar           1 S1                 0.0000
     18 ****         5.7378   1.2744  -2.1514 N.ar           1 S1                 0.0000
     19 ****         1.6600   1.5777   2.3623 C.3            1 S1                 0.0000
     20 ****         1.0872   0.2025   2.7418 C.3            1 S1                 0.0000
     21 ****        -0.3308   0.2128   2.6052 O.3            1 S1                 0.0000
     22 ****        -4.7212  -1.3565   3.2059 H              1 S1                 0.0000
     23 ****        -4.7743  -1.4250   1.4566 H              1 S1                 0.0000
     24 ****        -4.8909   0.1315   2.2833 H              1 S1                 0.0000
     25 ****        -2.5907  -0.2773   3.2368 H              1 S1                 0.0000
     26 ****        -2.4141  -1.6888   2.2281 H              1 S1                 0.0000
     27 ****        -2.8036   1.1643   1.2339 H              1 S1                 0.0000
     28 ****        -2.2840  -1.4071  -0.3403 H              1 S1                 0.0000
     29 ****        -3.7750  -0.5112  -0.3130 H              1 S1                 0.0000
     30 ****        -2.6806  -0.0142  -2.3869 H              1 S1                 0.0000
     31 ****        -1.1849   0.4348  -1.5940 H              1 S1                 0.0000
     32 ****        -2.6252   1.4471  -1.4094 H              1 S1                 0.0000
     33 ****        -0.2783  -0.3286   0.6387 H              1 S1                 0.0000
     34 ****        -0.6586   2.1032  -0.1441 H              1 S1                 0.0000
     35 ****        -0.8121   2.5653   1.5228 H              1 S1                 0.0000
     36 ****         1.4408   3.0600   0.8073 H              1 S1                 0.0000
     37 ****         1.2963   0.4681  -0.4791 H              1 S1                 0.0000
     38 ****         2.7537  -0.1288  -1.8052 H              1 S1                 0.0000
     39 ****         3.8097  -1.2105  -3.4083 H              1 S1                 0.0000
     40 ****         5.8368  -1.5505  -4.8196 H              1 S1                 0.0000
     41 ****         7.8152  -0.0389  -4.4904 H              1 S1                 0.0000
     42 ****         7.6605   1.7573  -2.7436 H              1 S1                 0.0000
     43 ****         2.7487   1.5681   2.4263 H              1 S1                 0.0000
     44 ****         1.3187   2.3133   3.0915 H              1 S1                 0.0000
     45 ****         1.5201  -0.5871   2.1257 H              1 S1                 0.0000
     46 ****         1.3382  -0.0321   3.7762 H              1 S1                 0.0000
     47 ****         3.5216   2.9209   0.5396 LP             1 S1                 0.0000
     48 ****         4.7301   2.4069  -0.5897 LP             1 S1                 0.0000
     49 ****         5.7210   2.0038  -1.4675 LP             1 S1                 0.0000
     50 ****        -0.6853  -0.6651   2.9272 LP             1 S1                 0.0000
     51 ****        -0.6973   0.9491   3.1739 LP             1 S1                 0.0000
@<TRIPOS>BOND
    1    1    2 1     
    2    1   22 1     
    3    1   23 1     
    4    1   24 1     
    5    2    3 1     
    6    2   25 1     
    7    2   26 1     
    8    3    4 1     
    9    3    6 1     
   10    3   27 1     
   11    4    5 1     
   12    4   28 1     
   13    4   29 1     
   14    5   30 1     
   15    5   31 1     
   16    5   32 1     
   17    6   21 1     
   18    6    7 1     
   19    6   33 1     
   20    7    8 1     
   21    7   34 1     
   22    7   35 1     
   23    8    9 1     
   24    8   19 1     
   25    8   36 1     
   26    9   10 am    
   27    9   37 1     
   28   10   11 2     
   29   10   12 am    
   30   12   13 1     
   31   12   38 1     
   32   13   18 ar    
   33   13   14 ar    
   34   14   15 ar    
   35   14   39 1     
   36   15   16 ar    
   37   15   40 1     
   38   16   17 ar    
   39   16   41 1     
   40   17   18 ar    
   41   17   42 1     
   42   19   20 1     
   43   19   43 1     
   44   19   44 1     
   45   20   21 1     
   46   20   45 1     
   47   20   46 1     
   48   11   47 1     
   49   11   48 1     
   50   18   49 1     
   51   21   50 1     
   52   21   51 1     
@<TRIPOS>SUBSTRUCTURE
      1 S1             1
@<TRIPOS>SET
LONE_PAIRS      STATIC     ATOMS    <user>   **** ""
5 47 48 49 50 51
DONOR_HYDROGENS      STATIC     ATOMS    <user>   **** ""
2 37 38
ATOM$BLUE        STATIC     ATOMS    COLORGROUP SYSTEM
5 47 48 49 50 51
ATOM$RED        STATIC     ATOMS    COLORGROUP SYSTEM
2 37 38
