AV-unprocessed.smi:2058|AV-procd|sdf|8346|dock2
  -GOLD-   2272011 13D 1   1.00000     0.00000
 Structure written by MMmdl.
 43 44  0  0  0  0  0  0  0  0  2 V2000
  145.2242  135.9486  153.9599 C   0  0  0  0  0  0  0  0  0  0  0  0
  145.6527  136.9895  152.9143 C   0  0  2  0  0  0  0  0  0  0  0  0
  145.4526  136.4838  151.4712 C   0  0  0  0  0  0  0  0  0  0  0  0
  146.1228  137.3245  150.5565 O   0  0  0  0  0  0  0  0  0  0  0  0
  147.0510  137.3453  153.1429 N   0  0  0  0  0  0  0  0  0  0  0  0
  147.4943  138.1822  154.0918 C   0  0  0  0  0  0  0  0  0  0  0  0
  146.7553  138.7634  154.8862 O   0  0  0  0  0  0  0  0  0  0  0  0
  148.8344  138.2811  154.0668 N   0  0  0  0  0  0  0  0  0  0  0  0
  149.6702  139.0997  154.8724 C   0  0  0  0  0  0  0  0  0  0  0  0
  151.0544  139.2898  154.6337 C   0  0  0  0  0  0  0  0  0  0  0  0
  151.8041  140.1020  155.5090 C   0  0  0  0  0  0  0  0  0  0  0  0
  151.1645  140.7064  156.6151 C   0  0  0  0  0  0  0  0  0  0  0  0
  151.8286  141.5272  157.5360 N   0  0  0  0  0  0  0  0  0  0  0  0
  152.0215  140.8772  158.8295 C   0  0  0  0  0  0  0  0  0  0  0  0
  152.9248  141.7274  159.7399 C   0  0  0  0  0  0  0  0  0  0  0  0
  152.3795  143.1584  159.8757 C   0  0  0  0  0  0  0  0  0  0  0  0
  152.1698  143.7805  158.4857 C   0  0  0  0  0  0  0  0  0  0  0  0
  151.2809  142.8797  157.6111 C   0  0  0  0  0  0  0  0  0  0  0  0
  149.8452  140.4933  156.8115 N   0  3  0  0  0  0  0  0  0  0  0  0
  149.0916  139.7212  155.9989 C   0  0  0  0  0  0  0  0  0  0  0  0
  144.1686  135.6962  153.8568 H   0  0  0  0  0  0  0  0  0  0  0  0
  145.3718  136.3255  154.9724 H   0  0  0  0  0  0  0  0  0  0  0  0
  145.7976  135.0262  153.8609 H   0  0  0  0  0  0  0  0  0  0  0  0
  145.0466  137.8857  153.0625 H   0  0  0  0  0  0  0  0  0  0  0  0
  145.8606  135.4796  151.3514 H   0  0  0  0  0  0  0  0  0  0  0  0
  144.3938  136.4326  151.2150 H   0  0  0  0  0  0  0  0  0  0  0  0
  145.4849  137.8825  150.1386 H   0  0  0  0  0  0  0  0  0  0  0  0
  147.7309  136.9111  152.5361 H   0  0  0  0  0  0  0  0  0  0  0  0
  149.3145  137.6659  153.4263 H   0  0  0  0  0  0  0  0  0  0  0  0
  151.5598  138.8168  153.8058 H   0  0  0  0  0  0  0  0  0  0  0  0
  152.8584  140.2527  155.3295 H   0  0  0  0  0  0  0  0  0  0  0  0
  151.0526  140.7249  159.3073 H   0  0  0  0  0  0  0  0  0  0  0  0
  152.4656  139.8912  158.6852 H   0  0  0  0  0  0  0  0  0  0  0  0
  153.0088  141.2627  160.7227 H   0  0  0  0  0  0  0  0  0  0  0  0
  153.9333  141.7599  159.3251 H   0  0  0  0  0  0  0  0  0  0  0  0
  151.4324  143.1411  160.4166 H   0  0  0  0  0  0  0  0  0  0  0  0
  153.0645  143.7697  160.4639 H   0  0  0  0  0  0  0  0  0  0  0  0
  151.7218  144.7700  158.5804 H   0  0  0  0  0  0  0  0  0  0  0  0
  153.1361  143.9223  157.9999 H   0  0  0  0  0  0  0  0  0  0  0  0
  151.2003  143.3002  156.6078 H   0  0  0  0  0  0  0  0  0  0  0  0
  150.2729  142.8459  158.0262 H   0  0  0  0  0  0  0  0  0  0  0  0
  148.0506  139.6291  156.2733 H   0  0  0  0  0  0  0  0  0  0  0  0
  149.3970  140.9336  157.6156 H   0  0  0  0  0  0  0  0  0  0  0  0
  1  2  1  0  0  0  0
  1 21  1  0  0  0  0
  1 22  1  0  0  0  0
  1 23  1  0  0  0  0
  2  3  1  0  0  0  0
  2  5  1  0  0  0  0
  2 24  1  0  0  0  0
  3  4  1  0  0  0  0
  3 25  1  0  0  0  0
  3 26  1  0  0  0  0
  4 27  1  0  0  0  0
  5  6  1  0  0  0  0
  5 28  1  0  0  0  0
  6  7  2  0  0  0  0
  6  8  1  0  0  0  0
  8  9  1  0  0  0  0
  8 29  1  0  0  0  0
  9 20  1  0  0  0  0
  9 10  2  0  0  0  0
 10 11  1  0  0  0  0
 10 30  1  0  0  0  0
 11 12  2  0  0  0  0
 11 31  1  0  0  0  0
 12 13  1  0  0  0  0
 12 19  1  0  0  0  0
 13 18  1  0  0  0  0
 13 14  1  0  0  0  0
 14 15  1  0  0  0  0
 14 32  1  0  0  0  0
 14 33  1  0  0  0  0
 15 16  1  0  0  0  0
 15 34  1  0  0  0  0
 15 35  1  0  0  0  0
 16 17  1  0  0  0  0
 16 36  1  0  0  0  0
 16 37  1  0  0  0  0
 17 18  1  0  0  0  0
 17 38  1  0  0  0  0
 17 39  1  0  0  0  0
 18 40  1  0  0  0  0
 18 41  1  0  0  0  0
 19 20  2  0  0  0  0
 19 43  1  0  0  0  0
 20 42  1  0  0  0  0
M  CHG  1  19   1
M  END
> <s_m_source_file>
AV-unprocessed.smi

> <i_m_source_file_index>
2058

> <i_lp_mmshare_version>
43012

> <i_f3d_flags>
0

> <s_epik_input>
W09IXVtDSDJdW0NAQEhdKFtDSDNdKVtOSF1DKD1PKVtOSF1jMVtjSF1bY0hdYyhuW2NIXTEpTjJbQ0gyXVtDSDJdW0NIMl1bQ0gyXVtDSDJdMg==

> <s_epik_cmdline>
J2VwaWtfcHl0aG9uJywgJy1waCcsICc3LjAnLCAnLXRuJywgJzgnLCAnLW1hJywgJzIwMCcsICctbWV0YWxfYmluZGluZycsICctaW1hZScsICc8aW5maWxlLm1hZT4nLCAnLW9tYWUnLCAnPG91dGZpbGUubWFlPic=

> <r_lp_tautomer_probability>
0.999994

> <r_epik_Ionization_Penalty>
1.11069

> <r_epik_Ionization_Penalty_Charging>
1.11067

> <r_epik_Ionization_Penalty_Neutral>
2.03008e-05

> <r_epik_State_Penalty>
1.16863

> <r_epik_Charging_Adjusted_Penalty>
2.27929

> <i_epik_Tot_Q>
1

> <i_epik_Tot_abs_Q>
1

> <r_epik_Metal_State_Penalty>
1.25471

> <b_epik_Metal_Only>
0

> <s_lp_Force_Field>
OPLS_2005

> <r_lp_Energy>
25.869

> <b_lp_Chiralities_Consistent>
1

> <s_lp_Variant>
AV-unprocessed.smi:2058-3

> <Gold.Version>
5.8.1

> <Gold.Id.Protein>
6NUR|6NUR_protein|mol2

> <Gold.PLP.Fitness>
44.4732

> <Gold.PLP.PLP>
-35.2156

> <Gold.PLP.part.hbond>
-4.6652

> <Gold.PLP.part.metal>
0.0000

> <Gold.PLP.part.buried>
-1.5588

> <Gold.PLP.part.nonpolar>
-28.8494

> <Gold.PLP.part.repulsive>
0.1456

> <Gold.PLP.ligand.clash>
0.0000

> <Gold.PLP.ligand.torsion>
0.5478

> <Gold.PLP.Chemscore.Hbond>
3.3923

> <Gold.PLP.Chemscore.CHOScore>
0.0000

> <Gold.PLP.Chemscore.Metal>
0.0000

> <Gold.Chemscore.Hbonds>
donor molecule, donor type, donor heavy atom, donor atom, acceptor molecule, acceptor atom, score
      L1  H     4    27       P1 10171  1.00
      L1  H     5    28       P1  7948  1.00
      L1  H     8    29       P1  7948  0.66
      P1  H  7954  7966       L1     4  0.51

> <Gold.PLP.Chemscore.Internal.Correction>
0.1766

> <Gold.Rescore>
     Score         DG    S(hbond)    S(metal)    S(lipo)     H(rot)  DE(clash)    DE(int)     intcor
     17.66     -20.03       2.90        0.00      87.14       2.08       0.24       2.12       ----

> <Gold.Chemscore.Fitness>
17.6619

> <Gold.Chemscore.DG>
-20.0288

> <Gold.Chemscore.ZeroCoef>
-5.4800

> <Gold.Chemscore.Hbond>
2.8952

> <Gold.Chemscore.Metal>
0.0000

> <Gold.Chemscore.Lipo>
87.1391

> <Gold.Chemscore.Internal_Hbond>
0.0000

> <Gold.Chemscore.DEClash>
0.2432

> <Gold.Chemscore.DEInternal>
2.1238

> <Gold.Chemscore.Rot>
2.0767

> <Gold.Chemscore.Internal.Correction>
   9.000000E+99

> <Gold.Chemscore.Hbonds>
donor molecule, donor type, donor heavy atom, donor atom, acceptor molecule, acceptor atom, score
      L1  H     4    27       P1 10171  0.99
      L1  H     5    28       P1  7948  0.95
      L1  H     8    29       P1  7948  0.62
      P1  H  7954  7966       L1     4  0.37

> <Gold.Chemscore.Hbond.Weighted>
-9.6700

> <Gold.Chemscore.Metal.Weighted>
-0.0000

> <Gold.Chemscore.Lipo.Weighted>
-10.1953

> <Gold.Chemscore.Internal_Hbond.Weighted>
0.0000

> <Gold.Chemscore.DEClash.Weighted>
0.2432

> <Gold.Chemscore.DEInternal.Weighted>
2.1238

> <Gold.Chemscore.Rot.Weighted>
5.3164

> <Gold.Chemscore.Internal.Correction.Weighted>
   9.000000E+99

> <Gold.Protein.RotatedTorsions>
[ 6907 6896 6895 6894 ] final   35.45 input  -60.11 | X-H torsion
[ 7974 7965 7964 7962 ] final   75.13 input  175.53 | X-H torsion
[ 8008 7997 7996 7995 ] final  -94.54 input   59.86 | X-H torsion
[ 10167 10162 10161 10158 ] final   10.50 input  -65.29 | X-H torsion
[ 10718 10713 10712 10709 ] final   99.21 input   66.30 | X-H torsion
[ 10763 10752 10751 10750 ] final  147.45 input  -60.55 | X-H torsion
[ 11005 11000 10999 10996 ] final -160.45 input  -57.11 | X-H torsion

> <Gold.Protein.ActiveResidues>
 VAL166  LYS551  ARG553  GLY616  TRP617  ASP618  TYR619  PRO620  LYS621  CYS622 
 ASP623  PHE694  ASN695  SER759  ASP760  ASP761  ALA762  ILE779  LEU786  VAL792 
 PHE793  MET794  SER795  GLU796  ALA797  LYS798  CYS799  TRP800  GLU811  SER814 

> <Gold.Protein.RotatedAtoms>
  152.1163  134.9238  160.0564 H   0  0  0  0  0  0  0  0  0  0  0  0  # atno 6907 bound_to 6896
  152.0396  133.3967  159.4339 H   0  0  0  0  0  0  0  0  0  0  0  0  # atno 6908 bound_to 6896
  150.6846  134.3350  159.4887 H   0  0  0  0  0  0  0  0  0  0  0  0  # atno 6909 bound_to 6896
  145.7194  139.2643  143.1604 H   0  0  0  0  0  0  0  0  0  0  0  0  # atno 7974 bound_to 7965
  154.7498  140.0488  157.0883 H   0  0  0  0  0  0  0  0  0  0  0  0  # atno 8008 bound_to 7997
  155.0072  140.3131  155.4824 H   0  0  0  0  0  0  0  0  0  0  0  0  # atno 8009 bound_to 7997
  156.2882  140.2191  156.5185 H   0  0  0  0  0  0  0  0  0  0  0  0  # atno 8010 bound_to 7997
  140.6190  143.8245  150.7153 H   0  0  0  0  0  0  0  0  0  0  0  0  # atno 10167 bound_to 10162
  157.6880  131.0663  150.4913 H   0  0  0  0  0  0  0  0  0  0  0  0  # atno 10718 bound_to 10713
  154.0385  135.2891  155.3358 H   0  0  0  0  0  0  0  0  0  0  0  0  # atno 10763 bound_to 10752
  154.6944  135.5214  153.8440 H   0  0  0  0  0  0  0  0  0  0  0  0  # atno 10764 bound_to 10752
  153.0610  135.6613  154.0591 H   0  0  0  0  0  0  0  0  0  0  0  0  # atno 10765 bound_to 10752
  140.6314  134.4647  157.5229 H   0  0  0  0  0  0  0  0  0  0  0  0  # atno 11005 bound_to 11000
  146.0639  140.7941  142.9721 LP  0  0  0  0  0  0  0  0  0  0  0  0  # atno 17320 bound_to 7965
  144.6920  140.3239  143.7227 LP  0  0  0  0  0  0  0  0  0  0  0  0  # atno 17321 bound_to 7965
  140.1831  143.4098  152.1919 LP  0  0  0  0  0  0  0  0  0  0  0  0  # atno 17342 bound_to 10162
  139.5423  144.7267  151.4695 LP  0  0  0  0  0  0  0  0  0  0  0  0  # atno 17343 bound_to 10162
  156.5240  130.4168  149.6236 LP  0  0  0  0  0  0  0  0  0  0  0  0  # atno 17370 bound_to 10713
  156.3129  130.7238  151.2135 LP  0  0  0  0  0  0  0  0  0  0  0  0  # atno 17371 bound_to 10713
  139.9115  134.8336  156.1513 LP  0  0  0  0  0  0  0  0  0  0  0  0  # atno 17394 bound_to 11000
  141.0673  133.6813  156.2069 LP  0  0  0  0  0  0  0  0  0  0  0  0  # atno 17395 bound_to 11000

$$$$
