AV-unprocessed.smi:810|AV-procd|sdf|3810|dock2
  -GOLD-   22720 1253D 1   1.00000     0.00000
 Structure written by MMmdl.
 34 35  0  0  0  0  0  0  0  0  1 V2000
  149.0868  140.8065  157.0498 O   0  0  0  0  0  0  0  0  0  0  0  0
  149.0161  141.9453  156.5889 C   0  0  0  0  0  0  0  0  0  0  0  0
  149.7943  142.9796  156.9505 N   0  0  0  0  0  0  0  0  0  0  0  0
  150.8047  143.0181  157.9489 C   0  0  0  0  0  0  0  0  0  0  0  0
  151.3256  144.2765  158.3144 C   0  0  0  0  0  0  0  0  0  0  0  0
  152.3134  144.3461  159.3150 C   0  0  0  0  0  0  0  0  0  0  0  0
  152.7374  143.1480  159.9215 C   0  0  0  0  0  0  0  0  0  0  0  0
  152.2388  141.9371  159.5955 N   0  0  0  0  0  0  0  0  0  0  0  0
  151.2930  141.8771  158.6332 C   0  0  0  0  0  0  0  0  0  0  0  0
  148.1492  142.3053  155.6318 N   0  0  0  0  0  0  0  0  0  0  0  0
  147.1598  141.4285  155.0099 C   0  0  1  0  0  0  0  0  0  0  0  0
  145.8405  142.1995  154.8086 C   0  0  0  0  0  0  0  0  0  0  0  0
  145.8949  143.2338  153.6715 C   0  0  0  0  0  0  0  0  0  0  0  0
  144.6428  143.8722  153.5453 O   0  0  0  0  0  0  0  0  0  0  0  0
  147.6407  140.8302  153.6986 C   0  0  0  0  0  0  0  0  0  0  0  0
  147.1237  139.4951  153.2175 C   0  0  0  0  0  0  0  0  0  0  0  0
  148.5585  139.6308  153.6728 C   0  0  0  0  0  0  0  0  0  0  0  0
  149.6802  143.8296  156.4179 H   0  0  0  0  0  0  0  0  0  0  0  0
  150.9775  145.1789  157.8331 H   0  0  0  0  0  0  0  0  0  0  0  0
  152.7355  145.2949  159.6114 H   0  0  0  0  0  0  0  0  0  0  0  0
  153.4928  143.1637  160.6931 H   0  0  0  0  0  0  0  0  0  0  0  0
  150.9151  140.8861  158.4360 H   0  0  0  0  0  0  0  0  0  0  0  0
  148.1713  143.2616  155.3092 H   0  0  0  0  0  0  0  0  0  0  0  0
  146.9477  140.6021  155.6916 H   0  0  0  0  0  0  0  0  0  0  0  0
  145.0290  141.4940  154.6237 H   0  0  0  0  0  0  0  0  0  0  0  0
  145.5867  142.7152  155.7359 H   0  0  0  0  0  0  0  0  0  0  0  0
  146.6568  143.9872  153.8735 H   0  0  0  0  0  0  0  0  0  0  0  0
  146.1446  142.7634  152.7202 H   0  0  0  0  0  0  0  0  0  0  0  0
  144.0477  143.2852  153.1043 H   0  0  0  0  0  0  0  0  0  0  0  0
  147.8087  141.5718  152.9198 H   0  0  0  0  0  0  0  0  0  0  0  0
  146.4411  138.9510  153.8673 H   0  0  0  0  0  0  0  0  0  0  0  0
  146.9419  139.3823  152.1506 H   0  0  0  0  0  0  0  0  0  0  0  0
  149.3339  139.6088  152.9100 H   0  0  0  0  0  0  0  0  0  0  0  0
  148.8273  139.1751  154.6236 H   0  0  0  0  0  0  0  0  0  0  0  0
  1  2  2  0  0  0  0
  2  3  1  0  0  0  0
  2 10  1  0  0  0  0
  3  4  1  0  0  0  0
  3 18  1  0  0  0  0
  4  9  1  0  0  0  0
  4  5  2  0  0  0  0
  5  6  1  0  0  0  0
  5 19  1  0  0  0  0
  6  7  2  0  0  0  0
  6 20  1  0  0  0  0
  7  8  1  0  0  0  0
  7 21  1  0  0  0  0
  8  9  2  0  0  0  0
  9 22  1  0  0  0  0
 10 11  1  0  0  0  0
 10 23  1  0  0  0  0
 11 12  1  0  0  0  0
 11 15  1  0  0  0  0
 11 24  1  0  0  0  0
 12 13  1  0  0  0  0
 12 25  1  0  0  0  0
 12 26  1  0  0  0  0
 13 14  1  0  0  0  0
 13 27  1  0  0  0  0
 13 28  1  0  0  0  0
 14 29  1  0  0  0  0
 15 17  1  0  0  0  0
 15 16  1  0  0  0  0
 15 30  1  0  0  0  0
 16 17  1  0  0  0  0
 16 31  1  0  0  0  0
 16 32  1  0  0  0  0
 17 33  1  0  0  0  0
 17 34  1  0  0  0  0
M  END
> <s_m_source_file>
AV-unprocessed.smi

> <i_m_source_file_index>
810

> <i_lp_mmshare_version>
43012

> <i_f3d_flags>
0

> <s_epik_input>
W09IXVtDSDJdW0NIMl1bQ0BIXShbQ0hdMVtDSDJdW0NIMl0xKVtOSF1DKD1PKVtOSF1jMltjSF1bY0hdW2NIXW5bY0hdMg==

> <s_epik_cmdline>
J2VwaWtfcHl0aG9uJywgJy1waCcsICc3LjAnLCAnLXRuJywgJzgnLCAnLW1hJywgJzIwMCcsICctbWV0YWxfYmluZGluZycsICctaW1hZScsICc8aW5maWxlLm1hZT4nLCAnLW9tYWUnLCAnPG91dGZpbGUubWFlPic=

> <r_epik_Ionization_Penalty>
0.00486911

> <r_epik_Ionization_Penalty_Charging>
0

> <r_epik_Ionization_Penalty_Neutral>
0.00486911

> <r_epik_State_Penalty>
0.00350304

> <r_epik_Charging_Adjusted_Penalty>
0.00350304

> <i_epik_Tot_Q>
0

> <i_epik_Tot_abs_Q>
0

> <r_epik_Metal_State_Penalty>
-0

> <b_epik_Metal_Only>
0

> <s_lp_Force_Field>
OPLS_2005

> <r_lp_Energy>
17.3052

> <b_lp_Chiralities_Consistent>
1

> <s_lp_Variant>
AV-unprocessed.smi:810-2

> <Gold.Version>
5.8.1

> <Gold.Id.Protein>
6NUR|6NUR_protein|mol2

> <Gold.PLP.Fitness>
42.4708

> <Gold.PLP.PLP>
-34.7477

> <Gold.PLP.part.hbond>
-2.6890

> <Gold.PLP.part.metal>
0.0000

> <Gold.PLP.part.buried>
-0.6906

> <Gold.PLP.part.nonpolar>
-32.4551

> <Gold.PLP.part.repulsive>
0.1933

> <Gold.PLP.ligand.clash>
0.0000

> <Gold.PLP.ligand.torsion>
0.9198

> <Gold.PLP.Chemscore.Hbond>
2.8153

> <Gold.PLP.Chemscore.CHOScore>
0.0000

> <Gold.PLP.Chemscore.Metal>
0.0000

> <Gold.Chemscore.Hbonds>
donor molecule, donor type, donor heavy atom, donor atom, acceptor molecule, acceptor atom, score
      L1  H     3    18       P1  8028  0.68
      L1  H    10    23       P1  8028  0.85
      L1  H    14    29       P1 10174  0.75

> <Gold.PLP.Chemscore.Internal.Correction>
1.1169

> <Gold.Rescore>
     Score         DG    S(hbond)    S(metal)    S(lipo)     H(rot)  DE(clash)    DE(int)     intcor
     13.83     -15.96       1.83        0.00      87.75       2.31       0.24       1.89       ----

> <Gold.Chemscore.Fitness>
13.8335

> <Gold.Chemscore.DG>
-15.9575

> <Gold.Chemscore.ZeroCoef>
-5.4800

> <Gold.Chemscore.Hbond>
1.8334

> <Gold.Chemscore.Metal>
0.0000

> <Gold.Chemscore.Lipo>
87.7484

> <Gold.Chemscore.Internal_Hbond>
0.0000

> <Gold.Chemscore.DEClash>
0.2386

> <Gold.Chemscore.DEInternal>
1.8855

> <Gold.Chemscore.Rot>
2.3097

> <Gold.Chemscore.Internal.Correction>
   9.000000E+99

> <Gold.Chemscore.Hbonds>
donor molecule, donor type, donor heavy atom, donor atom, acceptor molecule, acceptor atom, score
      L1  H     3    18       P1  8028  0.66
      L1  H    10    23       P1  8028  0.75
      L1  H    14    29       P1 10174  0.09

> <Gold.Chemscore.Hbond.Weighted>
-6.1237

> <Gold.Chemscore.Metal.Weighted>
-0.0000

> <Gold.Chemscore.Lipo.Weighted>
-10.2666

> <Gold.Chemscore.Internal_Hbond.Weighted>
0.0000

> <Gold.Chemscore.DEClash.Weighted>
0.2386

> <Gold.Chemscore.DEInternal.Weighted>
1.8855

> <Gold.Chemscore.Rot.Weighted>
5.9127

> <Gold.Chemscore.Internal.Correction.Weighted>
   9.000000E+99

> <Gold.Protein.RotatedTorsions>
[ 6907 6896 6895 6894 ] final -144.33 input  -60.11 | X-H torsion
[ 7974 7965 7964 7962 ] final  156.53 input  175.53 | X-H torsion
[ 8008 7997 7996 7995 ] final  -63.15 input   59.86 | X-H torsion
[ 10167 10162 10161 10158 ] final  125.34 input  -65.29 | X-H torsion
[ 10718 10713 10712 10709 ] final   57.03 input   66.30 | X-H torsion
[ 10763 10752 10751 10750 ] final   38.39 input  -60.55 | X-H torsion
[ 11005 11000 10999 10996 ] final  -89.81 input  -57.11 | X-H torsion

> <Gold.Protein.ActiveResidues>
 VAL166  LYS551  ARG553  GLY616  TRP617  ASP618  TYR619  PRO620  LYS621  CYS622 
 ASP623  PHE694  ASN695  SER759  ASP760  ASP761  ALA762  ILE779  LEU786  VAL792 
 PHE793  MET794  SER795  GLU796  ALA797  LYS798  CYS799  TRP800  GLU811  SER814 

> <Gold.Protein.RotatedAtoms>
  151.1126  133.5161  159.2604 H   0  0  0  0  0  0  0  0  0  0  0  0  # atno 6907 bound_to 6896
  151.1950  135.0418  159.8858 H   0  0  0  0  0  0  0  0  0  0  0  0  # atno 6908 bound_to 6896
  152.5451  134.0962  159.8351 H   0  0  0  0  0  0  0  0  0  0  0  0  # atno 6909 bound_to 6896
  144.7958  139.7216  143.6202 H   0  0  0  0  0  0  0  0  0  0  0  0  # atno 7974 bound_to 7965
  154.4538  140.0981  156.6698 H   0  0  0  0  0  0  0  0  0  0  0  0  # atno 8008 bound_to 7997
  155.5201  140.3478  155.4386 H   0  0  0  0  0  0  0  0  0  0  0  0  # atno 8009 bound_to 7997
  156.0736  140.1355  156.9787 H   0  0  0  0  0  0  0  0  0  0  0  0  # atno 8010 bound_to 7997
  139.5691  144.6928  151.3828 H   0  0  0  0  0  0  0  0  0  0  0  0  # atno 10167 bound_to 10162
  157.5481  130.8745  149.8921 H   0  0  0  0  0  0  0  0  0  0  0  0  # atno 10718 bound_to 10713
  153.0003  135.6250  154.2297 H   0  0  0  0  0  0  0  0  0  0  0  0  # atno 10763 bound_to 10752
  154.2039  135.2803  155.2983 H   0  0  0  0  0  0  0  0  0  0  0  0  # atno 10764 bound_to 10752
  154.5661  135.5690  153.7110 H   0  0  0  0  0  0  0  0  0  0  0  0  # atno 10765 bound_to 10752
  141.1578  133.7653  156.9647 H   0  0  0  0  0  0  0  0  0  0  0  0  # atno 11005 bound_to 11000
  146.2225  139.5662  142.9609 LP  0  0  0  0  0  0  0  0  0  0  0  0  # atno 17320 bound_to 7965
  145.5678  141.0397  143.2191 LP  0  0  0  0  0  0  0  0  0  0  0  0  # atno 17321 bound_to 7965
  140.6975  143.7713  150.7350 LP  0  0  0  0  0  0  0  0  0  0  0  0  # atno 17342 bound_to 10162
  140.1214  143.4609  152.2311 LP  0  0  0  0  0  0  0  0  0  0  0  0  # atno 17343 bound_to 10162
  156.0553  130.3709  150.1106 LP  0  0  0  0  0  0  0  0  0  0  0  0  # atno 17370 bound_to 10713
  156.9281  130.9705  151.3537 LP  0  0  0  0  0  0  0  0  0  0  0  0  # atno 17371 bound_to 10713
  140.1169  134.9441  157.2147 LP  0  0  0  0  0  0  0  0  0  0  0  0  # atno 17394 bound_to 11000
  140.3122  134.3011  155.7264 LP  0  0  0  0  0  0  0  0  0  0  0  0  # atno 17395 bound_to 11000

$$$$
