AV-unprocessed.smi:3322|AV-procd|sdf|12776|dock7
  -GOLD-   2272019123D 1   1.00000     0.00000
 Structure written by MMmdl.
 38 39  0  0  0  0  0  0  0  0  1 V2000
  147.8470  141.6671  154.0751 C   0  0  0  0  0  0  0  0  0  0  0  0
  148.9678  141.2112  155.0238 C   0  0  1  0  0  0  0  0  0  0  0  0
  148.6581  141.6735  156.3899 N   0  0  0  0  0  0  0  0  0  0  0  0
  149.5029  141.0738  157.4188 C   0  0  0  0  0  0  0  0  0  0  0  0
  150.9024  141.7108  157.3948 C   0  0  0  0  0  0  0  0  0  0  0  0
  151.0756  142.7062  158.4388 N   0  0  0  0  0  0  0  0  0  0  0  0
  150.6493  144.0176  158.4488 C   0  0  0  0  0  0  0  0  0  0  0  0
  151.0319  144.5605  159.6420 C   0  0  0  0  0  0  0  0  0  0  0  0
  151.6949  143.4890  160.3035 C   0  0  0  0  0  0  0  0  0  0  0  0
  151.7193  142.3807  159.5811 N   0  0  0  0  0  0  0  0  0  0  0  0
  149.1668  139.6802  154.9131 C   0  0  0  0  0  0  0  0  0  0  0  0
  148.3128  138.9457  155.4136 O   0  0  0  0  0  0  0  0  0  0  0  0
  150.2524  139.1748  154.2738 N   0  0  0  0  0  0  0  0  0  0  0  0
  151.2657  140.0268  153.6406 C   0  0  0  0  0  0  0  0  0  0  0  0
  152.6009  139.8374  154.3806 C   0  0  0  0  0  0  0  0  0  0  0  0
  152.9780  138.4644  154.3335 O   0  0  0  0  0  0  0  0  0  0  0  0
  152.0063  137.6020  154.9182 C   0  0  0  0  0  0  0  0  0  0  0  0
  150.6560  137.7655  154.1959 C   0  0  0  0  0  0  0  0  0  0  0  0
  148.0603  141.4025  153.0392 H   0  0  0  0  0  0  0  0  0  0  0  0
  147.7199  142.7496  154.1120 H   0  0  0  0  0  0  0  0  0  0  0  0
  146.8910  141.2135  154.3409 H   0  0  0  0  0  0  0  0  0  0  0  0
  149.8869  141.7201  154.7377 H   0  0  0  0  0  0  0  0  0  0  0  0
  148.7216  142.6794  156.4607 H   0  0  0  0  0  0  0  0  0  0  0  0
  149.0615  141.2203  158.4045 H   0  0  0  0  0  0  0  0  0  0  0  0
  149.5843  139.9976  157.2599 H   0  0  0  0  0  0  0  0  0  0  0  0
  151.6790  140.9493  157.4867 H   0  0  0  0  0  0  0  0  0  0  0  0
  151.0638  142.2022  156.4348 H   0  0  0  0  0  0  0  0  0  0  0  0
  150.1141  144.4496  157.6161 H   0  0  0  0  0  0  0  0  0  0  0  0
  150.8636  145.5688  159.9898 H   0  0  0  0  0  0  0  0  0  0  0  0
  152.1555  143.4832  161.2804 H   0  0  0  0  0  0  0  0  0  0  0  0
  151.3735  139.7415  152.5932 H   0  0  0  0  0  0  0  0  0  0  0  0
  150.9966  141.0838  153.6357 H   0  0  0  0  0  0  0  0  0  0  0  0
  153.3820  140.4344  153.9101 H   0  0  0  0  0  0  0  0  0  0  0  0
  152.5230  140.1701  155.4169 H   0  0  0  0  0  0  0  0  0  0  0  0
  152.3553  136.5726  154.8362 H   0  0  0  0  0  0  0  0  0  0  0  0
  151.9069  137.8218  155.9823 H   0  0  0  0  0  0  0  0  0  0  0  0
  149.9457  137.0681  154.6322 H   0  0  0  0  0  0  0  0  0  0  0  0
  150.7536  137.4773  153.1483 H   0  0  0  0  0  0  0  0  0  0  0  0
  1  2  1  0  0  0  0
  1 19  1  0  0  0  0
  1 20  1  0  0  0  0
  1 21  1  0  0  0  0
  2  3  1  0  0  0  0
  2 11  1  0  0  0  0
  2 22  1  0  0  0  0
  3  4  1  0  0  0  0
  3 23  1  0  0  0  0
  4  5  1  0  0  0  0
  4 24  1  0  0  0  0
  4 25  1  0  0  0  0
  5  6  1  0  0  0  0
  5 26  1  0  0  0  0
  5 27  1  0  0  0  0
  6 10  1  0  0  0  0
  6  7  1  0  0  0  0
  7  8  2  0  0  0  0
  7 28  1  0  0  0  0
  8  9  1  0  0  0  0
  8 29  1  0  0  0  0
  9 10  2  0  0  0  0
  9 30  1  0  0  0  0
 11 12  2  0  0  0  0
 11 13  1  0  0  0  0
 13 18  1  0  0  0  0
 13 14  1  0  0  0  0
 14 15  1  0  0  0  0
 14 31  1  0  0  0  0
 14 32  1  0  0  0  0
 15 16  1  0  0  0  0
 15 33  1  0  0  0  0
 15 34  1  0  0  0  0
 16 17  1  0  0  0  0
 17 18  1  0  0  0  0
 17 35  1  0  0  0  0
 17 36  1  0  0  0  0
 18 37  1  0  0  0  0
 18 38  1  0  0  0  0
M  END
> <s_m_source_file>
AV-unprocessed.smi

> <i_m_source_file_index>
3322

> <i_lp_mmshare_version>
43012

> <i_f3d_flags>
0

> <s_epik_input>
W0NIMl0xW0NIMl1PW0NIMl1bQ0gyXU4xQyg9TylbQ0BIXShbQ0gzXSlbTkhdW0NIMl1bQ0gyXW4yW2NIXVtjSF1bY0hdbjI=

> <s_epik_cmdline>
J2VwaWtfcHl0aG9uJywgJy1waCcsICc3LjAnLCAnLXRuJywgJzgnLCAnLW1hJywgJzIwMCcsICctbWV0YWxfYmluZGluZycsICctaW1hZScsICc8aW5maWxlLm1hZT4nLCAnLW9tYWUnLCAnPG91dGZpbGUubWFlPic=

> <r_lp_tautomer_probability>
1

> <r_epik_Ionization_Penalty>
0.511228

> <r_epik_Ionization_Penalty_Charging>
0

> <r_epik_Ionization_Penalty_Neutral>
0.511228

> <r_epik_State_Penalty>
0.51753

> <r_epik_Charging_Adjusted_Penalty>
0.51753

> <i_epik_Tot_Q>
0

> <i_epik_Tot_abs_Q>
0

> <r_epik_Metal_State_Penalty>
0.517012

> <b_epik_Metal_Only>
0

> <s_lp_Force_Field>
OPLS_2005

> <r_lp_Energy>
27.6931

> <b_lp_Chiralities_Consistent>
1

> <s_lp_Variant>
AV-unprocessed.smi:3322-4

> <Gold.Version>
5.8.1

> <Gold.Id.Protein>
6NUR|6NUR_protein|mol2

> <Gold.PLP.Fitness>
43.9002

> <Gold.PLP.PLP>
-37.0015

> <Gold.PLP.part.hbond>
-2.0000

> <Gold.PLP.part.metal>
0.0000

> <Gold.PLP.part.buried>
-5.2666

> <Gold.PLP.part.nonpolar>
-30.6205

> <Gold.PLP.part.repulsive>
0.0730

> <Gold.PLP.ligand.clash>
0.0000

> <Gold.PLP.ligand.torsion>
1.0002

> <Gold.PLP.Chemscore.Hbond>
1.9360

> <Gold.PLP.Chemscore.CHOScore>
1.0000

> <Gold.PLP.Chemscore.Metal>
0.0000

> <Gold.Chemscore.Hbonds>
donor molecule, donor type, donor heavy atom, donor atom, acceptor molecule, acceptor atom, score
      L1  H     3    23       P1  8028  0.60
      L1  C     7    28       P1  8028  1.00
      L1  C     7    28       P1  8029  0.08

> <Gold.PLP.Chemscore.Internal.Correction>
0.0911

> <Gold.Rescore>
     Score         DG    S(hbond)    S(metal)    S(lipo)     H(rot)  DE(clash)    DE(int)     intcor
     16.36     -17.05       1.78        0.00      88.48       1.84       0.00       0.69       ----

> <Gold.Chemscore.Fitness>
16.3578

> <Gold.Chemscore.DG>
-17.0469

> <Gold.Chemscore.ZeroCoef>
-5.4800

> <Gold.Chemscore.Hbond>
1.7773

> <Gold.Chemscore.Metal>
0.0000

> <Gold.Chemscore.Lipo>
88.4786

> <Gold.Chemscore.Internal_Hbond>
0.0000

> <Gold.Chemscore.DEClash>
0.0015

> <Gold.Chemscore.DEInternal>
0.6875

> <Gold.Chemscore.Rot>
1.8442

> <Gold.Chemscore.Internal.Correction>
   9.000000E+99

> <Gold.Chemscore.Hbonds>
donor molecule, donor type, donor heavy atom, donor atom, acceptor molecule, acceptor atom, score
      L1  H     3    23       P1  8028  0.56

> <Gold.Chemscore.Hbond.Weighted>
-5.9360

> <Gold.Chemscore.Metal.Weighted>
-0.0000

> <Gold.Chemscore.Lipo.Weighted>
-10.3520

> <Gold.Chemscore.Internal_Hbond.Weighted>
0.0000

> <Gold.Chemscore.DEClash.Weighted>
0.0015

> <Gold.Chemscore.DEInternal.Weighted>
0.6875

> <Gold.Chemscore.Rot.Weighted>
4.7212

> <Gold.Chemscore.Internal.Correction.Weighted>
   9.000000E+99

> <Gold.Protein.RotatedTorsions>
[ 6907 6896 6895 6894 ] final -165.41 input  -60.11 | X-H torsion
[ 7974 7965 7964 7962 ] final   15.85 input  175.53 | X-H torsion
[ 8008 7997 7996 7995 ] final -157.98 input   59.86 | X-H torsion
[ 10167 10162 10161 10158 ] final   35.36 input  -65.29 | X-H torsion
[ 10718 10713 10712 10709 ] final  -50.57 input   66.30 | X-H torsion
[ 10763 10752 10751 10750 ] final -178.22 input  -60.55 | X-H torsion
[ 11005 11000 10999 10996 ] final   77.43 input  -57.11 | X-H torsion

> <Gold.Protein.ActiveResidues>
 VAL166  LYS551  ARG553  GLY616  TRP617  ASP618  TYR619  PRO620  LYS621  CYS622 
 ASP623  PHE694  ASN695  SER759  ASP760  ASP761  ALA762  ILE779  LEU786  VAL792 
 PHE793  MET794  SER795  GLU796  ALA797  LYS798  CYS799  TRP800  GLU811  SER814 

> <Gold.Protein.RotatedAtoms>
  151.4273  133.3680  159.2763 H   0  0  0  0  0  0  0  0  0  0  0  0  # atno 6907 bound_to 6896
  150.9250  134.8669  159.7525 H   0  0  0  0  0  0  0  0  0  0  0  0  # atno 6908 bound_to 6896
  152.5001  134.4213  159.9533 H   0  0  0  0  0  0  0  0  0  0  0  0  # atno 6909 bound_to 6896
  146.2267  139.8834  142.8567 H   0  0  0  0  0  0  0  0  0  0  0  0  # atno 7974 bound_to 7965
  155.7406  140.0813  157.2247 H   0  0  0  0  0  0  0  0  0  0  0  0  # atno 8008 bound_to 7997
  154.4022  140.1578  156.2667 H   0  0  0  0  0  0  0  0  0  0  0  0  # atno 8009 bound_to 7997
  155.9024  140.3409  155.6039 H   0  0  0  0  0  0  0  0  0  0  0  0  # atno 8010 bound_to 7997
  140.4229  144.1434  150.6150 H   0  0  0  0  0  0  0  0  0  0  0  0  # atno 10167 bound_to 10162
  156.1789  130.4150  149.9537 H   0  0  0  0  0  0  0  0  0  0  0  0  # atno 10718 bound_to 10713
  154.5505  135.2812  155.1013 H   0  0  0  0  0  0  0  0  0  0  0  0  # atno 10763 bound_to 10752
  154.2461  135.6348  153.5227 H   0  0  0  0  0  0  0  0  0  0  0  0  # atno 10764 bound_to 10752
  153.0001  135.5571  154.6069 H   0  0  0  0  0  0  0  0  0  0  0  0  # atno 10765 bound_to 10752
  139.9255  134.7682  156.1521 H   0  0  0  0  0  0  0  0  0  0  0  0  # atno 11005 bound_to 11000
  145.2489  141.0037  143.3892 LP  0  0  0  0  0  0  0  0  0  0  0  0  # atno 17320 bound_to 7965
  144.9390  139.4210  143.6458 LP  0  0  0  0  0  0  0  0  0  0  0  0  # atno 17321 bound_to 7965
  140.4514  143.2485  151.9343 LP  0  0  0  0  0  0  0  0  0  0  0  0  # atno 17342 bound_to 10162
  139.4783  144.5558  151.8315 LP  0  0  0  0  0  0  0  0  0  0  0  0  # atno 17343 bound_to 10162
  156.7313  130.9044  151.3626 LP  0  0  0  0  0  0  0  0  0  0  0  0  # atno 17370 bound_to 10713
  157.6854  130.9181  150.0374 LP  0  0  0  0  0  0  0  0  0  0  0  0  # atno 17371 bound_to 10713
  141.0809  133.6755  156.2334 LP  0  0  0  0  0  0  0  0  0  0  0  0  # atno 17394 bound_to 11000
  140.6349  134.5225  157.5563 LP  0  0  0  0  0  0  0  0  0  0  0  0  # atno 17395 bound_to 11000

$$$$
