AV-unprocessed.smi:2050|AV-procd|sdf|8325|dock1
  -GOLD-   2272010593D 1   1.00000     0.00000
 Structure written by MMmdl.
 33 34  0  0  0  0  0  0  0  0  1 V2000
  144.4180  131.7543  150.4856 C   0  0  0  0  0  0  0  0  0  0  0  0
  145.5027  132.1605  151.4234 C   0  0  0  0  0  0  0  0  0  0  0  0
  146.1901  133.3281  151.6019 C   0  0  0  0  0  0  0  0  0  0  0  0
  147.0805  133.0159  152.6636 C   0  0  0  0  0  0  0  0  0  0  0  0
  147.9896  133.9850  153.1593 N   0  0  0  0  0  0  0  0  0  0  0  0
  148.6418  133.9713  154.3344 C   0  0  0  0  0  0  0  0  0  0  0  0
  148.5458  133.0897  155.1886 O   0  0  0  0  0  0  0  0  0  0  0  0
  149.4263  135.0509  154.4668 N   0  0  0  0  0  0  0  0  0  0  0  0
  150.2690  135.3518  155.6205 C   0  0  0  0  0  0  0  0  0  0  0  0
  150.4376  136.8687  155.8303 C   0  0  1  0  0  0  0  0  0  0  0  0
  151.3230  137.1951  157.0489 C   0  0  0  0  0  0  0  0  0  0  0  0
  151.6430  138.6929  157.0339 C   0  0  0  0  0  0  0  0  0  0  0  0
  151.7749  139.1490  155.2654 S   0  0  0  0  0  0  0  0  0  0  0  0
  150.8763  140.2816  154.9955 O   0  0  0  0  0  0  0  0  0  0  0  0
  153.1921  139.1969  154.8753 O   0  0  0  0  0  0  0  0  0  0  0  0
  151.0303  137.6050  154.6161 C   0  0  0  0  0  0  0  0  0  0  0  0
  146.9483  131.7710  153.0949 N   0  0  0  0  0  0  0  0  0  0  0  0
  145.9365  131.2163  152.3020 O   0  0  0  0  0  0  0  0  0  0  0  0
  144.1690  132.5661  149.8020 H   0  0  0  0  0  0  0  0  0  0  0  0
  143.5149  131.4840  151.0329 H   0  0  0  0  0  0  0  0  0  0  0  0
  144.7239  130.8933  149.8910 H   0  0  0  0  0  0  0  0  0  0  0  0
  146.0721  134.2537  151.0581 H   0  0  0  0  0  0  0  0  0  0  0  0
  148.1625  134.7729  152.5529 H   0  0  0  0  0  0  0  0  0  0  0  0
  149.4417  135.7197  153.7108 H   0  0  0  0  0  0  0  0  0  0  0  0
  149.7907  134.9141  156.4971 H   0  0  0  0  0  0  0  0  0  0  0  0
  151.2426  134.8660  155.5331 H   0  0  0  0  0  0  0  0  0  0  0  0
  149.4545  137.2998  156.0264 H   0  0  0  0  0  0  0  0  0  0  0  0
  150.8478  136.9003  157.9849 H   0  0  0  0  0  0  0  0  0  0  0  0
  152.2562  136.6350  156.9749 H   0  0  0  0  0  0  0  0  0  0  0  0
  150.8257  139.2672  157.4709 H   0  0  0  0  0  0  0  0  0  0  0  0
  152.5653  138.9400  157.5594 H   0  0  0  0  0  0  0  0  0  0  0  0
  151.8280  137.0216  154.1550 H   0  0  0  0  0  0  0  0  0  0  0  0
  150.2875  137.8382  153.8531 H   0  0  0  0  0  0  0  0  0  0  0  0
  1  2  1  0  0  0  0
  1 19  1  0  0  0  0
  1 20  1  0  0  0  0
  1 21  1  0  0  0  0
  2 18  1  0  0  0  0
  2  3  2  0  0  0  0
  3  4  1  0  0  0  0
  3 22  1  0  0  0  0
  4  5  1  0  0  0  0
  4 17  2  0  0  0  0
  5  6  1  0  0  0  0
  5 23  1  0  0  0  0
  6  7  2  0  0  0  0
  6  8  1  0  0  0  0
  8  9  1  0  0  0  0
  8 24  1  0  0  0  0
  9 10  1  0  0  0  0
  9 25  1  0  0  0  0
  9 26  1  0  0  0  0
 10 16  1  0  0  0  0
 10 11  1  0  0  0  0
 10 27  1  0  0  0  0
 11 12  1  0  0  0  0
 11 28  1  0  0  0  0
 11 29  1  0  0  0  0
 12 13  1  0  0  0  0
 12 30  1  0  0  0  0
 12 31  1  0  0  0  0
 13 14  2  0  0  0  0
 13 15  2  0  0  0  0
 13 16  1  0  0  0  0
 16 32  1  0  0  0  0
 16 33  1  0  0  0  0
 17 18  1  0  0  0  0
M  END
> <s_m_source_file>
AV-unprocessed.smi

> <i_m_source_file_index>
2050

> <i_lp_mmshare_version>
43012

> <i_f3d_flags>
0

> <s_epik_input>
W0NIM11jMVtjSF1jKG5vMSlbTkhdQyg9TylbTkhdW0NIMl1bQ0BASF0oW0NIMl0yKVtDSDJdW0NIMl1TMig9Tyk9Tw==

> <s_epik_cmdline>
J2VwaWtfcHl0aG9uJywgJy1waCcsICc3LjAnLCAnLXRuJywgJzgnLCAnLW1hJywgJzIwMCcsICctbWV0YWxfYmluZGluZycsICctaW1hZScsICc8aW5maWxlLm1hZT4nLCAnLW9tYWUnLCAnPG91dGZpbGUubWFlPic=

> <r_lp_tautomer_probability>
1

> <r_epik_Ionization_Penalty>
2.22143e-05

> <r_epik_Ionization_Penalty_Charging>
0

> <r_epik_Ionization_Penalty_Neutral>
2.22143e-05

> <r_epik_State_Penalty>
-0

> <r_epik_Charging_Adjusted_Penalty>
0

> <i_epik_Tot_Q>
0

> <i_epik_Tot_abs_Q>
0

> <r_epik_Metal_State_Penalty>
-0

> <b_epik_Metal_Only>
0

> <s_lp_Force_Field>
OPLS_2005

> <r_lp_Energy>
0.896814

> <b_lp_Chiralities_Consistent>
1

> <s_lp_Variant>
AV-unprocessed.smi:2050-2

> <Gold.Version>
5.8.1

> <Gold.Id.Protein>
6NUR|6NUR_protein|mol2

> <Gold.PLP.Fitness>
41.0122

> <Gold.PLP.PLP>
-29.8243

> <Gold.PLP.part.hbond>
-4.0000

> <Gold.PLP.part.metal>
0.0000

> <Gold.PLP.part.buried>
-5.9210

> <Gold.PLP.part.nonpolar>
-20.0518

> <Gold.PLP.part.repulsive>
0.4095

> <Gold.PLP.ligand.clash>
0.0000

> <Gold.PLP.ligand.torsion>
0.2598

> <Gold.PLP.Chemscore.Hbond>
3.9000

> <Gold.PLP.Chemscore.CHOScore>
0.0000

> <Gold.PLP.Chemscore.Metal>
0.0000

> <Gold.Chemscore.Hbonds>
donor molecule, donor type, donor heavy atom, donor atom, acceptor molecule, acceptor atom, score
      L1  H     5    23       P1  7948  1.00
      L1  H     8    24       P1  7948  1.00
      P1  H  7989  7998       L1    14  0.95
      P1  H  7997  8009       L1    15  0.99

> <Gold.PLP.Chemscore.Internal.Correction>
0.0074

> <Gold.Rescore>
     Score         DG    S(hbond)    S(metal)    S(lipo)     H(rot)  DE(clash)    DE(int)     intcor
     17.02     -18.45       3.41        0.00      43.18       1.36       0.00       1.43       ----

> <Gold.Chemscore.Fitness>
17.0197

> <Gold.Chemscore.DG>
-18.4451

> <Gold.Chemscore.ZeroCoef>
-5.4800

> <Gold.Chemscore.Hbond>
3.4092

> <Gold.Chemscore.Metal>
0.0000

> <Gold.Chemscore.Lipo>
43.1752

> <Gold.Chemscore.Internal_Hbond>
0.0000

> <Gold.Chemscore.DEClash>
0.0000

> <Gold.Chemscore.DEInternal>
1.4254

> <Gold.Chemscore.Rot>
1.3567

> <Gold.Chemscore.Internal.Correction>
   9.000000E+99

> <Gold.Chemscore.Hbonds>
donor molecule, donor type, donor heavy atom, donor atom, acceptor molecule, acceptor atom, score
      L1  H     5    23       P1  7948  0.55
      L1  H     8    24       P1  7948  0.37
      P1  H  7989  7998       L1    14  0.21
      P1  H  7997  8009       L1    15  0.92

> <Gold.Chemscore.Hbond.Weighted>
-11.3868

> <Gold.Chemscore.Metal.Weighted>
-0.0000

> <Gold.Chemscore.Lipo.Weighted>
-5.0515

> <Gold.Chemscore.Internal_Hbond.Weighted>
0.0000

> <Gold.Chemscore.DEClash.Weighted>
0.0000

> <Gold.Chemscore.DEInternal.Weighted>
1.4254

> <Gold.Chemscore.Rot.Weighted>
3.4732

> <Gold.Chemscore.Internal.Correction.Weighted>
   9.000000E+99

> <Gold.Protein.RotatedTorsions>
[ 6907 6896 6895 6894 ] final  145.82 input  -60.11 | X-H torsion
[ 7974 7965 7964 7962 ] final   66.73 input  175.53 | X-H torsion
[ 8008 7997 7996 7995 ] final -112.85 input   59.86 | X-H torsion
[ 10167 10162 10161 10158 ] final  -20.24 input  -65.29 | X-H torsion
[ 10718 10713 10712 10709 ] final  105.74 input   66.30 | X-H torsion
[ 10763 10752 10751 10750 ] final  122.85 input  -60.55 | X-H torsion
[ 11005 11000 10999 10996 ] final   94.30 input  -57.11 | X-H torsion

> <Gold.Protein.ActiveResidues>
 VAL166  LYS551  ARG553  GLY616  TRP617  ASP618  TYR619  PRO620  LYS621  CYS622 
 ASP623  PHE694  ASN695  SER759  ASP760  ASP761  ALA762  ILE779  LEU786  VAL792 
 PHE793  MET794  SER795  GLU796  ALA797  LYS798  CYS799  TRP800  GLU811  SER814 

> <Gold.Protein.RotatedAtoms>
  152.1759  133.4674  159.4932 H   0  0  0  0  0  0  0  0  0  0  0  0  # atno 6907 bound_to 6896
  150.6927  134.1895  159.4289 H   0  0  0  0  0  0  0  0  0  0  0  0  # atno 6908 bound_to 6896
  151.9804  135.0031  160.0608 H   0  0  0  0  0  0  0  0  0  0  0  0  # atno 6909 bound_to 6896
  145.8231  139.3096  143.1031 H   0  0  0  0  0  0  0  0  0  0  0  0  # atno 7974 bound_to 7965
  155.0116  140.0393  157.2401 H   0  0  0  0  0  0  0  0  0  0  0  0  # atno 8008 bound_to 7997
  154.7455  140.2757  155.6313 H   0  0  0  0  0  0  0  0  0  0  0  0  # atno 8009 bound_to 7997
  156.2874  140.2657  156.2195 H   0  0  0  0  0  0  0  0  0  0  0  0  # atno 8010 bound_to 7997
  140.7274  143.4741  151.0206 H   0  0  0  0  0  0  0  0  0  0  0  0  # atno 10167 bound_to 10162
  157.6694  131.0835  150.5902 H   0  0  0  0  0  0  0  0  0  0  0  0  # atno 10718 bound_to 10713
  153.6363  135.3387  155.3057 H   0  0  0  0  0  0  0  0  0  0  0  0  # atno 10763 bound_to 10752
  154.8569  135.4307  154.2052 H   0  0  0  0  0  0  0  0  0  0  0  0  # atno 10764 bound_to 10752
  153.2960  135.7021  153.7322 H   0  0  0  0  0  0  0  0  0  0  0  0  # atno 10765 bound_to 10752
  139.8800  134.8838  156.3844 H   0  0  0  0  0  0  0  0  0  0  0  0  # atno 11005 bound_to 11000
  145.9653  140.8803  143.0190 LP  0  0  0  0  0  0  0  0  0  0  0  0  # atno 17320 bound_to 7965
  144.6746  140.1869  143.7400 LP  0  0  0  0  0  0  0  0  0  0  0  0  # atno 17321 bound_to 7965
  139.8435  143.7532  152.3180 LP  0  0  0  0  0  0  0  0  0  0  0  0  # atno 17342 bound_to 10162
  139.7689  144.7483  151.0253 LP  0  0  0  0  0  0  0  0  0  0  0  0  # atno 17343 bound_to 10162
  156.6203  130.4404  149.5825 LP  0  0  0  0  0  0  0  0  0  0  0  0  # atno 17370 bound_to 10713
  156.2361  130.6823  151.1511 LP  0  0  0  0  0  0  0  0  0  0  0  0  # atno 17371 bound_to 10713
  140.9376  133.7536  156.0105 LP  0  0  0  0  0  0  0  0  0  0  0  0  # atno 17394 bound_to 11000
  140.8257  134.3237  157.5366 LP  0  0  0  0  0  0  0  0  0  0  0  0  # atno 17395 bound_to 11000

$$$$
