AV-unprocessed.smi:401|AV-procd|sdf|2494|dock4
  -GOLD-   2262022443D 1   1.00000     0.00000
 Structure written by MMmdl.
 43 44  0  0  0  0  0  0  0  0  1 V2000
  153.1506  142.7495  159.7077 C   0  0  0  0  0  0  0  0  0  0  0  0
  151.9389  143.6719  159.4784 C   0  0  0  0  0  0  0  0  0  0  0  0
  151.5619  144.3880  160.7846 C   0  0  0  0  0  0  0  0  0  0  0  0
  150.7104  142.9388  158.8914 C   0  0  0  0  0  0  0  0  0  0  0  0
  151.0398  142.0075  157.7196 C   0  0  0  0  0  0  0  0  0  0  0  0
  151.8515  141.0937  157.8636 O   0  0  0  0  0  0  0  0  0  0  0  0
  150.3798  142.2354  156.5733 N   0  0  0  0  0  0  0  0  0  0  0  0
  150.5079  141.4397  155.3584 C   0  0  0  0  0  0  0  0  0  0  0  0
  149.1550  141.0302  154.7854 C   0  0  0  0  0  0  0  0  0  0  0  0
  148.1376  142.0021  154.6779 C   0  0  0  0  0  0  0  0  0  0  0  0
  146.8762  141.6284  154.1808 C   0  0  0  0  0  0  0  0  0  0  0  0
  146.6780  140.2861  153.8112 C   0  0  0  0  0  0  0  0  0  0  0  0
  147.6381  139.3441  153.9099 N   0  0  0  0  0  0  0  0  0  0  0  0
  148.8558  139.6990  154.3881 C   0  0  0  0  0  0  0  0  0  0  0  0
  149.8329  138.6922  154.4672 N   0  0  0  0  0  0  0  0  0  0  0  0
  151.0379  138.9923  153.7062 C   0  0  0  0  0  0  0  0  0  0  0  0
  152.1374  137.9730  154.0505 C   0  0  0  0  0  0  0  0  0  0  0  0
  151.6563  136.6513  153.8201 O   0  0  0  0  0  0  0  0  0  0  0  0
  150.5193  136.3454  154.6237 C   0  0  0  0  0  0  0  0  0  0  0  0
  149.3760  137.3186  154.2901 C   0  0  0  0  0  0  0  0  0  0  0  0
  152.8950  141.9162  160.3630 H   0  0  0  0  0  0  0  0  0  0  0  0
  153.9738  143.2937  160.1712 H   0  0  0  0  0  0  0  0  0  0  0  0
  153.5311  142.3371  158.7738 H   0  0  0  0  0  0  0  0  0  0  0  0
  152.2431  144.4428  158.7687 H   0  0  0  0  0  0  0  0  0  0  0  0
  151.2403  143.6776  161.5469 H   0  0  0  0  0  0  0  0  0  0  0  0
  150.7484  145.0966  160.6258 H   0  0  0  0  0  0  0  0  0  0  0  0
  152.4075  144.9471  161.1861 H   0  0  0  0  0  0  0  0  0  0  0  0
  150.2182  142.3548  159.6702 H   0  0  0  0  0  0  0  0  0  0  0  0
  149.9728  143.6701  158.5569 H   0  0  0  0  0  0  0  0  0  0  0  0
  149.7301  143.0078  156.5464 H   0  0  0  0  0  0  0  0  0  0  0  0
  151.0231  142.0482  154.6148 H   0  0  0  0  0  0  0  0  0  0  0  0
  151.1607  140.5853  155.5371 H   0  0  0  0  0  0  0  0  0  0  0  0
  148.3204  143.0236  154.9780 H   0  0  0  0  0  0  0  0  0  0  0  0
  146.0791  142.3513  154.0889 H   0  0  0  0  0  0  0  0  0  0  0  0
  145.7233  139.9595  153.4268 H   0  0  0  0  0  0  0  0  0  0  0  0
  150.8091  138.9514  152.6405 H   0  0  0  0  0  0  0  0  0  0  0  0
  151.3835  140.0038  153.9213 H   0  0  0  0  0  0  0  0  0  0  0  0
  153.0176  138.1448  153.4310 H   0  0  0  0  0  0  0  0  0  0  0  0
  152.4523  138.0798  155.0900 H   0  0  0  0  0  0  0  0  0  0  0  0
  150.2096  135.3193  154.4265 H   0  0  0  0  0  0  0  0  0  0  0  0
  150.7820  136.4028  155.6813 H   0  0  0  0  0  0  0  0  0  0  0  0
  148.5189  137.1276  154.9368 H   0  0  0  0  0  0  0  0  0  0  0  0
  149.0500  137.1655  153.2604 H   0  0  0  0  0  0  0  0  0  0  0  0
  1  2  1  0  0  0  0
  1 21  1  0  0  0  0
  1 22  1  0  0  0  0
  1 23  1  0  0  0  0
  2  3  1  0  0  0  0
  2  4  1  0  0  0  0
  2 24  1  0  0  0  0
  3 25  1  0  0  0  0
  3 26  1  0  0  0  0
  3 27  1  0  0  0  0
  4  5  1  0  0  0  0
  4 28  1  0  0  0  0
  4 29  1  0  0  0  0
  5  6  2  0  0  0  0
  5  7  1  0  0  0  0
  7  8  1  0  0  0  0
  7 30  1  0  0  0  0
  8  9  1  0  0  0  0
  8 31  1  0  0  0  0
  8 32  1  0  0  0  0
  9 14  1  0  0  0  0
  9 10  2  0  0  0  0
 10 11  1  0  0  0  0
 10 33  1  0  0  0  0
 11 12  2  0  0  0  0
 11 34  1  0  0  0  0
 12 13  1  0  0  0  0
 12 35  1  0  0  0  0
 13 14  2  0  0  0  0
 14 15  1  0  0  0  0
 15 20  1  0  0  0  0
 15 16  1  0  0  0  0
 16 17  1  0  0  0  0
 16 36  1  0  0  0  0
 16 37  1  0  0  0  0
 17 18  1  0  0  0  0
 17 38  1  0  0  0  0
 17 39  1  0  0  0  0
 18 19  1  0  0  0  0
 19 20  1  0  0  0  0
 19 40  1  0  0  0  0
 19 41  1  0  0  0  0
 20 42  1  0  0  0  0
 20 43  1  0  0  0  0
M  END
> <s_m_source_file>
AV-unprocessed.smi

> <i_m_source_file_index>
401

> <i_lp_mmshare_version>
43012

> <i_f3d_flags>
0

> <s_epik_input>
W0NIM11bQ0hdKFtDSDNdKVtDSDJdQyg9TylbTkhdW0NIMl1jMVtjSF1bY0hdW2NIXW5jMU4yW0NIMl1bQ0gyXU9bQ0gyXVtDSDJdMg==

> <s_epik_cmdline>
J2VwaWtfcHl0aG9uJywgJy1waCcsICc3LjAnLCAnLXRuJywgJzgnLCAnLW1hJywgJzIwMCcsICctbWV0YWxfYmluZGluZycsICctaW1hZScsICc8aW5maWxlLm1hZT4nLCAnLW9tYWUnLCAnPG91dGZpbGUubWFlPic=

> <r_lp_tautomer_probability>
1

> <r_epik_Ionization_Penalty>
0.00505534

> <r_epik_Ionization_Penalty_Charging>
0

> <r_epik_Ionization_Penalty_Neutral>
0.00505534

> <r_epik_State_Penalty>
0.00367784

> <r_epik_Charging_Adjusted_Penalty>
0.00367784

> <i_epik_Tot_Q>
0

> <i_epik_Tot_abs_Q>
0

> <r_epik_Metal_State_Penalty>
-0

> <b_epik_Metal_Only>
0

> <s_lp_Force_Field>
OPLS_2005

> <r_lp_Energy>
19.3172

> <b_lp_Chiralities_Consistent>
1

> <s_lp_Variant>
AV-unprocessed.smi:401-1

> <Gold.Version>
5.8.1

> <Gold.Id.Protein>
6NUR|6NUR_protein|mol2

> <Gold.PLP.Fitness>
46.3714

> <Gold.PLP.PLP>
-37.9634

> <Gold.PLP.part.hbond>
-2.0000

> <Gold.PLP.part.metal>
0.0000

> <Gold.PLP.part.buried>
-3.3953

> <Gold.PLP.part.nonpolar>
-33.6407

> <Gold.PLP.part.repulsive>
0.4814

> <Gold.PLP.ligand.clash>
0.0000

> <Gold.PLP.ligand.torsion>
0.4094

> <Gold.PLP.Chemscore.Hbond>
2.0000

> <Gold.PLP.Chemscore.CHOScore>
1.0000

> <Gold.PLP.Chemscore.Metal>
0.0000

> <Gold.Chemscore.Hbonds>
donor molecule, donor type, donor heavy atom, donor atom, acceptor molecule, acceptor atom, score
      L1  H     7    30       P1  8028  0.81
      P1  H 10752 10763       L1    18  0.40
      L1  C    12    35       P1 10175  1.00

> <Gold.PLP.Chemscore.Internal.Correction>
0.2267

> <Gold.Rescore>
     Score         DG    S(hbond)    S(metal)    S(lipo)     H(rot)  DE(clash)    DE(int)     intcor
     16.04     -19.09       1.89        0.00      98.45       1.65       0.07       2.98       ----

> <Gold.Chemscore.Fitness>
16.0377

> <Gold.Chemscore.DG>
-19.0887

> <Gold.Chemscore.ZeroCoef>
-5.4800

> <Gold.Chemscore.Hbond>
1.8896

> <Gold.Chemscore.Metal>
0.0000

> <Gold.Chemscore.Lipo>
98.4478

> <Gold.Chemscore.Internal_Hbond>
0.0000

> <Gold.Chemscore.DEClash>
0.0736

> <Gold.Chemscore.DEInternal>
2.9774

> <Gold.Chemscore.Rot>
1.6488

> <Gold.Chemscore.Internal.Correction>
   9.000000E+99

> <Gold.Chemscore.Hbonds>
donor molecule, donor type, donor heavy atom, donor atom, acceptor molecule, acceptor atom, score
      L1  H     7    30       P1  8028  0.78
      P1  H 10752 10763       L1    18  0.03

> <Gold.Chemscore.Hbond.Weighted>
-6.3111

> <Gold.Chemscore.Metal.Weighted>
-0.0000

> <Gold.Chemscore.Lipo.Weighted>
-11.5184

> <Gold.Chemscore.Internal_Hbond.Weighted>
0.0000

> <Gold.Chemscore.DEClash.Weighted>
0.0736

> <Gold.Chemscore.DEInternal.Weighted>
2.9774

> <Gold.Chemscore.Rot.Weighted>
4.2208

> <Gold.Chemscore.Internal.Correction.Weighted>
   9.000000E+99

> <Gold.Protein.RotatedTorsions>
[ 6907 6896 6895 6894 ] final  -84.93 input  -60.11 | X-H torsion
[ 7974 7965 7964 7962 ] final   43.45 input  175.53 | X-H torsion
[ 8008 7997 7996 7995 ] final -151.52 input   59.86 | X-H torsion
[ 10167 10162 10161 10158 ] final   -7.74 input  -65.29 | X-H torsion
[ 10718 10713 10712 10709 ] final  130.78 input   66.30 | X-H torsion
[ 10763 10752 10751 10750 ] final   75.76 input  -60.55 | X-H torsion
[ 11005 11000 10999 10996 ] final   -6.83 input  -57.11 | X-H torsion

> <Gold.Protein.ActiveResidues>
 VAL166  LYS551  ARG553  GLY616  TRP617  ASP618  TYR619  PRO620  LYS621  CYS622 
 ASP623  PHE694  ASN695  SER759  ASP760  ASP761  ALA762  ILE779  LEU786  VAL792 
 PHE793  MET794  SER795  GLU796  ALA797  LYS798  CYS799  TRP800  GLU811  SER814 

> <Gold.Protein.RotatedAtoms>
  150.6873  134.3282  159.4815 H   0  0  0  0  0  0  0  0  0  0  0  0  # atno 6907 bound_to 6896
  152.1150  134.9244  160.0574 H   0  0  0  0  0  0  0  0  0  0  0  0  # atno 6908 bound_to 6896
  152.0472  133.3968  159.4399 H   0  0  0  0  0  0  0  0  0  0  0  0  # atno 6909 bound_to 6896
  146.0654  139.5185  142.9632 H   0  0  0  0  0  0  0  0  0  0  0  0  # atno 7974 bound_to 7965
  155.6407  140.0701  157.2619 H   0  0  0  0  0  0  0  0  0  0  0  0  # atno 8008 bound_to 7997
  154.4184  140.1751  156.1619 H   0  0  0  0  0  0  0  0  0  0  0  0  # atno 8009 bound_to 7997
  155.9858  140.3349  155.6709 H   0  0  0  0  0  0  0  0  0  0  0  0  # atno 8010 bound_to 7997
  140.7038  143.6046  150.8763 H   0  0  0  0  0  0  0  0  0  0  0  0  # atno 10167 bound_to 10162
  157.5030  131.1095  150.9400 H   0  0  0  0  0  0  0  0  0  0  0  0  # atno 10718 bound_to 10713
  153.0677  135.4976  154.8237 H   0  0  0  0  0  0  0  0  0  0  0  0  # atno 10763 bound_to 10752
  154.6978  135.2996  154.9389 H   0  0  0  0  0  0  0  0  0  0  0  0  # atno 10764 bound_to 10752
  154.0122  135.6753  153.4819 H   0  0  0  0  0  0  0  0  0  0  0  0  # atno 10765 bound_to 10752
  140.7062  133.8947  155.8718 H   0  0  0  0  0  0  0  0  0  0  0  0  # atno 11005 bound_to 11000
  145.6487  141.0268  143.1772 LP  0  0  0  0  0  0  0  0  0  0  0  0  # atno 17320 bound_to 7965
  144.7199  139.8066  143.7385 LP  0  0  0  0  0  0  0  0  0  0  0  0  # atno 17321 bound_to 7965
  139.9770  143.5993  152.2955 LP  0  0  0  0  0  0  0  0  0  0  0  0  # atno 17342 bound_to 10162
  139.6600  144.7662  151.1981 LP  0  0  0  0  0  0  0  0  0  0  0  0  # atno 17343 bound_to 10162
  157.0065  130.5620  149.5316 LP  0  0  0  0  0  0  0  0  0  0  0  0  # atno 17370 bound_to 10713
  156.0241  130.5335  150.8357 LP  0  0  0  0  0  0  0  0  0  0  0  0  # atno 17371 bound_to 10713
  141.0123  134.1004  157.4209 LP  0  0  0  0  0  0  0  0  0  0  0  0  # atno 17394 bound_to 11000
  139.8883  135.0097  156.6615 LP  0  0  0  0  0  0  0  0  0  0  0  0  # atno 17395 bound_to 11000

$$$$
