AV-unprocessed.smi:2223|AV-procd|sdf|8990|dock10
  -GOLD-   2272012203D 1   1.00000     0.00000
 Structure written by MMmdl.
 46 47  0  0  0  0  0  0  0  0  1 V2000
  143.9771  132.5061  149.6869 C   0  0  0  0  0  0  0  0  0  0  0  0
  145.0007  132.1392  150.7408 C   0  0  0  0  0  0  0  0  0  0  0  0
  145.1478  130.8050  151.1652 C   0  0  0  0  0  0  0  0  0  0  0  0
  146.1194  130.5222  152.1452 C   0  0  0  0  0  0  0  0  0  0  0  0
  146.3316  129.1092  152.6467 C   0  0  0  0  0  0  0  0  0  0  0  0
  146.9141  131.4685  152.6890 N   0  0  0  0  0  0  0  0  0  0  0  0
  146.7834  132.7569  152.2862 C   0  0  0  0  0  0  0  0  0  0  0  0
  147.5697  133.8249  152.7954 N   0  0  0  0  0  0  0  0  0  0  0  0
  147.9830  134.0220  154.0600 C   0  0  0  0  0  0  0  0  0  0  0  0
  147.7426  133.2799  155.0128 O   0  0  0  0  0  0  0  0  0  0  0  0
  148.7110  135.1431  154.1653 N   0  0  0  0  0  0  0  0  0  0  0  0
  149.3189  135.6271  155.4021 C   0  0  1  0  0  0  0  0  0  0  0  0
  150.5297  134.7917  155.8282 C   0  0  0  0  0  0  0  0  0  0  0  0
  151.5768  135.8325  156.1839 C   0  0  0  0  0  0  0  0  0  0  0  0
  152.6507  135.5162  156.6941 O   0  0  0  0  0  0  0  0  0  0  0  0
  151.1745  137.0790  155.8696 N   0  0  0  0  0  0  0  0  0  0  0  0
  151.9502  138.3360  156.0423 C   0  0  0  0  0  0  0  0  0  0  0  0
  151.1387  139.5366  155.5058 C   0  0  0  0  0  0  0  0  0  0  0  0
  153.2935  138.2970  155.2749 C   0  0  0  0  0  0  0  0  0  0  0  0
  152.2718  138.5499  157.5383 C   0  0  0  0  0  0  0  0  0  0  0  0
  149.8559  137.0569  155.2357 C   0  0  0  0  0  0  0  0  0  0  0  0
  145.8303  133.1263  151.3106 C   0  0  0  0  0  0  0  0  0  0  0  0
  143.1437  131.8029  149.6920 H   0  0  0  0  0  0  0  0  0  0  0  0
  144.4347  132.4907  148.6976 H   0  0  0  0  0  0  0  0  0  0  0  0
  143.5779  133.5048  149.8662 H   0  0  0  0  0  0  0  0  0  0  0  0
  144.5332  130.0196  150.7495 H   0  0  0  0  0  0  0  0  0  0  0  0
  145.5289  128.4493  152.3173 H   0  0  0  0  0  0  0  0  0  0  0  0
  146.3603  129.0901  153.7366 H   0  0  0  0  0  0  0  0  0  0  0  0
  147.2758  128.7146  152.2707 H   0  0  0  0  0  0  0  0  0  0  0  0
  147.8563  134.5142  152.1165 H   0  0  0  0  0  0  0  0  0  0  0  0
  148.8617  135.6963  153.3345 H   0  0  0  0  0  0  0  0  0  0  0  0
  148.5784  135.6205  156.2048 H   0  0  0  0  0  0  0  0  0  0  0  0
  150.3033  134.1496  156.6801 H   0  0  0  0  0  0  0  0  0  0  0  0
  150.9105  134.1693  155.0172 H   0  0  0  0  0  0  0  0  0  0  0  0
  151.7180  140.4590  155.5603 H   0  0  0  0  0  0  0  0  0  0  0  0
  150.2235  139.7084  156.0718 H   0  0  0  0  0  0  0  0  0  0  0  0
  150.8584  139.3891  154.4622 H   0  0  0  0  0  0  0  0  0  0  0  0
  153.1453  138.1973  154.1992 H   0  0  0  0  0  0  0  0  0  0  0  0
  153.9317  137.4779  155.6081 H   0  0  0  0  0  0  0  0  0  0  0  0
  153.8581  139.2175  155.4279 H   0  0  0  0  0  0  0  0  0  0  0  0
  152.8909  139.4354  157.6860 H   0  0  0  0  0  0  0  0  0  0  0  0
  152.8157  137.6992  157.9505 H   0  0  0  0  0  0  0  0  0  0  0  0
  151.3747  138.6901  158.1407 H   0  0  0  0  0  0  0  0  0  0  0  0
  149.9668  137.3228  154.1828 H   0  0  0  0  0  0  0  0  0  0  0  0
  149.1684  137.7673  155.6952 H   0  0  0  0  0  0  0  0  0  0  0  0
  145.7366  134.1565  150.9978 H   0  0  0  0  0  0  0  0  0  0  0  0
  1  2  1  0  0  0  0
  1 23  1  0  0  0  0
  1 24  1  0  0  0  0
  1 25  1  0  0  0  0
  2 22  1  0  0  0  0
  2  3  2  0  0  0  0
  3  4  1  0  0  0  0
  3 26  1  0  0  0  0
  4  5  1  0  0  0  0
  4  6  2  0  0  0  0
  5 27  1  0  0  0  0
  5 28  1  0  0  0  0
  5 29  1  0  0  0  0
  6  7  1  0  0  0  0
  7  8  1  0  0  0  0
  7 22  2  0  0  0  0
  8  9  1  0  0  0  0
  8 30  1  0  0  0  0
  9 10  2  0  0  0  0
  9 11  1  0  0  0  0
 11 12  1  0  0  0  0
 11 31  1  0  0  0  0
 12 21  1  0  0  0  0
 12 13  1  0  0  0  0
 12 32  1  0  0  0  0
 13 14  1  0  0  0  0
 13 33  1  0  0  0  0
 13 34  1  0  0  0  0
 14 15  2  0  0  0  0
 14 16  1  0  0  0  0
 16 17  1  0  0  0  0
 16 21  1  0  0  0  0
 17 18  1  0  0  0  0
 17 19  1  0  0  0  0
 17 20  1  0  0  0  0
 18 35  1  0  0  0  0
 18 36  1  0  0  0  0
 18 37  1  0  0  0  0
 19 38  1  0  0  0  0
 19 39  1  0  0  0  0
 19 40  1  0  0  0  0
 20 41  1  0  0  0  0
 20 42  1  0  0  0  0
 20 43  1  0  0  0  0
 21 44  1  0  0  0  0
 21 45  1  0  0  0  0
 22 46  1  0  0  0  0
M  END
> <s_m_source_file>
AV-unprocessed.smi

> <i_m_source_file_index>
2223

> <i_lp_mmshare_version>
43012

> <i_f3d_flags>
0

> <s_epik_input>
W0NIM11jMVtjSF1jKFtDSDNdKW5jKFtjSF0xKVtOSF1DKD1PKVtOSF1bQ0BASF0yW0NIMl1DKD1PKU4oW0NIMl0yKUMoW0NIM10pKFtDSDNdKVtDSDNd

> <s_epik_cmdline>
J2VwaWtfcHl0aG9uJywgJy1waCcsICc3LjAnLCAnLXRuJywgJzgnLCAnLW1hJywgJzIwMCcsICctbWV0YWxfYmluZGluZycsICctaW1hZScsICc8aW5maWxlLm1hZT4nLCAnLW9tYWUnLCAnPG91dGZpbGUubWFlPic=

> <r_lp_tautomer_probability>
1

> <r_epik_Ionization_Penalty>
0.000228403

> <r_epik_Ionization_Penalty_Charging>
0

> <r_epik_Ionization_Penalty_Neutral>
0.000228403

> <r_epik_State_Penalty>
-0

> <r_epik_Charging_Adjusted_Penalty>
0

> <i_epik_Tot_Q>
0

> <i_epik_Tot_abs_Q>
0

> <r_epik_Metal_State_Penalty>
-0

> <b_epik_Metal_Only>
0

> <s_lp_Force_Field>
OPLS_2005

> <r_lp_Energy>
29.0753

> <b_lp_Chiralities_Consistent>
1

> <s_lp_Variant>
AV-unprocessed.smi:2223-2

> <Gold.Version>
5.8.1

> <Gold.Id.Protein>
6NUR|6NUR_protein|mol2

> <Gold.PLP.Fitness>
43.1336

> <Gold.PLP.PLP>
-35.5122

> <Gold.PLP.part.hbond>
-2.9197

> <Gold.PLP.part.metal>
0.0000

> <Gold.PLP.part.buried>
-3.8508

> <Gold.PLP.part.nonpolar>
-28.8083

> <Gold.PLP.part.repulsive>
0.1527

> <Gold.PLP.ligand.clash>
0.0000

> <Gold.PLP.ligand.torsion>
0.4292

> <Gold.PLP.Chemscore.Hbond>
2.8174

> <Gold.PLP.Chemscore.CHOScore>
0.0000

> <Gold.PLP.Chemscore.Metal>
0.0000

> <Gold.Chemscore.Hbonds>
donor molecule, donor type, donor heavy atom, donor atom, acceptor molecule, acceptor atom, score
      L1  H     8    30       P1  7948  0.90
      L1  H    11    31       P1  7948  1.00
      P1  H 10752 10764       L1    15  0.90

> <Gold.PLP.Chemscore.Internal.Correction>
0.0277

> <Gold.Rescore>
     Score         DG    S(hbond)    S(metal)    S(lipo)     H(rot)  DE(clash)    DE(int)     intcor
     19.30     -20.48       2.28        0.00      89.37       1.21       0.03       1.15       ----

> <Gold.Chemscore.Fitness>
19.2960

> <Gold.Chemscore.DG>
-20.4797

> <Gold.Chemscore.ZeroCoef>
-5.4800

> <Gold.Chemscore.Hbond>
2.2843

> <Gold.Chemscore.Metal>
0.0000

> <Gold.Chemscore.Lipo>
89.3688

> <Gold.Chemscore.Internal_Hbond>
0.0000

> <Gold.Chemscore.DEClash>
0.0342

> <Gold.Chemscore.DEInternal>
1.1495

> <Gold.Chemscore.Rot>
1.2055

> <Gold.Chemscore.Internal.Correction>
   9.000000E+99

> <Gold.Chemscore.Hbonds>
donor molecule, donor type, donor heavy atom, donor atom, acceptor molecule, acceptor atom, score
      L1  H     8    30       P1  7948  0.29
      L1  H    11    31       P1  7948  0.88
      P1  H 10752 10764       L1    15  0.18

> <Gold.Chemscore.Hbond.Weighted>
-7.6296

> <Gold.Chemscore.Metal.Weighted>
-0.0000

> <Gold.Chemscore.Lipo.Weighted>
-10.4561

> <Gold.Chemscore.Internal_Hbond.Weighted>
0.0000

> <Gold.Chemscore.DEClash.Weighted>
0.0342

> <Gold.Chemscore.DEInternal.Weighted>
1.1495

> <Gold.Chemscore.Rot.Weighted>
3.0861

> <Gold.Chemscore.Internal.Correction.Weighted>
   9.000000E+99

> <Gold.Protein.RotatedTorsions>
[ 6907 6896 6895 6894 ] final -135.01 input  -60.11 | X-H torsion
[ 7974 7965 7964 7962 ] final -103.06 input  175.53 | X-H torsion
[ 8008 7997 7996 7995 ] final  103.64 input   59.86 | X-H torsion
[ 10167 10162 10161 10158 ] final -122.54 input  -65.29 | X-H torsion
[ 10718 10713 10712 10709 ] final   19.62 input   66.30 | X-H torsion
[ 10763 10752 10751 10750 ] final   -1.43 input  -60.55 | X-H torsion
[ 11005 11000 10999 10996 ] final   52.70 input  -57.11 | X-H torsion

> <Gold.Protein.ActiveResidues>
 VAL166  LYS551  ARG553  GLY616  TRP617  ASP618  TYR619  PRO620  LYS621  CYS622 
 ASP623  PHE694  ASN695  SER759  ASP760  ASP761  ALA762  ILE779  LEU786  VAL792 
 PHE793  MET794  SER795  GLU796  ALA797  LYS798  CYS799  TRP800  GLU811  SER814 

> <Gold.Protein.RotatedAtoms>
  150.9927  133.6133  159.2705 H   0  0  0  0  0  0  0  0  0  0  0  0  # atno 6907 bound_to 6896
  151.3348  135.0849  159.9360 H   0  0  0  0  0  0  0  0  0  0  0  0  # atno 6908 bound_to 6896
  152.5251  133.9550  159.7744 H   0  0  0  0  0  0  0  0  0  0  0  0  # atno 6909 bound_to 6896
  145.2608  140.9268  143.3042 H   0  0  0  0  0  0  0  0  0  0  0  0  # atno 7974 bound_to 7965
  156.1502  140.3161  155.8635 H   0  0  0  0  0  0  0  0  0  0  0  0  # atno 8008 bound_to 7997
  155.3986  140.0498  157.3055 H   0  0  0  0  0  0  0  0  0  0  0  0  # atno 8009 bound_to 7997
  154.5052  140.2144  155.9278 H   0  0  0  0  0  0  0  0  0  0  0  0  # atno 8010 bound_to 7997
  140.0132  143.5420  152.2254 H   0  0  0  0  0  0  0  0  0  0  0  0  # atno 10167 bound_to 10162
  157.1130  130.6517  149.5903 H   0  0  0  0  0  0  0  0  0  0  0  0  # atno 10718 bound_to 10713
  153.3448  135.6982  153.6837 H   0  0  0  0  0  0  0  0  0  0  0  0  # atno 10763 bound_to 10752
  153.5587  135.3539  155.2791 H   0  0  0  0  0  0  0  0  0  0  0  0  # atno 10764 bound_to 10752
  154.8643  135.4244  154.2669 H   0  0  0  0  0  0  0  0  0  0  0  0  # atno 10765 bound_to 10752
  140.0827  134.5316  155.8930 H   0  0  0  0  0  0  0  0  0  0  0  0  # atno 11005 bound_to 11000
  144.9420  139.4178  143.6444 LP  0  0  0  0  0  0  0  0  0  0  0  0  # atno 17320 bound_to 7965
  146.3276  139.8385  142.8895 LP  0  0  0  0  0  0  0  0  0  0  0  0  # atno 17321 bound_to 7965
  139.6191  144.7625  151.2781 LP  0  0  0  0  0  0  0  0  0  0  0  0  # atno 17342 bound_to 10162
  140.7373  143.6682  150.8104 LP  0  0  0  0  0  0  0  0  0  0  0  0  # atno 17343 bound_to 10162
  155.9846  130.4871  150.6990 LP  0  0  0  0  0  0  0  0  0  0  0  0  # atno 17370 bound_to 10713
  157.4542  131.0876  151.0814 LP  0  0  0  0  0  0  0  0  0  0  0  0  # atno 17371 bound_to 10713
  141.2052  133.6645  156.6168 LP  0  0  0  0  0  0  0  0  0  0  0  0  # atno 17394 bound_to 11000
  140.3464  134.7806  157.4435 LP  0  0  0  0  0  0  0  0  0  0  0  0  # atno 17395 bound_to 11000

$$$$
