#       Name:                AV-unprocessed.smi:2032
#       Creating user name   scv26
#       Creation time:       Fri Mar 27 10:51:26 2020


#       File generated by GOLD software.
#

@<TRIPOS>MOLECULE
AV-unprocessed.smi:2032
    48    49     1
SMALL
NO_CHARGES


@<TRIPOS>ATOM
      1 ****        -4.2147   0.0264  -1.8580 C.3            1 S1                 0.0000
      2 ****        -3.5669  -1.3518  -1.6300 C.3            1 S1                 0.0000
      3 ****        -2.0263  -1.3211  -1.6491 C.3            1 S1                 0.0000
      4 ****        -1.4555  -0.7135  -0.4134 N.4            1 S1                 1.0000
      5 ****         0.0463  -0.6436  -0.4154 C.3            1 S1                 0.0000
      6 ****         0.5805   0.1111  -1.6585 C.3            1 S1                 0.0000
      7 ****         0.6043  -0.0130   0.8920 C.3            1 S1                 0.0000
      8 ****         2.0625   0.0838   0.9152 N.am           1 S1                 0.0000
      9 ****         2.7677   1.2197   0.8039 C.2            1 S1                 0.0000
     10 ****         2.2511   2.3254   0.6406 O.2            1 S1                 0.0000
     11 ****         4.0885   0.9827   0.8863 N.am           1 S1                 0.0000
     12 ****         5.1545   1.9166   0.8027 C.2            1 S1                 0.0000
     13 ****         4.9927   3.2334   0.6281 N.2            1 S1                 0.0000
     14 ****         6.2142   3.9103   0.5848 C.2            1 S1                 0.0000
     15 ****         7.3034   3.0870   0.7269 C.2            1 S1                 0.0000
     16 ****         6.8357   1.4191   0.9237 S.3            1 S1                 0.0000
     17 ****        -2.0295  -1.3939   0.7809 C.3            1 S1                 0.0000
     18 ****        -3.5687  -1.3845   0.7579 C.3            1 S1                 0.0000
     19 ****        -4.1629  -2.1688   1.9335 C.3            1 S1                 0.0000
     20 ****        -4.0336  -1.9849  -0.4434 O.3            1 S1                 0.0000
     21 ****        -3.9560   0.4165  -2.8427 H              1 S1                 0.0000
     22 ****        -3.8913   0.7645  -1.1247 H              1 S1                 0.0000
     23 ****        -5.3017  -0.0424  -1.8077 H              1 S1                 0.0000
     24 ****        -3.8926  -1.9882  -2.4534 H              1 S1                 0.0000
     25 ****        -1.6420  -2.3370  -1.7523 H              1 S1                 0.0000
     26 ****        -1.7259  -0.7756  -2.5412 H              1 S1                 0.0000
     27 ****         0.4195  -1.6678  -0.4692 H              1 S1                 0.0000
     28 ****         1.6646   0.2112  -1.6454 H              1 S1                 0.0000
     29 ****         0.1597   1.1150  -1.7236 H              1 S1                 0.0000
     30 ****         0.3659  -0.4110  -2.5893 H              1 S1                 0.0000
     31 ****         0.1402   0.9586   1.0700 H              1 S1                 0.0000
     32 ****         0.3654  -0.6316   1.7550 H              1 S1                 0.0000
     33 ****         2.5723  -0.7786   1.0423 H              1 S1                 0.0000
     34 ****         4.3660   0.0219   1.0231 H              1 S1                 0.0000
     35 ****         6.2162   4.9818   0.4491 H              1 S1                 0.0000
     36 ****         8.3482   3.3597   0.7280 H              1 S1                 0.0000
     37 ****        -1.6550  -2.4178   0.8302 H              1 S1                 0.0000
     38 ****        -1.7302  -0.8936   1.6996 H              1 S1                 0.0000
     39 ****        -3.9305  -0.3584   0.8242 H              1 S1                 0.0000
     40 ****        -3.8520  -1.7426   2.8876 H              1 S1                 0.0000
     41 ****        -3.8459  -3.2120   1.9141 H              1 S1                 0.0000
     42 ****        -5.2526  -2.1519   1.9027 H              1 S1                 0.0000
     43 ****        -1.7857   0.2409  -0.3845 H              1 S1                 0.0000
     44 ****         1.2562   2.4090   0.5846 LP             1 S1                 0.0000
     45 ****         2.8265   3.1397   0.5640 LP             1 S1                 0.0000
     46 ****         4.1025   3.6802   0.5391 LP             1 S1                 0.0000
     47 ****        -3.7300  -2.9377  -0.4559 LP             1 S1                 0.0000
     48 ****        -5.0331  -1.9536  -0.4434 LP             1 S1                 0.0000
@<TRIPOS>BOND
    1    1    2 1     
    2    1   21 1     
    3    1   22 1     
    4    1   23 1     
    5    2   20 1     
    6    2    3 1     
    7    2   24 1     
    8    3    4 1     
    9    3   25 1     
   10    3   26 1     
   11    4    5 1     
   12    4   17 1     
   13    4   43 1     
   14    5    6 1     
   15    5    7 1     
   16    5   27 1     
   17    6   28 1     
   18    6   29 1     
   19    6   30 1     
   20    7    8 1     
   21    7   31 1     
   22    7   32 1     
   23    8    9 am    
   24    8   33 1     
   25    9   10 2     
   26    9   11 am    
   27   11   12 1     
   28   11   34 1     
   29   12   16 1     
   30   12   13 2     
   31   13   14 1     
   32   14   15 2     
   33   14   35 1     
   34   15   16 1     
   35   15   36 1     
   36   17   18 1     
   37   17   37 1     
   38   17   38 1     
   39   18   19 1     
   40   18   20 1     
   41   18   39 1     
   42   19   40 1     
   43   19   41 1     
   44   19   42 1     
   45   10   44 1     
   46   10   45 1     
   47   13   46 1     
   48   20   47 1     
   49   20   48 1     
@<TRIPOS>SUBSTRUCTURE
      1 S1             1
@<TRIPOS>SET
LONE_PAIRS      STATIC     ATOMS    <user>   **** ""
5 44 45 46 47 48
DONOR_HYDROGENS      STATIC     ATOMS    <user>   **** ""
3 43 33 34
ATOM$BLUE        STATIC     ATOMS    COLORGROUP SYSTEM
5 44 45 46 47 48
ATOM$RED        STATIC     ATOMS    COLORGROUP SYSTEM
3 43 33 34
