AV-unprocessed.smi:1672|AV-procd|sdf|6706|dock5
  -GOLD-   22720 7443D 1   1.00000     0.00000
 Structure written by MMmdl.
 49 51  0  0  0  0  0  0  0  0  3 V2000
  154.8901  136.2032  162.6666 C   0  0  0  0  0  0  0  0  0  0  0  0
  154.1239  136.1745  161.3365 C   0  0  2  0  0  0  0  0  0  0  0  0
  155.0612  135.9158  160.1449 C   0  0  0  0  0  0  0  0  0  0  0  0
  154.2901  135.9239  158.8142 C   0  0  0  0  0  0  0  0  0  0  0  0
  153.5573  137.2024  158.6273 N   0  3  1  0  0  0  0  0  0  0  0  0
  152.9238  137.3005  157.2868 C   0  0  0  0  0  0  0  0  0  0  0  0
  152.6514  138.7580  156.8648 C   0  0  1  0  0  0  0  0  0  0  0  0
  153.1990  138.9639  155.5780 O   0  0  0  0  0  0  0  0  0  0  0  0
  151.1416  139.0688  156.8304 C   0  0  0  0  0  0  0  0  0  0  0  0
  150.8507  140.5083  156.7213 N   0  0  0  0  0  0  0  0  0  0  0  0
  150.0335  141.1925  155.8664 C   0  0  0  0  0  0  0  0  0  0  0  0
  149.1935  140.6286  154.7674 C   0  0  0  0  0  0  0  0  0  0  0  0
  149.5752  141.1116  153.4988 O   0  0  0  0  0  0  0  0  0  0  0  0
  150.1276  142.5133  156.1897 N   0  3  0  0  0  0  0  0  0  0  0  0
  151.0023  142.6774  157.2639 C   0  0  0  0  0  0  0  0  0  0  0  0
  151.4103  143.8229  157.9402 C   0  0  0  0  0  0  0  0  0  0  0  0
  152.3188  143.6400  159.0034 C   0  0  0  0  0  0  0  0  0  0  0  0
  152.7863  142.3576  159.3573 C   0  0  0  0  0  0  0  0  0  0  0  0
  152.3662  141.2036  158.6632 C   0  0  0  0  0  0  0  0  0  0  0  0
  151.4682  141.3934  157.6130 C   0  0  0  0  0  0  0  0  0  0  0  0
  152.6121  137.4558  159.7472 C   0  0  0  0  0  0  0  0  0  0  0  0
  153.3487  137.4814  161.0970 C   0  0  0  0  0  0  0  0  0  0  0  0
  155.6313  137.0031  162.6822 H   0  0  0  0  0  0  0  0  0  0  0  0
  155.4136  135.2621  162.8379 H   0  0  0  0  0  0  0  0  0  0  0  0
  154.2134  136.3610  163.5070 H   0  0  0  0  0  0  0  0  0  0  0  0
  153.4037  135.3563  161.3861 H   0  0  0  0  0  0  0  0  0  0  0  0
  155.8434  136.6759  160.1162 H   0  0  0  0  0  0  0  0  0  0  0  0
  155.5673  134.9575  160.2689 H   0  0  0  0  0  0  0  0  0  0  0  0
  154.9955  135.7792  157.9949 H   0  0  0  0  0  0  0  0  0  0  0  0
  153.5868  135.0901  158.7789 H   0  0  0  0  0  0  0  0  0  0  0  0
  153.5725  136.8430  156.5378 H   0  0  0  0  0  0  0  0  0  0  0  0
  152.0000  136.7200  157.2820 H   0  0  0  0  0  0  0  0  0  0  0  0
  153.1359  139.4501  157.5522 H   0  0  0  0  0  0  0  0  0  0  0  0
  152.9071  138.2665  155.0098 H   0  0  0  0  0  0  0  0  0  0  0  0
  150.6702  138.5641  155.9869 H   0  0  0  0  0  0  0  0  0  0  0  0
  150.6472  138.6885  157.7250 H   0  0  0  0  0  0  0  0  0  0  0  0
  149.2549  139.5407  154.7736 H   0  0  0  0  0  0  0  0  0  0  0  0
  148.1491  140.8879  154.9431 H   0  0  0  0  0  0  0  0  0  0  0  0
  149.4375  140.4266  152.8618 H   0  0  0  0  0  0  0  0  0  0  0  0
  151.0527  144.8063  157.6719 H   0  0  0  0  0  0  0  0  0  0  0  0
  152.6625  144.5004  159.5592 H   0  0  0  0  0  0  0  0  0  0  0  0
  153.4815  142.2572  160.1786 H   0  0  0  0  0  0  0  0  0  0  0  0
  152.7300  140.2265  158.9439 H   0  0  0  0  0  0  0  0  0  0  0  0
  152.1014  138.4077  159.6079 H   0  0  0  0  0  0  0  0  0  0  0  0
  151.8408  136.6841  159.7561 H   0  0  0  0  0  0  0  0  0  0  0  0
  152.6315  137.6426  161.9026 H   0  0  0  0  0  0  0  0  0  0  0  0
  154.0346  138.3296  161.1203 H   0  0  0  0  0  0  0  0  0  0  0  0
  154.2570  137.9309  158.6586 H   0  0  0  0  0  0  0  0  0  0  0  0
  149.6264  143.2483  155.7069 H   0  0  0  0  0  0  0  0  0  0  0  0
  1  2  1  0  0  0  0
  1 23  1  0  0  0  0
  1 24  1  0  0  0  0
  1 25  1  0  0  0  0
  2 22  1  0  0  0  0
  2  3  1  0  0  0  0
  2 26  1  0  0  0  0
  3  4  1  0  0  0  0
  3 27  1  0  0  0  0
  3 28  1  0  0  0  0
  4  5  1  0  0  0  0
  4 29  1  0  0  0  0
  4 30  1  0  0  0  0
  5  6  1  0  0  0  0
  5 21  1  0  0  0  0
  5 48  1  0  0  0  0
  6  7  1  0  0  0  0
  6 31  1  0  0  0  0
  6 32  1  0  0  0  0
  7  8  1  0  0  0  0
  7  9  1  0  0  0  0
  7 33  1  0  0  0  0
  8 34  1  0  0  0  0
  9 10  1  0  0  0  0
  9 35  1  0  0  0  0
  9 36  1  0  0  0  0
 10 20  1  0  0  0  0
 10 11  1  0  0  0  0
 11 12  1  0  0  0  0
 11 14  2  0  0  0  0
 12 13  1  0  0  0  0
 12 37  1  0  0  0  0
 12 38  1  0  0  0  0
 13 39  1  0  0  0  0
 14 15  1  0  0  0  0
 14 49  1  0  0  0  0
 15 20  2  0  0  0  0
 15 16  1  0  0  0  0
 16 17  2  0  0  0  0
 16 40  1  0  0  0  0
 17 18  1  0  0  0  0
 17 41  1  0  0  0  0
 18 19  2  0  0  0  0
 18 42  1  0  0  0  0
 19 20  1  0  0  0  0
 19 43  1  0  0  0  0
 21 22  1  0  0  0  0
 21 44  1  0  0  0  0
 21 45  1  0  0  0  0
 22 46  1  0  0  0  0
 22 47  1  0  0  0  0
M  CHG  1   5   1
M  CHG  1  14   1
M  END
> <s_m_source_file>
AV-unprocessed.smi

> <i_m_source_file_index>
1672

> <i_lp_mmshare_version>
43012

> <i_f3d_flags>
0

> <s_epik_input>
W0NIM11bQ0hdMVtDSDJdW0NIMl1OKFtDSDJdW0NIMl0xKVtDSDJdW0NASF0oW09IXSlbQ0gyXW4oYyhuMilbQ0gyXVtPSF0pYyhjMjMpW2NIXVtjSF1bY0hdW2NIXTM=

> <s_epik_cmdline>
J2VwaWtfcHl0aG9uJywgJy1waCcsICc3LjAnLCAnLXRuJywgJzgnLCAnLW1hJywgJzIwMCcsICctbWV0YWxfYmluZGluZycsICctaW1hZScsICc8aW5maWxlLm1hZT4nLCAnLW9tYWUnLCAnPG91dGZpbGUubWFlPic=

> <r_epik_Ionization_Penalty>
1.51642

> <r_epik_Ionization_Penalty_Charging>
1.51557

> <r_epik_Ionization_Penalty_Neutral>
0.000856474

> <r_epik_State_Penalty>
1.6048

> <r_epik_Charging_Adjusted_Penalty>
3.12037

> <i_epik_Tot_Q>
2

> <i_epik_Tot_abs_Q>
2

> <r_epik_Metal_State_Penalty>
5.65673

> <b_epik_Metal_Only>
0

> <s_lp_Force_Field>
OPLS_2005

> <r_lp_Energy>
28.534

> <b_lp_Chiralities_Consistent>
1

> <s_lp_Variant>
AV-unprocessed.smi:1672-6

> <Gold.Version>
5.8.1

> <Gold.Id.Protein>
6NUR|6NUR_protein|mol2

> <Gold.PLP.Fitness>
53.8005

> <Gold.PLP.PLP>
-41.1094

> <Gold.PLP.part.hbond>
-4.9626

> <Gold.PLP.part.metal>
0.0000

> <Gold.PLP.part.buried>
-4.7012

> <Gold.PLP.part.nonpolar>
-32.5298

> <Gold.PLP.part.repulsive>
0.2259

> <Gold.PLP.ligand.clash>
0.0000

> <Gold.PLP.ligand.torsion>
1.0473

> <Gold.PLP.Chemscore.Hbond>
4.9174

> <Gold.PLP.Chemscore.CHOScore>
0.0000

> <Gold.PLP.Chemscore.Metal>
0.0000

> <Gold.Chemscore.Hbonds>
donor molecule, donor type, donor heavy atom, donor atom, acceptor molecule, acceptor atom, score
      L1  H    13    39       P1  7957  0.85
      L1  H    14    49       P1  8028  2.00
      P1  H  7989  7998       L1    13  0.15
      P1  H  7997  8009       L1     8  0.98
      P1  H  8011  8017       L1    13  0.80

> <Gold.PLP.Chemscore.Internal.Correction>
0.0336

> <Gold.Rescore>
     Score         DG    S(hbond)    S(metal)    S(lipo)     H(rot)  DE(clash)    DE(int)     intcor
     19.01     -20.05       2.62        0.00     114.32       2.96       0.12       0.92       ----

> <Gold.Chemscore.Fitness>
19.0137

> <Gold.Chemscore.DG>
-20.0527

> <Gold.Chemscore.ZeroCoef>
-5.4800

> <Gold.Chemscore.Hbond>
2.6238

> <Gold.Chemscore.Metal>
0.0000

> <Gold.Chemscore.Lipo>
114.3179

> <Gold.Chemscore.Internal_Hbond>
0.0000

> <Gold.Chemscore.DEClash>
0.1220

> <Gold.Chemscore.DEInternal>
0.9170

> <Gold.Chemscore.Rot>
2.9555

> <Gold.Chemscore.Internal.Correction>
   9.000000E+99

> <Gold.Chemscore.Hbonds>
donor molecule, donor type, donor heavy atom, donor atom, acceptor molecule, acceptor atom, score
      L1  H    13    39       P1  7957  0.85
      L1  H    14    49       P1  8028  0.97
      P1  H  7989  7998       L1    13  0.01
      P1  H  7997  8009       L1     8  0.37
      P1  H  8011  8017       L1    13  0.11

> <Gold.Chemscore.Hbond.Weighted>
-8.7635

> <Gold.Chemscore.Metal.Weighted>
-0.0000

> <Gold.Chemscore.Lipo.Weighted>
-13.3752

> <Gold.Chemscore.Internal_Hbond.Weighted>
0.0000

> <Gold.Chemscore.DEClash.Weighted>
0.1220

> <Gold.Chemscore.DEInternal.Weighted>
0.9170

> <Gold.Chemscore.Rot.Weighted>
7.5660

> <Gold.Chemscore.Internal.Correction.Weighted>
   9.000000E+99

> <Gold.Protein.RotatedTorsions>
[ 6907 6896 6895 6894 ] final   77.20 input  -60.11 | X-H torsion
[ 7974 7965 7964 7962 ] final -156.27 input  175.53 | X-H torsion
[ 8008 7997 7996 7995 ] final -133.18 input   59.86 | X-H torsion
[ 10167 10162 10161 10158 ] final   96.75 input  -65.29 | X-H torsion
[ 10718 10713 10712 10709 ] final  149.02 input   66.30 | X-H torsion
[ 10763 10752 10751 10750 ] final -165.00 input  -60.55 | X-H torsion
[ 11005 11000 10999 10996 ] final -117.13 input  -57.11 | X-H torsion

> <Gold.Protein.ActiveResidues>
 VAL166  LYS551  ARG553  GLY616  TRP617  ASP618  TYR619  PRO620  LYS621  CYS622 
 ASP623  PHE694  ASN695  SER759  ASP760  ASP761  ALA762  ILE779  LEU786  VAL792 
 PHE793  MET794  SER795  GLU796  ALA797  LYS798  CYS799  TRP800  GLU811  SER814 

> <Gold.Protein.RotatedAtoms>
  152.5107  134.3852  159.9364 H   0  0  0  0  0  0  0  0  0  0  0  0  # atno 6907 bound_to 6896
  151.3811  133.3815  159.2718 H   0  0  0  0  0  0  0  0  0  0  0  0  # atno 6908 bound_to 6896
  150.9504  134.8925  159.7727 H   0  0  0  0  0  0  0  0  0  0  0  0  # atno 6909 bound_to 6896
  144.7601  140.4134  143.5983 H   0  0  0  0  0  0  0  0  0  0  0  0  # atno 7974 bound_to 7965
  155.3412  140.0472  157.3045 H   0  0  0  0  0  0  0  0  0  0  0  0  # atno 8008 bound_to 7997
  154.5276  140.2246  155.8826 H   0  0  0  0  0  0  0  0  0  0  0  0  # atno 8009 bound_to 7997
  156.1756  140.3086  155.9058 H   0  0  0  0  0  0  0  0  0  0  0  0  # atno 8010 bound_to 7997
  139.7865  144.6868  150.9950 H   0  0  0  0  0  0  0  0  0  0  0  0  # atno 10167 bound_to 10162
  157.3013  131.0871  151.1388 H   0  0  0  0  0  0  0  0  0  0  0  0  # atno 10718 bound_to 10713
  154.6974  135.2981  154.9391 H   0  0  0  0  0  0  0  0  0  0  0  0  # atno 10763 bound_to 10752
  154.0334  135.6667  153.4787 H   0  0  0  0  0  0  0  0  0  0  0  0  # atno 10764 bound_to 10752
  153.0656  135.5090  154.8100 H   0  0  0  0  0  0  0  0  0  0  0  0  # atno 10765 bound_to 10752
  141.0376  133.9886  157.3047 H   0  0  0  0  0  0  0  0  0  0  0  0  # atno 11005 bound_to 11000
  145.6648  139.1588  143.2788 LP  0  0  0  0  0  0  0  0  0  0  0  0  # atno 17320 bound_to 7965
  146.1655  140.6725  142.9258 LP  0  0  0  0  0  0  0  0  0  0  0  0  # atno 17321 bound_to 7965
  140.7819  143.4426  151.0529 LP  0  0  0  0  0  0  0  0  0  0  0  0  # atno 17342 bound_to 10162
  139.8104  143.7958  152.3171 LP  0  0  0  0  0  0  0  0  0  0  0  0  # atno 17343 bound_to 10162
  157.2746  130.6720  149.6036 LP  0  0  0  0  0  0  0  0  0  0  0  0  # atno 17370 bound_to 10713
  155.9672  130.4468  150.5557 LP  0  0  0  0  0  0  0  0  0  0  0  0  # atno 17371 bound_to 10713
  139.9252  135.0201  156.8207 LP  0  0  0  0  0  0  0  0  0  0  0  0  # atno 17394 bound_to 11000
  140.6294  133.9919  155.7655 LP  0  0  0  0  0  0  0  0  0  0  0  0  # atno 17395 bound_to 11000

$$$$
