AV-unprocessed.smi:2137|AV-procd|sdf|8708|dock6
  -GOLD-   2272011473D 1   1.00000     0.00000
 Structure written by MMmdl.
 50 51  0  0  0  0  0  0  0  0  2 V2000
  147.1507  133.5279  152.1428 C   0  0  0  0  0  0  0  0  0  0  0  0
  145.8041  134.1395  152.5684 C   0  0  2  0  0  0  0  0  0  0  0  0
  145.0636  134.8240  151.4045 C   0  0  0  0  0  0  0  0  0  0  0  0
  145.7187  136.1628  151.0374 C   0  0  0  0  0  0  0  0  0  0  0  0
  145.8559  137.0668  152.2726 C   0  0  0  0  0  0  0  0  0  0  0  0
  146.6118  136.3834  153.3539 N   0  3  1  0  0  0  0  0  0  0  0  0
  146.8951  137.2833  154.5004 C   0  0  0  0  0  0  0  0  0  0  0  0
  147.4299  138.6537  154.0500 C   0  0  0  0  0  0  0  0  0  0  0  0
  148.9630  138.7158  154.0714 C   0  0  0  0  0  0  0  0  0  0  0  0
  149.4531  138.7610  155.4428 N   0  0  0  0  0  0  0  0  0  0  0  0
  150.5934  139.3515  155.8284 C   0  0  0  0  0  0  0  0  0  0  0  0
  151.3676  139.9019  155.0445 O   0  0  0  0  0  0  0  0  0  0  0  0
  150.9157  139.2885  157.3271 C   0  0  0  0  0  0  0  0  0  0  0  0
  151.1679  140.6140  157.9066 N   0  0  0  0  0  0  0  0  0  0  0  0
  150.2320  141.6203  157.7519 C   0  0  0  0  0  0  0  0  0  0  0  0
  150.3867  142.8645  158.2547 C   0  0  0  0  0  0  0  0  0  0  0  0
  151.5795  143.2228  159.0123 C   0  0  0  0  0  0  0  0  0  0  0  0
  151.7737  144.3508  159.4674 O   0  0  0  0  0  0  0  0  0  0  0  0
  152.5118  142.1702  159.1724 N   0  0  0  0  0  0  0  0  0  0  0  0
  153.7341  142.4479  159.8984 C   0  0  0  0  0  0  0  0  0  0  0  0
  152.3532  140.8759  158.6274 C   0  0  0  0  0  0  0  0  0  0  0  0
  153.2104  139.9989  158.7620 O   0  0  0  0  0  0  0  0  0  0  0  0
  145.9553  135.1098  153.7583 C   0  0  0  0  0  0  0  0  0  0  0  0
  147.8632  134.2898  151.8268 H   0  0  0  0  0  0  0  0  0  0  0  0
  147.0202  132.8315  151.3138 H   0  0  0  0  0  0  0  0  0  0  0  0
  147.6054  132.9742  152.9649 H   0  0  0  0  0  0  0  0  0  0  0  0
  145.1823  133.3075  152.9020 H   0  0  0  0  0  0  0  0  0  0  0  0
  145.0264  134.1682  150.5339 H   0  0  0  0  0  0  0  0  0  0  0  0
  144.0276  135.0038  151.6952 H   0  0  0  0  0  0  0  0  0  0  0  0
  146.7009  135.9897  150.5964 H   0  0  0  0  0  0  0  0  0  0  0  0
  145.1263  136.6668  150.2730 H   0  0  0  0  0  0  0  0  0  0  0  0
  146.3695  137.9847  151.9838 H   0  0  0  0  0  0  0  0  0  0  0  0
  144.8707  137.3565  152.6416 H   0  0  0  0  0  0  0  0  0  0  0  0
  145.9751  137.4528  155.0615 H   0  0  0  0  0  0  0  0  0  0  0  0
  147.5899  136.8000  155.1892 H   0  0  0  0  0  0  0  0  0  0  0  0
  147.0858  138.8833  153.0418 H   0  0  0  0  0  0  0  0  0  0  0  0
  147.0252  139.4316  154.6992 H   0  0  0  0  0  0  0  0  0  0  0  0
  149.3873  137.8426  153.5743 H   0  0  0  0  0  0  0  0  0  0  0  0
  149.2996  139.5956  153.5199 H   0  0  0  0  0  0  0  0  0  0  0  0
  148.8819  138.3232  156.1512 H   0  0  0  0  0  0  0  0  0  0  0  0
  150.1062  138.7931  157.8665 H   0  0  0  0  0  0  0  0  0  0  0  0
  151.7904  138.6503  157.4587 H   0  0  0  0  0  0  0  0  0  0  0  0
  149.3288  141.4040  157.1999 H   0  0  0  0  0  0  0  0  0  0  0  0
  149.6176  143.6056  158.0931 H   0  0  0  0  0  0  0  0  0  0  0  0
  154.0479  141.5502  160.4334 H   0  0  0  0  0  0  0  0  0  0  0  0
  153.5568  143.2319  160.6358 H   0  0  0  0  0  0  0  0  0  0  0  0
  154.4771  142.7550  159.1611 H   0  0  0  0  0  0  0  0  0  0  0  0
  144.9724  135.3349  154.1755 H   0  0  0  0  0  0  0  0  0  0  0  0
  146.5197  134.6196  154.5508 H   0  0  0  0  0  0  0  0  0  0  0  0
  147.5075  136.1397  152.9557 H   0  0  0  0  0  0  0  0  0  0  0  0
  1  2  1  0  0  0  0
  1 24  1  0  0  0  0
  1 25  1  0  0  0  0
  1 26  1  0  0  0  0
  2 23  1  0  0  0  0
  2  3  1  0  0  0  0
  2 27  1  0  0  0  0
  3  4  1  0  0  0  0
  3 28  1  0  0  0  0
  3 29  1  0  0  0  0
  4  5  1  0  0  0  0
  4 30  1  0  0  0  0
  4 31  1  0  0  0  0
  5  6  1  0  0  0  0
  5 32  1  0  0  0  0
  5 33  1  0  0  0  0
  6  7  1  0  0  0  0
  6 23  1  0  0  0  0
  6 50  1  0  0  0  0
  7  8  1  0  0  0  0
  7 34  1  0  0  0  0
  7 35  1  0  0  0  0
  8  9  1  0  0  0  0
  8 36  1  0  0  0  0
  8 37  1  0  0  0  0
  9 10  1  0  0  0  0
  9 38  1  0  0  0  0
  9 39  1  0  0  0  0
 10 11  1  0  0  0  0
 10 40  1  0  0  0  0
 11 12  2  0  0  0  0
 11 13  1  0  0  0  0
 13 14  1  0  0  0  0
 13 41  1  0  0  0  0
 13 42  1  0  0  0  0
 14 21  1  0  0  0  0
 14 15  1  0  0  0  0
 15 16  2  0  0  0  0
 15 43  1  0  0  0  0
 16 17  1  0  0  0  0
 16 44  1  0  0  0  0
 17 18  2  0  0  0  0
 17 19  1  0  0  0  0
 19 20  1  0  0  0  0
 19 21  1  0  0  0  0
 20 45  1  0  0  0  0
 20 46  1  0  0  0  0
 20 47  1  0  0  0  0
 21 22  2  0  0  0  0
 23 48  1  0  0  0  0
 23 49  1  0  0  0  0
M  CHG  1   6   1
M  END
> <s_m_source_file>
AV-unprocessed.smi

> <i_m_source_file_index>
2137

> <i_lp_mmshare_version>
43012

> <i_f3d_flags>
0

> <s_epik_input>
W0NIM11bQ0BASF0xW0NIMl1bQ0gyXVtDSDJdTihbQ0gyXTEpW0NIMl1bQ0gyXVtDSDJdW05IXUMoPU8pW0NIMl1uMltjSF1bY0hdYyg9TyluKFtDSDNdKWMyPU8=

> <s_epik_cmdline>
J2VwaWtfcHl0aG9uJywgJy1waCcsICc3LjAnLCAnLXRuJywgJzgnLCAnLW1hJywgJzIwMCcsICctbWV0YWxfYmluZGluZycsICctaW1hZScsICc8aW5maWxlLm1hZT4nLCAnLW9tYWUnLCAnPG91dGZpbGUubWFlPic=

> <r_lp_tautomer_probability>
1

> <r_epik_Ionization_Penalty>
0.000384839

> <r_epik_Ionization_Penalty_Charging>
0.000384812

> <r_epik_Ionization_Penalty_Neutral>
2.6907e-08

> <r_epik_State_Penalty>
0.000235226

> <r_epik_Charging_Adjusted_Penalty>
0.000620038

> <i_epik_Tot_Q>
1

> <i_epik_Tot_abs_Q>
1

> <r_epik_Metal_State_Penalty>
-0

> <b_epik_Metal_Only>
0

> <s_lp_Force_Field>
OPLS_2005

> <r_lp_Energy>
28.7219

> <b_lp_Chiralities_Consistent>
1

> <s_lp_Variant>
AV-unprocessed.smi:2137-3

> <Gold.Version>
5.8.1

> <Gold.Id.Protein>
6NUR|6NUR_protein|mol2

> <Gold.PLP.Fitness>
46.7481

> <Gold.PLP.PLP>
-35.8864

> <Gold.PLP.part.hbond>
-3.0000

> <Gold.PLP.part.metal>
0.0000

> <Gold.PLP.part.buried>
-3.3424

> <Gold.PLP.part.nonpolar>
-29.5450

> <Gold.PLP.part.repulsive>
0.0896

> <Gold.PLP.ligand.clash>
0.0000

> <Gold.PLP.ligand.torsion>
0.5909

> <Gold.PLP.Chemscore.Hbond>
4.0000

> <Gold.PLP.Chemscore.CHOScore>
0.0000

> <Gold.PLP.Chemscore.Metal>
0.0000

> <Gold.Chemscore.Hbonds>
donor molecule, donor type, donor heavy atom, donor atom, acceptor molecule, acceptor atom, score
      L1  H     6    50       P1  7948  2.00
      P1  H  7989  7998       L1    12  1.00
      P1  H  7997  8008       L1    22  0.54

> <Gold.PLP.Chemscore.Internal.Correction>
0.0435

> <Gold.Rescore>
     Score         DG    S(hbond)    S(metal)    S(lipo)     H(rot)  DE(clash)    DE(int)     intcor
     16.83     -17.42       2.92        0.00      68.41       2.27       0.08       0.51       ----

> <Gold.Chemscore.Fitness>
16.8279

> <Gold.Chemscore.DG>
-17.4203

> <Gold.Chemscore.ZeroCoef>
-5.4800

> <Gold.Chemscore.Hbond>
2.9222

> <Gold.Chemscore.Metal>
0.0000

> <Gold.Chemscore.Lipo>
68.4070

> <Gold.Chemscore.Internal_Hbond>
0.0000

> <Gold.Chemscore.DEClash>
0.0830

> <Gold.Chemscore.DEInternal>
0.5094

> <Gold.Chemscore.Rot>
2.2748

> <Gold.Chemscore.Internal.Correction>
   9.000000E+99

> <Gold.Chemscore.Hbonds>
donor molecule, donor type, donor heavy atom, donor atom, acceptor molecule, acceptor atom, score
      L1  H     6    50       P1  7948  0.99
      P1  H  7989  7998       L1    12  1.00
      P1  H  7997  8008       L1    22  0.44

> <Gold.Chemscore.Hbond.Weighted>
-9.7601

> <Gold.Chemscore.Metal.Weighted>
-0.0000

> <Gold.Chemscore.Lipo.Weighted>
-8.0036

> <Gold.Chemscore.Internal_Hbond.Weighted>
0.0000

> <Gold.Chemscore.DEClash.Weighted>
0.0830

> <Gold.Chemscore.DEInternal.Weighted>
0.5094

> <Gold.Chemscore.Rot.Weighted>
5.8234

> <Gold.Chemscore.Internal.Correction.Weighted>
   9.000000E+99

> <Gold.Protein.RotatedTorsions>
[ 6907 6896 6895 6894 ] final   42.68 input  -60.11 | X-H torsion
[ 7974 7965 7964 7962 ] final  -21.94 input  175.53 | X-H torsion
[ 8008 7997 7996 7995 ] final  -98.92 input   59.86 | X-H torsion
[ 10167 10162 10161 10158 ] final  -54.39 input  -65.29 | X-H torsion
[ 10718 10713 10712 10709 ] final -110.67 input   66.30 | X-H torsion
[ 10763 10752 10751 10750 ] final    1.18 input  -60.55 | X-H torsion
[ 11005 11000 10999 10996 ] final   72.44 input  -57.11 | X-H torsion

> <Gold.Protein.ActiveResidues>
 VAL166  LYS551  ARG553  GLY616  TRP617  ASP618  TYR619  PRO620  LYS621  CYS622 
 ASP623  PHE694  ASN695  SER759  ASP760  ASP761  ALA762  ILE779  LEU786  VAL792 
 PHE793  MET794  SER795  GLU796  ALA797  LYS798  CYS799  TRP800  GLU811  SER814 

> <Gold.Protein.RotatedAtoms>
  152.2109  134.8502  160.0497 H   0  0  0  0  0  0  0  0  0  0  0  0  # atno 6907 bound_to 6896
  151.9321  133.3609  159.3942 H   0  0  0  0  0  0  0  0  0  0  0  0  # atno 6908 bound_to 6896
  150.6976  134.4452  159.5354 H   0  0  0  0  0  0  0  0  0  0  0  0  # atno 6909 bound_to 6896
  146.1704  140.4411  142.8535 H   0  0  0  0  0  0  0  0  0  0  0  0  # atno 7974 bound_to 7965
  154.8078  140.0451  157.1320 H   0  0  0  0  0  0  0  0  0  0  0  0  # atno 8008 bound_to 7997
  154.9404  140.3052  155.5104 H   0  0  0  0  0  0  0  0  0  0  0  0  # atno 8009 bound_to 7997
  156.2968  140.2306  156.4472 H   0  0  0  0  0  0  0  0  0  0  0  0  # atno 8010 bound_to 7997
  140.6433  143.2520  151.4930 H   0  0  0  0  0  0  0  0  0  0  0  0  # atno 10167 bound_to 10162
  156.0604  130.5827  150.8269 H   0  0  0  0  0  0  0  0  0  0  0  0  # atno 10718 bound_to 10713
  153.3113  135.6963  153.7113 H   0  0  0  0  0  0  0  0  0  0  0  0  # atno 10763 bound_to 10752
  153.5990  135.3465  155.2939 H   0  0  0  0  0  0  0  0  0  0  0  0  # atno 10764 bound_to 10752
  154.8576  135.4336  154.2251 H   0  0  0  0  0  0  0  0  0  0  0  0  # atno 10765 bound_to 10752
  139.9490  134.7260  156.0907 H   0  0  0  0  0  0  0  0  0  0  0  0  # atno 11005 bound_to 11000
  144.8155  140.6460  143.6387 LP  0  0  0  0  0  0  0  0  0  0  0  0  # atno 17320 bound_to 7965
  145.4355  139.1543  143.3999 LP  0  0  0  0  0  0  0  0  0  0  0  0  # atno 17321 bound_to 7965
  139.5642  144.2082  152.1739 LP  0  0  0  0  0  0  0  0  0  0  0  0  # atno 17342 bound_to 10162
  140.1359  144.5246  150.6774 LP  0  0  0  0  0  0  0  0  0  0  0  0  # atno 17343 bound_to 10162
  157.5607  131.0946  150.9563 LP  0  0  0  0  0  0  0  0  0  0  0  0  # atno 17370 bound_to 10713
  156.9801  130.5523  149.5296 LP  0  0  0  0  0  0  0  0  0  0  0  0  # atno 17371 bound_to 10713
  141.1149  133.6631  156.3069 LP  0  0  0  0  0  0  0  0  0  0  0  0  # atno 17394 bound_to 11000
  140.5763  134.5790  157.5469 LP  0  0  0  0  0  0  0  0  0  0  0  0  # atno 17395 bound_to 11000

$$$$
