AV-unprocessed.smi:528|AV-procd|sdf|2838|dock1
  -GOLD-   2262023323D 1   1.00000     0.00000
 Structure written by MMmdl.
 45 47  0  0  0  0  0  0  0  0  1 V2000
  148.9423  139.4758  156.7500 C   0  0  0  0  0  0  0  0  0  0  0  0
  148.7305  140.8897  157.3183 C   0  0  1  0  0  0  0  0  0  0  0  0
  150.0261  141.4971  157.6137 N   0  0  0  0  0  0  0  0  0  0  0  0
  150.2231  142.5870  158.3708 C   0  0  0  0  0  0  0  0  0  0  0  0
  149.3104  143.1920  158.9353 O   0  0  0  0  0  0  0  0  0  0  0  0
  151.6821  143.0428  158.5156 C   0  0  0  0  0  0  0  0  0  0  0  0
  152.2316  142.8381  159.8664 N   0  0  0  0  0  0  0  0  0  0  0  0
  153.1185  141.7576  160.0406 C   0  0  0  0  0  0  0  0  0  0  0  0
  153.7011  141.4699  161.2203 C   0  0  0  0  0  0  0  0  0  0  0  0
  154.6096  140.2619  161.3884 C   0  0  0  0  0  0  0  0  0  0  0  0
  155.1497  140.2313  162.6069 F   0  0  0  0  0  0  0  0  0  0  0  0
  153.9385  139.1253  161.1989 F   0  0  0  0  0  0  0  0  0  0  0  0
  155.5984  140.3125  160.4971 F   0  0  0  0  0  0  0  0  0  0  0  0
  153.3444  142.3193  162.3400 C   0  0  0  0  0  0  0  0  0  0  0  0
  152.4885  143.3497  162.1932 C   0  0  0  0  0  0  0  0  0  0  0  0
  151.8776  143.6610  160.8989 C   0  0  0  0  0  0  0  0  0  0  0  0
  151.0963  144.6015  160.7516 O   0  0  0  0  0  0  0  0  0  0  0  0
  147.9403  141.7948  156.3441 C   0  0  1  0  0  0  0  0  0  0  0  0
  148.4382  141.7668  154.8813 C   0  0  0  0  0  0  0  0  0  0  0  0
  147.1447  141.5316  154.0789 C   0  0  1  0  0  0  0  0  0  0  0  0
  146.7044  140.0669  154.2539 C   0  0  0  0  0  0  0  0  0  0  0  0
  146.1873  140.0411  155.7037 C   0  0  0  0  0  0  0  0  0  0  0  0
  146.4296  141.4885  156.1795 C   0  0  2  0  0  0  0  0  0  0  0  0
  146.1059  142.2734  154.9122 C   0  0  0  0  0  0  0  0  0  0  0  0
  147.9917  138.9846  156.5425 H   0  0  0  0  0  0  0  0  0  0  0  0
  149.4848  138.8450  157.4546 H   0  0  0  0  0  0  0  0  0  0  0  0
  149.5123  139.5019  155.8206 H   0  0  0  0  0  0  0  0  0  0  0  0
  148.1609  140.7933  158.2436 H   0  0  0  0  0  0  0  0  0  0  0  0
  150.8353  141.0627  157.1937 H   0  0  0  0  0  0  0  0  0  0  0  0
  152.2794  142.5092  157.7748 H   0  0  0  0  0  0  0  0  0  0  0  0
  151.7589  144.0958  158.2376 H   0  0  0  0  0  0  0  0  0  0  0  0
  153.2894  141.1686  159.1511 H   0  0  0  0  0  0  0  0  0  0  0  0
  153.7731  142.1289  163.3129 H   0  0  0  0  0  0  0  0  0  0  0  0
  152.2468  143.9627  163.0492 H   0  0  0  0  0  0  0  0  0  0  0  0
  148.0214  142.8210  156.7077 H   0  0  0  0  0  0  0  0  0  0  0  0
  148.8967  142.7202  154.6160 H   0  0  0  0  0  0  0  0  0  0  0  0
  149.1742  140.9837  154.6944 H   0  0  0  0  0  0  0  0  0  0  0  0
  147.2128  141.8459  153.0371 H   0  0  0  0  0  0  0  0  0  0  0  0
  145.9040  139.8143  153.5574 H   0  0  0  0  0  0  0  0  0  0  0  0
  147.5235  139.3655  154.0913 H   0  0  0  0  0  0  0  0  0  0  0  0
  145.1214  139.8101  155.7189 H   0  0  0  0  0  0  0  0  0  0  0  0
  146.6865  139.2928  156.3183 H   0  0  0  0  0  0  0  0  0  0  0  0
  145.8296  141.7669  157.0465 H   0  0  0  0  0  0  0  0  0  0  0  0
  146.3042  143.3432  154.9993 H   0  0  0  0  0  0  0  0  0  0  0  0
  145.0833  142.1268  154.5600 H   0  0  0  0  0  0  0  0  0  0  0  0
  1  2  1  0  0  0  0
  1 25  1  0  0  0  0
  1 26  1  0  0  0  0
  1 27  1  0  0  0  0
  2  3  1  0  0  0  0
  2 18  1  0  0  0  0
  2 28  1  0  0  0  0
  3  4  1  0  0  0  0
  3 29  1  0  0  0  0
  4  5  2  0  0  0  0
  4  6  1  0  0  0  0
  6  7  1  0  0  0  0
  6 30  1  0  0  0  0
  6 31  1  0  0  0  0
  7 16  1  0  0  0  0
  7  8  1  0  0  0  0
  8  9  2  0  0  0  0
  8 32  1  0  0  0  0
  9 10  1  0  0  0  0
  9 14  1  0  0  0  0
 10 11  1  0  0  0  0
 10 12  1  0  0  0  0
 10 13  1  0  0  0  0
 14 15  2  0  0  0  0
 14 33  1  0  0  0  0
 15 16  1  0  0  0  0
 15 34  1  0  0  0  0
 16 17  2  0  0  0  0
 18 23  1  0  0  0  0
 18 19  1  0  0  0  0
 18 35  1  0  0  0  0
 19 20  1  0  0  0  0
 19 36  1  0  0  0  0
 19 37  1  0  0  0  0
 20 24  1  0  0  0  0
 20 21  1  0  0  0  0
 20 38  1  0  0  0  0
 21 22  1  0  0  0  0
 21 39  1  0  0  0  0
 21 40  1  0  0  0  0
 22 23  1  0  0  0  0
 22 41  1  0  0  0  0
 22 42  1  0  0  0  0
 23 24  1  0  0  0  0
 23 43  1  0  0  0  0
 24 44  1  0  0  0  0
 24 45  1  0  0  0  0
M  END
> <s_m_source_file>
AV-unprocessed.smi

> <i_m_source_file_index>
528

> <i_lp_mmshare_version>
43012

> <i_f3d_flags>
0

> <s_epik_input>
W0NIMl0xW0NIMl1bQ0BASF0oW0NIMl0yKVtDQEBIXShbQ0gyXVtDQEhdMTIpW0NASF0oW0NIM10pW05IXUMoPU8pW0NIMl1uM1tjSF1jKEMoRikoRilGKVtjSF1bY0hdYzM9Tw==

> <s_epik_cmdline>
J2VwaWtfcHl0aG9uJywgJy1waCcsICc3LjAnLCAnLXRuJywgJzgnLCAnLW1hJywgJzIwMCcsICctbWV0YWxfYmluZGluZycsICctaW1hZScsICc8aW5maWxlLm1hZT4nLCAnLW9tYWUnLCAnPG91dGZpbGUubWFlPic=

> <r_lp_tautomer_probability>
1

> <r_epik_Ionization_Penalty>
4.09479e-08

> <r_epik_Ionization_Penalty_Charging>
1.9321e-08

> <r_epik_Ionization_Penalty_Neutral>
2.16269e-08

> <r_epik_State_Penalty>
-0

> <r_epik_Charging_Adjusted_Penalty>
1.9321e-08

> <i_epik_Tot_Q>
0

> <i_epik_Tot_abs_Q>
0

> <r_epik_Metal_State_Penalty>
-0

> <b_epik_Metal_Only>
0

> <s_lp_Force_Field>
OPLS_2005

> <r_lp_Energy>
62.533

> <b_lp_Chiralities_Consistent>
1

> <s_lp_Variant>
AV-unprocessed.smi:528-8

> <Gold.Version>
5.8.1

> <Gold.Id.Protein>
6NUR|6NUR_protein|mol2

> <Gold.PLP.Fitness>
48.3382

> <Gold.PLP.PLP>
-49.6333

> <Gold.PLP.part.hbond>
0.0000

> <Gold.PLP.part.metal>
0.0000

> <Gold.PLP.part.buried>
-3.0850

> <Gold.PLP.part.nonpolar>
-44.6893

> <Gold.PLP.part.repulsive>
0.3239

> <Gold.PLP.ligand.clash>
0.0000

> <Gold.PLP.ligand.torsion>
0.7442

> <Gold.PLP.Chemscore.Hbond>
0.0000

> <Gold.PLP.Chemscore.CHOScore>
0.0000

> <Gold.PLP.Chemscore.Metal>
0.0000

> <Gold.PLP.Chemscore.Internal.Correction>
0.1933

> <Gold.Rescore>
     Score         DG    S(hbond)    S(metal)    S(lipo)     H(rot)  DE(clash)    DE(int)     intcor
     12.59     -13.57       0.00        0.00     106.62       1.71       0.09       0.90       ----

> <Gold.Chemscore.Fitness>
12.5854

> <Gold.Chemscore.DG>
-13.5702

> <Gold.Chemscore.ZeroCoef>
-5.4800

> <Gold.Chemscore.Hbond>
0.0000

> <Gold.Chemscore.Metal>
0.0000

> <Gold.Chemscore.Lipo>
106.6166

> <Gold.Chemscore.Internal_Hbond>
0.0000

> <Gold.Chemscore.DEClash>
0.0862

> <Gold.Chemscore.DEInternal>
0.8986

> <Gold.Chemscore.Rot>
1.7125

> <Gold.Chemscore.Internal.Correction>
   9.000000E+99

> <Gold.Chemscore.Hbond.Weighted>
-0.0000

> <Gold.Chemscore.Metal.Weighted>
-0.0000

> <Gold.Chemscore.Lipo.Weighted>
-12.4741

> <Gold.Chemscore.Internal_Hbond.Weighted>
0.0000

> <Gold.Chemscore.DEClash.Weighted>
0.0862

> <Gold.Chemscore.DEInternal.Weighted>
0.8986

> <Gold.Chemscore.Rot.Weighted>
4.3840

> <Gold.Chemscore.Internal.Correction.Weighted>
   9.000000E+99

> <Gold.Protein.RotatedTorsions>
[ 6907 6896 6895 6894 ] final  -52.63 input  -60.11 | X-H torsion
[ 7974 7965 7964 7962 ] final  -52.34 input  175.53 | X-H torsion
[ 8008 7997 7996 7995 ] final   96.44 input   59.86 | X-H torsion
[ 10167 10162 10161 10158 ] final  -80.60 input  -65.29 | X-H torsion
[ 10718 10713 10712 10709 ] final  -18.08 input   66.30 | X-H torsion
[ 10763 10752 10751 10750 ] final -121.23 input  -60.55 | X-H torsion
[ 11005 11000 10999 10996 ] final    6.25 input  -57.11 | X-H torsion

> <Gold.Protein.ActiveResidues>
 VAL166  LYS551  ARG553  GLY616  TRP617  ASP618  TYR619  PRO620  LYS621  CYS622 
 ASP623  PHE694  ASN695  SER759  ASP760  ASP761  ALA762  ILE779  LEU786  VAL792 
 PHE793  MET794  SER795  GLU796  ALA797  LYS798  CYS799  TRP800  GLU811  SER814 

> <Gold.Protein.RotatedAtoms>
  150.8500  134.7822  159.7000 H   0  0  0  0  0  0  0  0  0  0  0  0  # atno 6907 bound_to 6896
  152.4567  134.5272  159.9810 H   0  0  0  0  0  0  0  0  0  0  0  0  # atno 6908 bound_to 6896
  151.5395  133.3397  159.2968 H   0  0  0  0  0  0  0  0  0  0  0  0  # atno 6909 bound_to 6896
  145.9091  140.7931  142.9704 H   0  0  0  0  0  0  0  0  0  0  0  0  # atno 7974 bound_to 7965
  156.0796  140.3272  155.7677 H   0  0  0  0  0  0  0  0  0  0  0  0  # atno 8008 bound_to 7997
  155.5174  140.0582  157.2930 H   0  0  0  0  0  0  0  0  0  0  0  0  # atno 8009 bound_to 7997
  154.4575  140.1950  156.0356 H   0  0  0  0  0  0  0  0  0  0  0  0  # atno 8010 bound_to 7997
  140.4488  143.2490  151.8519 H   0  0  0  0  0  0  0  0  0  0  0  0  # atno 10167 bound_to 10162
  156.5645  130.4734  149.6391 H   0  0  0  0  0  0  0  0  0  0  0  0  # atno 10718 bound_to 10713
  154.8663  135.4175  154.2587 H   0  0  0  0  0  0  0  0  0  0  0  0  # atno 10763 bound_to 10752
  153.3519  135.6999  153.6787 H   0  0  0  0  0  0  0  0  0  0  0  0  # atno 10764 bound_to 10752
  153.5723  135.3589  155.2815 H   0  0  0  0  0  0  0  0  0  0  0  0  # atno 10765 bound_to 10752
  140.5616  134.0187  155.7974 H   0  0  0  0  0  0  0  0  0  0  0  0  # atno 11005 bound_to 11000
  144.6741  140.1797  143.7407 LP  0  0  0  0  0  0  0  0  0  0  0  0  # atno 17320 bound_to 7965
  145.8695  139.2264  143.1669 LP  0  0  0  0  0  0  0  0  0  0  0  0  # atno 17321 bound_to 7965
  139.4795  144.5144  151.8888 LP  0  0  0  0  0  0  0  0  0  0  0  0  # atno 17342 bound_to 10162
  140.4232  144.2215  150.5887 LP  0  0  0  0  0  0  0  0  0  0  0  0  # atno 17343 bound_to 10162
  156.2769  130.7049  151.1862 LP  0  0  0  0  0  0  0  0  0  0  0  0  # atno 17370 bound_to 10713
  157.7361  131.0565  150.5431 LP  0  0  0  0  0  0  0  0  0  0  0  0  # atno 17371 bound_to 10713
  141.1111  133.9615  157.2908 LP  0  0  0  0  0  0  0  0  0  0  0  0  # atno 17394 bound_to 11000
  139.9405  135.0191  156.8693 LP  0  0  0  0  0  0  0  0  0  0  0  0  # atno 17395 bound_to 11000

$$$$
