AV-unprocessed.smi:224|AV-procd|sdf|1722|dock3
  -GOLD-   2262020203D 1   1.00000     0.00000
 Structure written by MMmdl.
 56 59  0  0  0  0  0  0  0  0  2 V2000
  144.4667  132.7136  149.4935 C   0  0  0  0  0  0  0  0  0  0  0  0
  145.7226  132.0820  150.1125 C   0  0  1  0  0  0  0  0  0  0  0  0
  146.8124  132.3534  149.2565 O   0  0  0  0  0  0  0  0  0  0  0  0
  146.0540  132.6444  151.5119 C   0  0  0  0  0  0  0  0  0  0  0  0
  147.2757  132.0400  152.1193 N   0  3  1  0  0  0  0  0  0  0  0  0
  147.9057  132.9607  153.1092 C   0  0  0  0  0  0  0  0  0  0  0  0
  149.1936  132.3778  153.7073 C   0  0  0  0  0  0  0  0  0  0  0  0
  148.9329  131.0710  154.2935 N   0  0  0  0  0  0  0  0  0  0  0  0
  148.5274  131.0536  155.5922 C   0  0  0  0  0  0  0  0  0  0  0  0
  149.3447  130.5352  156.5477 N   0  0  0  0  0  0  0  0  0  0  0  0
  148.9568  130.4974  157.8256 C   0  0  0  0  0  0  0  0  0  0  0  0
  147.8115  130.9208  158.3613 N   0  0  0  0  0  0  0  0  0  0  0  0
  146.9913  131.4591  157.4146 C   0  0  0  0  0  0  0  0  0  0  0  0
  147.2671  131.5623  156.0210 C   0  0  0  0  0  0  0  0  0  0  0  0
  146.1977  132.1726  155.3756 N   0  0  0  0  0  0  0  0  0  0  0  0
  145.3366  132.4041  156.3283 C   0  0  0  0  0  0  0  0  0  0  0  0
  145.7359  132.0163  157.5872 N   0  0  0  0  0  0  0  0  0  0  0  0
  144.9831  132.1565  158.8251 C   0  0  0  0  0  0  0  0  0  0  0  0
  143.5113  131.6914  158.7141 C   0  0  2  0  0  0  0  0  0  0  0  0
  142.7354  132.7370  158.1545 O   0  0  0  0  0  0  0  0  0  0  0  0
  142.9068  131.3140  160.0606 C   0  0  0  0  0  0  0  0  0  0  0  0
  141.8573  130.2788  159.6793 C   0  0  0  0  0  0  0  0  0  0  0  0
  142.5010  129.5348  158.6591 O   0  0  0  0  0  0  0  0  0  0  0  0
  143.2955  130.4172  157.8711 C   0  0  0  0  0  0  0  0  0  0  0  0
  148.3520  130.1248  153.3459 C   0  0  0  0  0  0  0  0  0  0  0  0
  147.0623  130.6659  152.6808 C   0  0  2  0  0  0  0  0  0  0  0  0
  146.6049  129.6430  151.6209 C   0  0  0  0  0  0  0  0  0  0  0  0
  143.5801  132.4994  150.0907 H   0  0  0  0  0  0  0  0  0  0  0  0
  144.2851  132.3239  148.4913 H   0  0  0  0  0  0  0  0  0  0  0  0
  144.5620  133.7974  149.4164 H   0  0  0  0  0  0  0  0  0  0  0  0
  145.6098  130.9991  150.1390 H   0  0  0  0  0  0  0  0  0  0  0  0
  147.4857  131.7064  149.4043 H   0  0  0  0  0  0  0  0  0  0  0  0
  146.1766  133.7281  151.4695 H   0  0  0  0  0  0  0  0  0  0  0  0
  145.1800  132.4693  152.1340 H   0  0  0  0  0  0  0  0  0  0  0  0
  148.1525  133.9144  152.6464 H   0  0  0  0  0  0  0  0  0  0  0  0
  147.1938  133.1735  153.9085 H   0  0  0  0  0  0  0  0  0  0  0  0
  149.9473  132.2628  152.9273 H   0  0  0  0  0  0  0  0  0  0  0  0
  149.6088  133.0782  154.4302 H   0  0  0  0  0  0  0  0  0  0  0  0
  149.6651  130.0666  158.5179 H   0  0  0  0  0  0  0  0  0  0  0  0
  144.3812  132.8705  156.1361 H   0  0  0  0  0  0  0  0  0  0  0  0
  145.4992  131.5890  159.6008 H   0  0  0  0  0  0  0  0  0  0  0  0
  145.0243  133.2014  159.1353 H   0  0  0  0  0  0  0  0  0  0  0  0
  142.9905  133.5510  158.5613 H   0  0  0  0  0  0  0  0  0  0  0  0
  143.6585  130.8404  160.6936 H   0  0  0  0  0  0  0  0  0  0  0  0
  142.4952  132.1611  160.6110 H   0  0  0  0  0  0  0  0  0  0  0  0
  141.5640  129.6444  160.5157 H   0  0  0  0  0  0  0  0  0  0  0  0
  140.9629  130.7566  159.2765 H   0  0  0  0  0  0  0  0  0  0  0  0
  142.8011  130.6266  156.9212 H   0  0  0  0  0  0  0  0  0  0  0  0
  144.2320  129.9078  157.6465 H   0  0  0  0  0  0  0  0  0  0  0  0
  149.1015  129.9278  152.5783 H   0  0  0  0  0  0  0  0  0  0  0  0
  148.1661  129.1646  153.8296 H   0  0  0  0  0  0  0  0  0  0  0  0
  146.2838  130.7388  153.4413 H   0  0  0  0  0  0  0  0  0  0  0  0
  146.6169  128.6325  152.0308 H   0  0  0  0  0  0  0  0  0  0  0  0
  147.2622  129.6501  150.7508 H   0  0  0  0  0  0  0  0  0  0  0  0
  145.5850  129.8135  151.2800 H   0  0  0  0  0  0  0  0  0  0  0  0
  147.9413  131.9271  151.3681 H   0  0  0  0  0  0  0  0  0  0  0  0
  1  2  1  0  0  0  0
  1 28  1  0  0  0  0
  1 29  1  0  0  0  0
  1 30  1  0  0  0  0
  2  3  1  0  0  0  0
  2  4  1  0  0  0  0
  2 31  1  0  0  0  0
  3 32  1  0  0  0  0
  4  5  1  0  0  0  0
  4 33  1  0  0  0  0
  4 34  1  0  0  0  0
  5 26  1  0  0  0  0
  5  6  1  0  0  0  0
  5 56  1  0  0  0  0
  6  7  1  0  0  0  0
  6 35  1  0  0  0  0
  6 36  1  0  0  0  0
  7  8  1  0  0  0  0
  7 37  1  0  0  0  0
  7 38  1  0  0  0  0
  8  9  1  0  0  0  0
  8 25  1  0  0  0  0
  9 14  1  0  0  0  0
  9 10  2  0  0  0  0
 10 11  1  0  0  0  0
 11 12  2  0  0  0  0
 11 39  1  0  0  0  0
 12 13  1  0  0  0  0
 13 17  1  0  0  0  0
 13 14  2  0  0  0  0
 14 15  1  0  0  0  0
 15 16  2  0  0  0  0
 16 17  1  0  0  0  0
 16 40  1  0  0  0  0
 17 18  1  0  0  0  0
 18 19  1  0  0  0  0
 18 41  1  0  0  0  0
 18 42  1  0  0  0  0
 19 24  1  0  0  0  0
 19 20  1  0  0  0  0
 19 21  1  0  0  0  0
 20 43  1  0  0  0  0
 21 22  1  0  0  0  0
 21 44  1  0  0  0  0
 21 45  1  0  0  0  0
 22 23  1  0  0  0  0
 22 46  1  0  0  0  0
 22 47  1  0  0  0  0
 23 24  1  0  0  0  0
 24 48  1  0  0  0  0
 24 49  1  0  0  0  0
 25 26  1  0  0  0  0
 25 50  1  0  0  0  0
 25 51  1  0  0  0  0
 26 27  1  0  0  0  0
 26 52  1  0  0  0  0
 27 53  1  0  0  0  0
 27 54  1  0  0  0  0
 27 55  1  0  0  0  0
M  CHG  1   5   1
M  END
> <s_m_source_file>
AV-unprocessed.smi

> <i_m_source_file_index>
224

> <i_lp_mmshare_version>
43012

> <i_f3d_flags>
0

> <s_epik_input>
W0NIM11bQ0BIXShbT0hdKVtDSDJdTjFbQ0gyXVtDSDJdTihbQ0gyXVtDQEhdMVtDSDNdKWMobltjSF1uMiljKGMyMyluW2NIXW4zW0NIMl1bQ0BAXTQoW09IXSlbQ0gyXVtDSDJdT1tDSDJdNA==

> <s_epik_cmdline>
J2VwaWtfcHl0aG9uJywgJy1waCcsICc3LjAnLCAnLXRuJywgJzgnLCAnLW1hJywgJzIwMCcsICctbWV0YWxfYmluZGluZycsICctaW1hZScsICc8aW5maWxlLm1hZT4nLCAnLW9tYWUnLCAnPG91dGZpbGUubWFlPic=

> <r_lp_tautomer_probability>
1

> <r_epik_Ionization_Penalty>
0.00516958

> <r_epik_Ionization_Penalty_Charging>
0.00509693

> <r_epik_Ionization_Penalty_Neutral>
7.26542e-05

> <r_epik_State_Penalty>
-0

> <r_epik_Charging_Adjusted_Penalty>
0.00509693

> <i_epik_Tot_Q>
1

> <i_epik_Tot_abs_Q>
1

> <r_epik_Metal_State_Penalty>
-0

> <b_epik_Metal_Only>
0

> <s_lp_Force_Field>
OPLS_2005

> <r_lp_Energy>
50.435

> <b_lp_Chiralities_Consistent>
1

> <s_lp_Variant>
AV-unprocessed.smi:224-16

> <Gold.Version>
5.8.1

> <Gold.Id.Protein>
6NUR|6NUR_protein|mol2

> <Gold.PLP.Fitness>
43.3469

> <Gold.PLP.PLP>
-33.5042

> <Gold.PLP.part.hbond>
-3.0210

> <Gold.PLP.part.metal>
0.0000

> <Gold.PLP.part.buried>
-5.0902

> <Gold.PLP.part.nonpolar>
-25.6153

> <Gold.PLP.part.repulsive>
0.2970

> <Gold.PLP.ligand.clash>
0.0000

> <Gold.PLP.ligand.torsion>
0.9210

> <Gold.PLP.Chemscore.Hbond>
3.0000

> <Gold.PLP.Chemscore.CHOScore>
0.6923

> <Gold.PLP.Chemscore.Metal>
0.0000

> <Gold.Chemscore.Hbonds>
donor molecule, donor type, donor heavy atom, donor atom, acceptor molecule, acceptor atom, score
      L1  H     3    32       P1 10747  1.00
      L1  H     5    56       P1 10747  1.00
      P1  H 11000 11005       L1    20  0.36
      L1  C    16    40       P1 10957  0.82

> <Gold.PLP.Chemscore.Internal.Correction>
0.6077

> <Gold.Rescore>
     Score         DG    S(hbond)    S(metal)    S(lipo)     H(rot)  DE(clash)    DE(int)     intcor
     13.86     -16.30       2.95        0.00      81.79       3.36       0.14       2.30       ----

> <Gold.Chemscore.Fitness>
13.8625

> <Gold.Chemscore.DG>
-16.3004

> <Gold.Chemscore.ZeroCoef>
-5.4800

> <Gold.Chemscore.Hbond>
2.9506

> <Gold.Chemscore.Metal>
0.0000

> <Gold.Chemscore.Lipo>
81.7929

> <Gold.Chemscore.Internal_Hbond>
0.0000

> <Gold.Chemscore.DEClash>
0.1410

> <Gold.Chemscore.DEInternal>
2.2969

> <Gold.Chemscore.Rot>
3.3611

> <Gold.Chemscore.Internal.Correction>
   9.000000E+99

> <Gold.Chemscore.Hbonds>
donor molecule, donor type, donor heavy atom, donor atom, acceptor molecule, acceptor atom, score
      L1  H     3    32       P1 10747  0.99
      L1  H     5    56       P1 10747  0.95
      P1  H 11000 11005       L1    20  0.02

> <Gold.Chemscore.Hbond.Weighted>
-9.8551

> <Gold.Chemscore.Metal.Weighted>
-0.0000

> <Gold.Chemscore.Lipo.Weighted>
-9.5698

> <Gold.Chemscore.Internal_Hbond.Weighted>
0.0000

> <Gold.Chemscore.DEClash.Weighted>
0.1410

> <Gold.Chemscore.DEInternal.Weighted>
2.2969

> <Gold.Chemscore.Rot.Weighted>
8.6045

> <Gold.Chemscore.Internal.Correction.Weighted>
   9.000000E+99

> <Gold.Protein.RotatedTorsions>
[ 6907 6896 6895 6894 ] final   76.72 input  -60.11 | X-H torsion
[ 7974 7965 7964 7962 ] final -152.29 input  175.53 | X-H torsion
[ 8008 7997 7996 7995 ] final  151.43 input   59.86 | X-H torsion
[ 10167 10162 10161 10158 ] final   99.65 input  -65.29 | X-H torsion
[ 10718 10713 10712 10709 ] final  103.00 input   66.30 | X-H torsion
[ 10763 10752 10751 10750 ] final  136.12 input  -60.55 | X-H torsion
[ 11005 11000 10999 10996 ] final  -94.83 input  -57.11 | X-H torsion

> <Gold.Protein.ActiveResidues>
 VAL166  LYS551  ARG553  GLY616  TRP617  ASP618  TYR619  PRO620  LYS621  CYS622 
 ASP623  PHE694  ASN695  SER759  ASP760  ASP761  ALA762  ILE779  LEU786  VAL792 
 PHE793  MET794  SER795  GLU796  ALA797  LYS798  CYS799  TRP800  GLU811  SER814 

> <Gold.Protein.RotatedAtoms>
  152.5086  134.3926  159.9389 H   0  0  0  0  0  0  0  0  0  0  0  0  # atno 6907 bound_to 6896
  151.3887  133.3790  159.2726 H   0  0  0  0  0  0  0  0  0  0  0  0  # atno 6908 bound_to 6896
  150.9449  134.8875  159.7694 H   0  0  0  0  0  0  0  0  0  0  0  0  # atno 6909 bound_to 6896
  144.7802  140.4682  143.5844 H   0  0  0  0  0  0  0  0  0  0  0  0  # atno 7974 bound_to 7965
  156.2674  140.2048  156.6175 H   0  0  0  0  0  0  0  0  0  0  0  0  # atno 8008 bound_to 7997
  154.6783  140.0542  157.0263 H   0  0  0  0  0  0  0  0  0  0  0  0  # atno 8009 bound_to 7997
  155.1037  140.3208  155.4543 H   0  0  0  0  0  0  0  0  0  0  0  0  # atno 8010 bound_to 7997
  139.7598  144.6958  151.0308 H   0  0  0  0  0  0  0  0  0  0  0  0  # atno 10167 bound_to 10162
  157.6785  131.0768  150.5490 H   0  0  0  0  0  0  0  0  0  0  0  0  # atno 10718 bound_to 10713
  153.8512  135.3079  155.3432 H   0  0  0  0  0  0  0  0  0  0  0  0  # atno 10763 bound_to 10752
  154.7890  135.4793  154.0013 H   0  0  0  0  0  0  0  0  0  0  0  0  # atno 10764 bound_to 10752
  153.1517  135.6844  153.8966 H   0  0  0  0  0  0  0  0  0  0  0  0  # atno 10765 bound_to 10752
  141.1459  133.7983  157.0352 H   0  0  0  0  0  0  0  0  0  0  0  0  # atno 11005 bound_to 11000
  145.6071  139.1509  143.3096 LP  0  0  0  0  0  0  0  0  0  0  0  0  # atno 17320 bound_to 7965
  146.2006  140.6189  142.9104 LP  0  0  0  0  0  0  0  0  0  0  0  0  # atno 17321 bound_to 7965
  140.7806  143.4710  151.0146 LP  0  0  0  0  0  0  0  0  0  0  0  0  # atno 17342 bound_to 10162
  139.8396  143.7581  152.3180 LP  0  0  0  0  0  0  0  0  0  0  0  0  # atno 17343 bound_to 10162
  156.5795  130.4300  149.5984 LP  0  0  0  0  0  0  0  0  0  0  0  0  # atno 17370 bound_to 10713
  156.2673  130.6997  151.1784 LP  0  0  0  0  0  0  0  0  0  0  0  0  # atno 17371 bound_to 10713
  140.0728  134.9692  157.1496 LP  0  0  0  0  0  0  0  0  0  0  0  0  # atno 17394 bound_to 11000
  140.3686  134.2415  155.7180 LP  0  0  0  0  0  0  0  0  0  0  0  0  # atno 17395 bound_to 11000

$$$$
