AV-unprocessed.smi:82|AV-procd|sdf|794|dock2
  -GOLD-   2262017173D 1   1.00000     0.00000
 Structure written by MMmdl.
 59 62  0  0  0  0  0  0  0  0  2 V2000
  146.3881  143.6892  160.8770 C   0  0  0  0  0  0  0  0  0  0  0  0
  147.1841  142.7903  160.1243 O   0  0  0  0  0  0  0  0  0  0  0  0
  147.5432  143.3125  158.8557 C   0  0  0  0  0  0  0  0  0  0  0  0
  148.7205  142.4959  158.3010 C   0  0  0  0  0  0  0  0  0  0  0  0
  148.6133  142.2783  156.8304 N   0  3  2  0  0  0  0  0  0  0  0  0
  147.1941  142.0765  156.4197 C   0  0  0  0  0  0  0  0  0  0  0  0
  147.0487  141.9048  154.9015 C   0  0  0  0  0  0  0  0  0  0  0  0
  147.8909  140.8119  154.4374 N   0  0  0  0  0  0  0  0  0  0  0  0
  147.3411  139.5686  154.4719 C   0  0  0  0  0  0  0  0  0  0  0  0
  147.2850  138.8854  155.6463 N   0  0  0  0  0  0  0  0  0  0  0  0
  146.7369  137.6681  155.6969 C   0  0  0  0  0  0  0  0  0  0  0  0
  146.1966  136.9560  154.7072 N   0  0  0  0  0  0  0  0  0  0  0  0
  146.2588  137.6271  153.5215 C   0  0  0  0  0  0  0  0  0  0  0  0
  146.8096  138.9247  153.3175 C   0  0  0  0  0  0  0  0  0  0  0  0
  146.7115  139.2719  151.9752 N   0  0  0  0  0  0  0  0  0  0  0  0
  146.1312  138.2437  151.4196 C   0  0  0  0  0  0  0  0  0  0  0  0
  145.8176  137.2118  152.2758 N   0  0  0  0  0  0  0  0  0  0  0  0
  145.1950  135.9661  151.9262 C   0  0  0  0  0  0  0  0  0  0  0  0
  145.7873  134.6387  152.4053 C   0  0  0  0  0  0  0  0  0  0  0  0
  145.4152  133.9732  151.0605 C   0  0  0  0  0  0  0  0  0  0  0  0
  146.5416  133.1346  150.4368 C   0  0  0  0  0  0  0  0  0  0  0  0
  146.8111  131.9784  151.2036 O   0  0  0  0  0  0  0  0  0  0  0  0
  144.1428  133.0971  151.0630 C   0  0  0  0  0  0  0  0  0  0  0  0
  143.5187  133.0158  149.7977 O   0  0  0  0  0  0  0  0  0  0  0  0
  145.2803  135.4083  150.5027 C   0  0  0  0  0  0  0  0  0  0  0  0
  149.2987  140.9837  154.7819 C   0  0  0  0  0  0  0  0  0  0  0  0
  149.5228  141.2125  156.2978 C   0  0  1  0  0  0  0  0  0  0  0  0
  151.0151  141.5378  156.5133 C   0  0  0  0  0  0  0  0  0  0  0  0
  146.1483  143.2459  161.8435 H   0  0  0  0  0  0  0  0  0  0  0  0
  145.4498  143.9085  160.3657 H   0  0  0  0  0  0  0  0  0  0  0  0
  146.9160  144.6264  161.0587 H   0  0  0  0  0  0  0  0  0  0  0  0
  146.6948  143.2263  158.1751 H   0  0  0  0  0  0  0  0  0  0  0  0
  147.7842  144.3730  158.9289 H   0  0  0  0  0  0  0  0  0  0  0  0
  149.6288  143.0280  158.5704 H   0  0  0  0  0  0  0  0  0  0  0  0
  148.7869  141.5329  158.8095 H   0  0  0  0  0  0  0  0  0  0  0  0
  146.7945  141.1951  156.9242 H   0  0  0  0  0  0  0  0  0  0  0  0
  146.5822  142.9207  156.7344 H   0  0  0  0  0  0  0  0  0  0  0  0
  146.0009  141.7493  154.6483 H   0  0  0  0  0  0  0  0  0  0  0  0
  147.3536  142.8195  154.3919 H   0  0  0  0  0  0  0  0  0  0  0  0
  146.7294  137.1978  156.6693 H   0  0  0  0  0  0  0  0  0  0  0  0
  145.9187  138.2090  150.3609 H   0  0  0  0  0  0  0  0  0  0  0  0
  144.1504  136.0419  152.2299 H   0  0  0  0  0  0  0  0  0  0  0  0
  146.8645  134.6990  152.5680 H   0  0  0  0  0  0  0  0  0  0  0  0
  145.2893  134.2174  153.2793 H   0  0  0  0  0  0  0  0  0  0  0  0
  146.2727  132.8076  149.4315 H   0  0  0  0  0  0  0  0  0  0  0  0
  147.4592  133.7154  150.3363 H   0  0  0  0  0  0  0  0  0  0  0  0
  147.6676  131.6545  150.9701 H   0  0  0  0  0  0  0  0  0  0  0  0
  144.3696  132.0786  151.3783 H   0  0  0  0  0  0  0  0  0  0  0  0
  143.4083  133.4863  151.7689 H   0  0  0  0  0  0  0  0  0  0  0  0
  142.7745  133.5983  149.7901 H   0  0  0  0  0  0  0  0  0  0  0  0
  144.3870  135.5804  149.9013 H   0  0  0  0  0  0  0  0  0  0  0  0
  146.1732  135.7382  149.9696 H   0  0  0  0  0  0  0  0  0  0  0  0
  149.8842  140.1339  154.4279 H   0  0  0  0  0  0  0  0  0  0  0  0
  149.6660  141.8475  154.2262 H   0  0  0  0  0  0  0  0  0  0  0  0
  149.2930  140.2875  156.8279 H   0  0  0  0  0  0  0  0  0  0  0  0
  151.6453  140.8299  155.9741 H   0  0  0  0  0  0  0  0  0  0  0  0
  151.3194  141.4734  157.5563 H   0  0  0  0  0  0  0  0  0  0  0  0
  151.2602  142.5362  156.1492 H   0  0  0  0  0  0  0  0  0  0  0  0
  148.9208  143.1358  156.3940 H   0  0  0  0  0  0  0  0  0  0  0  0
  1  2  1  0  0  0  0
  1 29  1  0  0  0  0
  1 30  1  0  0  0  0
  1 31  1  0  0  0  0
  2  3  1  0  0  0  0
  3  4  1  0  0  0  0
  3 32  1  0  0  0  0
  3 33  1  0  0  0  0
  4  5  1  0  0  0  0
  4 34  1  0  0  0  0
  4 35  1  0  0  0  0
  5 27  1  0  0  0  0
  5  6  1  0  0  0  0
  5 59  1  0  0  0  0
  6  7  1  0  0  0  0
  6 36  1  0  0  0  0
  6 37  1  0  0  0  0
  7  8  1  0  0  0  0
  7 38  1  0  0  0  0
  7 39  1  0  0  0  0
  8  9  1  0  0  0  0
  8 26  1  0  0  0  0
  9 14  1  0  0  0  0
  9 10  2  0  0  0  0
 10 11  1  0  0  0  0
 11 12  2  0  0  0  0
 11 40  1  0  0  0  0
 12 13  1  0  0  0  0
 13 17  1  0  0  0  0
 13 14  2  0  0  0  0
 14 15  1  0  0  0  0
 15 16  2  0  0  0  0
 16 17  1  0  0  0  0
 16 41  1  0  0  0  0
 17 18  1  0  0  0  0
 18 25  1  0  0  0  0
 18 19  1  0  0  0  0
 18 42  1  0  0  0  0
 19 20  1  0  0  0  0
 19 43  1  0  0  0  0
 19 44  1  0  0  0  0
 20 21  1  0  0  0  0
 20 23  1  0  0  0  0
 20 25  1  0  0  0  0
 21 22  1  0  0  0  0
 21 45  1  0  0  0  0
 21 46  1  0  0  0  0
 22 47  1  0  0  0  0
 23 24  1  0  0  0  0
 23 48  1  0  0  0  0
 23 49  1  0  0  0  0
 24 50  1  0  0  0  0
 25 51  1  0  0  0  0
 25 52  1  0  0  0  0
 26 27  1  0  0  0  0
 26 53  1  0  0  0  0
 26 54  1  0  0  0  0
 27 28  1  0  0  0  0
 27 55  1  0  0  0  0
 28 56  1  0  0  0  0
 28 57  1  0  0  0  0
 28 58  1  0  0  0  0
M  CHG  1   5   1
M  END
> <s_m_source_file>
AV-unprocessed.smi

> <i_m_source_file_index>
82

> <i_lp_mmshare_version>
43012

> <i_f3d_flags>
0

> <s_epik_input>
W0NIM11PW0NIMl1bQ0gyXU4xW0NIMl1bQ0gyXU4oW0NIMl1bQ0BIXTFbQ0gzXSljKG5bY0hdbjIpYyhjMjMpbltjSF1uM1tDSF0oW0NIMl00KVtDSDJdQzQoW0NIMl1bT0hdKVtDSDJdW09IXQ==

> <s_epik_cmdline>
J2VwaWtfcHl0aG9uJywgJy1waCcsICc3LjAnLCAnLXRuJywgJzgnLCAnLW1hJywgJzIwMCcsICctbWV0YWxfYmluZGluZycsICctaW1hZScsICc8aW5maWxlLm1hZT4nLCAnLW9tYWUnLCAnPG91dGZpbGUubWFlPic=

> <r_lp_tautomer_probability>
1

> <r_epik_Ionization_Penalty>
0.304275

> <r_epik_Ionization_Penalty_Charging>
0.304214

> <r_epik_Ionization_Penalty_Neutral>
6.13137e-05

> <r_epik_State_Penalty>
0.300354

> <r_epik_Charging_Adjusted_Penalty>
0.604567

> <i_epik_Tot_Q>
1

> <i_epik_Tot_abs_Q>
1

> <r_epik_Metal_State_Penalty>
0.301147

> <b_epik_Metal_Only>
0

> <s_lp_Force_Field>
OPLS_2005

> <r_lp_Energy>
58.1086

> <b_lp_Chiralities_Consistent>
1

> <s_lp_Variant>
AV-unprocessed.smi:82-1

> <Gold.Version>
5.8.1

> <Gold.Id.Protein>
6NUR|6NUR_protein|mol2

> <Gold.PLP.Fitness>
57.4314

> <Gold.PLP.PLP>
-40.6229

> <Gold.PLP.part.hbond>
-5.0000

> <Gold.PLP.part.metal>
0.0000

> <Gold.PLP.part.buried>
-3.1268

> <Gold.PLP.part.nonpolar>
-34.2997

> <Gold.PLP.part.repulsive>
0.9840

> <Gold.PLP.ligand.clash>
0.0000

> <Gold.PLP.ligand.torsion>
1.5701

> <Gold.PLP.Chemscore.Hbond>
5.6198

> <Gold.PLP.Chemscore.CHOScore>
0.7092

> <Gold.PLP.Chemscore.Metal>
0.0000

> <Gold.Chemscore.Hbonds>
donor molecule, donor type, donor heavy atom, donor atom, acceptor molecule, acceptor atom, score
      L1  H     5    59       P1  8028  2.00
      L1  H    22    47       P1 10747  1.00
      L1  H    24    50       P1 10186  1.00
      P1  H  6933  6944       L1     2  0.83
      P1  H  6934  6946       L1     2  0.77
      L1  C    16    41       P1 10171  0.73

> <Gold.PLP.Chemscore.Internal.Correction>
0.9617

> <Gold.Rescore>
     Score         DG    S(hbond)    S(metal)    S(lipo)     H(rot)  DE(clash)    DE(int)     intcor
     15.94     -18.39       4.24        0.00      74.73       3.91       1.00       1.45       ----

> <Gold.Chemscore.Fitness>
15.9381

> <Gold.Chemscore.DG>
-18.3896

> <Gold.Chemscore.ZeroCoef>
-5.4800

> <Gold.Chemscore.Hbond>
4.2408

> <Gold.Chemscore.Metal>
0.0000

> <Gold.Chemscore.Lipo>
74.7302

> <Gold.Chemscore.Internal_Hbond>
0.0000

> <Gold.Chemscore.DEClash>
1.0027

> <Gold.Chemscore.DEInternal>
1.4488

> <Gold.Chemscore.Rot>
3.9055

> <Gold.Chemscore.Internal.Correction>
   9.000000E+99

> <Gold.Chemscore.Hbonds>
donor molecule, donor type, donor heavy atom, donor atom, acceptor molecule, acceptor atom, score
      L1  H     5    59       P1  8028  0.98
      L1  H    22    47       P1 10747  1.00
      L1  H    24    50       P1 10186  0.98
      P1  H  6933  6944       L1     2  0.21
      P1  H  6934  6946       L1     2  0.60

> <Gold.Chemscore.Hbond.Weighted>
-14.1642

> <Gold.Chemscore.Metal.Weighted>
-0.0000

> <Gold.Chemscore.Lipo.Weighted>
-8.7434

> <Gold.Chemscore.Internal_Hbond.Weighted>
0.0000

> <Gold.Chemscore.DEClash.Weighted>
1.0027

> <Gold.Chemscore.DEInternal.Weighted>
1.4488

> <Gold.Chemscore.Rot.Weighted>
9.9980

> <Gold.Chemscore.Internal.Correction.Weighted>
   9.000000E+99

> <Gold.Protein.RotatedTorsions>
[ 6907 6896 6895 6894 ] final -146.74 input  -60.11 | X-H torsion
[ 7974 7965 7964 7962 ] final   66.93 input  175.53 | X-H torsion
[ 8008 7997 7996 7995 ] final   -9.29 input   59.86 | X-H torsion
[ 10167 10162 10161 10158 ] final -103.86 input  -65.29 | X-H torsion
[ 10718 10713 10712 10709 ] final -121.88 input   66.30 | X-H torsion
[ 10763 10752 10751 10750 ] final  -93.97 input  -60.55 | X-H torsion
[ 11005 11000 10999 10996 ] final   23.30 input  -57.11 | X-H torsion

> <Gold.Protein.ActiveResidues>
 VAL166  LYS551  ARG553  GLY616  TRP617  ASP618  TYR619  PRO620  LYS621  CYS622 
 ASP623  PHE694  ASN695  SER759  ASP760  ASP761  ALA762  ILE779  LEU786  VAL792 
 PHE793  MET794  SER795  GLU796  ALA797  LYS798  CYS799  TRP800  GLU811  SER814 

> <Gold.Protein.RotatedAtoms>
  151.1458  133.4940  159.2595 H   0  0  0  0  0  0  0  0  0  0  0  0  # atno 6907 bound_to 6896
  151.1606  135.0271  159.8718 H   0  0  0  0  0  0  0  0  0  0  0  0  # atno 6908 bound_to 6896
  152.5463  134.1333  159.8501 H   0  0  0  0  0  0  0  0  0  0  0  0  # atno 6909 bound_to 6896
  145.8207  139.3083  143.1045 H   0  0  0  0  0  0  0  0  0  0  0  0  # atno 7974 bound_to 7965
  154.5660  140.2359  155.8262 H   0  0  0  0  0  0  0  0  0  0  0  0  # atno 8008 bound_to 7997
  156.2069  140.3037  155.9605 H   0  0  0  0  0  0  0  0  0  0  0  0  # atno 8009 bound_to 7997
  155.2799  140.0422  157.3005 H   0  0  0  0  0  0  0  0  0  0  0  0  # atno 8010 bound_to 7997
  140.2155  143.3714  152.1014 H   0  0  0  0  0  0  0  0  0  0  0  0  # atno 10167 bound_to 10162
  156.1373  130.6440  150.9716 H   0  0  0  0  0  0  0  0  0  0  0  0  # atno 10718 bound_to 10713
  154.7010  135.5175  153.8527 H   0  0  0  0  0  0  0  0  0  0  0  0  # atno 10763 bound_to 10752
  153.0704  135.6599  154.0269 H   0  0  0  0  0  0  0  0  0  0  0  0  # atno 10764 bound_to 10752
  154.0128  135.3000  155.3370 H   0  0  0  0  0  0  0  0  0  0  0  0  # atno 10765 bound_to 10752
  140.3711  134.2021  155.7667 H   0  0  0  0  0  0  0  0  0  0  0  0  # atno 11005 bound_to 11000
  145.9678  140.8784  143.0178 LP  0  0  0  0  0  0  0  0  0  0  0  0  # atno 17320 bound_to 7965
  144.6748  140.1903  143.7397 LP  0  0  0  0  0  0  0  0  0  0  0  0  # atno 17321 bound_to 7965
  139.5164  144.6976  151.5585 LP  0  0  0  0  0  0  0  0  0  0  0  0  # atno 17342 bound_to 10162
  140.6293  143.9108  150.6591 LP  0  0  0  0  0  0  0  0  0  0  0  0  # atno 17343 bound_to 10162
  157.6544  131.0892  150.7981 LP  0  0  0  0  0  0  0  0  0  0  0  0  # atno 17370 bound_to 10713
  156.8059  130.4936  149.5363 LP  0  0  0  0  0  0  0  0  0  0  0  0  # atno 17371 bound_to 10713
  141.1954  133.8106  157.0716 LP  0  0  0  0  0  0  0  0  0  0  0  0  # atno 17394 bound_to 11000
  140.0551  134.9785  157.1205 LP  0  0  0  0  0  0  0  0  0  0  0  0  # atno 17395 bound_to 11000

$$$$
