AV-unprocessed.smi:100|AV-procd|sdf|901|dock6
  -GOLD-   2262017393D 1   1.00000     0.00000
 Structure written by MMmdl.
 31 33  0  0  0  0  0  0  0  0  1 V2000
  149.3976  138.0774  153.5189 N   0  0  0  0  0  0  0  0  0  0  0  0
  150.3890  138.6780  154.1916 C   0  0  0  0  0  0  0  0  0  0  0  0
  151.6298  138.1412  154.1232 N   0  0  0  0  0  0  0  0  0  0  0  0
  152.6356  138.7213  154.7866 C   0  0  0  0  0  0  0  0  0  0  0  0
  152.6105  139.8145  155.5543 N   0  0  0  0  0  0  0  0  0  0  0  0
  151.3573  140.3538  155.6218 C   0  0  0  0  0  0  0  0  0  0  0  0
  150.1988  139.8471  154.9711 C   0  0  0  0  0  0  0  0  0  0  0  0
  149.1045  140.6487  155.2640 N   0  0  0  0  0  0  0  0  0  0  0  0
  149.5927  141.5730  156.0472 C   0  0  0  0  0  0  0  0  0  0  0  0
  150.9437  141.4743  156.3119 N   0  0  0  0  0  0  0  0  0  0  0  0
  151.8088  142.3502  157.1661 C   0  0  2  0  0  0  0  0  0  0  0  0
  152.4658  141.5304  158.0898 O   0  0  0  0  0  0  0  0  0  0  0  0
  151.9023  141.7082  159.3872 C   0  0  1  0  0  0  0  0  0  0  0  0
  152.9051  141.3140  160.4830 C   0  0  0  0  0  0  0  0  0  0  0  0
  153.6180  140.1601  160.0921 O   0  0  0  0  0  0  0  0  0  0  0  0
  151.5379  143.1918  159.3679 C   0  0  1  0  0  0  0  0  0  0  0  0
  152.6556  143.9145  159.4925 F   0  0  0  0  0  0  0  0  0  0  0  0
  150.9506  143.3397  157.9726 C   0  0  1  0  0  0  0  0  0  0  0  0
  151.0460  144.6775  157.5260 O   0  0  0  0  0  0  0  0  0  0  0  0
  148.4634  138.4594  153.5555 H   0  0  0  0  0  0  0  0  0  0  0  0
  149.5852  137.2434  152.9818 H   0  0  0  0  0  0  0  0  0  0  0  0
  153.5982  138.2415  154.6880 H   0  0  0  0  0  0  0  0  0  0  0  0
  148.9688  142.3557  156.4502 H   0  0  0  0  0  0  0  0  0  0  0  0
  152.5347  142.8174  156.4999 H   0  0  0  0  0  0  0  0  0  0  0  0
  150.9869  141.1240  159.4856 H   0  0  0  0  0  0  0  0  0  0  0  0
  153.5950  142.1290  160.7043 H   0  0  0  0  0  0  0  0  0  0  0  0
  152.3769  141.0746  161.4064 H   0  0  0  0  0  0  0  0  0  0  0  0
  154.1491  140.3745  159.3405 H   0  0  0  0  0  0  0  0  0  0  0  0
  150.8532  143.4852  160.1641 H   0  0  0  0  0  0  0  0  0  0  0  0
  149.9071  143.0207  157.9726 H   0  0  0  0  0  0  0  0  0  0  0  0
  150.2764  144.8777  157.0151 H   0  0  0  0  0  0  0  0  0  0  0  0
  1  2  1  0  0  0  0
  1 20  1  0  0  0  0
  1 21  1  0  0  0  0
  2  7  1  0  0  0  0
  2  3  2  0  0  0  0
  3  4  1  0  0  0  0
  4  5  2  0  0  0  0
  4 22  1  0  0  0  0
  5  6  1  0  0  0  0
  6 10  1  0  0  0  0
  6  7  2  0  0  0  0
  7  8  1  0  0  0  0
  8  9  2  0  0  0  0
  9 10  1  0  0  0  0
  9 23  1  0  0  0  0
 10 11  1  0  0  0  0
 11 18  1  0  0  0  0
 11 12  1  0  0  0  0
 11 24  1  0  0  0  0
 12 13  1  0  0  0  0
 13 14  1  0  0  0  0
 13 16  1  0  0  0  0
 13 25  1  0  0  0  0
 14 15  1  0  0  0  0
 14 26  1  0  0  0  0
 14 27  1  0  0  0  0
 15 28  1  0  0  0  0
 16 17  1  0  0  0  0
 16 18  1  0  0  0  0
 16 29  1  0  0  0  0
 18 19  1  0  0  0  0
 18 30  1  0  0  0  0
 19 31  1  0  0  0  0
M  END
> <s_m_source_file>
AV-unprocessed.smi

> <i_m_source_file_index>
100

> <i_lp_mmshare_version>
43012

> <i_f3d_flags>
0

> <s_epik_input>
bjFbY0hdbmMoW05IMl0pYyhjMTIpbltjSF1uMltDQEBIXTNPW0NAQEhdKFtDSDJdW09IXSlbQ0BIXShGKVtDQEhdM1tPSF0=

> <s_epik_cmdline>
J2VwaWtfcHl0aG9uJywgJy1waCcsICc3LjAnLCAnLXRuJywgJzgnLCAnLW1hJywgJzIwMCcsICctbWV0YWxfYmluZGluZycsICctaW1hZScsICc8aW5maWxlLm1hZT4nLCAnLW9tYWUnLCAnPG91dGZpbGUubWFlPic=

> <r_lp_tautomer_probability>
1

> <r_epik_Ionization_Penalty>
0.000750324

> <r_epik_Ionization_Penalty_Charging>
0

> <r_epik_Ionization_Penalty_Neutral>
0.000750324

> <r_epik_State_Penalty>
-0

> <r_epik_Charging_Adjusted_Penalty>
0

> <i_epik_Tot_Q>
0

> <i_epik_Tot_abs_Q>
0

> <r_epik_Metal_State_Penalty>
-0

> <b_epik_Metal_Only>
0

> <s_epik_Chemistry_Notes>
This compound contains an acetal/aminal-like group ( X-CH(R)-Y where X, Y are N, S, or O) that may be acid/base labile, releasing an aldehyde.

> <s_lp_Force_Field>
OPLS_2005

> <r_lp_Energy>
31.3803

> <b_lp_Chiralities_Consistent>
1

> <s_lp_Variant>
AV-unprocessed.smi:100-5

> <Gold.Version>
5.8.1

> <Gold.Id.Protein>
6NUR|6NUR_protein|mol2

> <Gold.PLP.Fitness>
43.6971

> <Gold.PLP.PLP>
-32.8048

> <Gold.PLP.part.hbond>
-4.2776

> <Gold.PLP.part.metal>
0.0000

> <Gold.PLP.part.buried>
0.4303

> <Gold.PLP.part.nonpolar>
-27.5274

> <Gold.PLP.part.repulsive>
0.3376

> <Gold.PLP.ligand.clash>
0.0000

> <Gold.PLP.ligand.torsion>
0.3837

> <Gold.PLP.Chemscore.Hbond>
3.0000

> <Gold.PLP.Chemscore.CHOScore>
0.8799

> <Gold.PLP.Chemscore.Metal>
0.0000

> <Gold.Chemscore.Hbonds>
donor molecule, donor type, donor heavy atom, donor atom, acceptor molecule, acceptor atom, score
      L1  H     1    21       P1  7948  0.90
      L1  H    19    31       P1  8028  1.00
      P1  H  7997  8008       L1     5  1.00
      L1  C     9    23       P1  8028  0.93

> <Gold.PLP.Chemscore.Internal.Correction>
0.0199

> <Gold.Rescore>
     Score         DG    S(hbond)    S(metal)    S(lipo)     H(rot)  DE(clash)    DE(int)     intcor
      6.89     -10.58       2.40        0.00      44.90       3.19       2.58       1.11       ----

> <Gold.Chemscore.Fitness>
6.8879

> <Gold.Chemscore.DG>
-10.5777

> <Gold.Chemscore.ZeroCoef>
-5.4800

> <Gold.Chemscore.Hbond>
2.3986

> <Gold.Chemscore.Metal>
0.0000

> <Gold.Chemscore.Lipo>
44.8982

> <Gold.Chemscore.Internal_Hbond>
0.0000

> <Gold.Chemscore.DEClash>
2.5765

> <Gold.Chemscore.DEInternal>
1.1132

> <Gold.Chemscore.Rot>
3.1901

> <Gold.Chemscore.Internal.Correction>
   9.000000E+99

> <Gold.Chemscore.Hbonds>
donor molecule, donor type, donor heavy atom, donor atom, acceptor molecule, acceptor atom, score
      L1  H     1    21       P1  7948  0.57
      L1  H    19    31       P1  8028  0.35
      P1  H  7997  8008       L1     5  0.44

> <Gold.Chemscore.Hbond.Weighted>
-8.0112

> <Gold.Chemscore.Metal.Weighted>
-0.0000

> <Gold.Chemscore.Lipo.Weighted>
-5.2531

> <Gold.Chemscore.Internal_Hbond.Weighted>
0.0000

> <Gold.Chemscore.DEClash.Weighted>
2.5765

> <Gold.Chemscore.DEInternal.Weighted>
1.1132

> <Gold.Chemscore.Rot.Weighted>
8.1667

> <Gold.Chemscore.Internal.Correction.Weighted>
   9.000000E+99

> <Gold.Protein.RotatedTorsions>
[ 6907 6896 6895 6894 ] final  129.62 input  -60.11 | X-H torsion
[ 7974 7965 7964 7962 ] final -147.38 input  175.53 | X-H torsion
[ 8008 7997 7996 7995 ] final  -12.68 input   59.86 | X-H torsion
[ 10167 10162 10161 10158 ] final  151.61 input  -65.29 | X-H torsion
[ 10718 10713 10712 10709 ] final  176.98 input   66.30 | X-H torsion
[ 10763 10752 10751 10750 ] final  -84.86 input  -60.55 | X-H torsion
[ 11005 11000 10999 10996 ] final  141.66 input  -57.11 | X-H torsion

> <Gold.Protein.ActiveResidues>
 VAL166  LYS551  ARG553  GLY616  TRP617  ASP618  TYR619  PRO620  LYS621  CYS622 
 ASP623  PHE694  ASN695  SER759  ASP760  ASP761  ALA762  ILE779  LEU786  VAL792 
 PHE793  MET794  SER795  GLU796  ALA797  LYS798  CYS799  TRP800  GLU811  SER814 

> <Gold.Protein.RotatedAtoms>
  152.3606  133.6292  159.6011 H   0  0  0  0  0  0  0  0  0  0  0  0  # atno 6907 bound_to 6896
  150.7598  133.9430  159.3471 H   0  0  0  0  0  0  0  0  0  0  0  0  # atno 6908 bound_to 6896
  151.7268  135.0884  160.0344 H   0  0  0  0  0  0  0  0  0  0  0  0  # atno 6909 bound_to 6896
  144.8097  140.5334  143.5651 H   0  0  0  0  0  0  0  0  0  0  0  0  # atno 7974 bound_to 7965
  154.5357  140.2270  155.8727 H   0  0  0  0  0  0  0  0  0  0  0  0  # atno 8008 bound_to 7997
  156.1809  140.3100  155.9109 H   0  0  0  0  0  0  0  0  0  0  0  0  # atno 8009 bound_to 7997
  155.3360  140.0448  157.3034 H   0  0  0  0  0  0  0  0  0  0  0  0  # atno 8010 bound_to 7997
  139.4839  144.5426  151.7538 H   0  0  0  0  0  0  0  0  0  0  0  0  # atno 10167 bound_to 10162
  156.9121  130.9913  151.3019 H   0  0  0  0  0  0  0  0  0  0  0  0  # atno 10718 bound_to 10713
  154.6045  135.5505  153.7408 H   0  0  0  0  0  0  0  0  0  0  0  0  # atno 10763 bound_to 10752
  153.0168  135.6374  154.1667 H   0  0  0  0  0  0  0  0  0  0  0  0  # atno 10764 bound_to 10752
  154.1606  135.2897  155.3089 H   0  0  0  0  0  0  0  0  0  0  0  0  # atno 10765 bound_to 10752
  140.0418  134.9301  157.0857 H   0  0  0  0  0  0  0  0  0  0  0  0  # atno 11005 bound_to 11000
  145.5353  139.1475  143.3477 LP  0  0  0  0  0  0  0  0  0  0  0  0  # atno 17320 bound_to 7965
  146.2394  140.5493  142.8940 LP  0  0  0  0  0  0  0  0  0  0  0  0  # atno 17321 bound_to 7965
  140.4968  144.1228  150.5962 LP  0  0  0  0  0  0  0  0  0  0  0  0  # atno 17342 bound_to 10162
  140.4108  143.2658  151.9835 LP  0  0  0  0  0  0  0  0  0  0  0  0  # atno 17343 bound_to 10162
  157.5961  130.8478  149.8731 LP  0  0  0  0  0  0  0  0  0  0  0  0  # atno 17370 bound_to 10713
  156.0531  130.3713  150.1155 LP  0  0  0  0  0  0  0  0  0  0  0  0  # atno 17371 bound_to 10713
  140.4057  134.2035  155.7163 LP  0  0  0  0  0  0  0  0  0  0  0  0  # atno 17394 bound_to 11000
  141.1887  133.8255  157.0985 LP  0  0  0  0  0  0  0  0  0  0  0  0  # atno 17395 bound_to 11000

$$$$
