AV-unprocessed.smi:1075|AV-procd|sdf|4696|dock2
  -GOLD-   22720 3213D 1   1.00000     0.00000
 Structure written by MMmdl.
 50 51  0  0  0  0  0  0  0  0  1 V2000
  148.5218  141.5489  153.8888 C   0  0  0  0  0  0  0  0  0  0  0  0
  149.4560  140.9031  154.8721 C   0  0  0  0  0  0  0  0  0  0  0  0
  150.3939  140.0842  154.4283 N   0  0  0  0  0  0  0  0  0  0  0  0
  151.0546  139.6872  155.5330 N   0  0  0  0  0  0  0  0  0  0  0  0
  152.1687  138.7685  155.3987 C   0  0  0  0  0  0  0  0  0  0  0  0
  150.5358  140.2596  156.6790 C   0  0  0  0  0  0  0  0  0  0  0  0
  151.1093  139.9788  158.0328 C   0  0  0  0  0  0  0  0  0  0  0  0
  149.4859  141.0542  156.2904 C   0  0  0  0  0  0  0  0  0  0  0  0
  148.5620  141.9192  157.1247 C   0  0  1  0  0  0  0  0  0  0  0  0
  147.2884  141.1640  157.5501 C   0  0  0  0  0  0  0  0  0  0  0  0
  149.3454  142.5078  158.3089 C   0  0  0  0  0  0  0  0  0  0  0  0
  148.8557  142.5291  159.4386 O   0  0  0  0  0  0  0  0  0  0  0  0
  150.5746  142.9726  158.0186 N   0  0  0  0  0  0  0  0  0  0  0  0
  151.5917  143.5163  158.9263 C   0  0  1  0  0  0  0  0  0  0  0  0
  152.5653  144.4247  158.1388 C   0  0  0  0  0  0  0  0  0  0  0  0
  150.8986  144.2815  160.0871 C   0  0  0  0  0  0  0  0  0  0  0  0
  151.8399  144.6040  161.2608 C   0  0  0  0  0  0  0  0  0  0  0  0
  152.5256  143.3411  161.8071 C   0  0  2  0  0  0  0  0  0  0  0  0
  153.4577  143.6684  162.9822 C   0  0  0  0  0  0  0  0  0  0  0  0
  153.2763  142.6202  160.6757 C   0  0  0  0  0  0  0  0  0  0  0  0
  152.3424  142.2875  159.4991 C   0  0  0  0  0  0  0  0  0  0  0  0
  148.4775  142.6272  154.0439 H   0  0  0  0  0  0  0  0  0  0  0  0
  147.5112  141.1547  153.9966 H   0  0  0  0  0  0  0  0  0  0  0  0
  148.8365  141.3783  152.8586 H   0  0  0  0  0  0  0  0  0  0  0  0
  153.0999  139.2880  155.6254 H   0  0  0  0  0  0  0  0  0  0  0  0
  152.2229  138.3728  154.3833 H   0  0  0  0  0  0  0  0  0  0  0  0
  152.0461  137.9368  156.0926 H   0  0  0  0  0  0  0  0  0  0  0  0
  150.9260  140.8038  158.7197 H   0  0  0  0  0  0  0  0  0  0  0  0
  152.1884  139.8324  157.9861 H   0  0  0  0  0  0  0  0  0  0  0  0
  150.6639  139.0800  158.4595 H   0  0  0  0  0  0  0  0  0  0  0  0
  148.2269  142.7742  156.5366 H   0  0  0  0  0  0  0  0  0  0  0  0
  147.5119  140.2925  158.1650 H   0  0  0  0  0  0  0  0  0  0  0  0
  146.7358  140.8169  156.6766 H   0  0  0  0  0  0  0  0  0  0  0  0
  146.6196  141.8083  158.1219 H   0  0  0  0  0  0  0  0  0  0  0  0
  150.8572  142.9021  157.0518 H   0  0  0  0  0  0  0  0  0  0  0  0
  153.3862  144.7788  158.7610 H   0  0  0  0  0  0  0  0  0  0  0  0
  152.0683  145.3111  157.7449 H   0  0  0  0  0  0  0  0  0  0  0  0
  153.0054  143.8932  157.2945 H   0  0  0  0  0  0  0  0  0  0  0  0
  150.4539  145.2091  159.7260 H   0  0  0  0  0  0  0  0  0  0  0  0
  150.0704  143.6822  160.4696 H   0  0  0  0  0  0  0  0  0  0  0  0
  152.5913  145.3279  160.9437 H   0  0  0  0  0  0  0  0  0  0  0  0
  151.2708  145.0879  162.0553 H   0  0  0  0  0  0  0  0  0  0  0  0
  151.7500  142.6697  162.1792 H   0  0  0  0  0  0  0  0  0  0  0  0
  154.2616  144.3391  162.6768 H   0  0  0  0  0  0  0  0  0  0  0  0
  153.9138  142.7637  163.3850 H   0  0  0  0  0  0  0  0  0  0  0  0
  152.9118  144.1507  163.7933 H   0  0  0  0  0  0  0  0  0  0  0  0
  154.1087  143.2340  160.3305 H   0  0  0  0  0  0  0  0  0  0  0  0
  153.7187  141.6984  161.0549 H   0  0  0  0  0  0  0  0  0  0  0  0
  151.6155  141.5516  159.8479 H   0  0  0  0  0  0  0  0  0  0  0  0
  152.9107  141.7919  158.7107 H   0  0  0  0  0  0  0  0  0  0  0  0
  1  2  1  0  0  0  0
  1 22  1  0  0  0  0
  1 23  1  0  0  0  0
  1 24  1  0  0  0  0
  2  8  1  0  0  0  0
  2  3  2  0  0  0  0
  3  4  1  0  0  0  0
  4  5  1  0  0  0  0
  4  6  1  0  0  0  0
  5 25  1  0  0  0  0
  5 26  1  0  0  0  0
  5 27  1  0  0  0  0
  6  7  1  0  0  0  0
  6  8  2  0  0  0  0
  7 28  1  0  0  0  0
  7 29  1  0  0  0  0
  7 30  1  0  0  0  0
  8  9  1  0  0  0  0
  9 10  1  0  0  0  0
  9 11  1  0  0  0  0
  9 31  1  0  0  0  0
 10 32  1  0  0  0  0
 10 33  1  0  0  0  0
 10 34  1  0  0  0  0
 11 12  2  0  0  0  0
 11 13  1  0  0  0  0
 13 14  1  0  0  0  0
 13 35  1  0  0  0  0
 14 21  1  0  0  0  0
 14 15  1  0  0  0  0
 14 16  1  0  0  0  0
 15 36  1  0  0  0  0
 15 37  1  0  0  0  0
 15 38  1  0  0  0  0
 16 17  1  0  0  0  0
 16 39  1  0  0  0  0
 16 40  1  0  0  0  0
 17 18  1  0  0  0  0
 17 41  1  0  0  0  0
 17 42  1  0  0  0  0
 18 19  1  0  0  0  0
 18 20  1  0  0  0  0
 18 43  1  0  0  0  0
 19 44  1  0  0  0  0
 19 45  1  0  0  0  0
 19 46  1  0  0  0  0
 20 21  1  0  0  0  0
 20 47  1  0  0  0  0
 20 48  1  0  0  0  0
 21 49  1  0  0  0  0
 21 50  1  0  0  0  0
M  END
> <s_m_source_file>
AV-unprocessed.smi

> <i_m_source_file_index>
1075

> <i_lp_mmshare_version>
43012

> <i_f3d_flags>
0

> <s_epik_input>
W0NIM11jMW5uKFtDSDNdKWMoW0NIM10pYzFbQ0BIXShbQ0gzXSlDKD1PKVtOSF1bQ0BAXTIoW0NIM10pW0NIMl1bQ0gyXVtDQEBIXShbQ0gzXSlbQ0gyXVtDSDJdMg==

> <s_epik_cmdline>
J2VwaWtfcHl0aG9uJywgJy1waCcsICc3LjAnLCAnLXRuJywgJzgnLCAnLW1hJywgJzIwMCcsICctbWV0YWxfYmluZGluZycsICctaW1hZScsICc8aW5maWxlLm1hZT4nLCAnLW9tYWUnLCAnPG91dGZpbGUubWFlPic=

> <r_lp_tautomer_probability>
1

> <r_epik_Ionization_Penalty>
0.00502928

> <r_epik_Ionization_Penalty_Charging>
0

> <r_epik_Ionization_Penalty_Neutral>
0.00502928

> <r_epik_State_Penalty>
0.0036576

> <r_epik_Charging_Adjusted_Penalty>
0.0036576

> <i_epik_Tot_Q>
0

> <i_epik_Tot_abs_Q>
0

> <r_epik_Metal_State_Penalty>
-0

> <b_epik_Metal_Only>
0

> <s_lp_Force_Field>
OPLS_2005

> <r_lp_Energy>
7.42101

> <b_lp_Chiralities_Consistent>
1

> <s_lp_Variant>
AV-unprocessed.smi:1075-4

> <Gold.Version>
5.8.1

> <Gold.Id.Protein>
6NUR|6NUR_protein|mol2

> <Gold.PLP.Fitness>
46.1283

> <Gold.PLP.PLP>
-45.5752

> <Gold.PLP.part.hbond>
-2.3409

> <Gold.PLP.part.metal>
0.0000

> <Gold.PLP.part.buried>
-0.1179

> <Gold.PLP.part.nonpolar>
-43.1450

> <Gold.PLP.part.repulsive>
0.2287

> <Gold.PLP.ligand.clash>
0.0000

> <Gold.PLP.ligand.torsion>
1.5576

> <Gold.PLP.Chemscore.Hbond>
1.1920

> <Gold.PLP.Chemscore.CHOScore>
0.0000

> <Gold.PLP.Chemscore.Metal>
0.0000

> <Gold.Chemscore.Hbonds>
donor molecule, donor type, donor heavy atom, donor atom, acceptor molecule, acceptor atom, score
      P1  H  6933  6944       L1    12  0.14
      P1  H  7989  7998       L1     3  1.00

> <Gold.PLP.Chemscore.Internal.Correction>
0.0923

> <Gold.Rescore>
     Score         DG    S(hbond)    S(metal)    S(lipo)     H(rot)  DE(clash)    DE(int)     intcor
     14.70     -19.17       0.45        0.00     131.26       1.23       1.57       2.89       ----

> <Gold.Chemscore.Fitness>
14.7049

> <Gold.Chemscore.DG>
-19.1747

> <Gold.Chemscore.ZeroCoef>
-5.4800

> <Gold.Chemscore.Hbond>
0.4464

> <Gold.Chemscore.Metal>
0.0000

> <Gold.Chemscore.Lipo>
131.2626

> <Gold.Chemscore.Internal_Hbond>
0.0000

> <Gold.Chemscore.DEClash>
1.5749

> <Gold.Chemscore.DEInternal>
2.8949

> <Gold.Chemscore.Rot>
1.2321

> <Gold.Chemscore.Internal.Correction>
   9.000000E+99

> <Gold.Chemscore.Hbonds>
donor molecule, donor type, donor heavy atom, donor atom, acceptor molecule, acceptor atom, score
      P1  H  6933  6944       L1    12  0.16
      P1  H  7989  7998       L1     3  0.39

> <Gold.Chemscore.Hbond.Weighted>
-1.4910

> <Gold.Chemscore.Metal.Weighted>
-0.0000

> <Gold.Chemscore.Lipo.Weighted>
-15.3577

> <Gold.Chemscore.Internal_Hbond.Weighted>
0.0000

> <Gold.Chemscore.DEClash.Weighted>
1.5749

> <Gold.Chemscore.DEInternal.Weighted>
2.8949

> <Gold.Chemscore.Rot.Weighted>
3.1541

> <Gold.Chemscore.Internal.Correction.Weighted>
   9.000000E+99

> <Gold.Protein.RotatedTorsions>
[ 6907 6896 6895 6894 ] final   72.51 input  -60.11 | X-H torsion
[ 7974 7965 7964 7962 ] final -137.96 input  175.53 | X-H torsion
[ 8008 7997 7996 7995 ] final   12.87 input   59.86 | X-H torsion
[ 10167 10162 10161 10158 ] final   85.02 input  -65.29 | X-H torsion
[ 10718 10713 10712 10709 ] final  -38.80 input   66.30 | X-H torsion
[ 10763 10752 10751 10750 ] final   29.05 input  -60.55 | X-H torsion
[ 11005 11000 10999 10996 ] final  -19.29 input  -57.11 | X-H torsion

> <Gold.Protein.ActiveResidues>
 VAL166  LYS551  ARG553  GLY616  TRP617  ASP618  TYR619  PRO620  LYS621  CYS622 
 ASP623  PHE694  ASN695  SER759  ASP760  ASP761  ALA762  ILE779  LEU786  VAL792 
 PHE793  MET794  SER795  GLU796  ALA797  LYS798  CYS799  TRP800  GLU811  SER814 

> <Gold.Protein.RotatedAtoms>
  152.4872  134.4561  159.9589 H   0  0  0  0  0  0  0  0  0  0  0  0  # atno 6907 bound_to 6896
  151.4555  133.3600  159.2809 H   0  0  0  0  0  0  0  0  0  0  0  0  # atno 6908 bound_to 6896
  150.8992  134.8428  159.7409 H   0  0  0  0  0  0  0  0  0  0  0  0  # atno 6909 bound_to 6896
  144.8798  140.6491  143.5213 H   0  0  0  0  0  0  0  0  0  0  0  0  # atno 7974 bound_to 7965
  154.8265  140.2892  155.5751 H   0  0  0  0  0  0  0  0  0  0  0  0  # atno 8008 bound_to 7997
  156.3002  140.2540  156.3113 H   0  0  0  0  0  0  0  0  0  0  0  0  # atno 8009 bound_to 7997
  154.9279  140.0384  157.2022 H   0  0  0  0  0  0  0  0  0  0  0  0  # atno 8010 bound_to 7997
  139.9020  144.6324  150.8627 H   0  0  0  0  0  0  0  0  0  0  0  0  # atno 10167 bound_to 10162
  156.2996  130.4238  149.8156 H   0  0  0  0  0  0  0  0  0  0  0  0  # atno 10718 bound_to 10713
  153.0454  135.6498  154.0831 H   0  0  0  0  0  0  0  0  0  0  0  0  # atno 10763 bound_to 10752
  154.0530  135.2894  155.3339 H   0  0  0  0  0  0  0  0  0  0  0  0  # atno 10764 bound_to 10752
  154.6708  135.5357  153.8201 H   0  0  0  0  0  0  0  0  0  0  0  0  # atno 10765 bound_to 10752
  140.8352  133.7967  155.9801 H   0  0  0  0  0  0  0  0  0  0  0  0  # atno 11005 bound_to 11000
  145.3975  139.1604  143.4195 LP  0  0  0  0  0  0  0  0  0  0  0  0  # atno 17320 bound_to 7965
  146.2987  140.4069  142.8712 LP  0  0  0  0  0  0  0  0  0  0  0  0  # atno 17321 bound_to 7965
  140.7705  143.3430  151.2169 LP  0  0  0  0  0  0  0  0  0  0  0  0  # atno 17342 bound_to 10162
  139.7017  143.9522  152.2908 LP  0  0  0  0  0  0  0  0  0  0  0  0  # atno 17343 bound_to 10162
  156.5539  130.8354  151.3308 LP  0  0  0  0  0  0  0  0  0  0  0  0  # atno 17370 bound_to 10713
  157.7364  130.9779  150.2137 LP  0  0  0  0  0  0  0  0  0  0  0  0  # atno 17371 bound_to 10713
  140.8955  134.2443  157.5071 LP  0  0  0  0  0  0  0  0  0  0  0  0  # atno 17394 bound_to 11000
  139.8704  134.9682  156.4622 LP  0  0  0  0  0  0  0  0  0  0  0  0  # atno 17395 bound_to 11000

$$$$
