#       Name:                AV-unprocessed.smi:212
#       Creating user name   scv26
#       Creation time:       Thu Mar 26 19:54:49 2020


#       File generated by GOLD software.
#

@<TRIPOS>MOLECULE
AV-unprocessed.smi:212
    74    77     1
SMALL
NO_CHARGES


@<TRIPOS>ATOM
      1 ****        -3.2242  -0.6872  -0.8503 C.3            1 S1                 0.0000
      2 ****        -1.9183   0.0976  -1.0607 C.3            1 S1                 0.0000
      3 ****        -2.0944   1.2654  -2.0540 C.3            1 S1                 0.0000
      4 ****        -2.8791   2.3765  -1.4554 N.4            1 S1                 1.0000
      5 ****        -3.1956   3.4627  -2.4191 C.3            1 S1                 0.0000
      6 ****        -4.6937   3.4872  -2.7993 C.3            1 S1                 0.0000
      7 ****        -4.9830   4.6642  -3.7457 C.3            1 S1                 0.0000
      8 ****        -5.1715   2.1668  -3.4311 C.3            1 S1                 0.0000
      9 ****        -5.4463   3.7138  -1.6234 O.3            1 S1                 0.0000
     10 ****        -2.2814   2.8679  -0.1889 C.3            1 S1                 0.0000
     11 ****        -2.0919   1.7144   0.8137 C.3            1 S1                 0.0000
     12 ****        -1.3737   0.5920   0.2068 N.pl3          1 S1                 0.0000
     13 ****        -0.0217   0.5371   0.3326 C.ar           1 S1                 0.0000
     14 ****         0.6882   1.6786   0.5375 N.ar           1 S1                 0.0000
     15 ****         2.0193   1.6366   0.6451 C.ar           1 S1                 0.0000
     16 ****         2.8276   0.5775   0.5826 N.ar           1 S1                 0.0000
     17 ****         2.1221  -0.5730   0.3904 C.ar           1 S1                 0.0000
     18 ****         0.7094  -0.6819   0.2539 C.ar           1 S1                 0.0000
     19 ****         0.3532  -2.0135   0.0751 N.2            1 S1                 0.0000
     20 ****         1.4900  -2.6540   0.0963 C.2            1 S1                 0.0000
     21 ****         2.6023  -1.8677   0.2972 N.pl3          1 S1                 0.0000
     22 ****         3.9830  -2.3122   0.3547 C.3            1 S1                 0.0000
     23 ****         4.6874  -2.0939   1.7239 C.3            1 S1                 0.0000
     24 ****         6.1761  -2.4926   1.6170 C.3            1 S1                 0.0000
     25 ****         6.8690  -1.6565   0.7134 O.3            1 S1                 0.0000
     26 ****         4.0444  -2.7952   2.9568 C.3            1 S1                 0.0000
     27 ****         3.6330  -4.2466   2.7943 C.3            1 S1                 0.0000
     28 ****         2.7605  -4.4705   4.0293 C.3            1 S1                 0.0000
     29 ****         2.2645  -3.1894   4.4148 O.3            1 S1                 0.0000
     30 ****         2.7716  -2.1844   3.5447 C.3            1 S1                 0.0000
     31 ****        -3.5835  -1.1031  -1.7919 H              1 S1                 0.0000
     32 ****        -4.0191  -0.0619  -0.4435 H              1 S1                 0.0000
     33 ****        -3.0702  -1.5197  -0.1630 H              1 S1                 0.0000
     34 ****        -1.2136  -0.5963  -1.5184 H              1 S1                 0.0000
     35 ****        -1.1149   1.6455  -2.3489 H              1 S1                 0.0000
     36 ****        -2.5775   0.9102  -2.9649 H              1 S1                 0.0000
     37 ****        -2.9170   4.4295  -1.9960 H              1 S1                 0.0000
     38 ****        -2.5858   3.3570  -3.3180 H              1 S1                 0.0000
     39 ****        -4.4355   4.5600  -4.6830 H              1 S1                 0.0000
     40 ****        -4.6921   5.6163  -3.2999 H              1 S1                 0.0000
     41 ****        -6.0438   4.7278  -3.9916 H              1 S1                 0.0000
     42 ****        -4.6000   1.9315  -4.3295 H              1 S1                 0.0000
     43 ****        -6.2226   2.2216  -3.7162 H              1 S1                 0.0000
     44 ****        -5.0690   1.3263  -2.7441 H              1 S1                 0.0000
     45 ****        -6.3602   3.7752  -1.8573 H              1 S1                 0.0000
     46 ****        -1.3253   3.3468  -0.4041 H              1 S1                 0.0000
     47 ****        -2.9265   3.6293   0.2514 H              1 S1                 0.0000
     48 ****        -1.5827   2.0663   1.7118 H              1 S1                 0.0000
     49 ****        -3.0657   1.3570   1.1486 H              1 S1                 0.0000
     50 ****         2.5070   2.5871   0.8040 H              1 S1                 0.0000
     51 ****         1.5460  -3.7258  -0.0272 H              1 S1                 0.0000
     52 ****         4.0254  -3.3630   0.0676 H              1 S1                 0.0000
     53 ****         4.5160  -1.7724  -0.4283 H              1 S1                 0.0000
     54 ****         4.6719  -1.0251   1.9410 H              1 S1                 0.0000
     55 ****         6.6728  -2.4046   2.5836 H              1 S1                 0.0000
     56 ****         6.2776  -3.5307   1.2990 H              1 S1                 0.0000
     57 ****         7.7756  -1.9226   0.6918 H              1 S1                 0.0000
     58 ****         4.7738  -2.7599   3.7680 H              1 S1                 0.0000
     59 ****         3.0303  -4.3896   1.8987 H              1 S1                 0.0000
     60 ****         4.4805  -4.9307   2.7469 H              1 S1                 0.0000
     61 ****         1.9440  -5.1655   3.8317 H              1 S1                 0.0000
     62 ****         3.3537  -4.8719   4.8515 H              1 S1                 0.0000
     63 ****         2.9620  -1.2543   4.0807 H              1 S1                 0.0000
     64 ****         2.0105  -1.9893   2.7947 H              1 S1                 0.0000
     65 ****        -3.7717   1.9808  -1.1958 H              1 S1                 0.0000
     66 ****        -5.1506   4.5668  -1.1933 LP             1 S1                 0.0000
     67 ****        -5.3119   2.9551  -0.9860 LP             1 S1                 0.0000
     68 ****         0.2113   2.5546   0.6080 LP             1 S1                 0.0000
     69 ****         3.8232   0.6217   0.6660 LP             1 S1                 0.0000
     70 ****        -0.5641  -2.3937  -0.0428 LP             1 S1                 0.0000
     71 ****         6.8040  -0.7057   1.0163 LP             1 S1                 0.0000
     72 ****         6.4704  -1.7434  -0.1996 LP             1 S1                 0.0000
     73 ****         2.5531  -2.9917   5.3516 LP             1 S1                 0.0000
     74 ****         1.2657  -3.1940   4.3676 LP             1 S1                 0.0000
@<TRIPOS>BOND
    1    1    2 1     
    2    1   31 1     
    3    1   32 1     
    4    1   33 1     
    5    2   12 1     
    6    2    3 1     
    7    2   34 1     
    8    3    4 1     
    9    3   35 1     
   10    3   36 1     
   11    4    5 1     
   12    4   10 1     
   13    4   65 1     
   14    5    6 1     
   15    5   37 1     
   16    5   38 1     
   17    6    7 1     
   18    6    8 1     
   19    6    9 1     
   20    7   39 1     
   21    7   40 1     
   22    7   41 1     
   23    8   42 1     
   24    8   43 1     
   25    8   44 1     
   26    9   45 1     
   27   10   11 1     
   28   10   46 1     
   29   10   47 1     
   30   11   12 1     
   31   11   48 1     
   32   11   49 1     
   33   12   13 1     
   34   13   18 ar    
   35   13   14 ar    
   36   14   15 ar    
   37   15   16 ar    
   38   15   50 1     
   39   16   17 ar    
   40   17   21 1     
   41   17   18 ar    
   42   18   19 1     
   43   19   20 2     
   44   20   21 1     
   45   20   51 1     
   46   21   22 1     
   47   22   23 1     
   48   22   52 1     
   49   22   53 1     
   50   23   24 1     
   51   23   26 1     
   52   23   54 1     
   53   24   25 1     
   54   24   55 1     
   55   24   56 1     
   56   25   57 1     
   57   26   30 1     
   58   26   27 1     
   59   26   58 1     
   60   27   28 1     
   61   27   59 1     
   62   27   60 1     
   63   28   29 1     
   64   28   61 1     
   65   28   62 1     
   66   29   30 1     
   67   30   63 1     
   68   30   64 1     
   69    9   66 1     
   70    9   67 1     
   71   14   68 1     
   72   16   69 1     
   73   19   70 1     
   74   25   71 1     
   75   25   72 1     
   76   29   73 1     
   77   29   74 1     
@<TRIPOS>SUBSTRUCTURE
      1 S1             1
@<TRIPOS>SET
LONE_PAIRS      STATIC     ATOMS    <user>   **** ""
9 66 67 68 69 70 71 72 73 74
DONOR_HYDROGENS      STATIC     ATOMS    <user>   **** ""
3 65 45 57
ATOM$BLUE        STATIC     ATOMS    COLORGROUP SYSTEM
9 66 67 68 69 70 71 72 73 74
ATOM$RED        STATIC     ATOMS    COLORGROUP SYSTEM
3 65 45 57
