#       Name:                AV-unprocessed.smi:2527
#       Creating user name   scv26
#       Creation time:       Fri Mar 27 13:58:54 2020


#       File generated by GOLD software.
#

@<TRIPOS>MOLECULE
AV-unprocessed.smi:2527
    42    44     1
SMALL
NO_CHARGES


@<TRIPOS>ATOM
      1 ****        -1.8358   3.7456   1.5327 C.3            1 S1                 0.0000
      2 ****        -1.5619   2.3808   1.7954 O.3            1 S1                 0.0000
      3 ****        -2.3000   1.5067   0.9566 C.3            1 S1                 0.0000
      4 ****        -1.9456   0.0481   1.2792 C.3            1 S1                 0.0000
      5 ****        -0.5177  -0.2356   1.0738 N.pl3          1 S1                 0.0000
      6 ****         0.1464  -0.6277  -0.0492 C.2            1 S1                 0.0000
      7 ****        -0.5696  -0.9177  -1.6346 S.3            1 S1                 0.0000
      8 ****         0.8182  -1.3143  -2.7325 C.3            1 S1                 0.0000
      9 ****         0.4041  -1.6754  -4.1292 C.2            1 S1                 0.0000
     10 ****         0.2294  -2.9849  -4.4495 N.pl3          1 S1                -1.0000
     11 ****        -0.1359  -2.9508  -5.7436 C.2            1 S1                 0.0000
     12 ****        -0.4123  -3.8750  -6.5051 O.2            1 S1                 0.0000
     13 ****        -0.1541  -1.6657  -6.1050 N.am           1 S1                 0.0000
     14 ****         0.1861  -0.8558  -5.0886 N.2            1 S1                 0.0000
     15 ****         1.4638  -0.7519   0.2722 N.pl3          1 S1                 1.0000
     16 ****         1.6476  -0.4302   1.6182 C.ar           1 S1                 0.0000
     17 ****         2.7990  -0.4043   2.3991 C.ar           1 S1                 0.0000
     18 ****         2.6430  -0.0236   3.7484 C.ar           1 S1                 0.0000
     19 ****         4.0274   0.0337   4.7760 Cl             1 S1                 0.0000
     20 ****         1.3774   0.3128   4.2720 C.ar           1 S1                 0.0000
     21 ****         0.2164   0.2823   3.4719 C.ar           1 S1                 0.0000
     22 ****         0.3796  -0.0964   2.1394 C.ar           1 S1                 0.0000
     23 ****        -0.3872  -1.2789  -7.0077 H              1 S1                 0.0000
     24 ****        -1.2473   4.3728   2.2022 H              1 S1                 0.0000
     25 ****        -2.8897   3.9751   1.6953 H              1 S1                 0.0000
     26 ****        -1.5740   4.0094   0.5072 H              1 S1                 0.0000
     27 ****        -3.3694   1.6667   1.1008 H              1 S1                 0.0000
     28 ****        -2.0775   1.7183  -0.0907 H              1 S1                 0.0000
     29 ****        -2.2204  -0.2064   2.3027 H              1 S1                 0.0000
     30 ****        -2.5128  -0.6244   0.6351 H              1 S1                 0.0000
     31 ****         1.4887  -0.4549  -2.7608 H              1 S1                 0.0000
     32 ****         1.3865  -2.1328  -2.2886 H              1 S1                 0.0000
     33 ****         3.7688  -0.6601   1.9981 H              1 S1                 0.0000
     34 ****         1.2937   0.6020   5.3096 H              1 S1                 0.0000
     35 ****        -0.7457   0.5483   3.8839 H              1 S1                 0.0000
     36 ****         2.1798  -1.0362  -0.3839 H              1 S1                 0.0000
     37 ****        -1.7955   2.1845   2.7477 LP             1 S1                 0.0000
     38 ****        -0.5862   2.2160   1.6507 LP             1 S1                 0.0000
     39 ****         0.3453  -3.7853  -3.8614 LP             1 S1                 0.0000
     40 ****        -0.3807  -4.8193  -6.1775 LP             1 S1                 0.0000
     41 ****        -0.6688  -3.6827  -7.4523 LP             1 S1                 0.0000
     42 ****         0.2528   0.1420  -5.0827 LP             1 S1                 0.0000
@<TRIPOS>BOND
    1    1    2 1     
    2    1   24 1     
    3    1   25 1     
    4    1   26 1     
    5    2    3 1     
    6    3    4 1     
    7    3   27 1     
    8    3   28 1     
    9    4    5 1     
   10    4   29 1     
   11    4   30 1     
   12    5   22 1     
   13    5    6 1     
   14    6    7 1     
   15    6   15 2     
   16    7    8 1     
   17    8   31 1     
   18    8   32 1     
   19    8    9 1     
   20    9   14 2     
   21    9   10 1     
   22   10   11 1     
   23   11   13 am    
   24   11   12 2     
   25   13   14 1     
   26   13   23 1     
   27   15   16 1     
   28   15   36 1     
   29   16   22 ar    
   30   16   17 ar    
   31   17   18 ar    
   32   17   33 1     
   33   18   19 1     
   34   18   20 ar    
   35   20   21 ar    
   36   20   34 1     
   37   21   22 ar    
   38   21   35 1     
   39    2   37 1     
   40    2   38 1     
   41   10   39 1     
   42   12   40 1     
   43   12   41 1     
   44   14   42 1     
@<TRIPOS>SUBSTRUCTURE
      1 S1             1
@<TRIPOS>SET
LONE_PAIRS      STATIC     ATOMS    <user>   **** ""
6 37 38 39 40 41 42
DONOR_HYDROGENS      STATIC     ATOMS    <user>   **** ""
2 23 36
ATOM$BLUE        STATIC     ATOMS    COLORGROUP SYSTEM
6 37 38 39 40 41 42
ATOM$RED        STATIC     ATOMS    COLORGROUP SYSTEM
2 23 36
