AV-unprocessed.smi:215|AV-procd|sdf|1652|dock2
  -GOLD-   2262020 33D 1   1.00000     0.00000
 Structure written by MMmdl.
 59 62  0  0  0  0  0  0  0  0  2 V2000
  149.4986  126.8001  155.0083 C   0  0  0  0  0  0  0  0  0  0  0  0
  150.3726  127.8431  154.2770 C   0  0  2  0  0  0  0  0  0  0  0  0
  151.8417  127.8958  154.7693 C   0  0  1  0  0  0  0  0  0  0  0  0
  152.7970  126.9876  154.0623 N   0  3  2  0  0  0  0  0  0  0  0  0
  152.4674  125.5439  154.1435 C   0  0  0  0  0  0  0  0  0  0  0  0
  154.2164  127.2400  154.4335 C   0  0  0  0  0  0  0  0  0  0  0  0
  154.3761  127.5097  155.9387 C   0  0  0  0  0  0  0  0  0  0  0  0
  153.9376  126.3905  156.6798 O   0  0  0  0  0  0  0  0  0  0  0  0
  152.2035  129.3712  154.5372 C   0  0  0  0  0  0  0  0  0  0  0  0
  150.9075  130.1305  154.7940 C   0  0  0  0  0  0  0  0  0  0  0  0
  149.8394  129.1864  154.5101 N   0  0  0  0  0  0  0  0  0  0  0  0
  148.7256  129.6442  153.8781 C   0  0  0  0  0  0  0  0  0  0  0  0
  147.7601  128.7645  153.5013 N   0  0  0  0  0  0  0  0  0  0  0  0
  146.6584  129.1916  152.8782 C   0  0  0  0  0  0  0  0  0  0  0  0
  146.3230  130.4367  152.5386 N   0  0  0  0  0  0  0  0  0  0  0  0
  147.2829  131.3286  152.9163 C   0  0  0  0  0  0  0  0  0  0  0  0
  148.5018  131.0215  153.5860 C   0  0  0  0  0  0  0  0  0  0  0  0
  149.2135  132.1917  153.8232 N   0  0  0  0  0  0  0  0  0  0  0  0
  148.4609  133.1333  153.3227 C   0  0  0  0  0  0  0  0  0  0  0  0
  147.2882  132.7024  152.7431 N   0  0  0  0  0  0  0  0  0  0  0  0
  146.2647  133.5121  152.1441 C   0  0  0  0  0  0  0  0  0  0  0  0
  146.5811  134.6132  151.1275 C   0  0  0  0  0  0  0  0  0  0  0  0
  145.3794  135.4294  151.6596 C   0  0  0  0  0  0  0  0  0  0  0  0
  145.6361  136.9421  151.7789 C   0  0  0  0  0  0  0  0  0  0  0  0
  146.3041  137.4540  150.6442 O   0  0  0  0  0  0  0  0  0  0  0  0
  144.0703  135.1968  150.8750 C   0  0  0  0  0  0  0  0  0  0  0  0
  144.1386  135.7011  149.5572 O   0  0  0  0  0  0  0  0  0  0  0  0
  145.5632  134.6012  152.9532 C   0  0  0  0  0  0  0  0  0  0  0  0
  150.3673  127.6515  153.2030 H   0  0  0  0  0  0  0  0  0  0  0  0
  151.8653  127.6865  155.8407 H   0  0  0  0  0  0  0  0  0  0  0  0
  149.8433  125.7794  154.8624 H   0  0  0  0  0  0  0  0  0  0  0  0
  148.4665  126.8312  154.6596 H   0  0  0  0  0  0  0  0  0  0  0  0
  149.4824  126.9879  156.0824 H   0  0  0  0  0  0  0  0  0  0  0  0
  152.4232  125.2109  155.1811 H   0  0  0  0  0  0  0  0  0  0  0  0
  153.2165  124.9386  153.6340 H   0  0  0  0  0  0  0  0  0  0  0  0
  151.5166  125.3256  153.6584 H   0  0  0  0  0  0  0  0  0  0  0  0
  154.8577  126.4005  154.1671 H   0  0  0  0  0  0  0  0  0  0  0  0
  154.5956  128.0858  153.8578 H   0  0  0  0  0  0  0  0  0  0  0  0
  155.4251  127.6871  156.1769 H   0  0  0  0  0  0  0  0  0  0  0  0
  153.8255  128.3953  156.2551 H   0  0  0  0  0  0  0  0  0  0  0  0
  154.3996  126.3722  157.5044 H   0  0  0  0  0  0  0  0  0  0  0  0
  153.0129  129.7299  155.1730 H   0  0  0  0  0  0  0  0  0  0  0  0
  152.5049  129.5214  153.4993 H   0  0  0  0  0  0  0  0  0  0  0  0
  150.8378  130.4315  155.8398 H   0  0  0  0  0  0  0  0  0  0  0  0
  150.8528  131.0281  154.1764 H   0  0  0  0  0  0  0  0  0  0  0  0
  145.9441  128.4263  152.6122 H   0  0  0  0  0  0  0  0  0  0  0  0
  148.7449  134.1741  153.3705 H   0  0  0  0  0  0  0  0  0  0  0  0
  145.5313  132.8227  151.7221 H   0  0  0  0  0  0  0  0  0  0  0  0
  147.5400  135.1018  151.3063 H   0  0  0  0  0  0  0  0  0  0  0  0
  146.4969  134.3006  150.0861 H   0  0  0  0  0  0  0  0  0  0  0  0
  144.6978  137.4887  151.8756 H   0  0  0  0  0  0  0  0  0  0  0  0
  146.2203  137.1773  152.6690 H   0  0  0  0  0  0  0  0  0  0  0  0
  145.6867  137.9500  150.1290 H   0  0  0  0  0  0  0  0  0  0  0  0
  143.8221  134.1360  150.8303 H   0  0  0  0  0  0  0  0  0  0  0  0
  143.2257  135.6814  151.3650 H   0  0  0  0  0  0  0  0  0  0  0  0
  144.0911  136.6441  149.5929 H   0  0  0  0  0  0  0  0  0  0  0  0
  144.6390  134.2797  153.4342 H   0  0  0  0  0  0  0  0  0  0  0  0
  146.2295  135.0812  153.6727 H   0  0  0  0  0  0  0  0  0  0  0  0
  152.7215  127.2339  153.0850 H   0  0  0  0  0  0  0  0  0  0  0  0
  1  2  1  0  0  0  0
  1 31  1  0  0  0  0
  1 32  1  0  0  0  0
  1 33  1  0  0  0  0
  2 29  1  0  0  0  0
  2 11  1  0  0  0  0
  2  3  1  0  0  0  0
  3 30  1  0  0  0  0
  3  4  1  0  0  0  0
  3  9  1  0  0  0  0
  4  5  1  0  0  0  0
  4  6  1  0  0  0  0
  4 59  1  0  0  0  0
  5 34  1  0  0  0  0
  5 35  1  0  0  0  0
  5 36  1  0  0  0  0
  6  7  1  0  0  0  0
  6 37  1  0  0  0  0
  6 38  1  0  0  0  0
  7  8  1  0  0  0  0
  7 39  1  0  0  0  0
  7 40  1  0  0  0  0
  8 41  1  0  0  0  0
  9 10  1  0  0  0  0
  9 42  1  0  0  0  0
  9 43  1  0  0  0  0
 10 11  1  0  0  0  0
 10 44  1  0  0  0  0
 10 45  1  0  0  0  0
 11 12  1  0  0  0  0
 12 17  1  0  0  0  0
 12 13  2  0  0  0  0
 13 14  1  0  0  0  0
 14 15  2  0  0  0  0
 14 46  1  0  0  0  0
 15 16  1  0  0  0  0
 16 20  1  0  0  0  0
 16 17  2  0  0  0  0
 17 18  1  0  0  0  0
 18 19  2  0  0  0  0
 19 20  1  0  0  0  0
 19 47  1  0  0  0  0
 20 21  1  0  0  0  0
 21 28  1  0  0  0  0
 21 22  1  0  0  0  0
 21 48  1  0  0  0  0
 22 23  1  0  0  0  0
 22 49  1  0  0  0  0
 22 50  1  0  0  0  0
 23 24  1  0  0  0  0
 23 26  1  0  0  0  0
 23 28  1  0  0  0  0
 24 25  1  0  0  0  0
 24 51  1  0  0  0  0
 24 52  1  0  0  0  0
 25 53  1  0  0  0  0
 26 27  1  0  0  0  0
 26 54  1  0  0  0  0
 26 55  1  0  0  0  0
 27 56  1  0  0  0  0
 28 57  1  0  0  0  0
 28 58  1  0  0  0  0
M  CHG  1   4   1
M  END
> <s_m_source_file>
AV-unprocessed.smi

> <i_m_source_file_index>
215

> <i_lp_mmshare_version>
43012

> <i_f3d_flags>
0

> <s_epik_input>
W09IXVtDSDJdW0NIMl1OKFtDSDNdKVtDQEBIXShbQ0BIXTFbQ0gzXSlbQ0gyXVtDSDJdTjFjKG5bY0hdbjIpYyhjMjMpbltjSF1uM1tDSF0oW0NIMl00KVtDSDJdQzQoW0NIMl1bT0hdKVtDSDJdW09IXQ==

> <s_epik_cmdline>
J2VwaWtfcHl0aG9uJywgJy1waCcsICc3LjAnLCAnLXRuJywgJzgnLCAnLW1hJywgJzIwMCcsICctbWV0YWxfYmluZGluZycsICctaW1hZScsICc8aW5maWxlLm1hZT4nLCAnLW9tYWUnLCAnPG91dGZpbGUubWFlPic=

> <r_lp_tautomer_probability>
1

> <r_epik_Ionization_Penalty>
0.0036237

> <r_epik_Ionization_Penalty_Charging>
0.0032725

> <r_epik_Ionization_Penalty_Neutral>
0.000351196

> <r_epik_State_Penalty>
-0

> <r_epik_Charging_Adjusted_Penalty>
0.0032725

> <i_epik_Tot_Q>
1

> <i_epik_Tot_abs_Q>
1

> <r_epik_Metal_State_Penalty>
-0

> <b_epik_Metal_Only>
0

> <s_lp_Force_Field>
OPLS_2005

> <r_lp_Energy>
64.69

> <b_lp_Chiralities_Consistent>
1

> <s_lp_Variant>
AV-unprocessed.smi:215-3

> <Gold.Version>
5.8.1

> <Gold.Id.Protein>
6NUR|6NUR_protein|mol2

> <Gold.PLP.Fitness>
51.0045

> <Gold.PLP.PLP>
-38.1166

> <Gold.PLP.part.hbond>
-5.7469

> <Gold.PLP.part.metal>
0.0000

> <Gold.PLP.part.buried>
-1.5505

> <Gold.PLP.part.nonpolar>
-30.9542

> <Gold.PLP.part.repulsive>
0.3501

> <Gold.PLP.ligand.clash>
0.0000

> <Gold.PLP.ligand.torsion>
1.2074

> <Gold.PLP.Chemscore.Hbond>
3.9600

> <Gold.PLP.Chemscore.CHOScore>
0.8414

> <Gold.PLP.Chemscore.Metal>
0.0000

> <Gold.Chemscore.Hbonds>
donor molecule, donor type, donor heavy atom, donor atom, acceptor molecule, acceptor atom, score
      L1  H     4    59       P1 10737  1.00
      L1  H    25    53       P1 10171  1.00
      L1  H    27    56       P1 10171  1.00
      P1  H  7954  7966       L1    25  0.95
      L1  C    19    47       P1  7948  0.79

> <Gold.PLP.Chemscore.Internal.Correction>
0.8984

> <Gold.Rescore>
     Score         DG    S(hbond)    S(metal)    S(lipo)     H(rot)  DE(clash)    DE(int)     intcor
      9.30     -14.15       3.85        0.00      62.32       4.48       1.57       3.27       ----

> <Gold.Chemscore.Fitness>
9.3038

> <Gold.Chemscore.DG>
-14.1515

> <Gold.Chemscore.ZeroCoef>
-5.4800

> <Gold.Chemscore.Hbond>
3.8461

> <Gold.Chemscore.Metal>
0.0000

> <Gold.Chemscore.Lipo>
62.3163

> <Gold.Chemscore.Internal_Hbond>
0.0000

> <Gold.Chemscore.DEClash>
1.5743

> <Gold.Chemscore.DEInternal>
3.2734

> <Gold.Chemscore.Rot>
4.4787

> <Gold.Chemscore.Internal.Correction>
   9.000000E+99

> <Gold.Chemscore.Hbonds>
donor molecule, donor type, donor heavy atom, donor atom, acceptor molecule, acceptor atom, score
      L1  H     4    59       P1 10737  0.92
      L1  H    25    53       P1 10171  0.96
      L1  H    27    56       P1 10171  0.99
      P1  H  7954  7966       L1    25  0.47

> <Gold.Chemscore.Hbond.Weighted>
-12.8460

> <Gold.Chemscore.Metal.Weighted>
-0.0000

> <Gold.Chemscore.Lipo.Weighted>
-7.2910

> <Gold.Chemscore.Internal_Hbond.Weighted>
0.0000

> <Gold.Chemscore.DEClash.Weighted>
1.5743

> <Gold.Chemscore.DEInternal.Weighted>
3.2734

> <Gold.Chemscore.Rot.Weighted>
11.4655

> <Gold.Chemscore.Internal.Correction.Weighted>
   9.000000E+99

> <Gold.Protein.RotatedTorsions>
[ 6907 6896 6895 6894 ] final  177.43 input  -60.11 | X-H torsion
[ 7974 7965 7964 7962 ] final  -48.56 input  175.53 | X-H torsion
[ 8008 7997 7996 7995 ] final   80.37 input   59.86 | X-H torsion
[ 10167 10162 10161 10158 ] final    0.27 input  -65.29 | X-H torsion
[ 10718 10713 10712 10709 ] final  -99.99 input   66.30 | X-H torsion
[ 10763 10752 10751 10750 ] final   89.28 input  -60.55 | X-H torsion
[ 11005 11000 10999 10996 ] final  -81.05 input  -57.11 | X-H torsion

> <Gold.Protein.ActiveResidues>
 VAL166  LYS551  ARG553  GLY616  TRP617  ASP618  TYR619  PRO620  LYS621  CYS622 
 ASP623  PHE694  ASN695  SER759  ASP760  ASP761  ALA762  ILE779  LEU786  VAL792 
 PHE793  MET794  SER795  GLU796  ALA797  LYS798  CYS799  TRP800  GLU811  SER814 

> <Gold.Protein.RotatedAtoms>
  151.7041  133.3311  159.3273 H   0  0  0  0  0  0  0  0  0  0  0  0  # atno 6907 bound_to 6896
  150.7723  134.6590  159.6338 H   0  0  0  0  0  0  0  0  0  0  0  0  # atno 6908 bound_to 6896
  152.3752  134.6677  160.0214 H   0  0  0  0  0  0  0  0  0  0  0  0  # atno 6909 bound_to 6896
  145.9499  140.7582  142.9510 H   0  0  0  0  0  0  0  0  0  0  0  0  # atno 7974 bound_to 7965
  155.8826  140.3443  155.5899 H   0  0  0  0  0  0  0  0  0  0  0  0  # atno 8008 bound_to 7997
  155.7702  140.0844  157.2131 H   0  0  0  0  0  0  0  0  0  0  0  0  # atno 8009 bound_to 7997
  154.4026  140.1519  156.2921 H   0  0  0  0  0  0  0  0  0  0  0  0  # atno 8010 bound_to 7997
  140.6736  143.6980  150.7974 H   0  0  0  0  0  0  0  0  0  0  0  0  # atno 10167 bound_to 10162
  156.0150  130.5307  150.6751 H   0  0  0  0  0  0  0  0  0  0  0  0  # atno 10718 bound_to 10713
  153.1855  135.4476  155.0082 H   0  0  0  0  0  0  0  0  0  0  0  0  # atno 10763 bound_to 10752
  154.8057  135.3273  154.7439 H   0  0  0  0  0  0  0  0  0  0  0  0  # atno 10764 bound_to 10752
  153.7899  135.6971  153.4928 H   0  0  0  0  0  0  0  0  0  0  0  0  # atno 10765 bound_to 10752
  141.1667  133.7178  156.8365 H   0  0  0  0  0  0  0  0  0  0  0  0  # atno 11005 bound_to 11000
  144.6794  140.2417  143.7343 LP  0  0  0  0  0  0  0  0  0  0  0  0  # atno 17320 bound_to 7965
  145.8185  139.2033  143.1951 LP  0  0  0  0  0  0  0  0  0  0  0  0  # atno 17321 bound_to 7965
  140.0669  143.5099  152.2599 LP  0  0  0  0  0  0  0  0  0  0  0  0  # atno 17342 bound_to 10162
  139.6016  144.7584  151.3158 LP  0  0  0  0  0  0  0  0  0  0  0  0  # atno 17343 bound_to 10162
  157.4465  131.0867  151.0890 LP  0  0  0  0  0  0  0  0  0  0  0  0  # atno 17370 bound_to 10713
  157.1418  130.6146  149.5557 LP  0  0  0  0  0  0  0  0  0  0  0  0  # atno 17371 bound_to 10713
  140.2014  134.8894  157.3173 LP  0  0  0  0  0  0  0  0  0  0  0  0  # atno 17394 bound_to 11000
  140.2184  134.4054  155.7578 LP  0  0  0  0  0  0  0  0  0  0  0  0  # atno 17395 bound_to 11000

$$$$
