#       Name:                AV-unprocessed.smi:2509
#       Creating user name   scv26
#       Creation time:       Fri Mar 27 13:49:57 2020


#       File generated by GOLD software.
#

@<TRIPOS>MOLECULE
AV-unprocessed.smi:2509
    51    52     1
SMALL
NO_CHARGES


@<TRIPOS>ATOM
      1 ****        -5.7312   2.2539   0.2485 C.3            1 S1                 0.0000
      2 ****        -4.5963   2.7303  -0.6889 C.3            1 S1                 0.0000
      3 ****        -5.1223   2.8143  -2.1337 C.3            1 S1                 0.0000
      4 ****        -4.2020   4.1437  -0.1990 C.3            1 S1                 0.0000
      5 ****        -3.3944   1.7711  -0.6355 C.ar           1 S1                 0.0000
      6 ****        -3.6622   0.4657  -0.4990 N.ar           1 S1                 0.0000
      7 ****        -2.6278  -0.3973  -0.5761 C.ar           1 S1                 0.0000
      8 ****        -1.3096   0.0367  -0.8189 C.ar           1 S1                 0.0000
      9 ****        -0.2718  -0.9297  -0.9030 N.am           1 S1                 0.0000
     10 ****         1.0557  -0.7370  -0.8274 C.2            1 S1                 0.0000
     11 ****         1.6079   0.3484  -0.6503 O.2            1 S1                 0.0000
     12 ****         1.7195  -1.8957  -0.9474 N.am           1 S1                 0.0000
     13 ****         3.1699  -2.0502  -0.8857 C.3            1 S1                 0.0000
     14 ****         3.6420  -2.4780   0.5204 C.3            1 S1                 0.0000
     15 ****         3.3630  -1.4755   1.6495 C.3            1 S1                 0.0000
     16 ****         4.3627  -1.8129   2.7657 C.3            1 S1                 0.0000
     17 ****         5.3809  -2.7923   2.1603 C.3            1 S1                 0.0000
     18 ****         5.1454  -2.7653   0.6465 C.3            1 S1                 0.0000
     19 ****         5.9191  -1.7248   0.0789 O.3            1 S1                 0.0000
     20 ****        -1.1454   1.4307  -1.0003 C.ar           1 S1                 0.0000
     21 ****        -2.1898   2.2824  -0.9218 N.ar           1 S1                 0.0000
     22 ****        -6.5670   2.9545   0.2478 H              1 S1                 0.0000
     23 ****        -5.3835   2.1604   1.2781 H              1 S1                 0.0000
     24 ****        -6.1333   1.2863  -0.0541 H              1 S1                 0.0000
     25 ****        -5.4403   1.8363  -2.4972 H              1 S1                 0.0000
     26 ****        -4.3540   3.1832  -2.8141 H              1 S1                 0.0000
     27 ****        -5.9775   3.4867  -2.2075 H              1 S1                 0.0000
     28 ****        -5.0620   4.8142  -0.1886 H              1 S1                 0.0000
     29 ****        -3.4520   4.6054  -0.8424 H              1 S1                 0.0000
     30 ****        -3.7968   4.1155   0.8133 H              1 S1                 0.0000
     31 ****        -2.8585  -1.4447  -0.4464 H              1 S1                 0.0000
     32 ****        -0.5785  -1.8883  -0.9823 H              1 S1                 0.0000
     33 ****         1.1806  -2.7381  -1.0858 H              1 S1                 0.0000
     34 ****         3.4526  -2.8140  -1.6106 H              1 S1                 0.0000
     35 ****         3.6667  -1.1322  -1.2041 H              1 S1                 0.0000
     36 ****         3.1223  -3.4033   0.7767 H              1 S1                 0.0000
     37 ****         3.5440  -0.4587   1.2985 H              1 S1                 0.0000
     38 ****         2.3297  -1.5218   1.9950 H              1 S1                 0.0000
     39 ****         4.8541  -0.9060   3.1197 H              1 S1                 0.0000
     40 ****         3.8606  -2.2656   3.6215 H              1 S1                 0.0000
     41 ****         6.4093  -2.5559   2.4371 H              1 S1                 0.0000
     42 ****         5.1720  -3.7953   2.5347 H              1 S1                 0.0000
     43 ****         5.4235  -3.7087   0.1753 H              1 S1                 0.0000
     44 ****         5.6710  -0.9098   0.4884 H              1 S1                 0.0000
     45 ****        -0.1951   1.8835  -1.2356 H              1 S1                 0.0000
     46 ****        -4.5959   0.1421  -0.3454 LP             1 S1                 0.0000
     47 ****         1.0589   1.1781  -0.5498 LP             1 S1                 0.0000
     48 ****         2.6056   0.4006  -0.6069 LP             1 S1                 0.0000
     49 ****         5.7469  -1.6744  -0.9049 LP             1 S1                 0.0000
     50 ****         6.8904  -1.9009   0.2387 LP             1 S1                 0.0000
     51 ****        -2.0682   3.2634  -1.0725 LP             1 S1                 0.0000
@<TRIPOS>BOND
    1    1    2 1     
    2    1   22 1     
    3    1   23 1     
    4    1   24 1     
    5    2    3 1     
    6    2    4 1     
    7    2    5 1     
    8    3   25 1     
    9    3   26 1     
   10    3   27 1     
   11    4   28 1     
   12    4   29 1     
   13    4   30 1     
   14    5   21 ar    
   15    5    6 ar    
   16    6    7 ar    
   17    7    8 ar    
   18    7   31 1     
   19    8    9 1     
   20    8   20 ar    
   21    9   10 am    
   22    9   32 1     
   23   10   11 2     
   24   10   12 am    
   25   12   13 1     
   26   12   33 1     
   27   13   14 1     
   28   13   34 1     
   29   13   35 1     
   30   14   18 1     
   31   14   15 1     
   32   14   36 1     
   33   15   16 1     
   34   15   37 1     
   35   15   38 1     
   36   16   17 1     
   37   16   39 1     
   38   16   40 1     
   39   17   18 1     
   40   17   41 1     
   41   17   42 1     
   42   18   19 1     
   43   18   43 1     
   44   19   44 1     
   45   20   21 ar    
   46   20   45 1     
   47    6   46 1     
   48   11   47 1     
   49   11   48 1     
   50   19   49 1     
   51   19   50 1     
   52   21   51 1     
@<TRIPOS>SUBSTRUCTURE
      1 S1             1
@<TRIPOS>SET
LONE_PAIRS      STATIC     ATOMS    <user>   **** ""
6 46 47 48 49 50 51
DONOR_HYDROGENS      STATIC     ATOMS    <user>   **** ""
3 32 33 44
ATOM$BLUE        STATIC     ATOMS    COLORGROUP SYSTEM
6 46 47 48 49 50 51
ATOM$RED        STATIC     ATOMS    COLORGROUP SYSTEM
3 32 33 44
