AV-unprocessed.smi:2547|AV-procd|sdf|10002|dock10
  -GOLD-   2272014 53D 1   1.00000     0.00000
 Structure written by MMmdl.
 44 45  0  0  0  0  0  0  0  0  2 V2000
  148.8030  135.4662  155.2026 C   0  0  0  0  0  0  0  0  0  0  0  0
  149.4048  136.6845  154.6198 N   0  3  2  0  0  0  0  0  0  0  0  0
  150.7821  136.9274  155.1163 C   0  0  0  0  0  0  0  0  0  0  0  0
  151.4289  138.1258  154.3975 C   0  0  0  0  0  0  0  0  0  0  0  0
  150.5697  139.3982  154.5063 C   0  0  2  0  0  0  0  0  0  0  0  0
  150.6098  139.9284  155.8691 N   0  0  0  0  0  0  0  0  0  0  0  0
  151.6999  139.9760  156.6492 C   0  0  0  0  0  0  0  0  0  0  0  0
  152.8084  139.5802  156.2875 O   0  0  0  0  0  0  0  0  0  0  0  0
  151.4155  140.5076  157.8513 N   0  0  0  0  0  0  0  0  0  0  0  0
  152.2984  140.7289  158.9417 C   0  0  0  0  0  0  0  0  0  0  0  0
  153.3312  139.7787  159.0821 C   0  0  0  0  0  0  0  0  0  0  0  0
  154.2528  139.9180  160.1351 C   0  0  0  0  0  0  0  0  0  0  0  0
  154.1192  141.0027  161.0199 C   0  0  0  0  0  0  0  0  0  0  0  0
  153.0604  141.9213  160.8226 C   0  0  0  0  0  0  0  0  0  0  0  0
  152.8733  143.0308  161.6782 N   0  0  0  0  0  0  0  0  0  0  0  0
  152.1476  144.2022  161.1964 C   0  0  0  0  0  0  0  0  0  0  0  0
  153.5029  143.0563  162.9924 C   0  0  0  0  0  0  0  0  0  0  0  0
  152.1816  141.7688  159.8022 N   0  0  0  0  0  0  0  0  0  0  0  0
  149.1279  139.0947  154.0499 C   0  0  0  0  0  0  0  0  0  0  0  0
  148.5360  137.8766  154.7811 C   0  0  0  0  0  0  0  0  0  0  0  0
  148.6829  135.5667  156.2822 H   0  0  0  0  0  0  0  0  0  0  0  0
  149.4299  134.5957  155.0072 H   0  0  0  0  0  0  0  0  0  0  0  0
  147.8227  135.2736  154.7652 H   0  0  0  0  0  0  0  0  0  0  0  0
  150.7572  137.0992  156.1935 H   0  0  0  0  0  0  0  0  0  0  0  0
  151.3905  136.0370  154.9532 H   0  0  0  0  0  0  0  0  0  0  0  0
  152.4282  138.3080  154.7949 H   0  0  0  0  0  0  0  0  0  0  0  0
  151.5642  137.8763  153.3441 H   0  0  0  0  0  0  0  0  0  0  0  0
  150.9977  140.1511  153.8416 H   0  0  0  0  0  0  0  0  0  0  0  0
  149.7406  140.2709  156.2514 H   0  0  0  0  0  0  0  0  0  0  0  0
  150.4584  140.7864  158.0064 H   0  0  0  0  0  0  0  0  0  0  0  0
  153.4208  138.9506  158.3941 H   0  0  0  0  0  0  0  0  0  0  0  0
  155.0515  139.2024  160.2627 H   0  0  0  0  0  0  0  0  0  0  0  0
  154.8269  141.1068  161.8283 H   0  0  0  0  0  0  0  0  0  0  0  0
  152.6708  144.6567  160.3547 H   0  0  0  0  0  0  0  0  0  0  0  0
  152.0476  144.9574  161.9760 H   0  0  0  0  0  0  0  0  0  0  0  0
  151.1437  143.9263  160.8718 H   0  0  0  0  0  0  0  0  0  0  0  0
  154.5846  142.9531  162.9021 H   0  0  0  0  0  0  0  0  0  0  0  0
  153.1243  142.2449  163.6147 H   0  0  0  0  0  0  0  0  0  0  0  0
  153.3009  143.9936  163.5109 H   0  0  0  0  0  0  0  0  0  0  0  0
  148.4860  139.9649  154.1921 H   0  0  0  0  0  0  0  0  0  0  0  0
  149.1288  138.8975  152.9770 H   0  0  0  0  0  0  0  0  0  0  0  0
  147.5443  137.6619  154.3811 H   0  0  0  0  0  0  0  0  0  0  0  0
  148.4072  138.0968  155.8422 H   0  0  0  0  0  0  0  0  0  0  0  0
  149.4819  136.5178  153.6265 H   0  0  0  0  0  0  0  0  0  0  0  0
  1  2  1  0  0  0  0
  1 21  1  0  0  0  0
  1 22  1  0  0  0  0
  1 23  1  0  0  0  0
  2 20  1  0  0  0  0
  2  3  1  0  0  0  0
  2 44  1  0  0  0  0
  3  4  1  0  0  0  0
  3 24  1  0  0  0  0
  3 25  1  0  0  0  0
  4  5  1  0  0  0  0
  4 26  1  0  0  0  0
  4 27  1  0  0  0  0
  5  6  1  0  0  0  0
  5 19  1  0  0  0  0
  5 28  1  0  0  0  0
  6  7  1  0  0  0  0
  6 29  1  0  0  0  0
  7  8  2  0  0  0  0
  7  9  1  0  0  0  0
  9 10  1  0  0  0  0
  9 30  1  0  0  0  0
 10 18  1  0  0  0  0
 10 11  2  0  0  0  0
 11 12  1  0  0  0  0
 11 31  1  0  0  0  0
 12 13  2  0  0  0  0
 12 32  1  0  0  0  0
 13 14  1  0  0  0  0
 13 33  1  0  0  0  0
 14 15  1  0  0  0  0
 14 18  2  0  0  0  0
 15 16  1  0  0  0  0
 15 17  1  0  0  0  0
 16 34  1  0  0  0  0
 16 35  1  0  0  0  0
 16 36  1  0  0  0  0
 17 37  1  0  0  0  0
 17 38  1  0  0  0  0
 17 39  1  0  0  0  0
 19 20  1  0  0  0  0
 19 40  1  0  0  0  0
 19 41  1  0  0  0  0
 20 42  1  0  0  0  0
 20 43  1  0  0  0  0
M  CHG  1   2   1
M  END
> <s_m_source_file>
AV-unprocessed.smi

> <i_m_source_file_index>
2547

> <i_lp_mmshare_version>
43012

> <i_f3d_flags>
0

> <s_epik_input>
W0NIM11OMVtDSDJdW0NIMl1bQ0hdKFtDSDJdW0NIMl0xKVtOSF1DKD1PKVtOSF1jMltjSF1bY0hdW2NIXWMobjIpTihbQ0gzXSlbQ0gzXQ==

> <s_epik_cmdline>
J2VwaWtfcHl0aG9uJywgJy1waCcsICc3LjAnLCAnLXRuJywgJzgnLCAnLW1hJywgJzIwMCcsICctbWV0YWxfYmluZGluZycsICctaW1hZScsICc8aW5maWxlLm1hZT4nLCAnLW9tYWUnLCAnPG91dGZpbGUubWFlPic=

> <r_lp_tautomer_probability>
1

> <r_epik_Ionization_Penalty>
0.0212039

> <r_epik_Ionization_Penalty_Charging>
0.00366825

> <r_epik_Ionization_Penalty_Neutral>
0.0175357

> <r_epik_State_Penalty>
0.0137702

> <r_epik_Charging_Adjusted_Penalty>
0.0174385

> <i_epik_Tot_Q>
1

> <i_epik_Tot_abs_Q>
1

> <r_epik_Metal_State_Penalty>
0.0148742

> <b_epik_Metal_Only>
0

> <s_lp_Force_Field>
OPLS_2005

> <r_lp_Energy>
18.1173

> <b_lp_Chiralities_Consistent>
1

> <s_lp_Variant>
AV-unprocessed.smi:2547-2

> <Gold.Version>
5.8.1

> <Gold.Id.Protein>
6NUR|6NUR_protein|mol2

> <Gold.PLP.Fitness>
49.7992

> <Gold.PLP.PLP>
-42.1333

> <Gold.PLP.part.hbond>
-2.0000

> <Gold.PLP.part.metal>
0.0000

> <Gold.PLP.part.buried>
-4.6308

> <Gold.PLP.part.nonpolar>
-34.7464

> <Gold.PLP.part.repulsive>
0.1755

> <Gold.PLP.ligand.clash>
0.0000

> <Gold.PLP.ligand.torsion>
0.6726

> <Gold.PLP.Chemscore.Hbond>
3.0000

> <Gold.PLP.Chemscore.CHOScore>
0.0000

> <Gold.PLP.Chemscore.Metal>
0.0000

> <Gold.Chemscore.Hbonds>
donor molecule, donor type, donor heavy atom, donor atom, acceptor molecule, acceptor atom, score
      L1  H     2    44       P1  7948  2.00
      P1  H  7997  8008       L1     8  1.00

> <Gold.PLP.Chemscore.Internal.Correction>
0.0112

> <Gold.Rescore>
     Score         DG    S(hbond)    S(metal)    S(lipo)     H(rot)  DE(clash)    DE(int)     intcor
     15.04     -18.47       1.91        0.00      78.34       1.00       0.14       3.29       ----

> <Gold.Chemscore.Fitness>
15.0386

> <Gold.Chemscore.DG>
-18.4716

> <Gold.Chemscore.ZeroCoef>
-5.4800

> <Gold.Chemscore.Hbond>
1.9119

> <Gold.Chemscore.Metal>
0.0000

> <Gold.Chemscore.Lipo>
78.3417

> <Gold.Chemscore.Internal_Hbond>
0.0000

> <Gold.Chemscore.DEClash>
0.1405

> <Gold.Chemscore.DEInternal>
3.2925

> <Gold.Chemscore.Rot>
1.0000

> <Gold.Chemscore.Internal.Correction>
   9.000000E+99

> <Gold.Chemscore.Hbonds>
donor molecule, donor type, donor heavy atom, donor atom, acceptor molecule, acceptor atom, score
      L1  H     2    44       P1  7948  0.78
      P1  H  7997  8008       L1     8  0.99

> <Gold.Chemscore.Hbond.Weighted>
-6.3856

> <Gold.Chemscore.Metal.Weighted>
-0.0000

> <Gold.Chemscore.Lipo.Weighted>
-9.1660

> <Gold.Chemscore.Internal_Hbond.Weighted>
0.0000

> <Gold.Chemscore.DEClash.Weighted>
0.1405

> <Gold.Chemscore.DEInternal.Weighted>
3.2925

> <Gold.Chemscore.Rot.Weighted>
2.5600

> <Gold.Chemscore.Internal.Correction.Weighted>
   9.000000E+99

> <Gold.Protein.RotatedTorsions>
[ 6907 6896 6895 6894 ] final   -7.09 input  -60.11 | X-H torsion
[ 7974 7965 7964 7962 ] final  153.95 input  175.53 | X-H torsion
[ 8008 7997 7996 7995 ] final  -48.09 input   59.86 | X-H torsion
[ 10167 10162 10161 10158 ] final  -72.30 input  -65.29 | X-H torsion
[ 10718 10713 10712 10709 ] final -141.14 input   66.30 | X-H torsion
[ 10763 10752 10751 10750 ] final   -4.23 input  -60.55 | X-H torsion
[ 11005 11000 10999 10996 ] final  111.12 input  -57.11 | X-H torsion

> <Gold.Protein.ActiveResidues>
 VAL166  LYS551  ARG553  GLY616  TRP617  ASP618  TYR619  PRO620  LYS621  CYS622 
 ASP623  PHE694  ASN695  SER759  ASP760  ASP761  ALA762  ILE779  LEU786  VAL792 
 PHE793  MET794  SER795  GLU796  ALA797  LYS798  CYS799  TRP800  GLU811  SER814 

> <Gold.Protein.RotatedAtoms>
  151.4552  135.1033  159.9708 H   0  0  0  0  0  0  0  0  0  0  0  0  # atno 6907 bound_to 6896
  152.4873  133.8403  159.7160 H   0  0  0  0  0  0  0  0  0  0  0  0  # atno 6908 bound_to 6896
  150.8995  133.7077  159.2910 H   0  0  0  0  0  0  0  0  0  0  0  0  # atno 6909 bound_to 6896
  144.8120  139.6869  143.6137 H   0  0  0  0  0  0  0  0  0  0  0  0  # atno 7974 bound_to 7965
  154.4024  140.1330  156.4282 H   0  0  0  0  0  0  0  0  0  0  0  0  # atno 8008 bound_to 7997
  155.7576  140.3487  155.5162 H   0  0  0  0  0  0  0  0  0  0  0  0  # atno 8009 bound_to 7997
  155.8889  140.1000  157.1423 H   0  0  0  0  0  0  0  0  0  0  0  0  # atno 8010 bound_to 7997
  140.5203  143.2332  151.7441 H   0  0  0  0  0  0  0  0  0  0  0  0  # atno 10167 bound_to 10162
  156.3305  130.7583  151.1700 H   0  0  0  0  0  0  0  0  0  0  0  0  # atno 10718 bound_to 10713
  153.3820  135.6999  153.6558 H   0  0  0  0  0  0  0  0  0  0  0  0  # atno 10763 bound_to 10752
  153.5166  135.3621  155.2612 H   0  0  0  0  0  0  0  0  0  0  0  0  # atno 10764 bound_to 10752
  154.8693  135.4147  154.3120 H   0  0  0  0  0  0  0  0  0  0  0  0  # atno 10765 bound_to 10752
  139.8896  134.9500  156.6384 H   0  0  0  0  0  0  0  0  0  0  0  0  # atno 11005 bound_to 11000
  146.2420  139.6021  142.9485 LP  0  0  0  0  0  0  0  0  0  0  0  0  # atno 17320 bound_to 7965
  145.5301  141.0427  143.2388 LP  0  0  0  0  0  0  0  0  0  0  0  0  # atno 17321 bound_to 7965
  139.4921  144.4264  151.9921 LP  0  0  0  0  0  0  0  0  0  0  0  0  # atno 17342 bound_to 10162
  140.3360  144.3260  150.5977 LP  0  0  0  0  0  0  0  0  0  0  0  0  # atno 17343 bound_to 10162
  157.7429  131.0482  150.4985 LP  0  0  0  0  0  0  0  0  0  0  0  0  # atno 17370 bound_to 10713
  156.5151  130.4148  149.6280 LP  0  0  0  0  0  0  0  0  0  0  0  0  # atno 17371 bound_to 10713
  140.7613  133.8815  155.8420 LP  0  0  0  0  0  0  0  0  0  0  0  0  # atno 17394 bound_to 11000
  140.9920  134.1266  157.4399 LP  0  0  0  0  0  0  0  0  0  0  0  0  # atno 17395 bound_to 11000

$$$$
