AV-unprocessed.smi:2078|AV-procd|sdf|8473|dock3
  -GOLD-   2272011173D 1   1.00000     0.00000
 Structure written by MMmdl.
 41 42  0  0  0  0  0  0  0  0  3 V2000
  147.1415  135.2921  162.5698 C   0  0  0  0  0  0  0  0  0  0  0  0
  147.6032  135.6638  161.2024 C   0  0  0  0  0  0  0  0  0  0  0  0
  147.7127  134.9602  160.0361 C   0  0  0  0  0  0  0  0  0  0  0  0
  148.2197  135.9250  159.1257 C   0  0  0  0  0  0  0  0  0  0  0  0
  148.4620  135.5849  157.7689 N   0  0  0  0  0  0  0  0  0  0  0  0
  149.1081  134.5130  157.2769 C   0  0  0  0  0  0  0  0  0  0  0  0
  149.4738  133.6041  158.0320 O   0  0  0  0  0  0  0  0  0  0  0  0
  149.2884  134.5874  155.9289 N   0  5  0  0  0  0  0  0  0  0  0  0
  148.2321  134.8808  154.9548 C   0  0  0  0  0  0  0  0  0  0  0  0
  147.9501  133.6451  154.0715 C   0  0  0  0  0  0  0  0  0  0  0  0
  147.1715  133.9892  152.8507 N   0  3  1  0  0  0  0  0  0  0  0  0
  147.0757  132.8829  151.8616 C   0  0  0  0  0  0  0  0  0  0  0  0
  146.4507  133.3789  150.5489 C   0  0  0  0  0  0  0  0  0  0  0  0
  145.0773  134.0190  150.8005 C   0  0  0  0  0  0  0  0  0  0  0  0
  145.1582  135.1194  151.8757 C   0  0  2  0  0  0  0  0  0  0  0  0
  145.8190  136.4099  151.3589 C   0  0  0  0  0  0  0  0  0  0  0  0
  145.8425  134.5827  153.1505 C   0  0  0  0  0  0  0  0  0  0  0  0
  148.3956  137.1133  159.6849 N   0  0  0  0  0  0  0  0  0  0  0  0
  148.0031  136.9512  161.0189 O   0  0  0  0  0  0  0  0  0  0  0  0
  146.0743  135.4834  162.6808 H   0  0  0  0  0  0  0  0  0  0  0  0
  147.6701  135.8673  163.3304 H   0  0  0  0  0  0  0  0  0  0  0  0
  147.3180  134.2341  162.7642 H   0  0  0  0  0  0  0  0  0  0  0  0
  147.4698  133.9224  159.8638 H   0  0  0  0  0  0  0  0  0  0  0  0
  148.1418  136.2568  157.0871 H   0  0  0  0  0  0  0  0  0  0  0  0
  147.3039  135.2021  155.4294 H   0  0  0  0  0  0  0  0  0  0  0  0
  148.5229  135.7074  154.3069 H   0  0  0  0  0  0  0  0  0  0  0  0
  148.8855  133.1590  153.7910 H   0  0  0  0  0  0  0  0  0  0  0  0
  147.4088  132.9130  154.6728 H   0  0  0  0  0  0  0  0  0  0  0  0
  148.0673  132.4788  151.6546 H   0  0  0  0  0  0  0  0  0  0  0  0
  146.4822  132.0686  152.2795 H   0  0  0  0  0  0  0  0  0  0  0  0
  147.1184  134.0992  150.0745 H   0  0  0  0  0  0  0  0  0  0  0  0
  146.3504  132.5492  149.8488 H   0  0  0  0  0  0  0  0  0  0  0  0
  144.6696  134.4187  149.8716 H   0  0  0  0  0  0  0  0  0  0  0  0
  144.3819  133.2464  151.1312 H   0  0  0  0  0  0  0  0  0  0  0  0
  144.1356  135.3873  152.1442 H   0  0  0  0  0  0  0  0  0  0  0  0
  146.8529  136.2471  151.0575 H   0  0  0  0  0  0  0  0  0  0  0  0
  145.8206  137.1844  152.1263 H   0  0  0  0  0  0  0  0  0  0  0  0
  145.2832  136.8054  150.4957 H   0  0  0  0  0  0  0  0  0  0  0  0
  145.2143  133.8265  153.6236 H   0  0  0  0  0  0  0  0  0  0  0  0
  145.9528  135.3947  153.8707 H   0  0  0  0  0  0  0  0  0  0  0  0
  147.7039  134.7261  152.4079 H   0  0  0  0  0  0  0  0  0  0  0  0
  1  2  1  0  0  0  0
  1 20  1  0  0  0  0
  1 21  1  0  0  0  0
  1 22  1  0  0  0  0
  2 19  1  0  0  0  0
  2  3  2  0  0  0  0
  3  4  1  0  0  0  0
  3 23  1  0  0  0  0
  4  5  1  0  0  0  0
  4 18  2  0  0  0  0
  5  6  1  0  0  0  0
  5 24  1  0  0  0  0
  6  7  2  0  0  0  0
  6  8  1  0  0  0  0
  8  9  1  0  0  0  0
  9 10  1  0  0  0  0
  9 25  1  0  0  0  0
  9 26  1  0  0  0  0
 10 11  1  0  0  0  0
 10 27  1  0  0  0  0
 10 28  1  0  0  0  0
 11 17  1  0  0  0  0
 11 12  1  0  0  0  0
 11 41  1  0  0  0  0
 12 13  1  0  0  0  0
 12 29  1  0  0  0  0
 12 30  1  0  0  0  0
 13 14  1  0  0  0  0
 13 31  1  0  0  0  0
 13 32  1  0  0  0  0
 14 15  1  0  0  0  0
 14 33  1  0  0  0  0
 14 34  1  0  0  0  0
 15 16  1  0  0  0  0
 15 17  1  0  0  0  0
 15 35  1  0  0  0  0
 16 36  1  0  0  0  0
 16 37  1  0  0  0  0
 16 38  1  0  0  0  0
 17 39  1  0  0  0  0
 17 40  1  0  0  0  0
 18 19  1  0  0  0  0
M  CHG  1   8  -1
M  CHG  1  11   1
M  END
> <s_m_source_file>
AV-unprocessed.smi

> <i_m_source_file_index>
2078

> <i_lp_mmshare_version>
43012

> <i_f3d_flags>
0

> <s_epik_input>
W0NIM11jMVtjSF1jKG5vMSlbTkhdQyg9TylbTkhdW0NIMl1bQ0gyXU4yW0NIMl1bQ0gyXVtDSDJdW0NAQEhdKFtDSDNdKVtDSDJdMg==

> <s_epik_cmdline>
J2VwaWtfcHl0aG9uJywgJy1waCcsICc3LjAnLCAnLXRuJywgJzgnLCAnLW1hJywgJzIwMCcsICctbWV0YWxfYmluZGluZycsICctaW1hZScsICc8aW5maWxlLm1hZT4nLCAnLW9tYWUnLCAnPG91dGZpbGUubWFlPic=

> <r_epik_Ionization_Penalty>
6.76934

> <r_epik_Ionization_Penalty_Charging>
6.76934

> <r_epik_Ionization_Penalty_Neutral>
5.77849e-06

> <r_epik_State_Penalty>
6.79457

> <r_epik_Charging_Adjusted_Penalty>
13.5639

> <i_epik_Tot_Q>
0

> <i_epik_Tot_abs_Q>
2

> <r_epik_Metal_State_Penalty>
2.72837

> <b_epik_Metal_Only>
1

> <s_lp_Force_Field>
OPLS_2005

> <r_lp_Energy>
11.5184

> <b_lp_Chiralities_Consistent>
1

> <s_lp_Variant>
AV-unprocessed.smi:2078-11

> <Gold.Version>
5.8.1

> <Gold.Id.Protein>
6NUR|6NUR_protein|mol2

> <Gold.PLP.Fitness>
41.1408

> <Gold.PLP.PLP>
-30.3019

> <Gold.PLP.part.hbond>
-5.6496

> <Gold.PLP.part.metal>
0.0000

> <Gold.PLP.part.buried>
-3.2989

> <Gold.PLP.part.nonpolar>
-22.0550

> <Gold.PLP.part.repulsive>
0.0873

> <Gold.PLP.ligand.clash>
0.0000

> <Gold.PLP.ligand.torsion>
0.9514

> <Gold.PLP.Chemscore.Hbond>
4.2120

> <Gold.PLP.Chemscore.CHOScore>
0.0000

> <Gold.PLP.Chemscore.Metal>
0.0000

> <Gold.Chemscore.Hbonds>
donor molecule, donor type, donor heavy atom, donor atom, acceptor molecule, acceptor atom, score
      L1  H    11    41       P1  7948  2.00
      P1  H  6896  6909       L1     7  1.00
      P1  H  6931  6943       L1    19  1.00
      P1  H  6934  6947       L1    19  0.16

> <Gold.PLP.Chemscore.Internal.Correction>
0.1057

> <Gold.Rescore>
     Score         DG    S(hbond)    S(metal)    S(lipo)     H(rot)  DE(clash)    DE(int)     intcor
     16.78     -18.03       2.79        0.00      61.34       1.54       0.26       0.99       ----

> <Gold.Chemscore.Fitness>
16.7756

> <Gold.Chemscore.DG>
-18.0321

> <Gold.Chemscore.ZeroCoef>
-5.4800

> <Gold.Chemscore.Hbond>
2.7903

> <Gold.Chemscore.Metal>
0.0000

> <Gold.Chemscore.Lipo>
61.3416

> <Gold.Chemscore.Internal_Hbond>
0.0000

> <Gold.Chemscore.DEClash>
0.2647

> <Gold.Chemscore.DEInternal>
0.9918

> <Gold.Chemscore.Rot>
1.5409

> <Gold.Chemscore.Internal.Correction>
   9.000000E+99

> <Gold.Chemscore.Hbonds>
donor molecule, donor type, donor heavy atom, donor atom, acceptor molecule, acceptor atom, score
      L1  H    11    41       P1  7948  0.79
      P1  H  6896  6909       L1     7  0.97
      P1  H  6931  6943       L1    19  0.34

> <Gold.Chemscore.Hbond.Weighted>
-9.3198

> <Gold.Chemscore.Metal.Weighted>
-0.0000

> <Gold.Chemscore.Lipo.Weighted>
-7.1770

> <Gold.Chemscore.Internal_Hbond.Weighted>
0.0000

> <Gold.Chemscore.DEClash.Weighted>
0.2647

> <Gold.Chemscore.DEInternal.Weighted>
0.9918

> <Gold.Chemscore.Rot.Weighted>
3.9446

> <Gold.Chemscore.Internal.Correction.Weighted>
   9.000000E+99

> <Gold.Protein.RotatedTorsions>
[ 6907 6896 6895 6894 ] final   13.72 input  -60.11 | X-H torsion
[ 7974 7965 7964 7962 ] final   57.17 input  175.53 | X-H torsion
[ 8008 7997 7996 7995 ] final  -44.51 input   59.86 | X-H torsion
[ 10167 10162 10161 10158 ] final  153.20 input  -65.29 | X-H torsion
[ 10718 10713 10712 10709 ] final  -91.05 input   66.30 | X-H torsion
[ 10763 10752 10751 10750 ] final  -90.51 input  -60.55 | X-H torsion
[ 11005 11000 10999 10996 ] final   22.62 input  -57.11 | X-H torsion

> <Gold.Protein.ActiveResidues>
 VAL166  LYS551  ARG553  GLY616  TRP617  ASP618  TYR619  PRO620  LYS621  CYS622 
 ASP623  PHE694  ASN695  SER759  ASP760  ASP761  ALA762  ILE779  LEU786  VAL792 
 PHE793  MET794  SER795  GLU796  ALA797  LYS798  CYS799  TRP800  GLU811  SER814 

> <Gold.Protein.RotatedAtoms>
  151.7908  135.0736  160.0386 H   0  0  0  0  0  0  0  0  0  0  0  0  # atno 6907 bound_to 6896
  152.3157  133.5796  159.5719 H   0  0  0  0  0  0  0  0  0  0  0  0  # atno 6908 bound_to 6896
  150.7343  134.0001  159.3677 H   0  0  0  0  0  0  0  0  0  0  0  0  # atno 6909 bound_to 6896
  145.9320  139.3815  143.0415 H   0  0  0  0  0  0  0  0  0  0  0  0  # atno 7974 bound_to 7965
  154.3997  140.1420  156.3694 H   0  0  0  0  0  0  0  0  0  0  0  0  # atno 8008 bound_to 7997
  155.8107  140.3473  155.5435 H   0  0  0  0  0  0  0  0  0  0  0  0  # atno 8009 bound_to 7997
  155.8390  140.0924  157.1737 H   0  0  0  0  0  0  0  0  0  0  0  0  # atno 8010 bound_to 7997
  139.4828  144.5293  151.7748 H   0  0  0  0  0  0  0  0  0  0  0  0  # atno 10167 bound_to 10162
  155.9991  130.4933  150.5415 H   0  0  0  0  0  0  0  0  0  0  0  0  # atno 10718 bound_to 10713
  154.6665  135.5302  153.8083 H   0  0  0  0  0  0  0  0  0  0  0  0  # atno 10763 bound_to 10752
  153.0474  135.6518  154.0792 H   0  0  0  0  0  0  0  0  0  0  0  0  # atno 10764 bound_to 10752
  154.0695  135.2955  155.3290 H   0  0  0  0  0  0  0  0  0  0  0  0  # atno 10765 bound_to 10752
  140.3786  134.1945  155.7664 H   0  0  0  0  0  0  0  0  0  0  0  0  # atno 11005 bound_to 11000
  145.8414  140.9578  143.0797 LP  0  0  0  0  0  0  0  0  0  0  0  0  # atno 17320 bound_to 7965
  144.6766  140.0289  143.7483 LP  0  0  0  0  0  0  0  0  0  0  0  0  # atno 17321 bound_to 7965
  140.4817  144.1439  150.5934 LP  0  0  0  0  0  0  0  0  0  0  0  0  # atno 17342 bound_to 10162
  140.4270  143.2585  151.9644 LP  0  0  0  0  0  0  0  0  0  0  0  0  # atno 17343 bound_to 10162
  157.3351  131.0706  151.1831 LP  0  0  0  0  0  0  0  0  0  0  0  0  # atno 17370 bound_to 10713
  157.2699  130.6699  149.6014 LP  0  0  0  0  0  0  0  0  0  0  0  0  # atno 17371 bound_to 10713
  141.1931  133.8158  157.0813 LP  0  0  0  0  0  0  0  0  0  0  0  0  # atno 17394 bound_to 11000
  140.0496  134.9812  157.1112 LP  0  0  0  0  0  0  0  0  0  0  0  0  # atno 17395 bound_to 11000

$$$$
