#       Name:                AV-unprocessed.smi:2013
#       Creating user name   scv26
#       Creation time:       Fri Mar 27 10:40:16 2020


#       File generated by GOLD software.
#

@<TRIPOS>MOLECULE
AV-unprocessed.smi:2013
    59    60     1
SMALL
NO_CHARGES


@<TRIPOS>ATOM
      1 ****        -1.8538   1.8558   1.6917 C.3            1 S1                 0.0000
      2 ****        -2.2391   0.9457   0.5129 C.3            1 S1                 0.0000
      3 ****        -3.7677   0.8754   0.3526 C.3            1 S1                 0.0000
      4 ****        -1.5938  -0.4700   0.5434 C.3            1 S1                 0.0000
      5 ****        -0.0454  -0.4807   0.4222 C.3            1 S1                 0.0000
      6 ****         0.4369   0.2468  -0.7458 N.am           1 S1                 0.0000
      7 ****         0.4283  -0.2155  -2.0051 C.2            1 S1                 0.0000
      8 ****        -0.0011  -1.3269  -2.3128 O.2            1 S1                 0.0000
      9 ****         0.9910   0.7150  -3.0846 C.3            1 S1                 0.0000
     10 ****         2.4489   0.8599  -2.9836 N.am           1 S1                 0.0000
     11 ****         3.2639  -0.0228  -3.6692 C.2            1 S1                 0.0000
     12 ****         4.6133   0.0259  -3.6339 C.2            1 S1                 0.0000
     13 ****         5.3027   1.0404  -2.8474 C.2            1 S1                 0.0000
     14 ****         6.5295   1.1300  -2.7812 O.2            1 S1                 0.0000
     15 ****         4.4496   1.9292  -2.1546 N.am           1 S1                 0.0000
     16 ****         5.0981   2.9540  -1.3627 C.3            1 S1                 0.0000
     17 ****         3.0364   1.8763  -2.1971 C.2            1 S1                 0.0000
     18 ****         2.3263   2.6718  -1.5776 O.2            1 S1                 0.0000
     19 ****        -2.1098  -1.2844   1.6882 N.4            1 S1                 1.0000
     20 ****        -2.4864  -2.6679   1.3079 C.3            1 S1                 0.0000
     21 ****        -3.1741  -3.3777   2.4874 C.3            1 S1                 0.0000
     22 ****        -2.3272  -3.3558   3.6302 O.3            1 S1                 0.0000
     23 ****        -2.0275  -2.0298   4.0484 C.3            1 S1                 0.0000
     24 ****        -1.2790  -1.3017   2.9213 C.3            1 S1                 0.0000
     25 ****        -2.2792   1.5024   2.6305 H              1 S1                 0.0000
     26 ****        -2.2272   2.8679   1.5330 H              1 S1                 0.0000
     27 ****        -0.7733   1.9285   1.8114 H              1 S1                 0.0000
     28 ****        -1.8765   1.4443  -0.3865 H              1 S1                 0.0000
     29 ****        -4.2450   0.4317   1.2267 H              1 S1                 0.0000
     30 ****        -4.0475   0.2813  -0.5178 H              1 S1                 0.0000
     31 ****        -4.1922   1.8706   0.2167 H              1 S1                 0.0000
     32 ****        -1.9580  -0.9505  -0.3660 H              1 S1                 0.0000
     33 ****         0.4215  -0.0206   1.2924 H              1 S1                 0.0000
     34 ****         0.3241  -1.5070   0.3835 H              1 S1                 0.0000
     35 ****         0.8135   1.1708  -0.5858 H              1 S1                 0.0000
     36 ****         0.7319   0.3161  -4.0667 H              1 S1                 0.0000
     37 ****         0.4897   1.6825  -3.0255 H              1 S1                 0.0000
     38 ****         2.7980  -0.7949  -4.2643 H              1 S1                 0.0000
     39 ****         5.1902  -0.6955  -4.1940 H              1 S1                 0.0000
     40 ****         4.3718   3.5636  -0.8265 H              1 S1                 0.0000
     41 ****         5.6718   3.5767  -2.0513 H              1 S1                 0.0000
     42 ****         5.7495   2.4490  -0.6470 H              1 S1                 0.0000
     43 ****        -3.1674  -2.6518   0.4559 H              1 S1                 0.0000
     44 ****        -1.5968  -3.2194   0.9997 H              1 S1                 0.0000
     45 ****        -4.1285  -2.9032   2.7210 H              1 S1                 0.0000
     46 ****        -3.3894  -4.4145   2.2281 H              1 S1                 0.0000
     47 ****        -2.9428  -1.4997   4.3170 H              1 S1                 0.0000
     48 ****        -1.4080  -2.0739   4.9446 H              1 S1                 0.0000
     49 ****        -0.3354  -1.8162   2.7348 H              1 S1                 0.0000
     50 ****        -1.0332  -0.2903   3.2403 H              1 S1                 0.0000
     51 ****        -2.9797  -0.8409   1.9465 H              1 S1                 0.0000
     52 ****        -0.3671  -1.9343  -1.6078 LP             1 S1                 0.0000
     53 ****         0.0158  -1.6226  -3.2679 LP             1 S1                 0.0000
     54 ****         7.1057   0.4855  -3.2837 LP             1 S1                 0.0000
     55 ****         6.9491   1.8473  -2.2250 LP             1 S1                 0.0000
     56 ****         1.3303   2.5992  -1.6306 LP             1 S1                 0.0000
     57 ****         2.7464   3.3895  -1.0223 LP             1 S1                 0.0000
     58 ****        -1.4725  -3.8246   3.4072 LP             1 S1                 0.0000
     59 ****        -2.7844  -3.8347   4.3796 LP             1 S1                 0.0000
@<TRIPOS>BOND
    1    1    2 1     
    2    1   25 1     
    3    1   26 1     
    4    1   27 1     
    5    2    3 1     
    6    2    4 1     
    7    2   28 1     
    8    3   29 1     
    9    3   30 1     
   10    3   31 1     
   11    4    5 1     
   12    4   19 1     
   13    4   32 1     
   14    5    6 1     
   15    5   33 1     
   16    5   34 1     
   17    6    7 am    
   18    6   35 1     
   19    7    8 2     
   20    7    9 1     
   21    9   10 1     
   22    9   36 1     
   23    9   37 1     
   24   10   17 am    
   25   10   11 1     
   26   11   12 2     
   27   11   38 1     
   28   12   13 1     
   29   12   39 1     
   30   13   14 2     
   31   13   15 am    
   32   15   16 1     
   33   15   17 am    
   34   16   40 1     
   35   16   41 1     
   36   16   42 1     
   37   17   18 2     
   38   19   24 1     
   39   19   20 1     
   40   19   51 1     
   41   20   21 1     
   42   20   43 1     
   43   20   44 1     
   44   21   22 1     
   45   21   45 1     
   46   21   46 1     
   47   22   23 1     
   48   23   24 1     
   49   23   47 1     
   50   23   48 1     
   51   24   49 1     
   52   24   50 1     
   53    8   52 1     
   54    8   53 1     
   55   14   54 1     
   56   14   55 1     
   57   18   56 1     
   58   18   57 1     
   59   22   58 1     
   60   22   59 1     
@<TRIPOS>SUBSTRUCTURE
      1 S1             1
@<TRIPOS>SET
LONE_PAIRS      STATIC     ATOMS    <user>   **** ""
8 52 53 54 55 56 57 58 59
DONOR_HYDROGENS      STATIC     ATOMS    <user>   **** ""
2 35 51
ATOM$BLUE        STATIC     ATOMS    COLORGROUP SYSTEM
8 52 53 54 55 56 57 58 59
ATOM$RED        STATIC     ATOMS    COLORGROUP SYSTEM
2 35 51
