AV-unprocessed.smi:1401|AV-procd|sdf|5691|dock4
  -GOLD-   22720 5313D 1   1.00000     0.00000
 Structure written by MMmdl.
 48 50  0  0  0  0  0  0  0  0  1 V2000
  150.9913  144.1409  161.0779 C   0  0  0  0  0  0  0  0  0  0  0  0
  151.7034  142.9617  160.4720 C   0  0  0  0  0  0  0  0  0  0  0  0
  151.2788  142.5551  159.3208 N   0  0  0  0  0  0  0  0  0  0  0  0
  151.8591  141.4774  158.6802 N   0  0  0  0  0  0  0  0  0  0  0  0
  151.2383  141.1367  157.3920 C   0  0  0  0  0  0  0  0  0  0  0  0
  149.7911  140.6472  157.5397 C   0  0  0  0  0  0  0  0  0  0  0  0
  149.5545  139.5099  157.9491 O   0  0  0  0  0  0  0  0  0  0  0  0
  148.8348  141.5301  157.2142 N   0  0  0  0  0  0  0  0  0  0  0  0
  147.3952  141.2772  157.2397 C   0  0  1  0  0  0  0  0  0  0  0  0
  146.7010  142.4481  157.9571 C   0  0  0  0  0  0  0  0  0  0  0  0
  146.8846  141.0663  155.7929 C   0  0  1  0  0  0  0  0  0  0  0  0
  147.1034  142.2921  154.8690 C   0  0  0  0  0  0  0  0  0  0  0  0
  147.8474  141.6989  153.6601 C   0  0  2  0  0  0  0  0  0  0  0  0
  146.8952  140.7892  152.8627 C   0  0  0  0  0  0  0  0  0  0  0  0
  146.7537  139.5613  153.7813 C   0  0  0  0  0  0  0  0  0  0  0  0
  147.6108  139.9483  155.0021 C   0  0  1  0  0  0  0  0  0  0  0  0
  148.7656  140.6895  154.3351 C   0  0  0  0  0  0  0  0  0  0  0  0
  152.9128  140.7596  159.1666 C   0  0  0  0  0  0  0  0  0  0  0  0
  153.4060  139.8098  158.5556 O   0  0  0  0  0  0  0  0  0  0  0  0
  153.3881  141.2260  160.4709 C   0  0  0  0  0  0  0  0  0  0  0  0
  154.4858  140.4970  161.0193 C   0  0  0  0  0  0  0  0  0  0  0  0
  155.3793  139.9211  161.4780 N   0  0  0  0  0  0  0  0  0  0  0  0
  152.8219  142.2778  161.1135 C   0  0  0  0  0  0  0  0  0  0  0  0
  153.2775  142.8006  162.4689 C   0  0  0  0  0  0  0  0  0  0  0  0
  151.6834  144.9655  161.2478 H   0  0  0  0  0  0  0  0  0  0  0  0
  150.5435  143.8715  162.0344 H   0  0  0  0  0  0  0  0  0  0  0  0
  150.1923  144.5101  160.4334 H   0  0  0  0  0  0  0  0  0  0  0  0
  151.2347  142.0037  156.7288 H   0  0  0  0  0  0  0  0  0  0  0  0
  151.8382  140.3806  156.8815 H   0  0  0  0  0  0  0  0  0  0  0  0
  149.1267  142.4426  156.8955 H   0  0  0  0  0  0  0  0  0  0  0  0
  147.1992  140.3656  157.8066 H   0  0  0  0  0  0  0  0  0  0  0  0
  145.6328  142.2738  158.0791 H   0  0  0  0  0  0  0  0  0  0  0  0
  146.8258  143.3810  157.4067 H   0  0  0  0  0  0  0  0  0  0  0  0
  147.1144  142.5952  158.9556 H   0  0  0  0  0  0  0  0  0  0  0  0
  145.8182  140.8396  155.8445 H   0  0  0  0  0  0  0  0  0  0  0  0
  146.1654  142.7707  154.5861 H   0  0  0  0  0  0  0  0  0  0  0  0
  147.7274  143.0498  155.3457 H   0  0  0  0  0  0  0  0  0  0  0  0
  148.3540  142.4469  153.0496 H   0  0  0  0  0  0  0  0  0  0  0  0
  145.9380  141.2710  152.6604 H   0  0  0  0  0  0  0  0  0  0  0  0
  147.3365  140.5042  151.9068 H   0  0  0  0  0  0  0  0  0  0  0  0
  145.7162  139.3539  154.0461 H   0  0  0  0  0  0  0  0  0  0  0  0
  147.1559  138.6723  153.2937 H   0  0  0  0  0  0  0  0  0  0  0  0
  147.9087  139.0860  155.5971 H   0  0  0  0  0  0  0  0  0  0  0  0
  149.3247  140.0738  153.6282 H   0  0  0  0  0  0  0  0  0  0  0  0
  149.4627  141.1421  155.0420 H   0  0  0  0  0  0  0  0  0  0  0  0
  154.1116  142.2282  162.8739 H   0  0  0  0  0  0  0  0  0  0  0  0
  152.4634  142.7484  163.1925 H   0  0  0  0  0  0  0  0  0  0  0  0
  153.6015  143.8388  162.3892 H   0  0  0  0  0  0  0  0  0  0  0  0
  1  2  1  0  0  0  0
  1 25  1  0  0  0  0
  1 26  1  0  0  0  0
  1 27  1  0  0  0  0
  2 23  1  0  0  0  0
  2  3  2  0  0  0  0
  3  4  1  0  0  0  0
  4  5  1  0  0  0  0
  4 18  1  0  0  0  0
  5  6  1  0  0  0  0
  5 28  1  0  0  0  0
  5 29  1  0  0  0  0
  6  7  2  0  0  0  0
  6  8  1  0  0  0  0
  8  9  1  0  0  0  0
  8 30  1  0  0  0  0
  9 10  1  0  0  0  0
  9 11  1  0  0  0  0
  9 31  1  0  0  0  0
 10 32  1  0  0  0  0
 10 33  1  0  0  0  0
 10 34  1  0  0  0  0
 11 16  1  0  0  0  0
 11 12  1  0  0  0  0
 11 35  1  0  0  0  0
 12 13  1  0  0  0  0
 12 36  1  0  0  0  0
 12 37  1  0  0  0  0
 13 17  1  0  0  0  0
 13 14  1  0  0  0  0
 13 38  1  0  0  0  0
 14 15  1  0  0  0  0
 14 39  1  0  0  0  0
 14 40  1  0  0  0  0
 15 16  1  0  0  0  0
 15 41  1  0  0  0  0
 15 42  1  0  0  0  0
 16 17  1  0  0  0  0
 16 43  1  0  0  0  0
 17 44  1  0  0  0  0
 17 45  1  0  0  0  0
 18 19  2  0  0  0  0
 18 20  1  0  0  0  0
 20 21  1  0  0  0  0
 20 23  2  0  0  0  0
 21 22  3  0  0  0  0
 23 24  1  0  0  0  0
 24 46  1  0  0  0  0
 24 47  1  0  0  0  0
 24 48  1  0  0  0  0
M  END
> <s_m_source_file>
AV-unprocessed.smi

> <i_m_source_file_index>
1401

> <i_lp_mmshare_version>
43012

> <i_f3d_flags>
0

> <s_epik_input>
TiNDYyhjMVtDSDNdKWMoPU8pbihuYzFbQ0gzXSlbQ0gyXUMoPU8pW05IXVtDQEhdKFtDSDNdKVtDQEhdKFtDSDJdW0NASF0yMylbQ0BIXShbQ0gyXTMpW0NIMl1bQ0gyXTI=

> <s_epik_cmdline>
J2VwaWtfcHl0aG9uJywgJy1waCcsICc3LjAnLCAnLXRuJywgJzgnLCAnLW1hJywgJzIwMCcsICctbWV0YWxfYmluZGluZycsICctaW1hZScsICc8aW5maWxlLm1hZT4nLCAnLW9tYWUnLCAnPG91dGZpbGUubWFlPic=

> <r_lp_tautomer_probability>
1

> <r_epik_Ionization_Penalty>
2.16501e-08

> <r_epik_Ionization_Penalty_Charging>
2.29436e-11

> <r_epik_Ionization_Penalty_Neutral>
2.16271e-08

> <r_epik_State_Penalty>
-0

> <r_epik_Charging_Adjusted_Penalty>
2.29436e-11

> <i_epik_Tot_Q>
0

> <i_epik_Tot_abs_Q>
0

> <r_epik_Metal_State_Penalty>
-0

> <b_epik_Metal_Only>
0

> <s_lp_Force_Field>
OPLS_2005

> <r_lp_Energy>
65.5995

> <b_lp_Chiralities_Consistent>
1

> <s_lp_Variant>
AV-unprocessed.smi:1401-4

> <Gold.Version>
5.8.1

> <Gold.Id.Protein>
6NUR|6NUR_protein|mol2

> <Gold.PLP.Fitness>
43.1100

> <Gold.PLP.PLP>
-40.9471

> <Gold.PLP.part.hbond>
-1.6606

> <Gold.PLP.part.metal>
0.0000

> <Gold.PLP.part.buried>
-3.4815

> <Gold.PLP.part.nonpolar>
-34.7169

> <Gold.PLP.part.repulsive>
0.0640

> <Gold.PLP.ligand.clash>
0.0000

> <Gold.PLP.ligand.torsion>
0.4297

> <Gold.PLP.Chemscore.Hbond>
1.0000

> <Gold.PLP.Chemscore.CHOScore>
0.0000

> <Gold.PLP.Chemscore.Metal>
0.0000

> <Gold.Chemscore.Hbonds>
donor molecule, donor type, donor heavy atom, donor atom, acceptor molecule, acceptor atom, score
      P1  H  7997  8009       L1    19  1.00

> <Gold.PLP.Chemscore.Internal.Correction>
0.0224

> <Gold.Rescore>
     Score         DG    S(hbond)    S(metal)    S(lipo)     H(rot)  DE(clash)    DE(int)     intcor
     14.86     -16.36       0.93        0.00     102.14       1.63       0.23       1.28       ----

> <Gold.Chemscore.Fitness>
14.8598

> <Gold.Chemscore.DG>
-16.3623

> <Gold.Chemscore.ZeroCoef>
-5.4800

> <Gold.Chemscore.Hbond>
0.9282

> <Gold.Chemscore.Metal>
0.0000

> <Gold.Chemscore.Lipo>
102.1360

> <Gold.Chemscore.Internal_Hbond>
0.0000

> <Gold.Chemscore.DEClash>
0.2266

> <Gold.Chemscore.DEInternal>
1.2759

> <Gold.Chemscore.Rot>
1.6281

> <Gold.Chemscore.Internal.Correction>
   9.000000E+99

> <Gold.Chemscore.Hbonds>
donor molecule, donor type, donor heavy atom, donor atom, acceptor molecule, acceptor atom, score
      P1  H  7997  8009       L1    19  0.94

> <Gold.Chemscore.Hbond.Weighted>
-3.1002

> <Gold.Chemscore.Metal.Weighted>
-0.0000

> <Gold.Chemscore.Lipo.Weighted>
-11.9499

> <Gold.Chemscore.Internal_Hbond.Weighted>
0.0000

> <Gold.Chemscore.DEClash.Weighted>
0.2266

> <Gold.Chemscore.DEInternal.Weighted>
1.2759

> <Gold.Chemscore.Rot.Weighted>
4.1678

> <Gold.Chemscore.Internal.Correction.Weighted>
   9.000000E+99

> <Gold.Protein.RotatedTorsions>
[ 6907 6896 6895 6894 ] final   59.92 input  -60.11 | X-H torsion
[ 7974 7965 7964 7962 ] final -170.09 input  175.53 | X-H torsion
[ 8008 7997 7996 7995 ] final  135.31 input   59.86 | X-H torsion
[ 10167 10162 10161 10158 ] final   71.19 input  -65.29 | X-H torsion
[ 10718 10713 10712 10709 ] final   74.05 input   66.30 | X-H torsion
[ 10763 10752 10751 10750 ] final  -47.35 input  -60.55 | X-H torsion
[ 11005 11000 10999 10996 ] final   85.95 input  -57.11 | X-H torsion

> <Gold.Protein.ActiveResidues>
 VAL166  LYS551  ARG553  GLY616  TRP617  ASP618  TYR619  PRO620  LYS621  CYS622 
 ASP623  PHE694  ASN695  SER759  ASP760  ASP761  ALA762  ILE779  LEU786  VAL792 
 PHE793  MET794  SER795  GLU796  ALA797  LYS798  CYS799  TRP800  GLU811  SER814 

> <Gold.Protein.RotatedAtoms>
  152.3957  134.6368  160.0089 H   0  0  0  0  0  0  0  0  0  0  0  0  # atno 6907 bound_to 6896
  151.6589  133.3312  159.3177 H   0  0  0  0  0  0  0  0  0  0  0  0  # atno 6908 bound_to 6896
  150.7865  134.6898  159.6535 H   0  0  0  0  0  0  0  0  0  0  0  0  # atno 6909 bound_to 6896
  144.7175  140.2124  143.6326 H   0  0  0  0  0  0  0  0  0  0  0  0  # atno 7974 bound_to 7965
  156.3002  140.2474  156.3560 H   0  0  0  0  0  0  0  0  0  0  0  0  # atno 8008 bound_to 7997
  154.8921  140.0409  157.1864 H   0  0  0  0  0  0  0  0  0  0  0  0  # atno 8009 bound_to 7997
  154.8587  140.2917  155.5557 H   0  0  0  0  0  0  0  0  0  0  0  0  # atno 8010 bound_to 7997
  140.0487  144.5329  150.7379 H   0  0  0  0  0  0  0  0  0  0  0  0  # atno 10167 bound_to 10162
  157.6575  130.9659  150.1156 H   0  0  0  0  0  0  0  0  0  0  0  0  # atno 10718 bound_to 10713
  154.0599  135.6619  153.4810 H   0  0  0  0  0  0  0  0  0  0  0  0  # atno 10763 bound_to 10752
  153.0431  135.5132  154.7669 H   0  0  0  0  0  0  0  0  0  0  0  0  # atno 10764 bound_to 10752
  154.6702  135.3028  154.9718 H   0  0  0  0  0  0  0  0  0  0  0  0  # atno 10765 bound_to 10752
  139.8957  134.8322  156.2653 H   0  0  0  0  0  0  0  0  0  0  0  0  # atno 11005 bound_to 11000
  145.8578  139.2207  143.1734 LP  0  0  0  0  0  0  0  0  0  0  0  0  # atno 17320 bound_to 7965
  146.0201  140.8356  142.9927 LP  0  0  0  0  0  0  0  0  0  0  0  0  # atno 17321 bound_to 7965
  140.7227  143.2604  151.4226 LP  0  0  0  0  0  0  0  0  0  0  0  0  # atno 17342 bound_to 10162
  139.5967  144.1383  152.2151 LP  0  0  0  0  0  0  0  0  0  0  0  0  # atno 17343 bound_to 10162
  156.2041  130.3662  149.8751 LP  0  0  0  0  0  0  0  0  0  0  0  0  # atno 17370 bound_to 10713
  156.6647  130.8796  151.3553 LP  0  0  0  0  0  0  0  0  0  0  0  0  # atno 17371 bound_to 10713
  141.0136  133.7081  156.1152 LP  0  0  0  0  0  0  0  0  0  0  0  0  # atno 17394 bound_to 11000
  140.7333  134.4230  157.5563 LP  0  0  0  0  0  0  0  0  0  0  0  0  # atno 17395 bound_to 11000

$$$$
