AV-unprocessed.smi:21|AV-procd|sdf|125|dock2
  -GOLD-   2262015303D 1   1.00000     0.00000
 Structure written by MMmdl.
 62 65  0  0  0  0  0  0  0  0  2 V2000
  143.8108  132.8759  151.0623 C   0  0  0  0  0  0  0  0  0  0  0  0
  144.0444  133.6357  152.2373 O   0  0  0  0  0  0  0  0  0  0  0  0
  144.2161  135.0231  151.9893 C   0  0  1  0  0  0  0  0  0  0  0  0
  144.5556  135.7586  153.2786 C   0  0  0  0  0  0  0  0  0  0  0  0
  145.2424  137.0325  152.7781 C   0  0  1  0  0  0  0  0  0  0  0  0
  146.1768  137.6747  153.8254 C   0  0  0  0  0  0  0  0  0  0  0  0
  145.4747  138.4935  154.8119 N   0  0  0  0  0  0  0  0  0  0  0  0
  144.5330  137.7866  155.6677 C   0  0  0  0  0  0  0  0  0  0  0  0
  146.2557  139.3359  155.5231 C   0  0  0  0  0  0  0  0  0  0  0  0
  145.7610  139.7936  156.6988 N   0  0  0  0  0  0  0  0  0  0  0  0
  146.4844  140.6346  157.4446 C   0  0  0  0  0  0  0  0  0  0  0  0
  147.7004  141.1304  157.2031 N   0  0  0  0  0  0  0  0  0  0  0  0
  148.2013  140.6652  156.0229 C   0  0  0  0  0  0  0  0  0  0  0  0
  147.5502  139.7740  155.1249 C   0  0  0  0  0  0  0  0  0  0  0  0
  148.3645  139.5289  154.0256 N   0  0  0  0  0  0  0  0  0  0  0  0
  149.4383  140.2323  154.2623 C   0  0  0  0  0  0  0  0  0  0  0  0
  149.4275  140.9391  155.4439 N   0  0  0  0  0  0  0  0  0  0  0  0
  150.4827  141.7965  155.9560 C   0  0  0  0  0  0  0  0  0  0  0  0
  151.0022  141.3620  157.3527 C   0  0  1  0  0  0  0  0  0  0  0  0
  151.5625  139.9185  157.3411 C   0  0  0  0  0  0  0  0  0  0  0  0
  152.6449  139.7938  156.4422 O   0  0  0  0  0  0  0  0  0  0  0  0
  152.0126  142.3620  157.9831 C   0  0  2  0  0  0  0  0  0  0  0  0
  152.4019  142.1195  159.4301 C   0  0  0  0  0  0  0  0  0  0  0  0
  153.0923  143.4345  159.7753 C   0  0  0  0  0  0  0  0  0  0  0  0
  152.3796  144.4353  159.0543 O   0  0  0  0  0  0  0  0  0  0  0  0
  151.5989  143.8372  158.0216 C   0  0  0  0  0  0  0  0  0  0  0  0
  145.9907  136.6162  151.5687 N   0  3  2  0  0  0  0  0  0  0  0  0
  146.0770  137.6596  150.5235 C   0  0  0  0  0  0  0  0  0  0  0  0
  145.4205  135.3341  151.0909 C   0  0  0  0  0  0  0  0  0  0  0  0
  143.3089  135.4589  151.5660 H   0  0  0  0  0  0  0  0  0  0  0  0
  144.4684  137.7375  152.4684 H   0  0  0  0  0  0  0  0  0  0  0  0
  143.6721  131.8279  151.3275 H   0  0  0  0  0  0  0  0  0  0  0  0
  144.6520  132.9360  150.3711 H   0  0  0  0  0  0  0  0  0  0  0  0
  142.9103  133.2128  150.5477 H   0  0  0  0  0  0  0  0  0  0  0  0
  143.6777  135.9621  153.8928 H   0  0  0  0  0  0  0  0  0  0  0  0
  145.2508  135.1639  153.8733 H   0  0  0  0  0  0  0  0  0  0  0  0
  146.7210  136.8900  154.3524 H   0  0  0  0  0  0  0  0  0  0  0  0
  146.9344  138.2807  153.3288 H   0  0  0  0  0  0  0  0  0  0  0  0
  144.0236  138.4749  156.3438 H   0  0  0  0  0  0  0  0  0  0  0  0
  145.0405  137.0286  156.2658 H   0  0  0  0  0  0  0  0  0  0  0  0
  143.7729  137.2910  155.0631 H   0  0  0  0  0  0  0  0  0  0  0  0
  146.0242  140.9549  158.3677 H   0  0  0  0  0  0  0  0  0  0  0  0
  150.2764  140.2492  153.5807 H   0  0  0  0  0  0  0  0  0  0  0  0
  151.2926  141.8025  155.2272 H   0  0  0  0  0  0  0  0  0  0  0  0
  150.0823  142.8089  155.9852 H   0  0  0  0  0  0  0  0  0  0  0  0
  150.1332  141.3515  158.0125 H   0  0  0  0  0  0  0  0  0  0  0  0
  151.9365  139.6304  158.3229 H   0  0  0  0  0  0  0  0  0  0  0  0
  150.7862  139.2007  157.0750 H   0  0  0  0  0  0  0  0  0  0  0  0
  152.3560  139.2995  155.6902 H   0  0  0  0  0  0  0  0  0  0  0  0
  152.9401  142.3053  157.4109 H   0  0  0  0  0  0  0  0  0  0  0  0
  151.5295  141.9977  160.0704 H   0  0  0  0  0  0  0  0  0  0  0  0
  153.0491  141.2520  159.5616 H   0  0  0  0  0  0  0  0  0  0  0  0
  153.0955  143.6385  160.8463 H   0  0  0  0  0  0  0  0  0  0  0  0
  154.1265  143.4240  159.4286 H   0  0  0  0  0  0  0  0  0  0  0  0
  151.7655  144.3361  157.0666 H   0  0  0  0  0  0  0  0  0  0  0  0
  150.5494  143.9601  158.2848 H   0  0  0  0  0  0  0  0  0  0  0  0
  145.0883  137.9154  150.1396 H   0  0  0  0  0  0  0  0  0  0  0  0
  146.6888  137.3132  149.6901 H   0  0  0  0  0  0  0  0  0  0  0  0
  146.5353  138.5654  150.9219 H   0  0  0  0  0  0  0  0  0  0  0  0
  146.1888  134.5687  151.2079 H   0  0  0  0  0  0  0  0  0  0  0  0
  145.1399  135.3576  150.0368 H   0  0  0  0  0  0  0  0  0  0  0  0
  146.9339  136.4101  151.8656 H   0  0  0  0  0  0  0  0  0  0  0  0
  1  2  1  0  0  0  0
  1 32  1  0  0  0  0
  1 33  1  0  0  0  0
  1 34  1  0  0  0  0
  2  3  1  0  0  0  0
  3 30  1  0  0  0  0
  3 29  1  0  0  0  0
  3  4  1  0  0  0  0
  4  5  1  0  0  0  0
  4 35  1  0  0  0  0
  4 36  1  0  0  0  0
  5 31  1  0  0  0  0
  5  6  1  0  0  0  0
  5 27  1  0  0  0  0
  6  7  1  0  0  0  0
  6 37  1  0  0  0  0
  6 38  1  0  0  0  0
  7  8  1  0  0  0  0
  7  9  1  0  0  0  0
  8 39  1  0  0  0  0
  8 40  1  0  0  0  0
  8 41  1  0  0  0  0
  9 14  1  0  0  0  0
  9 10  2  0  0  0  0
 10 11  1  0  0  0  0
 11 12  2  0  0  0  0
 11 42  1  0  0  0  0
 12 13  1  0  0  0  0
 13 17  1  0  0  0  0
 13 14  2  0  0  0  0
 14 15  1  0  0  0  0
 15 16  2  0  0  0  0
 16 17  1  0  0  0  0
 16 43  1  0  0  0  0
 17 18  1  0  0  0  0
 18 19  1  0  0  0  0
 18 44  1  0  0  0  0
 18 45  1  0  0  0  0
 19 20  1  0  0  0  0
 19 22  1  0  0  0  0
 19 46  1  0  0  0  0
 20 21  1  0  0  0  0
 20 47  1  0  0  0  0
 20 48  1  0  0  0  0
 21 49  1  0  0  0  0
 22 26  1  0  0  0  0
 22 23  1  0  0  0  0
 22 50  1  0  0  0  0
 23 24  1  0  0  0  0
 23 51  1  0  0  0  0
 23 52  1  0  0  0  0
 24 25  1  0  0  0  0
 24 53  1  0  0  0  0
 24 54  1  0  0  0  0
 25 26  1  0  0  0  0
 26 55  1  0  0  0  0
 26 56  1  0  0  0  0
 27 28  1  0  0  0  0
 27 29  1  0  0  0  0
 27 62  1  0  0  0  0
 28 57  1  0  0  0  0
 28 58  1  0  0  0  0
 28 59  1  0  0  0  0
 29 60  1  0  0  0  0
 29 61  1  0  0  0  0
M  CHG  1  27   1
M  END
> <s_m_source_file>
AV-unprocessed.smi

> <i_m_source_file_index>
21

> <i_lp_mmshare_version>
43012

> <i_f3d_flags>
0

> <s_epik_input>
W0NIM11PW0NASF0xW0NIMl1bQ0BIXShOKFtDSDNdKVtDSDJdMSlbQ0gyXU4oW0NIM10pYyhuW2NIXW4yKWMoYzIzKW5bY0hdbjNbQ0gyXVtDQEhdKFtDSDJdW09IXSlbQ0BASF00W0NIMl1bQ0gyXU9bQ0gyXTQ=

> <s_epik_cmdline>
J2VwaWtfcHl0aG9uJywgJy1waCcsICc3LjAnLCAnLXRuJywgJzgnLCAnLW1hJywgJzIwMCcsICctbWV0YWxfYmluZGluZycsICctaW1hZScsICc8aW5maWxlLm1hZT4nLCAnLW9tYWUnLCAnPG91dGZpbGUubWFlPic=

> <r_lp_tautomer_probability>
1

> <r_epik_Ionization_Penalty>
0.0157465

> <r_epik_Ionization_Penalty_Charging>
0.015354

> <r_epik_Ionization_Penalty_Neutral>
0.000392529

> <r_epik_State_Penalty>
0.0120612

> <r_epik_Charging_Adjusted_Penalty>
0.0274152

> <i_epik_Tot_Q>
1

> <i_epik_Tot_abs_Q>
1

> <r_epik_Metal_State_Penalty>
0.0121253

> <b_epik_Metal_Only>
0

> <s_lp_Force_Field>
OPLS_2005

> <r_lp_Energy>
61.1599

> <b_lp_Chiralities_Consistent>
1

> <s_lp_Variant>
AV-unprocessed.smi:21-5

> <Gold.Version>
5.8.1

> <Gold.Id.Protein>
6NUR|6NUR_protein|mol2

> <Gold.PLP.Fitness>
48.2907

> <Gold.PLP.PLP>
-38.2945

> <Gold.PLP.part.hbond>
-2.3070

> <Gold.PLP.part.metal>
0.0000

> <Gold.PLP.part.buried>
0.5402

> <Gold.PLP.part.nonpolar>
-37.2828

> <Gold.PLP.part.repulsive>
0.7921

> <Gold.PLP.ligand.clash>
0.0000

> <Gold.PLP.ligand.torsion>
0.9780

> <Gold.PLP.Chemscore.Hbond>
3.0000

> <Gold.PLP.Chemscore.CHOScore>
0.6222

> <Gold.PLP.Chemscore.Metal>
0.0000

> <Gold.Chemscore.Hbonds>
donor molecule, donor type, donor heavy atom, donor atom, acceptor molecule, acceptor atom, score
      L1  H    27    62       P1  7948  2.00
      P1  H  7997  8008       L1    21  1.00
      L1  C    16    43       P1  7957  0.68

> <Gold.PLP.Chemscore.Internal.Correction>
1.0857

> <Gold.Rescore>
     Score         DG    S(hbond)    S(metal)    S(lipo)     H(rot)  DE(clash)    DE(int)     intcor
     11.09     -15.59       1.94        0.00     104.07       3.35       2.07       2.43       ----

> <Gold.Chemscore.Fitness>
11.0890

> <Gold.Chemscore.DG>
-15.5882

> <Gold.Chemscore.ZeroCoef>
-5.4800

> <Gold.Chemscore.Hbond>
1.9448

> <Gold.Chemscore.Metal>
0.0000

> <Gold.Chemscore.Lipo>
104.0704

> <Gold.Chemscore.Internal_Hbond>
0.0000

> <Gold.Chemscore.DEClash>
2.0696

> <Gold.Chemscore.DEInternal>
2.4297

> <Gold.Chemscore.Rot>
3.3452

> <Gold.Chemscore.Internal.Correction>
   9.000000E+99

> <Gold.Chemscore.Hbonds>
donor molecule, donor type, donor heavy atom, donor atom, acceptor molecule, acceptor atom, score
      L1  H    27    62       P1  7948  0.96
      P1  H  7997  8008       L1    21  0.54

> <Gold.Chemscore.Hbond.Weighted>
-6.4957

> <Gold.Chemscore.Metal.Weighted>
-0.0000

> <Gold.Chemscore.Lipo.Weighted>
-12.1762

> <Gold.Chemscore.Internal_Hbond.Weighted>
0.0000

> <Gold.Chemscore.DEClash.Weighted>
2.0696

> <Gold.Chemscore.DEInternal.Weighted>
2.4297

> <Gold.Chemscore.Rot.Weighted>
8.5636

> <Gold.Chemscore.Internal.Correction.Weighted>
   9.000000E+99

> <Gold.Protein.RotatedTorsions>
[ 6907 6896 6895 6894 ] final   81.94 input  -60.11 | X-H torsion
[ 7974 7965 7964 7962 ] final  168.47 input  175.53 | X-H torsion
[ 8008 7997 7996 7995 ] final  -31.84 input   59.86 | X-H torsion
[ 10167 10162 10161 10158 ] final  158.34 input  -65.29 | X-H torsion
[ 10718 10713 10712 10709 ] final  -30.17 input   66.30 | X-H torsion
[ 10763 10752 10751 10750 ] final    8.08 input  -60.55 | X-H torsion
[ 11005 11000 10999 10996 ] final -173.96 input  -57.11 | X-H torsion

> <Gold.Protein.ActiveResidues>
 VAL166  LYS551  ARG553  GLY616  TRP617  ASP618  TYR619  PRO620  LYS621  CYS622 
 ASP623  PHE694  ASN695  SER759  ASP760  ASP761  ALA762  ILE779  LEU786  VAL792 
 PHE793  MET794  SER795  GLU796  ALA797  LYS798  CYS799  TRP800  GLU811  SER814 

> <Gold.Protein.RotatedAtoms>
  152.5284  134.3126  159.9118 H   0  0  0  0  0  0  0  0  0  0  0  0  # atno 6907 bound_to 6896
  151.3075  133.4088  159.2652 H   0  0  0  0  0  0  0  0  0  0  0  0  # atno 6908 bound_to 6896
  151.0066  134.9381  159.8041 H   0  0  0  0  0  0  0  0  0  0  0  0  # atno 6909 bound_to 6896
  144.7387  139.8912  143.6403 H   0  0  0  0  0  0  0  0  0  0  0  0  # atno 7974 bound_to 7965
  154.4200  140.1753  156.1631 H   0  0  0  0  0  0  0  0  0  0  0  0  # atno 8008 bound_to 7997
  155.9822  140.3376  155.6649 H   0  0  0  0  0  0  0  0  0  0  0  0  # atno 8009 bound_to 7997
  155.6485  140.0687  157.2585 H   0  0  0  0  0  0  0  0  0  0  0  0  # atno 8010 bound_to 7997
  139.4826  144.4834  151.8412 H   0  0  0  0  0  0  0  0  0  0  0  0  # atno 10167 bound_to 10162
  156.4032  130.4394  149.7307 H   0  0  0  0  0  0  0  0  0  0  0  0  # atno 10718 bound_to 10713
  153.2291  135.6890  153.7911 H   0  0  0  0  0  0  0  0  0  0  0  0  # atno 10763 bound_to 10752
  153.7082  135.3286  155.3241 H   0  0  0  0  0  0  0  0  0  0  0  0  # atno 10764 bound_to 10752
  154.8305  135.4584  154.1169 H   0  0  0  0  0  0  0  0  0  0  0  0  # atno 10765 bound_to 10752
  140.4799  134.6085  157.4915 H   0  0  0  0  0  0  0  0  0  0  0  0  # atno 11005 bound_to 11000
  146.1140  139.4149  143.0270 LP  0  0  0  0  0  0  0  0  0  0  0  0  # atno 17320 bound_to 7965
  145.7401  141.0011  143.1305 LP  0  0  0  0  0  0  0  0  0  0  0  0  # atno 17321 bound_to 7965
  140.4312  144.2113  150.5888 LP  0  0  0  0  0  0  0  0  0  0  0  0  # atno 17342 bound_to 10162
  140.4778  143.2390  151.8999 LP  0  0  0  0  0  0  0  0  0  0  0  0  # atno 17343 bound_to 10162
  156.4315  130.7817  151.2837 LP  0  0  0  0  0  0  0  0  0  0  0  0  # atno 17370 bound_to 10713
  157.7504  131.0152  150.3497 LP  0  0  0  0  0  0  0  0  0  0  0  0  # atno 17371 bound_to 10713
  139.9833  134.7102  155.9820 LP  0  0  0  0  0  0  0  0  0  0  0  0  # atno 17394 bound_to 11000
  141.1536  133.6545  156.4091 LP  0  0  0  0  0  0  0  0  0  0  0  0  # atno 17395 bound_to 11000

$$$$
