AV-unprocessed.smi:1738|AV-procd|sdf|6997|dock2
  -GOLD-   22720 8213D 1   1.00000     0.00000
 Structure written by MMmdl.
 46 48  0  0  0  0  0  0  0  0  2 V2000
  152.9572  137.5897  160.0526 C   0  0  0  0  0  0  0  0  0  0  0  0
  153.7252  138.1270  158.4705 S   0  0  0  0  0  0  0  0  0  0  0  0
  153.6545  139.5955  158.4102 O   0  0  0  0  0  0  0  0  0  0  0  0
  155.0284  137.4571  158.3388 O   0  0  0  0  0  0  0  0  0  0  0  0
  152.6342  137.4594  157.2190 C   0  0  0  0  0  0  0  0  0  0  0  0
  152.4789  138.1167  155.9822 C   0  0  0  0  0  0  0  0  0  0  0  0
  151.5822  137.5678  155.0457 C   0  0  0  0  0  0  0  0  0  0  0  0
  150.8643  136.3946  155.3892 C   0  0  0  0  0  0  0  0  0  0  0  0
  149.9411  135.7277  154.5370 N   0  0  0  0  0  0  0  0  0  0  0  0
  149.3076  134.5560  154.7190 C   0  0  0  0  0  0  0  0  0  0  0  0
  149.4424  133.8114  155.6889 O   0  0  0  0  0  0  0  0  0  0  0  0
  148.4964  134.2813  153.6877 N   0  0  0  0  0  0  0  0  0  0  0  0
  147.6619  133.0885  153.5679 C   0  0  2  0  0  0  0  0  0  0  0  0
  148.4232  131.7943  153.8292 C   0  0  0  0  0  0  0  0  0  0  0  0
  147.5157  130.7495  153.1771 C   0  0  0  0  0  0  0  0  0  0  0  0
  146.8998  131.4174  152.0071 N   0  3  1  0  0  0  0  0  0  0  0  0
  145.5045  131.0013  151.7232 C   0  0  0  0  0  0  0  0  0  0  0  0
  144.9595  131.7318  150.4818 C   0  0  0  0  0  0  0  0  0  0  0  0
  145.1791  133.2583  150.5324 C   0  0  0  0  0  0  0  0  0  0  0  0
  145.8444  133.7121  151.8411 C   0  0  0  0  0  0  0  0  0  0  0  0
  147.1156  132.8862  152.1441 C   0  0  1  0  0  0  0  0  0  0  0  0
  151.0979  135.8306  156.6623 C   0  0  0  0  0  0  0  0  0  0  0  0
  151.9538  136.3474  157.5683 N   0  0  0  0  0  0  0  0  0  0  0  0
  153.5572  137.9510  160.8873 H   0  0  0  0  0  0  0  0  0  0  0  0
  152.9105  136.5012  160.0837 H   0  0  0  0  0  0  0  0  0  0  0  0
  151.9498  137.9986  160.1249 H   0  0  0  0  0  0  0  0  0  0  0  0
  153.0331  139.0138  155.7494 H   0  0  0  0  0  0  0  0  0  0  0  0
  151.4760  138.0552  154.0901 H   0  0  0  0  0  0  0  0  0  0  0  0
  149.7596  136.1934  153.6599 H   0  0  0  0  0  0  0  0  0  0  0  0
  148.4532  134.9465  152.9293 H   0  0  0  0  0  0  0  0  0  0  0  0
  146.8335  133.1336  154.2787 H   0  0  0  0  0  0  0  0  0  0  0  0
  149.3928  131.8114  153.3291 H   0  0  0  0  0  0  0  0  0  0  0  0
  148.5909  131.6050  154.8900 H   0  0  0  0  0  0  0  0  0  0  0  0
  148.0572  129.8501  152.8829 H   0  0  0  0  0  0  0  0  0  0  0  0
  146.7416  130.4542  153.8875 H   0  0  0  0  0  0  0  0  0  0  0  0
  145.4708  129.9227  151.5659 H   0  0  0  0  0  0  0  0  0  0  0  0
  144.8743  131.2114  152.5888 H   0  0  0  0  0  0  0  0  0  0  0  0
  145.4418  131.3330  149.5885 H   0  0  0  0  0  0  0  0  0  0  0  0
  143.8970  131.5130  150.3707 H   0  0  0  0  0  0  0  0  0  0  0  0
  145.8063  133.5571  149.6916 H   0  0  0  0  0  0  0  0  0  0  0  0
  144.2301  133.7789  150.3999 H   0  0  0  0  0  0  0  0  0  0  0  0
  146.0898  134.7728  151.7818 H   0  0  0  0  0  0  0  0  0  0  0  0
  145.1298  133.6145  152.6596 H   0  0  0  0  0  0  0  0  0  0  0  0
  147.8890  133.1448  151.4189 H   0  0  0  0  0  0  0  0  0  0  0  0
  150.5771  134.9343  156.9671 H   0  0  0  0  0  0  0  0  0  0  0  0
  147.4433  131.1420  151.2016 H   0  0  0  0  0  0  0  0  0  0  0  0
  1  2  1  0  0  0  0
  1 24  1  0  0  0  0
  1 25  1  0  0  0  0
  1 26  1  0  0  0  0
  2  3  2  0  0  0  0
  2  4  2  0  0  0  0
  2  5  1  0  0  0  0
  5 23  1  0  0  0  0
  5  6  2  0  0  0  0
  6  7  1  0  0  0  0
  6 27  1  0  0  0  0
  7  8  2  0  0  0  0
  7 28  1  0  0  0  0
  8  9  1  0  0  0  0
  8 22  1  0  0  0  0
  9 10  1  0  0  0  0
  9 29  1  0  0  0  0
 10 11  2  0  0  0  0
 10 12  1  0  0  0  0
 12 13  1  0  0  0  0
 12 30  1  0  0  0  0
 13 21  1  0  0  0  0
 13 14  1  0  0  0  0
 13 31  1  0  0  0  0
 14 15  1  0  0  0  0
 14 32  1  0  0  0  0
 14 33  1  0  0  0  0
 15 16  1  0  0  0  0
 15 34  1  0  0  0  0
 15 35  1  0  0  0  0
 16 21  1  0  0  0  0
 16 17  1  0  0  0  0
 16 46  1  0  0  0  0
 17 18  1  0  0  0  0
 17 36  1  0  0  0  0
 17 37  1  0  0  0  0
 18 19  1  0  0  0  0
 18 38  1  0  0  0  0
 18 39  1  0  0  0  0
 19 20  1  0  0  0  0
 19 40  1  0  0  0  0
 19 41  1  0  0  0  0
 20 21  1  0  0  0  0
 20 42  1  0  0  0  0
 20 43  1  0  0  0  0
 21 44  1  0  0  0  0
 22 23  2  0  0  0  0
 22 45  1  0  0  0  0
M  CHG  1  16   1
M  END
> <s_m_source_file>
AV-unprocessed.smi

> <i_m_source_file_index>
1738

> <i_lp_mmshare_version>
43012

> <i_f3d_flags>
0

> <s_epik_input>
W0NIM11TKD1PKSg9TyljMVtjSF1bY0hdYyhbY0hdbjEpW05IXUMoPU8pW05IXVtDQEhdKFtDSDJdW0NIMl0yKVtDQEBIXShOMjMpW0NIMl1bQ0gyXVtDSDJdW0NIMl0z

> <s_epik_cmdline>
J2VwaWtfcHl0aG9uJywgJy1waCcsICc3LjAnLCAnLXRuJywgJzgnLCAnLW1hJywgJzIwMCcsICctbWV0YWxfYmluZGluZycsICctaW1hZScsICc8aW5maWxlLm1hZT4nLCAnLW9tYWUnLCAnPG91dGZpbGUubWFlPic=

> <r_epik_Ionization_Penalty>
0.00100042

> <r_epik_Ionization_Penalty_Charging>
0.000974069

> <r_epik_Ionization_Penalty_Neutral>
2.63543e-05

> <r_epik_State_Penalty>
0.000633842

> <r_epik_Charging_Adjusted_Penalty>
0.00160791

> <i_epik_Tot_Q>
1

> <i_epik_Tot_abs_Q>
1

> <r_epik_Metal_State_Penalty>
-0

> <b_epik_Metal_Only>
0

> <s_lp_Force_Field>
OPLS_2005

> <r_lp_Energy>
42.6432

> <b_lp_Chiralities_Consistent>
1

> <s_lp_Variant>
AV-unprocessed.smi:1738-1

> <Gold.Version>
5.8.1

> <Gold.Id.Protein>
6NUR|6NUR_protein|mol2

> <Gold.PLP.Fitness>
46.2938

> <Gold.PLP.PLP>
-34.9285

> <Gold.PLP.part.hbond>
-4.4479

> <Gold.PLP.part.metal>
0.0000

> <Gold.PLP.part.buried>
-4.6273

> <Gold.PLP.part.nonpolar>
-26.0117

> <Gold.PLP.part.repulsive>
0.0801

> <Gold.PLP.ligand.clash>
0.0000

> <Gold.PLP.ligand.torsion>
1.3320

> <Gold.PLP.Chemscore.Hbond>
4.0000

> <Gold.PLP.Chemscore.CHOScore>
0.0000

> <Gold.PLP.Chemscore.Metal>
0.0000

> <Gold.Chemscore.Hbonds>
donor molecule, donor type, donor heavy atom, donor atom, acceptor molecule, acceptor atom, score
      L1  H     9    29       P1  7948  1.00
      L1  H    12    30       P1  7948  1.00
      L1  H    16    46       P1 10747  1.00
      P1  H  7997  8008       L1     3  1.00

> <Gold.PLP.Chemscore.Internal.Correction>
2.0294

> <Gold.Rescore>
     Score         DG    S(hbond)    S(metal)    S(lipo)     H(rot)  DE(clash)    DE(int)     intcor
     20.03     -24.40       3.54        0.00      82.58       1.00       0.13       4.23       ----

> <Gold.Chemscore.Fitness>
20.0340

> <Gold.Chemscore.DG>
-24.3966

> <Gold.Chemscore.ZeroCoef>
-5.4800

> <Gold.Chemscore.Hbond>
3.5374

> <Gold.Chemscore.Metal>
0.0000

> <Gold.Chemscore.Lipo>
82.5791

> <Gold.Chemscore.Internal_Hbond>
0.0000

> <Gold.Chemscore.DEClash>
0.1294

> <Gold.Chemscore.DEInternal>
4.2332

> <Gold.Chemscore.Rot>
1.0000

> <Gold.Chemscore.Internal.Correction>
   9.000000E+99

> <Gold.Chemscore.Hbonds>
donor molecule, donor type, donor heavy atom, donor atom, acceptor molecule, acceptor atom, score
      L1  H     9    29       P1  7948  0.24
      L1  H    12    30       P1  7948  0.65
      L1  H    16    46       P1 10747  0.98
      P1  H  7997  8008       L1     3  0.50

> <Gold.Chemscore.Hbond.Weighted>
-11.8149

> <Gold.Chemscore.Metal.Weighted>
-0.0000

> <Gold.Chemscore.Lipo.Weighted>
-9.6618

> <Gold.Chemscore.Internal_Hbond.Weighted>
0.0000

> <Gold.Chemscore.DEClash.Weighted>
0.1294

> <Gold.Chemscore.DEInternal.Weighted>
4.2332

> <Gold.Chemscore.Rot.Weighted>
2.5600

> <Gold.Chemscore.Internal.Correction.Weighted>
   9.000000E+99

> <Gold.Protein.RotatedTorsions>
[ 6907 6896 6895 6894 ] final -142.98 input  -60.11 | X-H torsion
[ 7974 7965 7964 7962 ] final  119.99 input  175.53 | X-H torsion
[ 8008 7997 7996 7995 ] final  -86.90 input   59.86 | X-H torsion
[ 10167 10162 10161 10158 ] final -110.92 input  -65.29 | X-H torsion
[ 10718 10713 10712 10709 ] final  -35.07 input   66.30 | X-H torsion
[ 10763 10752 10751 10750 ] final    6.49 input  -60.55 | X-H torsion
[ 11005 11000 10999 10996 ] final  -85.23 input  -57.11 | X-H torsion

> <Gold.Protein.ActiveResidues>
 VAL166  LYS551  ARG553  GLY616  TRP617  ASP618  TYR619  PRO620  LYS621  CYS622 
 ASP623  PHE694  ASN695  SER759  ASP760  ASP761  ALA762  ILE779  LEU786  VAL792 
 PHE793  MET794  SER795  GLU796  ALA797  LYS798  CYS799  TRP800  GLU811  SER814 

> <Gold.Protein.RotatedAtoms>
  151.0943  133.5291  159.2613 H   0  0  0  0  0  0  0  0  0  0  0  0  # atno 6907 bound_to 6896
  151.2146  135.0494  159.8935 H   0  0  0  0  0  0  0  0  0  0  0  0  # atno 6908 bound_to 6896
  152.5437  134.0754  159.8266 H   0  0  0  0  0  0  0  0  0  0  0  0  # atno 6909 bound_to 6896
  145.1365  139.3295  143.4638 H   0  0  0  0  0  0  0  0  0  0  0  0  # atno 7974 bound_to 7965
  154.6571  140.0572  157.0021 H   0  0  0  0  0  0  0  0  0  0  0  0  # atno 8008 bound_to 7997
  155.1283  140.3254  155.4461 H   0  0  0  0  0  0  0  0  0  0  0  0  # atno 8009 bound_to 7997
  156.2602  140.1985  156.6403 H   0  0  0  0  0  0  0  0  0  0  0  0  # atno 8010 bound_to 7997
  140.1392  143.4293  152.1573 H   0  0  0  0  0  0  0  0  0  0  0  0  # atno 10167 bound_to 10162
  156.3430  130.4296  149.7770 H   0  0  0  0  0  0  0  0  0  0  0  0  # atno 10718 bound_to 10713
  153.2472  135.6910  153.7719 H   0  0  0  0  0  0  0  0  0  0  0  0  # atno 10763 bound_to 10752
  153.6827  135.3326  155.3183 H   0  0  0  0  0  0  0  0  0  0  0  0  # atno 10764 bound_to 10752
  154.8379  135.4526  154.1415 H   0  0  0  0  0  0  0  0  0  0  0  0  # atno 10765 bound_to 10752
  141.1643  133.7388  156.8984 H   0  0  0  0  0  0  0  0  0  0  0  0  # atno 11005 bound_to 11000
  146.3509  140.1384  142.8595 LP  0  0  0  0  0  0  0  0  0  0  0  0  # atno 17320 bound_to 7965
  145.0579  140.9066  143.4956 LP  0  0  0  0  0  0  0  0  0  0  0  0  # atno 17321 bound_to 7965
  139.5480  144.7315  151.4522 LP  0  0  0  0  0  0  0  0  0  0  0  0  # atno 17342 bound_to 10162
  140.6770  143.8167  150.7072 LP  0  0  0  0  0  0  0  0  0  0  0  0  # atno 17343 bound_to 10162
  156.4999  130.8124  151.3128 LP  0  0  0  0  0  0  0  0  0  0  0  0  # atno 17370 bound_to 10713
  157.7450  130.9948  150.2720 LP  0  0  0  0  0  0  0  0  0  0  0  0  # atno 17371 bound_to 10713
  140.1599  134.9172  157.2702 LP  0  0  0  0  0  0  0  0  0  0  0  0  # atno 17394 bound_to 11000
  140.2623  134.3557  155.7402 LP  0  0  0  0  0  0  0  0  0  0  0  0  # atno 17395 bound_to 11000

$$$$
