AV-unprocessed.smi:1356|AV-procd|sdf|5540|dock6
  -GOLD-   22720 5133D 1   1.00000     0.00000
 Structure written by MMmdl.
 41 42  0  0  0  0  0  0  0  0  1 V2000
  147.9708  132.6263  152.3086 C   0  0  0  0  0  0  0  0  0  0  0  0
  148.8540  132.8003  153.5253 C   0  0  2  0  0  0  0  0  0  0  0  0
  148.2808  132.7121  154.9189 C   0  0  0  0  0  0  0  0  0  0  0  0
  148.7448  134.0496  154.3799 C   0  0  1  0  0  0  0  0  0  0  0  0
  150.0020  134.6197  154.9505 C   0  0  0  0  0  0  0  0  0  0  0  0
  150.6340  134.0802  155.8597 O   0  0  0  0  0  0  0  0  0  0  0  0
  150.3721  135.7823  154.3926 N   0  0  0  0  0  0  0  0  0  0  0  0
  151.5290  136.5845  154.7880 C   0  0  0  0  0  0  0  0  0  0  0  0
  151.4894  138.0306  154.2440 C   0  0  0  0  0  0  0  0  0  0  0  0
  152.0184  139.0695  155.2382 C   0  0  0  0  0  0  0  0  0  0  0  0
  152.9227  139.8369  154.9083 O   0  0  0  0  0  0  0  0  0  0  0  0
  151.4284  139.0958  156.4429 N   0  0  0  0  0  0  0  0  0  0  0  0
  151.7187  140.0611  157.4954 C   0  0  0  0  0  0  0  0  0  0  0  0
  151.3101  141.4834  157.0764 C   0  0  0  0  0  0  0  0  0  0  0  0
  151.6354  142.5117  158.1428 C   0  0  0  0  0  0  0  0  0  0  0  0
  152.5831  142.2301  159.1500 C   0  0  0  0  0  0  0  0  0  0  0  0
  152.8544  143.2220  160.1121 C   0  0  0  0  0  0  0  0  0  0  0  0
  152.1719  144.4511  160.0302 C   0  0  0  0  0  0  0  0  0  0  0  0
  151.2452  144.6346  158.9847 C   0  0  0  0  0  0  0  0  0  0  0  0
  150.9778  143.6901  158.0571 N   0  0  0  0  0  0  0  0  0  0  0  0
  146.9861  133.0627  152.4785 H   0  0  0  0  0  0  0  0  0  0  0  0
  147.8474  131.5665  152.0847 H   0  0  0  0  0  0  0  0  0  0  0  0
  148.4234  133.1142  151.4452 H   0  0  0  0  0  0  0  0  0  0  0  0
  149.8469  132.3724  153.3960 H   0  0  0  0  0  0  0  0  0  0  0  0
  147.2075  132.5707  155.0272 H   0  0  0  0  0  0  0  0  0  0  0  0
  148.8862  132.2195  155.6779 H   0  0  0  0  0  0  0  0  0  0  0  0
  147.9638  134.7627  154.1194 H   0  0  0  0  0  0  0  0  0  0  0  0
  149.7958  136.1544  153.6514 H   0  0  0  0  0  0  0  0  0  0  0  0
  151.6056  136.5990  155.8762 H   0  0  0  0  0  0  0  0  0  0  0  0
  152.4255  136.0790  154.4277 H   0  0  0  0  0  0  0  0  0  0  0  0
  152.0570  138.0903  153.3141 H   0  0  0  0  0  0  0  0  0  0  0  0
  150.4631  138.2946  153.9874 H   0  0  0  0  0  0  0  0  0  0  0  0
  150.6969  138.4244  156.6280 H   0  0  0  0  0  0  0  0  0  0  0  0
  151.1663  139.7647  158.3876 H   0  0  0  0  0  0  0  0  0  0  0  0
  152.7774  140.0252  157.7582 H   0  0  0  0  0  0  0  0  0  0  0  0
  151.8156  141.7661  156.1516 H   0  0  0  0  0  0  0  0  0  0  0  0
  150.2411  141.5153  156.8608 H   0  0  0  0  0  0  0  0  0  0  0  0
  153.0916  141.2780  159.1852 H   0  0  0  0  0  0  0  0  0  0  0  0
  153.5732  143.0435  160.8981 H   0  0  0  0  0  0  0  0  0  0  0  0
  152.3548  145.2348  160.7505 H   0  0  0  0  0  0  0  0  0  0  0  0
  150.7047  145.5648  158.8905 H   0  0  0  0  0  0  0  0  0  0  0  0
  1  2  1  0  0  0  0
  1 21  1  0  0  0  0
  1 22  1  0  0  0  0
  1 23  1  0  0  0  0
  2  4  1  0  0  0  0
  2  3  1  0  0  0  0
  2 24  1  0  0  0  0
  3  4  1  0  0  0  0
  3 25  1  0  0  0  0
  3 26  1  0  0  0  0
  4  5  1  0  0  0  0
  4 27  1  0  0  0  0
  5  6  2  0  0  0  0
  5  7  1  0  0  0  0
  7  8  1  0  0  0  0
  7 28  1  0  0  0  0
  8  9  1  0  0  0  0
  8 29  1  0  0  0  0
  8 30  1  0  0  0  0
  9 10  1  0  0  0  0
  9 31  1  0  0  0  0
  9 32  1  0  0  0  0
 10 11  2  0  0  0  0
 10 12  1  0  0  0  0
 12 13  1  0  0  0  0
 12 33  1  0  0  0  0
 13 14  1  0  0  0  0
 13 34  1  0  0  0  0
 13 35  1  0  0  0  0
 14 15  1  0  0  0  0
 14 36  1  0  0  0  0
 14 37  1  0  0  0  0
 15 20  1  0  0  0  0
 15 16  2  0  0  0  0
 16 17  1  0  0  0  0
 16 38  1  0  0  0  0
 17 18  2  0  0  0  0
 17 39  1  0  0  0  0
 18 19  1  0  0  0  0
 18 40  1  0  0  0  0
 19 20  2  0  0  0  0
 19 41  1  0  0  0  0
M  END
> <s_m_source_file>
AV-unprocessed.smi

> <i_m_source_file_index>
1356

> <i_lp_mmshare_version>
43012

> <i_f3d_flags>
0

> <s_epik_input>
W0NIM11bQ0BASF0xW0NIMl1bQ0BIXTFDKD1PKVtOSF1bQ0gyXVtDSDJdQyg9TylbTkhdW0NIMl1bQ0gyXWMyW2NIXVtjSF1bY0hdW2NIXW4y

> <s_epik_cmdline>
J2VwaWtfcHl0aG9uJywgJy1waCcsICc3LjAnLCAnLXRuJywgJzgnLCAnLW1hJywgJzIwMCcsICctbWV0YWxfYmluZGluZycsICctaW1hZScsICc8aW5maWxlLm1hZT4nLCAnLW9tYWUnLCAnPG91dGZpbGUubWFlPic=

> <r_epik_Ionization_Penalty>
0.0258005

> <r_epik_Ionization_Penalty_Charging>
0

> <r_epik_Ionization_Penalty_Neutral>
0.0258005

> <r_epik_State_Penalty>
0.0210245

> <r_epik_Charging_Adjusted_Penalty>
0.0210245

> <i_epik_Tot_Q>
0

> <i_epik_Tot_abs_Q>
0

> <r_epik_Metal_State_Penalty>
0.0201445

> <b_epik_Metal_Only>
0

> <s_lp_Force_Field>
OPLS_2005

> <r_lp_Energy>
2.94754

> <b_lp_Chiralities_Consistent>
1

> <s_lp_Variant>
AV-unprocessed.smi:1356-1

> <Gold.Version>
5.8.1

> <Gold.Id.Protein>
6NUR|6NUR_protein|mol2

> <Gold.PLP.Fitness>
45.8922

> <Gold.PLP.PLP>
-40.1941

> <Gold.PLP.part.hbond>
-3.6961

> <Gold.PLP.part.metal>
0.0000

> <Gold.PLP.part.buried>
-0.9827

> <Gold.PLP.part.nonpolar>
-36.2485

> <Gold.PLP.part.repulsive>
0.3385

> <Gold.PLP.ligand.clash>
0.0000

> <Gold.PLP.ligand.torsion>
0.7828

> <Gold.PLP.Chemscore.Hbond>
2.3728

> <Gold.PLP.Chemscore.CHOScore>
0.0000

> <Gold.PLP.Chemscore.Metal>
0.0000

> <Gold.Chemscore.Hbonds>
donor molecule, donor type, donor heavy atom, donor atom, acceptor molecule, acceptor atom, score
      L1  H     7    28       P1  7948  0.95
      P1  H  7989  7998       L1    11  0.19
      P1  H  7997  8008       L1    11  1.00

> <Gold.PLP.Chemscore.Internal.Correction>
0.1452

> <Gold.Rescore>
     Score         DG    S(hbond)    S(metal)    S(lipo)     H(rot)  DE(clash)    DE(int)     intcor
     16.49     -17.31       1.83        0.00      96.33       2.18       0.00       0.82       ----

> <Gold.Chemscore.Fitness>
16.4898

> <Gold.Chemscore.DG>
-17.3067

> <Gold.Chemscore.ZeroCoef>
-5.4800

> <Gold.Chemscore.Hbond>
1.8339

> <Gold.Chemscore.Metal>
0.0000

> <Gold.Chemscore.Lipo>
96.3265

> <Gold.Chemscore.Internal_Hbond>
0.0000

> <Gold.Chemscore.DEClash>
0.0004

> <Gold.Chemscore.DEInternal>
0.8165

> <Gold.Chemscore.Rot>
2.1753

> <Gold.Chemscore.Internal.Correction>
   9.000000E+99

> <Gold.Chemscore.Hbonds>
donor molecule, donor type, donor heavy atom, donor atom, acceptor molecule, acceptor atom, score
      L1  H     7    28       P1  7948  0.21
      P1  H  7989  7998       L1    11  0.02
      P1  H  7997  8008       L1    11  0.96

> <Gold.Chemscore.Hbond.Weighted>
-6.1252

> <Gold.Chemscore.Metal.Weighted>
-0.0000

> <Gold.Chemscore.Lipo.Weighted>
-11.2702

> <Gold.Chemscore.Internal_Hbond.Weighted>
0.0000

> <Gold.Chemscore.DEClash.Weighted>
0.0004

> <Gold.Chemscore.DEInternal.Weighted>
0.8165

> <Gold.Chemscore.Rot.Weighted>
5.5687

> <Gold.Chemscore.Internal.Correction.Weighted>
   9.000000E+99

> <Gold.Protein.RotatedTorsions>
[ 6907 6896 6895 6894 ] final  -97.99 input  -60.11 | X-H torsion
[ 7974 7965 7964 7962 ] final  -23.74 input  175.53 | X-H torsion
[ 8008 7997 7996 7995 ] final  -31.25 input   59.86 | X-H torsion
[ 10167 10162 10161 10158 ] final  -13.15 input  -65.29 | X-H torsion
[ 10718 10713 10712 10709 ] final   99.64 input   66.30 | X-H torsion
[ 10763 10752 10751 10750 ] final  -49.55 input  -60.55 | X-H torsion
[ 11005 11000 10999 10996 ] final  -71.99 input  -57.11 | X-H torsion

> <Gold.Protein.ActiveResidues>
 VAL166  LYS551  ARG553  GLY616  TRP617  ASP618  TYR619  PRO620  LYS621  CYS622 
 ASP623  PHE694  ASN695  SER759  ASP760  ASP761  ALA762  ILE779  LEU786  VAL792 
 PHE793  MET794  SER795  GLU796  ALA797  LYS798  CYS799  TRP800  GLU811  SER814 

> <Gold.Protein.RotatedAtoms>
  150.7033  134.1263  159.4052 H   0  0  0  0  0  0  0  0  0  0  0  0  # atno 6907 bound_to 6896
  151.9249  135.0280  160.0534 H   0  0  0  0  0  0  0  0  0  0  0  0  # atno 6908 bound_to 6896
  152.2225  133.4959  159.5207 H   0  0  0  0  0  0  0  0  0  0  0  0  # atno 6909 bound_to 6896
  146.1597  140.4657  142.8576 H   0  0  0  0  0  0  0  0  0  0  0  0  # atno 7974 bound_to 7965
  154.4220  140.1769  156.1537 H   0  0  0  0  0  0  0  0  0  0  0  0  # atno 8008 bound_to 7997
  155.9894  140.3370  155.6714 H   0  0  0  0  0  0  0  0  0  0  0  0  # atno 8009 bound_to 7997
  155.6393  140.0678  157.2614 H   0  0  0  0  0  0  0  0  0  0  0  0  # atno 8010 bound_to 7997
  140.7176  143.5456  150.9359 H   0  0  0  0  0  0  0  0  0  0  0  0  # atno 10167 bound_to 10162
  157.6872  131.0675  150.4979 H   0  0  0  0  0  0  0  0  0  0  0  0  # atno 10718 bound_to 10713
  154.0960  135.6570  153.4860 H   0  0  0  0  0  0  0  0  0  0  0  0  # atno 10763 bound_to 10752
  153.0305  135.5213  154.7334 H   0  0  0  0  0  0  0  0  0  0  0  0  # atno 10764 bound_to 10752
  154.6471  135.2996  155.0001 H   0  0  0  0  0  0  0  0  0  0  0  0  # atno 10765 bound_to 10752
  141.1601  133.6833  156.6991 H   0  0  0  0  0  0  0  0  0  0  0  0  # atno 11005 bound_to 11000
  144.8011  140.6214  143.6477 LP  0  0  0  0  0  0  0  0  0  0  0  0  # atno 17320 bound_to 7965
  145.4618  139.1512  143.3862 LP  0  0  0  0  0  0  0  0  0  0  0  0  # atno 17321 bound_to 7965
  139.9180  143.6640  152.3102 LP  0  0  0  0  0  0  0  0  0  0  0  0  # atno 17342 bound_to 10162
  139.7047  144.7630  151.1213 LP  0  0  0  0  0  0  0  0  0  0  0  0  # atno 17343 bound_to 10162
  156.5302  130.4183  149.6205 LP  0  0  0  0  0  0  0  0  0  0  0  0  # atno 17370 bound_to 10713
  156.3076  130.7211  151.2097 LP  0  0  0  0  0  0  0  0  0  0  0  0  # atno 17371 bound_to 10713
  140.2972  134.8192  157.4067 LP  0  0  0  0  0  0  0  0  0  0  0  0  # atno 17394 bound_to 11000
  140.1294  134.5116  155.8118 LP  0  0  0  0  0  0  0  0  0  0  0  0  # atno 17395 bound_to 11000

$$$$
