AV-unprocessed.smi:2093|AV-procd|sdf|8549|dock1
  -GOLD-   2272011273D 1   1.00000     0.00000
 Structure written by MMmdl.
 30 31  0  0  0  0  0  0  0  0  2 V2000
  151.6148  137.1489  158.2370 C   0  0  0  0  0  0  0  0  0  0  0  0
  150.4237  138.0179  157.8070 C   0  0  1  0  0  0  0  0  0  0  0  0
  149.4281  138.0094  158.8789 N   0  0  0  0  0  0  0  0  0  0  0  0
  148.9114  136.9317  159.4881 C   0  0  0  0  0  0  0  0  0  0  0  0
  149.2707  135.8001  159.1549 O   0  0  0  0  0  0  0  0  0  0  0  0
  148.0016  137.2334  160.4425 N   0  5  0  0  0  0  0  0  0  0  0  0
  147.4235  136.2517  161.1535 C   0  0  0  0  0  0  0  0  0  0  0  0
  147.7094  134.9564  160.9776 N   0  0  0  0  0  0  0  0  0  0  0  0
  146.9944  134.1098  161.8267 C   0  0  0  0  0  0  0  0  0  0  0  0
  146.1522  134.7766  162.6764 C   0  0  0  0  0  0  0  0  0  0  0  0
  146.2317  136.4983  162.4331 S   0  0  0  0  0  0  0  0  0  0  0  0
  150.8593  139.4624  157.4830 C   0  0  2  0  0  0  0  0  0  0  0  0
  151.5603  140.2028  158.6212 C   0  0  0  0  0  0  0  0  0  0  0  0
  151.4044  141.6504  158.2048 C   0  0  0  0  0  0  0  0  0  0  0  0
  150.0881  141.6535  157.4235 C   0  0  0  0  0  0  0  0  0  0  0  0
  149.7277  140.2873  157.2385 O   0  0  0  0  0  0  0  0  0  0  0  0
  152.3682  137.0948  157.4508 H   0  0  0  0  0  0  0  0  0  0  0  0
  151.2972  136.1289  158.4556 H   0  0  0  0  0  0  0  0  0  0  0  0
  152.0949  137.5473  159.1315 H   0  0  0  0  0  0  0  0  0  0  0  0
  150.0017  137.5696  156.9060 H   0  0  0  0  0  0  0  0  0  0  0  0
  149.0966  138.9101  159.1911 H   0  0  0  0  0  0  0  0  0  0  0  0
  147.1488  133.0433  161.7582 H   0  0  0  0  0  0  0  0  0  0  0  0
  145.4945  134.3639  163.4261 H   0  0  0  0  0  0  0  0  0  0  0  0
  151.4945  139.4754  156.5951 H   0  0  0  0  0  0  0  0  0  0  0  0
  151.0398  140.0296  159.5642 H   0  0  0  0  0  0  0  0  0  0  0  0
  152.6024  139.9076  158.7472 H   0  0  0  0  0  0  0  0  0  0  0  0
  151.3933  142.3319  159.0560 H   0  0  0  0  0  0  0  0  0  0  0  0
  152.2271  141.9398  157.5499 H   0  0  0  0  0  0  0  0  0  0  0  0
  149.2956  142.1654  157.9701 H   0  0  0  0  0  0  0  0  0  0  0  0
  150.2074  142.1472  156.4587 H   0  0  0  0  0  0  0  0  0  0  0  0
  1  2  1  0  0  0  0
  1 17  1  0  0  0  0
  1 18  1  0  0  0  0
  1 19  1  0  0  0  0
  2  3  1  0  0  0  0
  2 12  1  0  0  0  0
  2 20  1  0  0  0  0
  3  4  1  0  0  0  0
  3 21  1  0  0  0  0
  4  5  2  0  0  0  0
  4  6  1  0  0  0  0
  6  7  1  0  0  0  0
  7 11  1  0  0  0  0
  7  8  2  0  0  0  0
  8  9  1  0  0  0  0
  9 10  2  0  0  0  0
  9 22  1  0  0  0  0
 10 11  1  0  0  0  0
 10 23  1  0  0  0  0
 12 16  1  0  0  0  0
 12 13  1  0  0  0  0
 12 24  1  0  0  0  0
 13 14  1  0  0  0  0
 13 25  1  0  0  0  0
 13 26  1  0  0  0  0
 14 15  1  0  0  0  0
 14 27  1  0  0  0  0
 14 28  1  0  0  0  0
 15 16  1  0  0  0  0
 15 29  1  0  0  0  0
 15 30  1  0  0  0  0
M  CHG  1   6  -1
M  END
> <s_m_source_file>
AV-unprocessed.smi

> <i_m_source_file_index>
2093

> <i_lp_mmshare_version>
43012

> <i_f3d_flags>
0

> <s_epik_input>
TzFbQ0gyXVtDSDJdW0NIMl1bQ0BIXTFbQ0BIXShbQ0gzXSlbTkhdQyg9TylbTkhdYzJuW2NIXVtjSF1zMg==

> <s_epik_cmdline>
J2VwaWtfcHl0aG9uJywgJy1waCcsICc3LjAnLCAnLXRuJywgJzgnLCAnLW1hJywgJzIwMCcsICctbWV0YWxfYmluZGluZycsICctaW1hZScsICc8aW5maWxlLm1hZT4nLCAnLW9tYWUnLCAnPG91dGZpbGUubWFlPic=

> <r_lp_tautomer_probability>
0.999

> <r_epik_Ionization_Penalty>
8.26346

> <r_epik_Ionization_Penalty_Charging>
6.6559

> <r_epik_Ionization_Penalty_Neutral>
1.60756

> <r_epik_State_Penalty>
6.65607

> <r_epik_Charging_Adjusted_Penalty>
13.312

> <i_epik_Tot_Q>
-1

> <i_epik_Tot_abs_Q>
1

> <r_epik_Metal_State_Penalty>
2.5789

> <b_epik_Metal_Only>
1

> <s_lp_Force_Field>
OPLS_2005

> <r_lp_Energy>
13.6903

> <b_lp_Chiralities_Consistent>
1

> <s_lp_Variant>
AV-unprocessed.smi:2093-6

> <Gold.Version>
5.8.1

> <Gold.Id.Protein>
6NUR|6NUR_protein|mol2

> <Gold.PLP.Fitness>
37.5940

> <Gold.PLP.PLP>
-25.7791

> <Gold.PLP.part.hbond>
-3.0000

> <Gold.PLP.part.metal>
0.0000

> <Gold.PLP.part.buried>
-4.5142

> <Gold.PLP.part.nonpolar>
-19.5342

> <Gold.PLP.part.repulsive>
0.2239

> <Gold.PLP.ligand.clash>
0.0000

> <Gold.PLP.ligand.torsion>
0.0843

> <Gold.PLP.Chemscore.Hbond>
3.9760

> <Gold.PLP.Chemscore.CHOScore>
0.0000

> <Gold.PLP.Chemscore.Metal>
0.0000

> <Gold.Chemscore.Hbonds>
donor molecule, donor type, donor heavy atom, donor atom, acceptor molecule, acceptor atom, score
      P1  H  6896  6907       L1     5  1.00
      P1  H  6931  6943       L1     6  1.36
      P1  H  6934  6947       L1     6  1.50

> <Gold.PLP.Chemscore.Internal.Correction>
0.0554

> <Gold.Rescore>
     Score         DG    S(hbond)    S(metal)    S(lipo)     H(rot)  DE(clash)    DE(int)     intcor
     11.41     -14.71       1.93        0.00      51.74       1.28       0.01       3.29       ----

> <Gold.Chemscore.Fitness>
11.4149

> <Gold.Chemscore.DG>
-14.7130

> <Gold.Chemscore.ZeroCoef>
-5.4800

> <Gold.Chemscore.Hbond>
1.9314

> <Gold.Chemscore.Metal>
0.0000

> <Gold.Chemscore.Lipo>
51.7374

> <Gold.Chemscore.Internal_Hbond>
0.0000

> <Gold.Chemscore.DEClash>
0.0102

> <Gold.Chemscore.DEInternal>
3.2879

> <Gold.Chemscore.Rot>
1.2778

> <Gold.Chemscore.Internal.Correction>
   9.000000E+99

> <Gold.Chemscore.Hbonds>
donor molecule, donor type, donor heavy atom, donor atom, acceptor molecule, acceptor atom, score
      P1  H  6896  6907       L1     5  0.96
      P1  H  6931  6943       L1     6  0.11
      P1  H  6934  6947       L1     6  0.56

> <Gold.Chemscore.Hbond.Weighted>
-6.4508

> <Gold.Chemscore.Metal.Weighted>
-0.0000

> <Gold.Chemscore.Lipo.Weighted>
-6.0533

> <Gold.Chemscore.Internal_Hbond.Weighted>
0.0000

> <Gold.Chemscore.DEClash.Weighted>
0.0102

> <Gold.Chemscore.DEInternal.Weighted>
3.2879

> <Gold.Chemscore.Rot.Weighted>
3.2711

> <Gold.Chemscore.Internal.Correction.Weighted>
   9.000000E+99

> <Gold.Protein.RotatedTorsions>
[ 6907 6896 6895 6894 ] final  -78.71 input  -60.11 | X-H torsion
[ 7974 7965 7964 7962 ] final -109.10 input  175.53 | X-H torsion
[ 8008 7997 7996 7995 ] final  -39.64 input   59.86 | X-H torsion
[ 10167 10162 10161 10158 ] final   35.48 input  -65.29 | X-H torsion
[ 10718 10713 10712 10709 ] final  143.07 input   66.30 | X-H torsion
[ 10763 10752 10751 10750 ] final  -21.66 input  -60.55 | X-H torsion
[ 11005 11000 10999 10996 ] final   43.30 input  -57.11 | X-H torsion

> <Gold.Protein.ActiveResidues>
 VAL166  LYS551  ARG553  GLY616  TRP617  ASP618  TYR619  PRO620  LYS621  CYS622 
 ASP623  PHE694  ASN695  SER759  ASP760  ASP761  ALA762  ILE779  LEU786  VAL792 
 PHE793  MET794  SER795  GLU796  ALA797  LYS798  CYS799  TRP800  GLU811  SER814 

> <Gold.Protein.RotatedAtoms>
  150.6966  134.4231  159.5213 H   0  0  0  0  0  0  0  0  0  0  0  0  # atno 6907 bound_to 6896
  152.1971  134.8618  160.0521 H   0  0  0  0  0  0  0  0  0  0  0  0  # atno 6908 bound_to 6896
  151.9552  133.3643  159.4052 H   0  0  0  0  0  0  0  0  0  0  0  0  # atno 6909 bound_to 6896
  145.1846  140.8987  143.3460 H   0  0  0  0  0  0  0  0  0  0  0  0  # atno 7974 bound_to 7965
  154.4021  140.1546  156.2896 H   0  0  0  0  0  0  0  0  0  0  0  0  # atno 8008 bound_to 7997
  155.8797  140.3444  155.5857 H   0  0  0  0  0  0  0  0  0  0  0  0  # atno 8009 bound_to 7997
  155.7681  140.0826  157.2112 H   0  0  0  0  0  0  0  0  0  0  0  0  # atno 8010 bound_to 7997
  140.4218  144.1449  150.6149 H   0  0  0  0  0  0  0  0  0  0  0  0  # atno 10167 bound_to 10162
  157.3732  131.0982  151.0809 H   0  0  0  0  0  0  0  0  0  0  0  0  # atno 10718 bound_to 10713
  153.6396  135.6985  153.5246 H   0  0  0  0  0  0  0  0  0  0  0  0  # atno 10763 bound_to 10752
  153.2793  135.4190  155.1063 H   0  0  0  0  0  0  0  0  0  0  0  0  # atno 10764 bound_to 10752
  154.8503  135.3598  154.5940 H   0  0  0  0  0  0  0  0  0  0  0  0  # atno 10765 bound_to 10752
  140.1658  134.4284  155.8288 H   0  0  0  0  0  0  0  0  0  0  0  0  # atno 11005 bound_to 11000
  145.0102  139.3517  143.6124 LP  0  0  0  0  0  0  0  0  0  0  0  0  # atno 17320 bound_to 7965
  146.3447  139.9361  142.8747 LP  0  0  0  0  0  0  0  0  0  0  0  0  # atno 17321 bound_to 7965
  140.4525  143.2481  151.9329 LP  0  0  0  0  0  0  0  0  0  0  0  0  # atno 17342 bound_to 10162
  139.4783  144.5548  151.8330 LP  0  0  0  0  0  0  0  0  0  0  0  0  # atno 17343 bound_to 10162
  157.1905  130.6350  149.5703 LP  0  0  0  0  0  0  0  0  0  0  0  0  # atno 17370 bound_to 10713
  155.9760  130.4723  150.6496 LP  0  0  0  0  0  0  0  0  0  0  0  0  # atno 17371 bound_to 10713
  141.2213  133.6934  156.7676 LP  0  0  0  0  0  0  0  0  0  0  0  0  # atno 17394 bound_to 11000
  140.2435  134.8595  157.3597 LP  0  0  0  0  0  0  0  0  0  0  0  0  # atno 17395 bound_to 11000

$$$$
