AV-unprocessed.smi:283|AV-procd|sdf|2129|dock2
  -GOLD-   2262021443D 1   1.00000     0.00000
 Structure written by MMmdl.
 48 51  0  0  0  0  0  0  0  0  1 V2000
  152.5408  137.4807  157.6165 C   0  0  0  0  0  0  0  0  0  0  0  0
  151.9585  138.9002  157.6506 C   0  0  2  0  0  0  0  0  0  0  0  0
  151.9580  139.4647  156.3025 N   0  0  0  0  0  0  0  0  0  0  0  0
  150.8022  139.7746  155.6745 C   0  0  0  0  0  0  0  0  0  0  0  0
  150.5132  141.0957  155.6011 N   0  0  0  0  0  0  0  0  0  0  0  0
  149.3818  141.5038  155.0202 C   0  0  0  0  0  0  0  0  0  0  0  0
  148.4229  140.7691  154.4541 N   0  0  0  0  0  0  0  0  0  0  0  0
  148.7136  139.4367  154.5082 C   0  0  0  0  0  0  0  0  0  0  0  0
  149.8756  138.8583  155.0945 C   0  0  0  0  0  0  0  0  0  0  0  0
  149.8213  137.4779  154.9475 N   0  0  0  0  0  0  0  0  0  0  0  0
  148.6903  137.2596  154.3358 C   0  0  0  0  0  0  0  0  0  0  0  0
  147.9632  138.3884  154.0177 N   0  0  0  0  0  0  0  0  0  0  0  0
  146.6255  138.5132  153.3470 C   0  0  2  0  0  0  0  0  0  0  0  0
  145.6926  137.8470  154.1417 O   0  0  0  0  0  0  0  0  0  0  0  0
  145.4860  136.5315  153.6414 C   0  0  1  0  0  0  0  0  0  0  0  0
  144.1802  135.9253  154.1871 C   0  0  0  0  0  0  0  0  0  0  0  0
  144.0390  134.5936  153.7402 O   0  0  0  0  0  0  0  0  0  0  0  0
  145.5357  136.7544  152.1226 C   0  0  1  0  0  0  0  0  0  0  0  0
  144.2691  137.1722  151.6384 O   0  0  0  0  0  0  0  0  0  0  0  0
  146.6155  137.8306  151.9652 C   0  0  1  0  0  0  0  0  0  0  0  0
  146.3463  138.7320  150.9076 O   0  0  0  0  0  0  0  0  0  0  0  0
  152.6839  139.7475  158.7003 C   0  0  0  0  0  0  0  0  0  0  0  0
  153.6266  139.1439  159.5655 C   0  0  0  0  0  0  0  0  0  0  0  0
  154.3075  139.9074  160.5318 C   0  0  0  0  0  0  0  0  0  0  0  0
  154.0458  141.2839  160.6514 C   0  0  0  0  0  0  0  0  0  0  0  0
  153.0988  141.8925  159.8076 C   0  0  0  0  0  0  0  0  0  0  0  0
  152.4144  141.1328  158.8377 C   0  0  0  0  0  0  0  0  0  0  0  0
  151.2510  141.9322  157.8390 Cl  0  0  0  0  0  0  0  0  0  0  0  0
  146.4111  139.5817  153.3140 H   0  0  0  0  0  0  0  0  0  0  0  0
  146.3272  135.8994  153.9266 H   0  0  0  0  0  0  0  0  0  0  0  0
  145.8068  135.8385  151.5966 H   0  0  0  0  0  0  0  0  0  0  0  0
  147.5798  137.3629  151.7687 H   0  0  0  0  0  0  0  0  0  0  0  0
  152.4700  137.0041  158.5947 H   0  0  0  0  0  0  0  0  0  0  0  0
  153.5920  137.4890  157.3260 H   0  0  0  0  0  0  0  0  0  0  0  0
  152.0029  136.8518  156.9064 H   0  0  0  0  0  0  0  0  0  0  0  0
  150.9123  138.8025  157.9347 H   0  0  0  0  0  0  0  0  0  0  0  0
  152.8411  139.8584  156.0119 H   0  0  0  0  0  0  0  0  0  0  0  0
  149.2207  142.5716  155.0094 H   0  0  0  0  0  0  0  0  0  0  0  0
  148.3679  136.2574  154.0968 H   0  0  0  0  0  0  0  0  0  0  0  0
  144.1466  135.9615  155.2764 H   0  0  0  0  0  0  0  0  0  0  0  0
  143.3220  136.4861  153.8153 H   0  0  0  0  0  0  0  0  0  0  0  0
  143.2232  134.2495  154.0702 H   0  0  0  0  0  0  0  0  0  0  0  0
  144.3830  137.9797  151.1606 H   0  0  0  0  0  0  0  0  0  0  0  0
  145.4331  138.9731  150.9437 H   0  0  0  0  0  0  0  0  0  0  0  0
  153.8372  138.0873  159.4908 H   0  0  0  0  0  0  0  0  0  0  0  0
  155.0294  139.4358  161.1820 H   0  0  0  0  0  0  0  0  0  0  0  0
  154.5671  141.8711  161.3931 H   0  0  0  0  0  0  0  0  0  0  0  0
  152.8946  142.9484  159.9074 H   0  0  0  0  0  0  0  0  0  0  0  0
  1  2  1  0  0  0  0
  1 33  1  0  0  0  0
  1 34  1  0  0  0  0
  1 35  1  0  0  0  0
  2  3  1  0  0  0  0
  2 22  1  0  0  0  0
  2 36  1  0  0  0  0
  3  4  1  0  0  0  0
  3 37  1  0  0  0  0
  4  9  1  0  0  0  0
  4  5  2  0  0  0  0
  5  6  1  0  0  0  0
  6  7  2  0  0  0  0
  6 38  1  0  0  0  0
  7  8  1  0  0  0  0
  8 12  1  0  0  0  0
  8  9  2  0  0  0  0
  9 10  1  0  0  0  0
 10 11  2  0  0  0  0
 11 12  1  0  0  0  0
 11 39  1  0  0  0  0
 12 13  1  0  0  0  0
 13 29  1  0  0  0  0
 13 20  1  0  0  0  0
 13 14  1  0  0  0  0
 14 15  1  0  0  0  0
 15 30  1  0  0  0  0
 15 16  1  0  0  0  0
 15 18  1  0  0  0  0
 16 17  1  0  0  0  0
 16 40  1  0  0  0  0
 16 41  1  0  0  0  0
 17 42  1  0  0  0  0
 18 31  1  0  0  0  0
 18 19  1  0  0  0  0
 18 20  1  0  0  0  0
 19 43  1  0  0  0  0
 20 32  1  0  0  0  0
 20 21  1  0  0  0  0
 21 44  1  0  0  0  0
 22 27  1  0  0  0  0
 22 23  2  0  0  0  0
 23 24  1  0  0  0  0
 23 45  1  0  0  0  0
 24 25  2  0  0  0  0
 24 46  1  0  0  0  0
 25 26  1  0  0  0  0
 25 47  1  0  0  0  0
 26 27  2  0  0  0  0
 26 48  1  0  0  0  0
 27 28  1  0  0  0  0
M  END
> <s_m_source_file>
AV-unprocessed.smi

> <i_m_source_file_index>
283

> <i_lp_mmshare_version>
43012

> <i_f3d_flags>
0

> <s_epik_input>
Q2xjMVtjSF1bY0hdW2NIXVtjSF1jMVtDQEhdKFtDSDNdKVtOSF1jKG5bY0hdbjIpYyhjMjMpbltjSF1uM1tDQEBIXTRPW0NASF0oW0NIMl1bT0hdKVtDQEBIXShbT0hdKVtDQEhdNFtPSF0=

> <s_epik_cmdline>
J2VwaWtfcHl0aG9uJywgJy1waCcsICc3LjAnLCAnLXRuJywgJzgnLCAnLW1hJywgJzIwMCcsICctbWV0YWxfYmluZGluZycsICctaW1hZScsICc8aW5maWxlLm1hZT4nLCAnLW9tYWUnLCAnPG91dGZpbGUubWFlPic=

> <r_lp_tautomer_probability>
1

> <r_epik_Ionization_Penalty>
0.000266407

> <r_epik_Ionization_Penalty_Charging>
0

> <r_epik_Ionization_Penalty_Neutral>
0.000266407

> <r_epik_State_Penalty>
-0

> <r_epik_Charging_Adjusted_Penalty>
0

> <i_epik_Tot_Q>
0

> <i_epik_Tot_abs_Q>
0

> <r_epik_Metal_State_Penalty>
-0

> <b_epik_Metal_Only>
0

> <s_epik_Chemistry_Notes>
This compound contains an acetal/aminal-like group ( X-CH(R)-Y where X, Y are N, S, or O) that may be acid/base labile, releasing an aldehyde.

> <s_lp_Force_Field>
OPLS_2005

> <r_lp_Energy>
46.6771

> <b_lp_Chiralities_Consistent>
1

> <s_lp_Variant>
AV-unprocessed.smi:283-5

> <Gold.Version>
5.8.1

> <Gold.Id.Protein>
6NUR|6NUR_protein|mol2

> <Gold.PLP.Fitness>
50.5044

> <Gold.PLP.PLP>
-39.8646

> <Gold.PLP.part.hbond>
-4.4307

> <Gold.PLP.part.metal>
0.0000

> <Gold.PLP.part.buried>
-1.1241

> <Gold.PLP.part.nonpolar>
-35.1966

> <Gold.PLP.part.repulsive>
0.6049

> <Gold.PLP.ligand.clash>
0.0000

> <Gold.PLP.ligand.torsion>
0.9030

> <Gold.PLP.Chemscore.Hbond>
2.9797

> <Gold.PLP.Chemscore.CHOScore>
1.1232

> <Gold.PLP.Chemscore.Metal>
0.0000

> <Gold.Chemscore.Hbonds>
donor molecule, donor type, donor heavy atom, donor atom, acceptor molecule, acceptor atom, score
      L1  H    19    43       P1 10171  0.74
      L1  H    21    44       P1 10171  0.69
      P1  H  7954  7966       L1    21  0.14
      P1  H  7989  7998       L1     5  0.01
      L1  C     6    38       P1  8028  1.00
      L1  C    11    39       P1  7948  0.37

> <Gold.PLP.Chemscore.Internal.Correction>
0.1369

> <Gold.Rescore>
     Score         DG    S(hbond)    S(metal)    S(lipo)     H(rot)  DE(clash)    DE(int)     intcor
     11.77     -14.57       2.74        0.00      89.00       4.10       1.71       1.09       ----

> <Gold.Chemscore.Fitness>
11.7700

> <Gold.Chemscore.DG>
-14.5681

> <Gold.Chemscore.ZeroCoef>
-5.4800

> <Gold.Chemscore.Hbond>
2.7435

> <Gold.Chemscore.Metal>
0.0000

> <Gold.Chemscore.Lipo>
88.9980

> <Gold.Chemscore.Internal_Hbond>
0.0000

> <Gold.Chemscore.DEClash>
1.7111

> <Gold.Chemscore.DEInternal>
1.0870

> <Gold.Chemscore.Rot>
4.0968

> <Gold.Chemscore.Internal.Correction>
   9.000000E+99

> <Gold.Chemscore.Hbonds>
donor molecule, donor type, donor heavy atom, donor atom, acceptor molecule, acceptor atom, score
      L1  H    19    43       P1 10171  0.71
      L1  H    21    44       P1 10171  0.67

> <Gold.Chemscore.Hbond.Weighted>
-9.1632

> <Gold.Chemscore.Metal.Weighted>
-0.0000

> <Gold.Chemscore.Lipo.Weighted>
-10.4128

> <Gold.Chemscore.Internal_Hbond.Weighted>
0.0000

> <Gold.Chemscore.DEClash.Weighted>
1.7111

> <Gold.Chemscore.DEInternal.Weighted>
1.0870

> <Gold.Chemscore.Rot.Weighted>
10.4879

> <Gold.Chemscore.Internal.Correction.Weighted>
   9.000000E+99

> <Gold.Protein.RotatedTorsions>
[ 6907 6896 6895 6894 ] final   72.24 input  -60.11 | X-H torsion
[ 7974 7965 7964 7962 ] final   10.08 input  175.53 | X-H torsion
[ 8008 7997 7996 7995 ] final   53.10 input   59.86 | X-H torsion
[ 10167 10162 10161 10158 ] final   47.96 input  -65.29 | X-H torsion
[ 10718 10713 10712 10709 ] final  139.69 input   66.30 | X-H torsion
[ 10763 10752 10751 10750 ] final  -97.77 input  -60.55 | X-H torsion
[ 11005 11000 10999 10996 ] final  -60.04 input  -57.11 | X-H torsion

> <Gold.Protein.ActiveResidues>
 VAL166  LYS551  ARG553  GLY616  TRP617  ASP618  TYR619  PRO620  LYS621  CYS622 
 ASP623  PHE694  ASN695  SER759  ASP760  ASP761  ALA762  ILE779  LEU786  VAL792 
 PHE793  MET794  SER795  GLU796  ALA797  LYS798  CYS799  TRP800  GLU811  SER814 

> <Gold.Protein.RotatedAtoms>
  152.4857  134.4600  159.9601 H   0  0  0  0  0  0  0  0  0  0  0  0  # atno 6907 bound_to 6896
  151.4597  133.3590  159.2815 H   0  0  0  0  0  0  0  0  0  0  0  0  # atno 6908 bound_to 6896
  150.8965  134.8399  159.7390 H   0  0  0  0  0  0  0  0  0  0  0  0  # atno 6909 bound_to 6896
  146.2394  139.9687  142.8449 H   0  0  0  0  0  0  0  0  0  0  0  0  # atno 7974 bound_to 7965
  155.4627  140.3462  155.4315 H   0  0  0  0  0  0  0  0  0  0  0  0  # atno 8008 bound_to 7997
  156.1150  140.1471  156.9314 H   0  0  0  0  0  0  0  0  0  0  0  0  # atno 8009 bound_to 7997
  154.4783  140.0878  156.7294 H   0  0  0  0  0  0  0  0  0  0  0  0  # atno 8010 bound_to 7997
  140.2982  144.2965  150.6225 H   0  0  0  0  0  0  0  0  0  0  0  0  # atno 10167 bound_to 10162
  157.4116  131.1028  151.0448 H   0  0  0  0  0  0  0  0  0  0  0  0  # atno 10718 bound_to 10713
  154.7357  135.5034  153.9038 H   0  0  0  0  0  0  0  0  0  0  0  0  # atno 10763 bound_to 10752
  153.0993  135.6681  153.9712 H   0  0  0  0  0  0  0  0  0  0  0  0  # atno 10764 bound_to 10752
  153.9502  135.3058  155.3418 H   0  0  0  0  0  0  0  0  0  0  0  0  # atno 10765 bound_to 10752
  141.1272  133.6619  156.5163 H   0  0  0  0  0  0  0  0  0  0  0  0  # atno 11005 bound_to 11000
  145.1701  140.9717  143.4326 LP  0  0  0  0  0  0  0  0  0  0  0  0  # atno 17320 bound_to 7965
  145.0036  139.3575  143.6155 LP  0  0  0  0  0  0  0  0  0  0  0  0  # atno 17321 bound_to 7965
  140.5674  143.2184  151.7660 LP  0  0  0  0  0  0  0  0  0  0  0  0  # atno 17342 bound_to 10162
  139.4921  144.4265  151.9920 LP  0  0  0  0  0  0  0  0  0  0  0  0  # atno 17343 bound_to 10162
  157.1410  130.6143  149.5555 LP  0  0  0  0  0  0  0  0  0  0  0  0  # atno 17370 bound_to 10713
  155.9852  130.4881  150.7022 LP  0  0  0  0  0  0  0  0  0  0  0  0  # atno 17371 bound_to 10713
  140.4328  134.7086  157.4951 LP  0  0  0  0  0  0  0  0  0  0  0  0  # atno 17394 bound_to 11000
  140.0282  134.6446  155.9143 LP  0  0  0  0  0  0  0  0  0  0  0  0  # atno 17395 bound_to 11000

$$$$
