#       Name:                AV-unprocessed.smi:2750
#       Creating user name   scv26
#       Creation time:       Fri Mar 27 15:04:17 2020


#       File generated by GOLD software.
#

@<TRIPOS>MOLECULE
AV-unprocessed.smi:2750
    35    36     1
SMALL
NO_CHARGES


@<TRIPOS>ATOM
      1 ****        -3.8740   3.0812   0.3882 O.co2          1 S1                 0.0000
      2 ****        -3.6946   2.2806   1.3321 C.2            1 S1                 0.0000
      3 ****        -3.7334   2.5672   2.5486 O.co2          1 S1                -1.0000
      4 ****        -3.4016   0.8257   0.9669 C.3            1 S1                 0.0000
      5 ****        -1.9765   0.5687   0.8684 N.pl3          1 S1                 0.0000
      6 ****        -1.1230   0.8562  -0.1767 C.2            1 S1                 0.0000
      7 ****         0.0870   0.4052   0.2674 C.2            1 S1                 0.0000
      8 ****         1.4159   0.4314  -0.4267 C.3            1 S1                 0.0000
      9 ****         1.7426  -0.8940  -1.1442 C.3            1 S1                 0.0000
     10 ****         2.0423  -1.9486  -0.1991 N.am           1 S1                 0.0000
     11 ****         3.2566  -2.4545  -0.4045 C.2            1 S1                 0.0000
     12 ****         3.6987  -3.3745   0.2799 O.2            1 S1                 0.0000
     13 ****         3.8609  -1.8102  -1.4218 N.pl3          1 S1                -1.0000
     14 ****         3.0530  -0.8544  -1.9289 C.2            1 S1                 0.0000
     15 ****         3.2406  -0.0612  -2.8502 O.2            1 S1                 0.0000
     16 ****        -0.0780  -0.1345   1.5432 N.2            1 S1                 0.0000
     17 ****        -1.3213  -0.0269   1.8940 N.2            1 S1                 0.0000
     18 ****        -3.8424   0.1608   1.7114 H              1 S1                 0.0000
     19 ****        -3.8661   0.5828   0.0103 H              1 S1                 0.0000
     20 ****        -1.4374   1.3344  -1.0925 H              1 S1                 0.0000
     21 ****         1.4167   1.2419  -1.1567 H              1 S1                 0.0000
     22 ****         2.2065   0.6777   0.2840 H              1 S1                 0.0000
     23 ****         0.9300  -1.1983  -1.8055 H              1 S1                 0.0000
     24 ****         1.3971  -2.2572   0.5134 H              1 S1                 0.0000
     25 ****        -4.0679   4.0435   0.5788 LP             1 S1                 0.0000
     26 ****        -3.8235   2.7591  -0.5572 LP             1 S1                 0.0000
     27 ****        -3.9211   3.5067   2.8352 LP             1 S1                 0.0000
     28 ****        -3.5767   1.8570   3.2348 LP             1 S1                 0.0000
     29 ****         3.1425  -3.7633   1.0143 LP             1 S1                 0.0000
     30 ****         4.6147  -3.7342   0.1023 LP             1 S1                 0.0000
     31 ****         4.7817  -2.0121  -1.7555 LP             1 S1                 0.0000
     32 ****         2.5226   0.5858  -3.1071 LP             1 S1                 0.0000
     33 ****         4.1111  -0.0633  -3.3424 LP             1 S1                 0.0000
     34 ****         0.6477  -0.5400   2.0989 LP             1 S1                 0.0000
     35 ****        -1.7219  -0.3273   2.7596 LP             1 S1                 0.0000
@<TRIPOS>BOND
    1    1    2 ar    
    2    2    3 ar    
    3    2    4 1     
    4    4    5 1     
    5    4   18 1     
    6    4   19 1     
    7    5   17 1     
    8    5    6 1     
    9    6    7 2     
   10    6   20 1     
   11    7    8 1     
   12    7   16 1     
   13    8    9 1     
   14    8   21 1     
   15    8   22 1     
   16    9   14 1     
   17    9   10 1     
   18    9   23 1     
   19   10   11 am    
   20   10   24 1     
   21   11   12 2     
   22   11   13 1     
   23   13   14 1     
   24   14   15 2     
   25   16   17 2     
   26    1   25 1     
   27    1   26 1     
   28    3   27 1     
   29    3   28 1     
   30   12   29 1     
   31   12   30 1     
   32   13   31 1     
   33   15   32 1     
   34   15   33 1     
   35   16   34 1     
   36   17   35 1     
@<TRIPOS>SUBSTRUCTURE
      1 S1             1
@<TRIPOS>SET
LONE_PAIRS      STATIC     ATOMS    <user>   **** ""
11 25 26 27 28 29 30 31 32 33 34 35
DONOR_HYDROGENS      STATIC     ATOMS    <user>   **** ""
1 24
ATOM$BLUE        STATIC     ATOMS    COLORGROUP SYSTEM
11 25 26 27 28 29 30 31 32 33 34 35
ATOM$RED        STATIC     ATOMS    COLORGROUP SYSTEM
1 24
