#       Name:                AV-unprocessed.smi:2784
#       Creating user name   scv26
#       Creation time:       Fri Mar 27 15:17:58 2020


#       File generated by GOLD software.
#

@<TRIPOS>MOLECULE
AV-unprocessed.smi:2784
    38    39     1
SMALL
NO_CHARGES


@<TRIPOS>ATOM
      1 ****        -2.7417   3.0247  -1.3431 C.3            1 S1                 0.0000
      2 ****        -1.9705   1.8528  -1.5538 O.3            1 S1                 0.0000
      3 ****        -0.7182   1.8615  -0.8805 C.3            1 S1                 0.0000
      4 ****         0.2843   2.8115  -1.5525 C.3            1 S1                 0.0000
      5 ****         1.6432   2.1578  -1.3305 C.3            1 S1                 0.0000
      6 ****         1.3558   0.6654  -1.4777 C.3            1 S1                 0.0000
      7 ****        -0.0729   0.4589  -0.9365 C.3            1 S1                 0.0000
      8 ****        -0.0506  -0.1510   0.3920 N.am           1 S1                 0.0000
      9 ****         0.1308  -1.4524   0.6587 C.2            1 S1                 0.0000
     10 ****         0.3025  -2.2511  -0.2652 O.2            1 S1                 0.0000
     11 ****         0.1068  -1.7461   1.9784 N.pl3          1 S1                -1.0000
     12 ****         0.2850  -3.0135   2.3846 C.2            1 S1                 0.0000
     13 ****        -0.6690  -3.8607   2.7747 N.2            1 S1                 0.0000
     14 ****        -0.0176  -5.0389   3.1059 C.2            1 S1                 0.0000
     15 ****         1.3223  -4.8481   2.9059 C.2            1 S1                 0.0000
     16 ****         1.5261  -3.5731   2.4553 O.3            1 S1                 0.0000
     17 ****        -3.6923   2.9327  -1.8682 H              1 S1                 0.0000
     18 ****        -2.2365   3.9130  -1.7236 H              1 S1                 0.0000
     19 ****        -2.9573   3.1706  -0.2839 H              1 S1                 0.0000
     20 ****        -0.8551   2.1620   0.1607 H              1 S1                 0.0000
     21 ****         0.0840   2.8655  -2.6236 H              1 S1                 0.0000
     22 ****         0.2360   3.8250  -1.1535 H              1 S1                 0.0000
     23 ****         2.4011   2.5111  -2.0302 H              1 S1                 0.0000
     24 ****         1.9941   2.3680  -0.3191 H              1 S1                 0.0000
     25 ****         1.3779   0.4000  -2.5355 H              1 S1                 0.0000
     26 ****         2.1070   0.0512  -0.9790 H              1 S1                 0.0000
     27 ****        -0.6312  -0.1846  -1.6192 H              1 S1                 0.0000
     28 ****        -0.1891   0.4667   1.1781 H              1 S1                 0.0000
     29 ****        -0.5531  -5.9093   3.4546 H              1 S1                 0.0000
     30 ****         2.1977  -5.4682   3.0269 H              1 S1                 0.0000
     31 ****        -1.8004   1.7593  -2.5348 LP             1 S1                 0.0000
     32 ****        -2.4969   1.0665  -1.2304 LP             1 S1                 0.0000
     33 ****         0.3063  -1.9278  -1.2115 LP             1 S1                 0.0000
     34 ****         0.4380  -3.2221  -0.0681 LP             1 S1                 0.0000
     35 ****        -0.0433  -1.0210   2.6504 LP             1 S1                 0.0000
     36 ****        -1.6520  -3.6825   2.8191 LP             1 S1                 0.0000
     37 ****         2.1039  -3.0643   3.0935 LP             1 S1                 0.0000
     38 ****         1.9567  -3.5853   1.5528 LP             1 S1                 0.0000
@<TRIPOS>BOND
    1    1    2 1     
    2    1   17 1     
    3    1   18 1     
    4    1   19 1     
    5    2    3 1     
    6    3    7 1     
    7    3    4 1     
    8    3   20 1     
    9    4    5 1     
   10    4   21 1     
   11    4   22 1     
   12    5    6 1     
   13    5   23 1     
   14    5   24 1     
   15    6    7 1     
   16    6   25 1     
   17    6   26 1     
   18    7    8 1     
   19    7   27 1     
   20    8   28 1     
   21    8    9 am    
   22    9   11 1     
   23    9   10 2     
   24   11   12 1     
   25   12   16 1     
   26   12   13 2     
   27   13   14 1     
   28   14   29 1     
   29   14   15 2     
   30   15   30 1     
   31   15   16 1     
   32    2   31 1     
   33    2   32 1     
   34   10   33 1     
   35   10   34 1     
   36   11   35 1     
   37   13   36 1     
   38   16   37 1     
   39   16   38 1     
@<TRIPOS>SUBSTRUCTURE
      1 S1             1
@<TRIPOS>SET
LONE_PAIRS      STATIC     ATOMS    <user>   **** ""
8 31 32 33 34 35 36 37 38
DONOR_HYDROGENS      STATIC     ATOMS    <user>   **** ""
1 28
ATOM$BLUE        STATIC     ATOMS    COLORGROUP SYSTEM
8 31 32 33 34 35 36 37 38
ATOM$RED        STATIC     ATOMS    COLORGROUP SYSTEM
1 28
