#       Name:                AV-unprocessed.smi:2784
#       Creating user name   scv26
#       Creation time:       Fri Mar 27 15:16:49 2020


#       File generated by GOLD software.
#

@<TRIPOS>MOLECULE
AV-unprocessed.smi:2784
    38    39     1
SMALL
NO_CHARGES


@<TRIPOS>ATOM
      1 ****        -2.5596   3.2320   1.1682 C.3            1 S1                 0.0000
      2 ****        -1.9331   1.9963   1.4735 O.3            1 S1                 0.0000
      3 ****        -0.5910   1.9054   1.0147 C.3            1 S1                 0.0000
      4 ****         0.3666   2.7504   1.8663 C.3            1 S1                 0.0000
      5 ****         1.6894   1.9949   1.8161 C.3            1 S1                 0.0000
      6 ****         1.2729   0.5261   1.8608 C.3            1 S1                 0.0000
      7 ****        -0.0853   0.4511   1.1351 C.3            1 S1                 0.0000
      8 ****         0.0546  -0.1569  -0.1862 N.am           1 S1                 0.0000
      9 ****         0.0996  -1.4752  -0.4263 C.2            1 S1                 0.0000
     10 ****         0.0429  -2.3294   0.4587 O.2            1 S1                 0.0000
     11 ****         0.2160  -1.7283  -1.7406 N.am           1 S1                 0.0000
     12 ****         0.2729  -2.9954  -2.3737 C.2            1 S1                 0.0000
     13 ****         0.2192  -4.1863  -1.7752 N.2            1 S1                 0.0000
     14 ****         0.3077  -5.1034  -2.8123 C.2            1 S1                 0.0000
     15 ****         0.4112  -4.4086  -3.9899 C.2            1 S1                 0.0000
     16 ****         0.3902  -3.0652  -3.7261 O.3            1 S1                 0.0000
     17 ****        -3.5851   3.2200   1.5370 H              1 S1                 0.0000
     18 ****        -2.5934   3.4012   0.0914 H              1 S1                 0.0000
     19 ****        -2.0469   4.0713   1.6389 H              1 S1                 0.0000
     20 ****        -0.5270   2.2319  -0.0258 H              1 S1                 0.0000
     21 ****         0.4553   3.7763   1.5080 H              1 S1                 0.0000
     22 ****         0.0135   2.7873   2.8979 H              1 S1                 0.0000
     23 ****         2.1998   2.2058   0.8757 H              1 S1                 0.0000
     24 ****         2.3605   2.2662   2.6313 H              1 S1                 0.0000
     25 ****         2.0340  -0.1294   1.4359 H              1 S1                 0.0000
     26 ****         1.1381   0.2247   2.9003 H              1 S1                 0.0000
     27 ****        -0.7816  -0.1387   1.7349 H              1 S1                 0.0000
     28 ****         0.1085   0.4740  -0.9723 H              1 S1                 0.0000
     29 ****         0.2600  -0.9297  -2.3561 H              1 S1                 0.0000
     30 ****         0.2899  -6.1683  -2.6335 H              1 S1                 0.0000
     31 ****         0.5001  -4.6989  -5.0264 H              1 S1                 0.0000
     32 ****        -2.4619   1.2612   1.0491 LP             1 S1                 0.0000
     33 ****        -1.9356   1.8783   2.4665 LP             1 S1                 0.0000
     34 ****        -0.0414  -2.0528   1.4160 LP             1 S1                 0.0000
     35 ****         0.0811  -3.2998   0.2202 LP             1 S1                 0.0000
     36 ****         0.1341  -4.3758  -0.7970 LP             1 S1                 0.0000
     37 ****         1.2369  -2.6300  -4.0320 LP             1 S1                 0.0000
     38 ****        -0.3899  -2.6277  -4.1733 LP             1 S1                 0.0000
@<TRIPOS>BOND
    1    1    2 1     
    2    1   17 1     
    3    1   18 1     
    4    1   19 1     
    5    2    3 1     
    6    3    7 1     
    7    3    4 1     
    8    3   20 1     
    9    4    5 1     
   10    4   21 1     
   11    4   22 1     
   12    5    6 1     
   13    5   23 1     
   14    5   24 1     
   15    6    7 1     
   16    6   25 1     
   17    6   26 1     
   18    7    8 1     
   19    7   27 1     
   20    8    9 am    
   21    8   28 1     
   22    9   10 2     
   23    9   11 am    
   24   11   12 1     
   25   11   29 1     
   26   12   16 1     
   27   12   13 2     
   28   13   14 1     
   29   14   15 2     
   30   14   30 1     
   31   15   16 1     
   32   15   31 1     
   33    2   32 1     
   34    2   33 1     
   35   10   34 1     
   36   10   35 1     
   37   13   36 1     
   38   16   37 1     
   39   16   38 1     
@<TRIPOS>SUBSTRUCTURE
      1 S1             1
@<TRIPOS>SET
LONE_PAIRS      STATIC     ATOMS    <user>   **** ""
7 32 33 34 35 36 37 38
DONOR_HYDROGENS      STATIC     ATOMS    <user>   **** ""
2 28 29
ATOM$BLUE        STATIC     ATOMS    COLORGROUP SYSTEM
7 32 33 34 35 36 37 38
ATOM$RED        STATIC     ATOMS    COLORGROUP SYSTEM
2 28 29
