AV-unprocessed.smi:1703|AV-procd|sdf|6879|dock10
  -GOLD-   22720 8 83D 1   1.00000     0.00000
 Structure written by MMmdl.
 50 52  0  0  0  0  0  0  0  0  3 V2000
  151.1657  139.3254  155.0940 C   0  0  0  0  0  0  0  0  0  0  0  0
  150.3358  138.1249  154.6269 C   0  0  2  0  0  0  0  0  0  0  0  0
  148.8471  138.4808  154.4518 C   0  0  0  0  0  0  0  0  0  0  0  0
  148.0661  137.2768  154.0738 N   0  3  2  0  0  0  0  0  0  0  0  0
  146.6235  137.5457  153.8407 C   0  0  0  0  0  0  0  0  0  0  0  0
  145.8027  136.2675  153.5725 C   0  0  1  0  0  0  0  0  0  0  0  0
  145.2795  135.7841  154.7950 O   0  0  0  0  0  0  0  0  0  0  0  0
  144.6363  136.5402  152.6013 C   0  0  0  0  0  0  0  0  0  0  0  0
  143.8553  135.3326  152.2865 N   0  0  0  0  0  0  0  0  0  0  0  0
  142.5711  134.9909  152.6032 C   0  0  0  0  0  0  0  0  0  0  0  0
  141.5894  135.7920  153.3933 C   0  0  0  0  0  0  0  0  0  0  0  0
  140.3290  135.1655  153.4751 O   0  0  0  0  0  0  0  0  0  0  0  0
  142.3397  133.7572  152.0718 N   0  3  0  0  0  0  0  0  0  0  0  0
  143.4792  133.3071  151.4049 C   0  0  0  0  0  0  0  0  0  0  0  0
  143.7245  132.1241  150.7147 C   0  0  0  0  0  0  0  0  0  0  0  0
  145.0061  131.9786  150.1439 C   0  0  0  0  0  0  0  0  0  0  0  0
  145.9855  132.9851  150.2715 C   0  0  0  0  0  0  0  0  0  0  0  0
  145.7257  134.1794  150.9754 C   0  0  0  0  0  0  0  0  0  0  0  0
  144.4560  134.3152  151.5362 C   0  0  0  0  0  0  0  0  0  0  0  0
  148.2832  136.1940  155.0622 C   0  0  0  0  0  0  0  0  0  0  0  0
  149.7867  135.8989  155.2213 C   0  0  2  0  0  0  0  0  0  0  0  0
  150.0569  134.8370  156.2926 C   0  0  0  0  0  0  0  0  0  0  0  0
  150.4562  137.0956  155.6025 O   0  0  0  0  0  0  0  0  0  0  0  0
  151.1213  140.1396  154.3703 H   0  0  0  0  0  0  0  0  0  0  0  0
  152.2132  139.0499  155.2194 H   0  0  0  0  0  0  0  0  0  0  0  0
  150.8057  139.7070  156.0500 H   0  0  0  0  0  0  0  0  0  0  0  0
  150.7436  137.7701  153.6786 H   0  0  0  0  0  0  0  0  0  0  0  0
  148.4489  138.8959  155.3793 H   0  0  0  0  0  0  0  0  0  0  0  0
  148.7514  139.2534  153.6900 H   0  0  0  0  0  0  0  0  0  0  0  0
  146.2012  138.0507  154.7110 H   0  0  0  0  0  0  0  0  0  0  0  0
  146.5230  138.2436  153.0079 H   0  0  0  0  0  0  0  0  0  0  0  0
  146.4351  135.4909  153.1449 H   0  0  0  0  0  0  0  0  0  0  0  0
  144.8772  136.5005  155.2618 H   0  0  0  0  0  0  0  0  0  0  0  0
  143.9576  137.2827  153.0214 H   0  0  0  0  0  0  0  0  0  0  0  0
  145.0021  136.9624  151.6642 H   0  0  0  0  0  0  0  0  0  0  0  0
  141.9737  135.9666  154.3980 H   0  0  0  0  0  0  0  0  0  0  0  0
  141.4652  136.7698  152.9274 H   0  0  0  0  0  0  0  0  0  0  0  0
  139.8812  135.2854  152.6509 H   0  0  0  0  0  0  0  0  0  0  0  0
  142.9758  131.3518  150.6154 H   0  0  0  0  0  0  0  0  0  0  0  0
  145.2422  131.0772  149.5969 H   0  0  0  0  0  0  0  0  0  0  0  0
  146.9559  132.8378  149.8198 H   0  0  0  0  0  0  0  0  0  0  0  0
  146.4833  134.9435  151.0670 H   0  0  0  0  0  0  0  0  0  0  0  0
  147.8506  136.4848  156.0211 H   0  0  0  0  0  0  0  0  0  0  0  0
  147.7660  135.2904  154.7369 H   0  0  0  0  0  0  0  0  0  0  0  0
  150.1947  135.5456  154.2726 H   0  0  0  0  0  0  0  0  0  0  0  0
  149.5693  133.8941  156.0430 H   0  0  0  0  0  0  0  0  0  0  0  0
  149.6889  135.1562  157.2683 H   0  0  0  0  0  0  0  0  0  0  0  0
  151.1254  134.6425  156.3874 H   0  0  0  0  0  0  0  0  0  0  0  0
  148.4429  136.9379  153.2002 H   0  0  0  0  0  0  0  0  0  0  0  0
  141.4627  133.2607  152.1627 H   0  0  0  0  0  0  0  0  0  0  0  0
  1  2  1  0  0  0  0
  1 24  1  0  0  0  0
  1 25  1  0  0  0  0
  1 26  1  0  0  0  0
  2 23  1  0  0  0  0
  2  3  1  0  0  0  0
  2 27  1  0  0  0  0
  3  4  1  0  0  0  0
  3 28  1  0  0  0  0
  3 29  1  0  0  0  0
  4  5  1  0  0  0  0
  4 20  1  0  0  0  0
  4 49  1  0  0  0  0
  5  6  1  0  0  0  0
  5 30  1  0  0  0  0
  5 31  1  0  0  0  0
  6  7  1  0  0  0  0
  6  8  1  0  0  0  0
  6 32  1  0  0  0  0
  7 33  1  0  0  0  0
  8  9  1  0  0  0  0
  8 34  1  0  0  0  0
  8 35  1  0  0  0  0
  9 19  1  0  0  0  0
  9 10  1  0  0  0  0
 10 11  1  0  0  0  0
 10 13  2  0  0  0  0
 11 12  1  0  0  0  0
 11 36  1  0  0  0  0
 11 37  1  0  0  0  0
 12 38  1  0  0  0  0
 13 14  1  0  0  0  0
 13 50  1  0  0  0  0
 14 19  2  0  0  0  0
 14 15  1  0  0  0  0
 15 16  2  0  0  0  0
 15 39  1  0  0  0  0
 16 17  1  0  0  0  0
 16 40  1  0  0  0  0
 17 18  2  0  0  0  0
 17 41  1  0  0  0  0
 18 19  1  0  0  0  0
 18 42  1  0  0  0  0
 20 21  1  0  0  0  0
 20 43  1  0  0  0  0
 20 44  1  0  0  0  0
 21 22  1  0  0  0  0
 21 23  1  0  0  0  0
 21 45  1  0  0  0  0
 22 46  1  0  0  0  0
 22 47  1  0  0  0  0
 22 48  1  0  0  0  0
M  CHG  1   4   1
M  CHG  1  13   1
M  END
> <s_m_source_file>
AV-unprocessed.smi

> <i_m_source_file_index>
1703

> <i_lp_mmshare_version>
43012

> <i_f3d_flags>
0

> <s_epik_input>
W0NIM11bQ0BASF0xW0NIMl1OKFtDSDJdW0NASF0oTzEpW0NIM10pW0NIMl1bQ0BIXShbT0hdKVtDSDJdbihjKG4yKVtDSDJdW09IXSljKGMyMylbY0hdW2NIXVtjSF1bY0hdMw==

> <s_epik_cmdline>
J2VwaWtfcHl0aG9uJywgJy1waCcsICc3LjAnLCAnLXRuJywgJzgnLCAnLW1hJywgJzIwMCcsICctbWV0YWxfYmluZGluZycsICctaW1hZScsICc8aW5maWxlLm1hZT4nLCAnLW9tYWUnLCAnPG91dGZpbGUubWFlPic=

> <r_epik_Ionization_Penalty>
2.22579

> <r_epik_Ionization_Penalty_Charging>
2.22492

> <r_epik_Ionization_Penalty_Neutral>
0.000870007

> <r_epik_State_Penalty>
2.3141

> <r_epik_Charging_Adjusted_Penalty>
4.53902

> <i_epik_Tot_Q>
2

> <i_epik_Tot_abs_Q>
2

> <r_epik_Metal_State_Penalty>
6.36517

> <b_epik_Metal_Only>
0

> <s_lp_Force_Field>
OPLS_2005

> <r_lp_Energy>
26.5271

> <b_lp_Chiralities_Consistent>
1

> <s_lp_Variant>
AV-unprocessed.smi:1703-27

> <Gold.Version>
5.8.1

> <Gold.Id.Protein>
6NUR|6NUR_protein|mol2

> <Gold.PLP.Fitness>
49.0631

> <Gold.PLP.PLP>
-41.2819

> <Gold.PLP.part.hbond>
-4.4979

> <Gold.PLP.part.metal>
0.0000

> <Gold.PLP.part.buried>
-6.4132

> <Gold.PLP.part.nonpolar>
-30.2765

> <Gold.PLP.part.repulsive>
0.1146

> <Gold.PLP.ligand.clash>
0.0000

> <Gold.PLP.ligand.torsion>
0.5315

> <Gold.PLP.Chemscore.Hbond>
2.9425

> <Gold.PLP.Chemscore.CHOScore>
0.0000

> <Gold.PLP.Chemscore.Metal>
0.0000

> <Gold.Chemscore.Hbonds>
donor molecule, donor type, donor heavy atom, donor atom, acceptor molecule, acceptor atom, score
      L1  H     4    49       P1  7948  2.00
      L1  H    12    38       P1 10187  1.00

> <Gold.PLP.Chemscore.Internal.Correction>
0.0169

> <Gold.Rescore>
     Score         DG    S(hbond)    S(metal)    S(lipo)     H(rot)  DE(clash)    DE(int)     intcor
     12.76     -14.10       1.73        0.00      90.63       3.04       0.19       1.15       ----

> <Gold.Chemscore.Fitness>
12.7639

> <Gold.Chemscore.DG>
-14.0984

> <Gold.Chemscore.ZeroCoef>
-5.4800

> <Gold.Chemscore.Hbond>
1.7340

> <Gold.Chemscore.Metal>
0.0000

> <Gold.Chemscore.Lipo>
90.6269

> <Gold.Chemscore.Internal_Hbond>
0.0000

> <Gold.Chemscore.DEClash>
0.1851

> <Gold.Chemscore.DEInternal>
1.1494

> <Gold.Chemscore.Rot>
3.0378

> <Gold.Chemscore.Internal.Correction>
   9.000000E+99

> <Gold.Chemscore.Hbonds>
donor molecule, donor type, donor heavy atom, donor atom, acceptor molecule, acceptor atom, score
      L1  H     4    49       P1  7948  0.98
      L1  H    12    38       P1 10187  0.24

> <Gold.Chemscore.Hbond.Weighted>
-5.7917

> <Gold.Chemscore.Metal.Weighted>
-0.0000

> <Gold.Chemscore.Lipo.Weighted>
-10.6033

> <Gold.Chemscore.Internal_Hbond.Weighted>
0.0000

> <Gold.Chemscore.DEClash.Weighted>
0.1851

> <Gold.Chemscore.DEInternal.Weighted>
1.1494

> <Gold.Chemscore.Rot.Weighted>
7.7767

> <Gold.Chemscore.Internal.Correction.Weighted>
   9.000000E+99

> <Gold.Protein.RotatedTorsions>
[ 6907 6896 6895 6894 ] final  -18.07 input  -60.11 | X-H torsion
[ 7974 7965 7964 7962 ] final   79.18 input  175.53 | X-H torsion
[ 8008 7997 7996 7995 ] final -122.25 input   59.86 | X-H torsion
[ 10167 10162 10161 10158 ] final  -94.91 input  -65.29 | X-H torsion
[ 10718 10713 10712 10709 ] final -167.10 input   66.30 | X-H torsion
[ 10763 10752 10751 10750 ] final   30.32 input  -60.55 | X-H torsion
[ 11005 11000 10999 10996 ] final -179.99 input  -57.11 | X-H torsion

> <Gold.Protein.ActiveResidues>
 VAL166  LYS551  ARG553  GLY616  TRP617  ASP618  TYR619  PRO620  LYS621  CYS622 
 ASP623  PHE694  ASN695  SER759  ASP760  ASP761  ALA762  ILE779  LEU786  VAL792 
 PHE793  MET794  SER795  GLU796  ALA797  LYS798  CYS799  TRP800  GLU811  SER814 

> <Gold.Protein.RotatedAtoms>
  151.2837  135.0721  159.9178 H   0  0  0  0  0  0  0  0  0  0  0  0  # atno 6907 bound_to 6896
  152.5329  134.0004  159.7902 H   0  0  0  0  0  0  0  0  0  0  0  0  # atno 6908 bound_to 6896
  151.0262  133.5780  159.2696 H   0  0  0  0  0  0  0  0  0  0  0  0  # atno 6909 bound_to 6896
  145.6676  139.2488  143.1887 H   0  0  0  0  0  0  0  0  0  0  0  0  # atno 7974 bound_to 7965
  155.1612  140.0406  157.2843 H   0  0  0  0  0  0  0  0  0  0  0  0  # atno 8008 bound_to 7997
  154.6335  140.2530  155.7379 H   0  0  0  0  0  0  0  0  0  0  0  0  # atno 8009 bound_to 7997
  156.2497  140.2870  156.0697 H   0  0  0  0  0  0  0  0  0  0  0  0  # atno 8010 bound_to 7997
  140.3096  143.3113  152.0162 H   0  0  0  0  0  0  0  0  0  0  0  0  # atno 10167 bound_to 10162
  156.6775  130.9108  151.3052 H   0  0  0  0  0  0  0  0  0  0  0  0  # atno 10718 bound_to 10713
  153.0378  135.6467  154.1027 H   0  0  0  0  0  0  0  0  0  0  0  0  # atno 10763 bound_to 10752
  154.0738  135.2878  155.3305 H   0  0  0  0  0  0  0  0  0  0  0  0  # atno 10764 bound_to 10752
  154.6576  135.5403  153.8042 H   0  0  0  0  0  0  0  0  0  0  0  0  # atno 10765 bound_to 10752
  140.4125  134.6679  157.4621 H   0  0  0  0  0  0  0  0  0  0  0  0  # atno 11005 bound_to 11000
  146.1073  140.7471  142.9520 LP  0  0  0  0  0  0  0  0  0  0  0  0  # atno 17320 bound_to 7965
  144.7068  140.3882  143.7112 LP  0  0  0  0  0  0  0  0  0  0  0  0  # atno 17321 bound_to 7965
  139.4897  144.6395  151.6907 LP  0  0  0  0  0  0  0  0  0  0  0  0  # atno 17342 bound_to 10162
  140.5580  144.0316  150.6156 LP  0  0  0  0  0  0  0  0  0  0  0  0  # atno 17343 bound_to 10162
  157.7055  130.9381  150.0919 LP  0  0  0  0  0  0  0  0  0  0  0  0  # atno 17370 bound_to 10713
  156.1893  130.3654  149.8931 LP  0  0  0  0  0  0  0  0  0  0  0  0  # atno 17371 bound_to 10713
  140.0258  134.6480  155.9175 LP  0  0  0  0  0  0  0  0  0  0  0  0  # atno 17394 bound_to 11000
  141.1816  133.6547  156.5042 LP  0  0  0  0  0  0  0  0  0  0  0  0  # atno 17395 bound_to 11000

$$$$
