AV-unprocessed.smi:694|AV-procd|sdf|3376|dock6
  -GOLD-   22720 0353D 1   1.00000     0.00000
 Structure written by MMmdl.
 43 44  0  0  0  0  0  0  0  0  2 V2000
  152.3685  142.2120  158.7695 C   0  0  0  0  0  0  0  0  0  0  0  0
  151.7456  142.7537  157.5669 N   0  0  0  0  0  0  0  0  0  0  0  0
  151.6378  144.1952  157.3831 C   0  0  0  0  0  0  0  0  0  0  0  0
  151.1069  141.8824  156.6579 C   0  0  0  0  0  0  0  0  0  0  0  0
  151.5843  140.5822  156.3628 C   0  0  0  0  0  0  0  0  0  0  0  0
  150.8917  139.7741  155.4379 C   0  0  0  0  0  0  0  0  0  0  0  0
  149.7253  140.2600  154.8108 C   0  0  0  0  0  0  0  0  0  0  0  0
  149.0787  139.4035  153.8760 N   0  0  0  0  0  0  0  0  0  0  0  0
  147.8082  139.4266  153.4351 C   0  0  0  0  0  0  0  0  0  0  0  0
  146.9266  140.1875  153.8319 O   0  0  0  0  0  0  0  0  0  0  0  0
  147.6072  138.4953  152.4921 N   0  0  0  0  0  0  0  0  0  0  0  0
  146.3449  138.2676  151.7956 C   0  0  0  0  0  0  0  0  0  0  0  0
  146.0930  136.7714  151.5212 C   0  0  2  0  0  0  0  0  0  0  0  0
  144.9940  136.5030  150.4793 C   0  0  0  0  0  0  0  0  0  0  0  0
  144.3310  135.1727  150.8730 C   0  0  0  0  0  0  0  0  0  0  0  0
  145.0069  134.7204  152.1715 C   0  0  0  0  0  0  0  0  0  0  0  0
  145.6255  135.9909  152.7545 C   0  0  1  0  0  0  0  0  0  0  0  0
  146.6900  135.6873  153.6323 O   0  0  0  0  0  0  0  0  0  0  0  0
  149.2872  141.5651  155.1411 C   0  0  0  0  0  0  0  0  0  0  0  0
  149.9814  142.3054  156.0324 N   0  3  0  0  0  0  0  0  0  0  0  0
  153.1567  141.5055  158.5076 H   0  0  0  0  0  0  0  0  0  0  0  0
  151.6300  141.6971  159.3848 H   0  0  0  0  0  0  0  0  0  0  0  0
  152.8170  143.0003  159.3746 H   0  0  0  0  0  0  0  0  0  0  0  0
  150.5923  144.5049  157.3826 H   0  0  0  0  0  0  0  0  0  0  0  0
  152.0928  144.4962  156.4389 H   0  0  0  0  0  0  0  0  0  0  0  0
  152.1448  144.7360  158.1825 H   0  0  0  0  0  0  0  0  0  0  0  0
  152.4743  140.1885  156.8305 H   0  0  0  0  0  0  0  0  0  0  0  0
  151.2612  138.7843  155.2125 H   0  0  0  0  0  0  0  0  0  0  0  0
  149.6666  138.6880  153.4741 H   0  0  0  0  0  0  0  0  0  0  0  0
  148.3839  137.9073  152.2271 H   0  0  0  0  0  0  0  0  0  0  0  0
  145.5206  138.6915  152.3716 H   0  0  0  0  0  0  0  0  0  0  0  0
  146.3748  138.8199  150.8558 H   0  0  0  0  0  0  0  0  0  0  0  0
  147.0145  136.3118  151.1582 H   0  0  0  0  0  0  0  0  0  0  0  0
  144.2461  137.2968  150.4998 H   0  0  0  0  0  0  0  0  0  0  0  0
  145.4027  136.4708  149.4686 H   0  0  0  0  0  0  0  0  0  0  0  0
  143.2636  135.3258  151.0361 H   0  0  0  0  0  0  0  0  0  0  0  0
  144.4357  134.4194  150.0915 H   0  0  0  0  0  0  0  0  0  0  0  0
  144.3132  134.2375  152.8607 H   0  0  0  0  0  0  0  0  0  0  0  0
  145.7903  133.9988  151.9337 H   0  0  0  0  0  0  0  0  0  0  0  0
  144.8621  136.5562  153.2914 H   0  0  0  0  0  0  0  0  0  0  0  0
  147.4951  135.6775  153.1376 H   0  0  0  0  0  0  0  0  0  0  0  0
  148.4198  142.0599  154.7327 H   0  0  0  0  0  0  0  0  0  0  0  0
  149.6381  143.2422  156.2445 H   0  0  0  0  0  0  0  0  0  0  0  0
  1  2  1  0  0  0  0
  1 21  1  0  0  0  0
  1 22  1  0  0  0  0
  1 23  1  0  0  0  0
  2  3  1  0  0  0  0
  2  4  1  0  0  0  0
  3 24  1  0  0  0  0
  3 25  1  0  0  0  0
  3 26  1  0  0  0  0
  4 20  1  0  0  0  0
  4  5  2  0  0  0  0
  5  6  1  0  0  0  0
  5 27  1  0  0  0  0
  6  7  2  0  0  0  0
  6 28  1  0  0  0  0
  7  8  1  0  0  0  0
  7 19  1  0  0  0  0
  8  9  1  0  0  0  0
  8 29  1  0  0  0  0
  9 10  2  0  0  0  0
  9 11  1  0  0  0  0
 11 12  1  0  0  0  0
 11 30  1  0  0  0  0
 12 13  1  0  0  0  0
 12 31  1  0  0  0  0
 12 32  1  0  0  0  0
 13 17  1  0  0  0  0
 13 14  1  0  0  0  0
 13 33  1  0  0  0  0
 14 15  1  0  0  0  0
 14 34  1  0  0  0  0
 14 35  1  0  0  0  0
 15 16  1  0  0  0  0
 15 36  1  0  0  0  0
 15 37  1  0  0  0  0
 16 17  1  0  0  0  0
 16 38  1  0  0  0  0
 16 39  1  0  0  0  0
 17 18  1  0  0  0  0
 17 40  1  0  0  0  0
 18 41  1  0  0  0  0
 19 20  2  0  0  0  0
 19 42  1  0  0  0  0
 20 43  1  0  0  0  0
M  CHG  1  20   1
M  END
> <s_m_source_file>
AV-unprocessed.smi

> <i_m_source_file_index>
694

> <i_lp_mmshare_version>
43012

> <i_f3d_flags>
0

> <s_epik_input>
W0NIM11OKFtDSDNdKWMxW2NIXVtjSF1jKFtjSF1uMSlbTkhdQyg9TylbTkhdW0NIMl1bQ0BASF0yW0NIMl1bQ0gyXVtDSDJdW0NASF0yW09IXQ==

> <s_epik_cmdline>
J2VwaWtfcHl0aG9uJywgJy1waCcsICc3LjAnLCAnLXRuJywgJzgnLCAnLW1hJywgJzIwMCcsICctbWV0YWxfYmluZGluZycsICctaW1hZScsICc8aW5maWxlLm1hZT4nLCAnLW9tYWUnLCAnPG91dGZpbGUubWFlPic=

> <r_lp_tautomer_probability>
0.999994

> <r_epik_Ionization_Penalty>
0.266135

> <r_epik_Ionization_Penalty_Charging>
0.266113

> <r_epik_Ionization_Penalty_Neutral>
2.14137e-05

> <r_epik_State_Penalty>
0.258052

> <r_epik_Charging_Adjusted_Penalty>
0.524165

> <i_epik_Tot_Q>
1

> <i_epik_Tot_abs_Q>
1

> <r_epik_Metal_State_Penalty>
0.544313

> <b_epik_Metal_Only>
0

> <s_lp_Force_Field>
OPLS_2005

> <r_lp_Energy>
32.5934

> <b_lp_Chiralities_Consistent>
1

> <s_lp_Variant>
AV-unprocessed.smi:694-1

> <Gold.Version>
5.8.1

> <Gold.Id.Protein>
6NUR|6NUR_protein|mol2

> <Gold.PLP.Fitness>
46.2560

> <Gold.PLP.PLP>
-36.1533

> <Gold.PLP.part.hbond>
-5.0000

> <Gold.PLP.part.metal>
0.0000

> <Gold.PLP.part.buried>
7.4809

> <Gold.PLP.part.nonpolar>
-40.0518

> <Gold.PLP.part.repulsive>
0.4641

> <Gold.PLP.ligand.clash>
0.0000

> <Gold.PLP.ligand.torsion>
0.8290

> <Gold.PLP.Chemscore.Hbond>
3.9120

> <Gold.PLP.Chemscore.CHOScore>
0.0000

> <Gold.PLP.Chemscore.Metal>
0.0000

> <Gold.Chemscore.Hbonds>
donor molecule, donor type, donor heavy atom, donor atom, acceptor molecule, acceptor atom, score
      L1  H    11    30       P1  7948  0.96
      L1  H    18    41       P1  7948  1.00
      L1  H    20    43       P1  8028  1.92

> <Gold.PLP.Chemscore.Internal.Correction>
0.0247

> <Gold.Rescore>
     Score         DG    S(hbond)    S(metal)    S(lipo)     H(rot)  DE(clash)    DE(int)     intcor
     15.59     -21.89       2.91        0.00      95.45       1.75       4.80       1.50       ----

> <Gold.Chemscore.Fitness>
15.5897

> <Gold.Chemscore.DG>
-21.8908

> <Gold.Chemscore.ZeroCoef>
-5.4800

> <Gold.Chemscore.Hbond>
2.9100

> <Gold.Chemscore.Metal>
0.0000

> <Gold.Chemscore.Lipo>
95.4484

> <Gold.Chemscore.Internal_Hbond>
0.0000

> <Gold.Chemscore.DEClash>
4.7980

> <Gold.Chemscore.DEInternal>
1.5031

> <Gold.Chemscore.Rot>
1.7485

> <Gold.Chemscore.Internal.Correction>
   9.000000E+99

> <Gold.Chemscore.Hbonds>
donor molecule, donor type, donor heavy atom, donor atom, acceptor molecule, acceptor atom, score
      L1  H    11    30       P1  7948  0.92
      L1  H    18    41       P1  7948  0.95
      L1  H    20    43       P1  8028  0.92

> <Gold.Chemscore.Hbond.Weighted>
-9.7195

> <Gold.Chemscore.Metal.Weighted>
-0.0000

> <Gold.Chemscore.Lipo.Weighted>
-11.1675

> <Gold.Chemscore.Internal_Hbond.Weighted>
0.0000

> <Gold.Chemscore.DEClash.Weighted>
4.7980

> <Gold.Chemscore.DEInternal.Weighted>
1.5031

> <Gold.Chemscore.Rot.Weighted>
4.4762

> <Gold.Chemscore.Internal.Correction.Weighted>
   9.000000E+99

> <Gold.Protein.RotatedTorsions>
[ 6907 6896 6895 6894 ] final  100.53 input  -60.11 | X-H torsion
[ 7974 7965 7964 7962 ] final  -29.90 input  175.53 | X-H torsion
[ 8008 7997 7996 7995 ] final   72.86 input   59.86 | X-H torsion
[ 10167 10162 10161 10158 ] final  131.97 input  -65.29 | X-H torsion
[ 10718 10713 10712 10709 ] final  152.87 input   66.30 | X-H torsion
[ 10763 10752 10751 10750 ] final  -49.37 input  -60.55 | X-H torsion
[ 11005 11000 10999 10996 ] final   88.13 input  -57.11 | X-H torsion

> <Gold.Protein.ActiveResidues>
 VAL166  LYS551  ARG553  GLY616  TRP617  ASP618  TYR619  PRO620  LYS621  CYS622 
 ASP623  PHE694  ASN695  SER759  ASP760  ASP761  ALA762  ILE779  LEU786  VAL792 
 PHE793  MET794  SER795  GLU796  ALA797  LYS798  CYS799  TRP800  GLU811  SER814 

> <Gold.Protein.RotatedAtoms>
  152.5370  134.0262  159.8003 H   0  0  0  0  0  0  0  0  0  0  0  0  # atno 6907 bound_to 6896
  151.0441  133.5673  159.2655 H   0  0  0  0  0  0  0  0  0  0  0  0  # atno 6908 bound_to 6896
  151.2632  135.0668  159.9160 H   0  0  0  0  0  0  0  0  0  0  0  0  # atno 6909 bound_to 6896
  146.1182  140.5472  142.8747 H   0  0  0  0  0  0  0  0  0  0  0  0  # atno 7974 bound_to 7965
  155.7751  140.3483  155.5267 H   0  0  0  0  0  0  0  0  0  0  0  0  # atno 8008 bound_to 7997
  155.8784  140.0998  157.1523 H   0  0  0  0  0  0  0  0  0  0  0  0  # atno 8009 bound_to 7997
  154.4023  140.1327  156.4152 H   0  0  0  0  0  0  0  0  0  0  0  0  # atno 8010 bound_to 7997
  139.5360  144.6683  151.4784 H   0  0  0  0  0  0  0  0  0  0  0  0  # atno 10167 bound_to 10162
  157.2522  131.0781  151.1722 H   0  0  0  0  0  0  0  0  0  0  0  0  # atno 10718 bound_to 10713
  154.0929  135.6574  153.4855 H   0  0  0  0  0  0  0  0  0  0  0  0  # atno 10763 bound_to 10752
  153.0315  135.5207  154.7362 H   0  0  0  0  0  0  0  0  0  0  0  0  # atno 10764 bound_to 10752
  154.6491  135.2999  154.9977 H   0  0  0  0  0  0  0  0  0  0  0  0  # atno 10765 bound_to 10752
  139.8903  134.8468  156.2957 H   0  0  0  0  0  0  0  0  0  0  0  0  # atno 11005 bound_to 11000
  144.7573  140.5337  143.6760 LP  0  0  0  0  0  0  0  0  0  0  0  0  # atno 17320 bound_to 7965
  145.5521  139.1477  143.3388 LP  0  0  0  0  0  0  0  0  0  0  0  0  # atno 17321 bound_to 7965
  140.6567  143.8585  150.6843 LP  0  0  0  0  0  0  0  0  0  0  0  0  # atno 17342 bound_to 10162
  140.1966  143.3993  152.1823 LP  0  0  0  0  0  0  0  0  0  0  0  0  # atno 17343 bound_to 10162
  157.3266  130.6964  149.6300 LP  0  0  0  0  0  0  0  0  0  0  0  0  # atno 17370 bound_to 10713
  155.9666  130.4320  150.4943 LP  0  0  0  0  0  0  0  0  0  0  0  0  # atno 17371 bound_to 10713
  140.9947  133.7187  156.0867 LP  0  0  0  0  0  0  0  0  0  0  0  0  # atno 17394 bound_to 11000
  140.7579  134.3972  157.5531 LP  0  0  0  0  0  0  0  0  0  0  0  0  # atno 17395 bound_to 11000

$$$$
