AV-unprocessed.smi:3011|AV-procd|sdf|11459|dock4
  -GOLD-   2272016393D 1   1.00000     0.00000
 Structure written by MMmdl.
 47 49  0  0  0  0  0  0  0  0  2 V2000
  156.1075  138.7360  159.6460 C   0  0  0  0  0  0  0  0  0  0  0  0
  154.8129  138.9473  159.1025 O   0  0  0  0  0  0  0  0  0  0  0  0
  154.1268  140.0867  159.4716 C   0  0  0  0  0  0  0  0  0  0  0  0
  154.6685  141.0951  160.3085 C   0  0  0  0  0  0  0  0  0  0  0  0
  153.9085  142.2312  160.6405 C   0  0  0  0  0  0  0  0  0  0  0  0
  152.6023  142.3738  160.1421 C   0  0  0  0  0  0  0  0  0  0  0  0
  152.0547  141.3798  159.3112 C   0  0  0  0  0  0  0  0  0  0  0  0
  152.8124  140.2312  158.9712 C   0  0  0  0  0  0  0  0  0  0  0  0
  152.3432  139.2162  158.1665 O   0  0  0  0  0  0  0  0  0  0  0  0
  151.0046  139.2733  157.6949 C   0  0  0  0  0  0  0  0  0  0  0  0
  150.9442  140.2616  156.5215 C   0  0  0  0  0  0  0  0  0  0  0  0
  150.2173  139.7082  155.3690 N   0  0  0  0  0  0  0  0  0  0  0  0
  150.4284  138.5624  154.6562 C   0  0  0  0  0  0  0  0  0  0  0  0
  151.4870  137.5261  154.9159 C   0  0  2  0  0  0  0  0  0  0  0  0
  152.9107  138.0761  154.7096 C   0  0  0  0  0  0  0  0  0  0  0  0
  151.2691  136.3005  154.1507 N   0  0  0  0  0  0  0  0  0  0  0  0
  150.7945  135.1480  154.6433 C   0  0  0  0  0  0  0  0  0  0  0  0
  150.4850  134.9976  155.8221 O   0  0  0  0  0  0  0  0  0  0  0  0
  149.4657  138.5119  153.6903 N   0  3  0  0  0  0  0  0  0  0  0  0
  148.6510  139.6410  153.7709 C   0  0  0  0  0  0  0  0  0  0  0  0
  147.5568  140.0316  153.0054 C   0  0  0  0  0  0  0  0  0  0  0  0
  146.9460  141.2544  153.3531 C   0  0  0  0  0  0  0  0  0  0  0  0
  147.4263  142.0369  154.4232 C   0  0  0  0  0  0  0  0  0  0  0  0
  148.5357  141.6291  155.1930 C   0  0  0  0  0  0  0  0  0  0  0  0
  149.1316  140.4174  154.8444 C   0  0  0  0  0  0  0  0  0  0  0  0
  156.5095  137.7985  159.2625 H   0  0  0  0  0  0  0  0  0  0  0  0
  156.0758  138.6599  160.7335 H   0  0  0  0  0  0  0  0  0  0  0  0
  156.7957  139.5318  159.3579 H   0  0  0  0  0  0  0  0  0  0  0  0
  155.6676  141.0213  160.7101 H   0  0  0  0  0  0  0  0  0  0  0  0
  154.3289  142.9945  161.2786 H   0  0  0  0  0  0  0  0  0  0  0  0
  152.0193  143.2463  160.3978 H   0  0  0  0  0  0  0  0  0  0  0  0
  151.0483  141.5212  158.9481 H   0  0  0  0  0  0  0  0  0  0  0  0
  150.6738  138.2889  157.3611 H   0  0  0  0  0  0  0  0  0  0  0  0
  150.3379  139.6039  158.4928 H   0  0  0  0  0  0  0  0  0  0  0  0
  150.4333  141.1744  156.8284 H   0  0  0  0  0  0  0  0  0  0  0  0
  151.9435  140.5620  156.2056 H   0  0  0  0  0  0  0  0  0  0  0  0
  151.4092  137.2374  155.9638 H   0  0  0  0  0  0  0  0  0  0  0  0
  153.0909  138.9395  155.3509 H   0  0  0  0  0  0  0  0  0  0  0  0
  153.0854  138.3869  153.6790 H   0  0  0  0  0  0  0  0  0  0  0  0
  153.6590  137.3235  154.9593 H   0  0  0  0  0  0  0  0  0  0  0  0
  151.5055  136.3301  153.1691 H   0  0  0  0  0  0  0  0  0  0  0  0
  150.7199  134.3683  153.8690 H   0  0  0  0  0  0  0  0  0  0  0  0
  147.1882  139.4342  152.1844 H   0  0  0  0  0  0  0  0  0  0  0  0
  146.0927  141.5992  152.7871 H   0  0  0  0  0  0  0  0  0  0  0  0
  146.9335  142.9688  154.6595 H   0  0  0  0  0  0  0  0  0  0  0  0
  148.8960  142.2363  156.0101 H   0  0  0  0  0  0  0  0  0  0  0  0
  149.3788  137.7570  153.0221 H   0  0  0  0  0  0  0  0  0  0  0  0
  1  2  1  0  0  0  0
  1 26  1  0  0  0  0
  1 27  1  0  0  0  0
  1 28  1  0  0  0  0
  2  3  1  0  0  0  0
  3  8  1  0  0  0  0
  3  4  2  0  0  0  0
  4  5  1  0  0  0  0
  4 29  1  0  0  0  0
  5  6  2  0  0  0  0
  5 30  1  0  0  0  0
  6  7  1  0  0  0  0
  6 31  1  0  0  0  0
  7  8  2  0  0  0  0
  7 32  1  0  0  0  0
  8  9  1  0  0  0  0
  9 10  1  0  0  0  0
 10 11  1  0  0  0  0
 10 33  1  0  0  0  0
 10 34  1  0  0  0  0
 11 12  1  0  0  0  0
 11 35  1  0  0  0  0
 11 36  1  0  0  0  0
 12 25  1  0  0  0  0
 12 13  1  0  0  0  0
 13 14  1  0  0  0  0
 13 19  2  0  0  0  0
 14 15  1  0  0  0  0
 14 16  1  0  0  0  0
 14 37  1  0  0  0  0
 15 38  1  0  0  0  0
 15 39  1  0  0  0  0
 15 40  1  0  0  0  0
 16 17  1  0  0  0  0
 16 41  1  0  0  0  0
 17 18  2  0  0  0  0
 17 42  1  0  0  0  0
 19 20  1  0  0  0  0
 19 47  1  0  0  0  0
 20 25  2  0  0  0  0
 20 21  1  0  0  0  0
 21 22  2  0  0  0  0
 21 43  1  0  0  0  0
 22 23  1  0  0  0  0
 22 44  1  0  0  0  0
 23 24  2  0  0  0  0
 23 45  1  0  0  0  0
 24 25  1  0  0  0  0
 24 46  1  0  0  0  0
M  CHG  1  19   1
M  END
> <s_m_source_file>
AV-unprocessed.smi

> <i_m_source_file_index>
3011

> <i_lp_mmshare_version>
43012

> <i_f3d_flags>
0

> <s_epik_input>
W0NIM11PYzFbY0hdW2NIXVtjSF1bY0hdYzFPW0NIMl1bQ0gyXW4oYyhuMilbQ0BIXShbQ0gzXSlbTkhdW0NIXT1PKWMoYzIzKVtjSF1bY0hdW2NIXVtjSF0z

> <s_epik_cmdline>
J2VwaWtfcHl0aG9uJywgJy1waCcsICc3LjAnLCAnLXRuJywgJzgnLCAnLW1hJywgJzIwMCcsICctbWV0YWxfYmluZGluZycsICctaW1hZScsICc8aW5maWxlLm1hZT4nLCAnLW9tYWUnLCAnPG91dGZpbGUubWFlPic=

> <r_lp_tautomer_probability>
1

> <r_epik_Ionization_Penalty>
1.14644

> <r_epik_Ionization_Penalty_Charging>
1.14644

> <r_epik_Ionization_Penalty_Neutral>
5.5802e-08

> <r_epik_State_Penalty>
1.20743

> <r_epik_Charging_Adjusted_Penalty>
2.35387

> <i_epik_Tot_Q>
1

> <i_epik_Tot_abs_Q>
1

> <r_epik_Metal_State_Penalty>
1.28856

> <b_epik_Metal_Only>
0

> <s_lp_Force_Field>
OPLS_2005

> <r_lp_Energy>
19.8167

> <b_lp_Chiralities_Consistent>
1

> <s_lp_Variant>
AV-unprocessed.smi:3011-3

> <Gold.Version>
5.8.1

> <Gold.Id.Protein>
6NUR|6NUR_protein|mol2

> <Gold.PLP.Fitness>
56.6475

> <Gold.PLP.PLP>
-46.2367

> <Gold.PLP.part.hbond>
-4.9467

> <Gold.PLP.part.metal>
0.0000

> <Gold.PLP.part.buried>
1.1773

> <Gold.PLP.part.nonpolar>
-43.8636

> <Gold.PLP.part.repulsive>
0.2257

> <Gold.PLP.ligand.clash>
0.0000

> <Gold.PLP.ligand.torsion>
0.7144

> <Gold.PLP.Chemscore.Hbond>
3.9000

> <Gold.PLP.Chemscore.CHOScore>
0.0000

> <Gold.PLP.Chemscore.Metal>
0.0000

> <Gold.Chemscore.Hbonds>
donor molecule, donor type, donor heavy atom, donor atom, acceptor molecule, acceptor atom, score
      L1  H    16    41       P1  7949  1.00
      L1  H    19    47       P1  7948  2.00

> <Gold.PLP.Chemscore.Internal.Correction>
0.1396

> <Gold.Rescore>
     Score         DG    S(hbond)    S(metal)    S(lipo)     H(rot)  DE(clash)    DE(int)     intcor
     15.35     -20.64       1.94        0.00     132.34       2.66       4.05       1.24       ----

> <Gold.Chemscore.Fitness>
15.3503

> <Gold.Chemscore.DG>
-20.6398

> <Gold.Chemscore.ZeroCoef>
-5.4800

> <Gold.Chemscore.Hbond>
1.9420

> <Gold.Chemscore.Metal>
0.0000

> <Gold.Chemscore.Lipo>
132.3421

> <Gold.Chemscore.Internal_Hbond>
0.0000

> <Gold.Chemscore.DEClash>
4.0520

> <Gold.Chemscore.DEInternal>
1.2374

> <Gold.Chemscore.Rot>
2.6604

> <Gold.Chemscore.Internal.Correction>
   9.000000E+99

> <Gold.Chemscore.Hbonds>
donor molecule, donor type, donor heavy atom, donor atom, acceptor molecule, acceptor atom, score
      L1  H    16    41       P1  7949  0.87
      L1  H    19    47       P1  7948  0.94

> <Gold.Chemscore.Hbond.Weighted>
-6.4863

> <Gold.Chemscore.Metal.Weighted>
-0.0000

> <Gold.Chemscore.Lipo.Weighted>
-15.4840

> <Gold.Chemscore.Internal_Hbond.Weighted>
0.0000

> <Gold.Chemscore.DEClash.Weighted>
4.0520

> <Gold.Chemscore.DEInternal.Weighted>
1.2374

> <Gold.Chemscore.Rot.Weighted>
6.8106

> <Gold.Chemscore.Internal.Correction.Weighted>
   9.000000E+99

> <Gold.Protein.RotatedTorsions>
[ 6907 6896 6895 6894 ] final  135.66 input  -60.11 | X-H torsion
[ 7974 7965 7964 7962 ] final   99.81 input  175.53 | X-H torsion
[ 8008 7997 7996 7995 ] final  -97.19 input   59.86 | X-H torsion
[ 10167 10162 10161 10158 ] final  -19.49 input  -65.29 | X-H torsion
[ 10718 10713 10712 10709 ] final -101.04 input   66.30 | X-H torsion
[ 10763 10752 10751 10750 ] final -177.73 input  -60.55 | X-H torsion
[ 11005 11000 10999 10996 ] final  -85.66 input  -57.11 | X-H torsion

> <Gold.Protein.ActiveResidues>
 VAL166  LYS551  ARG553  GLY616  TRP617  ASP618  TYR619  PRO620  LYS621  CYS622 
 ASP623  PHE694  ASN695  SER759  ASP760  ASP761  ALA762  ILE779  LEU786  VAL792 
 PHE793  MET794  SER795  GLU796  ALA797  LYS798  CYS799  TRP800  GLU811  SER814 

> <Gold.Protein.RotatedAtoms>
  152.2979  133.5626  159.5599 H   0  0  0  0  0  0  0  0  0  0  0  0  # atno 6907 bound_to 6896
  150.7264  134.0334  159.3750 H   0  0  0  0  0  0  0  0  0  0  0  0  # atno 6908 bound_to 6896
  151.8235  135.0644  160.0479 H   0  0  0  0  0  0  0  0  0  0  0  0  # atno 6909 bound_to 6896
  145.3939  139.2358  143.3336 H   0  0  0  0  0  0  0  0  0  0  0  0  # atno 7974 bound_to 7965
  154.7844  140.0465  157.1152 H   0  0  0  0  0  0  0  0  0  0  0  0  # atno 8008 bound_to 7997
  154.9666  140.3084  155.4987 H   0  0  0  0  0  0  0  0  0  0  0  0  # atno 8009 bound_to 7997
  156.2941  140.2261  156.4755 H   0  0  0  0  0  0  0  0  0  0  0  0  # atno 8010 bound_to 7997
  140.7269  143.4814  151.0113 H   0  0  0  0  0  0  0  0  0  0  0  0  # atno 10167 bound_to 10162
  156.0182  130.5355  150.6905 H   0  0  0  0  0  0  0  0  0  0  0  0  # atno 10718 bound_to 10713
  154.5565  135.2817  155.0959 H   0  0  0  0  0  0  0  0  0  0  0  0  # atno 10763 bound_to 10752
  154.2385  135.6361  153.5203 H   0  0  0  0  0  0  0  0  0  0  0  0  # atno 10764 bound_to 10752
  153.0017  135.5554  154.6147 H   0  0  0  0  0  0  0  0  0  0  0  0  # atno 10765 bound_to 10752
  141.1639  133.7412  156.9048 H   0  0  0  0  0  0  0  0  0  0  0  0  # atno 11005 bound_to 11000
  146.2784  140.4627  142.8786 LP  0  0  0  0  0  0  0  0  0  0  0  0  # atno 17320 bound_to 7965
  144.8421  140.6872  143.6223 LP  0  0  0  0  0  0  0  0  0  0  0  0  # atno 17321 bound_to 7965
  139.8512  143.7436  152.3178 LP  0  0  0  0  0  0  0  0  0  0  0  0  # atno 17342 bound_to 10162
  139.7618  144.7504  151.0352 LP  0  0  0  0  0  0  0  0  0  0  0  0  # atno 17343 bound_to 10162
  157.4588  131.0881  151.0768 LP  0  0  0  0  0  0  0  0  0  0  0  0  # atno 17370 bound_to 10713
  157.1262  130.6083  149.5517 LP  0  0  0  0  0  0  0  0  0  0  0  0  # atno 17371 bound_to 10713
  140.1558  134.9199  157.2651 LP  0  0  0  0  0  0  0  0  0  0  0  0  # atno 17394 bound_to 11000
  140.2669  134.3505  155.7387 LP  0  0  0  0  0  0  0  0  0  0  0  0  # atno 17395 bound_to 11000

$$$$
