AV-unprocessed.smi:264|AV-procd|sdf|2007|dock3
  -GOLD-   2262021203D 1   1.00000     0.00000
 Structure written by MMmdl.
 52 56  0  0  0  0  0  0  0  0  1 V2000
  151.6658  140.3999  158.7953 C   0  0  0  0  0  0  0  0  0  0  0  0
  152.1281  138.9577  158.5348 C   0  0  2  0  0  0  0  0  0  0  0  0
  152.6685  138.9122  157.2164 O   0  0  0  0  0  0  0  0  0  0  0  0
  152.4383  137.6272  156.6668 C   0  0  0  0  0  0  0  0  0  0  0  0
  151.0347  137.3073  157.1572 C   0  0  0  0  0  0  0  0  0  0  0  0
  151.0359  137.8516  158.5829 C   0  0  1  0  0  0  0  0  0  0  0  0
  151.5048  136.8238  159.4400 O   0  0  0  0  0  0  0  0  0  0  0  0
  149.6334  138.2873  159.0833 C   0  0  0  0  0  0  0  0  0  0  0  0
  148.6764  137.1928  159.1515 N   0  0  0  0  0  0  0  0  0  0  0  0
  148.1502  136.4931  158.0893 C   0  0  0  0  0  0  0  0  0  0  0  0
  147.3055  135.5504  158.4067 N   0  0  0  0  0  0  0  0  0  0  0  0
  147.2542  135.5932  159.7951 C   0  0  0  0  0  0  0  0  0  0  0  0
  146.5442  134.8547  160.7838 C   0  0  0  0  0  0  0  0  0  0  0  0
  145.7022  133.8358  160.4744 N   0  0  0  0  0  0  0  0  0  0  0  0
  146.1680  132.5135  160.8738 C   0  0  0  0  0  0  0  0  0  0  0  0
  145.3292  131.4327  160.1783 C   0  0  0  0  0  0  0  0  0  0  0  0
  143.9447  131.6361  160.4561 O   0  0  0  0  0  0  0  0  0  0  0  0
  143.4403  132.9105  160.0442 C   0  0  1  0  0  0  0  0  0  0  0  0
  143.3693  133.0173  158.5158 C   0  0  0  0  0  0  0  0  0  0  0  0
  141.9678  133.5492  158.2496 C   0  0  0  0  0  0  0  0  0  0  0  0
  141.2077  132.9134  159.2596 O   0  0  0  0  0  0  0  0  0  0  0  0
  141.9597  133.0023  160.4610 C   0  0  0  0  0  0  0  0  0  0  0  0
  144.2735  134.0313  160.7082 C   0  0  0  0  0  0  0  0  0  0  0  0
  146.7378  135.2063  162.0837 N   0  0  0  0  0  0  0  0  0  0  0  0
  147.5755  136.1984  162.3982 C   0  0  0  0  0  0  0  0  0  0  0  0
  148.3072  136.9618  161.5850 N   0  0  0  0  0  0  0  0  0  0  0  0
  148.1092  136.6241  160.2787 C   0  0  0  0  0  0  0  0  0  0  0  0
  151.2524  140.5117  159.7977 H   0  0  0  0  0  0  0  0  0  0  0  0
  150.9097  140.7146  158.0755 H   0  0  0  0  0  0  0  0  0  0  0  0
  152.5039  141.0919  158.7103 H   0  0  0  0  0  0  0  0  0  0  0  0
  152.9360  138.7257  159.2312 H   0  0  0  0  0  0  0  0  0  0  0  0
  152.5151  137.6346  155.5794 H   0  0  0  0  0  0  0  0  0  0  0  0
  153.1670  136.9185  157.0631 H   0  0  0  0  0  0  0  0  0  0  0  0
  150.3201  137.8596  156.5460 H   0  0  0  0  0  0  0  0  0  0  0  0
  150.7837  136.2479  157.0871 H   0  0  0  0  0  0  0  0  0  0  0  0
  151.4922  137.1467  160.3282 H   0  0  0  0  0  0  0  0  0  0  0  0
  149.7064  138.7344  160.0755 H   0  0  0  0  0  0  0  0  0  0  0  0
  149.2139  139.0525  158.4300 H   0  0  0  0  0  0  0  0  0  0  0  0
  148.4107  136.7105  157.0636 H   0  0  0  0  0  0  0  0  0  0  0  0
  147.2200  132.3664  160.6321 H   0  0  0  0  0  0  0  0  0  0  0  0
  146.0758  132.4179  161.9566 H   0  0  0  0  0  0  0  0  0  0  0  0
  145.5124  131.4373  159.1032 H   0  0  0  0  0  0  0  0  0  0  0  0
  145.6182  130.4462  160.5405 H   0  0  0  0  0  0  0  0  0  0  0  0
  144.1468  133.6478  158.0829 H   0  0  0  0  0  0  0  0  0  0  0  0
  143.4556  132.0282  158.0638 H   0  0  0  0  0  0  0  0  0  0  0  0
  141.9252  134.6321  158.3779 H   0  0  0  0  0  0  0  0  0  0  0  0
  141.6032  133.3015  157.2526 H   0  0  0  0  0  0  0  0  0  0  0  0
  141.6663  132.2222  161.1641 H   0  0  0  0  0  0  0  0  0  0  0  0
  141.7406  133.9642  160.9277 H   0  0  0  0  0  0  0  0  0  0  0  0
  144.0921  134.0342  161.7841 H   0  0  0  0  0  0  0  0  0  0  0  0
  143.9588  135.0039  160.3261 H   0  0  0  0  0  0  0  0  0  0  0  0
  147.6742  136.4098  163.4527 H   0  0  0  0  0  0  0  0  0  0  0  0
  1  2  1  0  0  0  0
  1 28  1  0  0  0  0
  1 29  1  0  0  0  0
  1 30  1  0  0  0  0
  2  6  1  0  0  0  0
  2  3  1  0  0  0  0
  2 31  1  0  0  0  0
  3  4  1  0  0  0  0
  4  5  1  0  0  0  0
  4 32  1  0  0  0  0
  4 33  1  0  0  0  0
  5  6  1  0  0  0  0
  5 34  1  0  0  0  0
  5 35  1  0  0  0  0
  6  7  1  0  0  0  0
  6  8  1  0  0  0  0
  7 36  1  0  0  0  0
  8  9  1  0  0  0  0
  8 37  1  0  0  0  0
  8 38  1  0  0  0  0
  9 27  1  0  0  0  0
  9 10  1  0  0  0  0
 10 11  2  0  0  0  0
 10 39  1  0  0  0  0
 11 12  1  0  0  0  0
 12 27  2  0  0  0  0
 12 13  1  0  0  0  0
 13 14  1  0  0  0  0
 13 24  2  0  0  0  0
 14 23  1  0  0  0  0
 14 15  1  0  0  0  0
 15 16  1  0  0  0  0
 15 40  1  0  0  0  0
 15 41  1  0  0  0  0
 16 17  1  0  0  0  0
 16 42  1  0  0  0  0
 16 43  1  0  0  0  0
 17 18  1  0  0  0  0
 18 22  1  0  0  0  0
 18 19  1  0  0  0  0
 18 23  1  0  0  0  0
 19 20  1  0  0  0  0
 19 44  1  0  0  0  0
 19 45  1  0  0  0  0
 20 21  1  0  0  0  0
 20 46  1  0  0  0  0
 20 47  1  0  0  0  0
 21 22  1  0  0  0  0
 22 48  1  0  0  0  0
 22 49  1  0  0  0  0
 23 50  1  0  0  0  0
 23 51  1  0  0  0  0
 24 25  1  0  0  0  0
 25 26  2  0  0  0  0
 25 52  1  0  0  0  0
 26 27  1  0  0  0  0
M  END
> <s_m_source_file>
AV-unprocessed.smi

> <i_m_source_file_index>
264

> <i_lp_mmshare_version>
43012

> <i_f3d_flags>
0

> <s_epik_input>
W0NIMl0xW0NIMl1PW0NAQEhdKFtDSDNdKVtDQEBdMShbT0hdKVtDSDJdbihbY0hdbjIpYyhjMjMpbltjSF1uYzNOKFtDSDJdNClbQ0gyXVtDSDJdT1tDQF00NVtDSDJdW0NIMl1PW0NIMl01

> <s_epik_cmdline>
J2VwaWtfcHl0aG9uJywgJy1waCcsICc3LjAnLCAnLXRuJywgJzgnLCAnLW1hJywgJzIwMCcsICctbWV0YWxfYmluZGluZycsICctaW1hZScsICc8aW5maWxlLm1hZT4nLCAnLW9tYWUnLCAnPG91dGZpbGUubWFlPic=

> <r_lp_tautomer_probability>
1

> <r_epik_Ionization_Penalty>
0.00539389

> <r_epik_Ionization_Penalty_Charging>
0

> <r_epik_Ionization_Penalty_Neutral>
0.00539389

> <r_epik_State_Penalty>
0.00375441

> <r_epik_Charging_Adjusted_Penalty>
0.00375441

> <i_epik_Tot_Q>
0

> <i_epik_Tot_abs_Q>
0

> <r_epik_Metal_State_Penalty>
-0

> <b_epik_Metal_Only>
0

> <s_lp_Force_Field>
OPLS_2005

> <r_lp_Energy>
54.1721

> <b_lp_Chiralities_Consistent>
1

> <s_lp_Variant>
AV-unprocessed.smi:264-1

> <Gold.Version>
5.8.1

> <Gold.Id.Protein>
6NUR|6NUR_protein|mol2

> <Gold.PLP.Fitness>
41.0922

> <Gold.PLP.PLP>
-32.2104

> <Gold.PLP.part.hbond>
-3.4275

> <Gold.PLP.part.metal>
0.0000

> <Gold.PLP.part.buried>
-7.3613

> <Gold.PLP.part.nonpolar>
-22.5377

> <Gold.PLP.part.repulsive>
0.1163

> <Gold.PLP.ligand.clash>
0.0000

> <Gold.PLP.ligand.torsion>
0.2026

> <Gold.PLP.Chemscore.Hbond>
3.0000

> <Gold.PLP.Chemscore.CHOScore>
0.0000

> <Gold.PLP.Chemscore.Metal>
0.0000

> <Gold.Chemscore.Hbonds>
donor molecule, donor type, donor heavy atom, donor atom, acceptor molecule, acceptor atom, score
      P1  H  6896  6908       L1     7  0.70
      P1  H  6931  6943       L1    26  0.96
      P1  H  7997  8010       L1     3  0.71

> <Gold.PLP.Chemscore.Internal.Correction>
0.2869

> <Gold.Rescore>
     Score         DG    S(hbond)    S(metal)    S(lipo)     H(rot)  DE(clash)    DE(int)     intcor
     15.58     -15.81       2.73        0.00      56.55       2.11       0.00       0.22       ----

> <Gold.Chemscore.Fitness>
15.5835

> <Gold.Chemscore.DG>
-15.8092

> <Gold.Chemscore.ZeroCoef>
-5.4800

> <Gold.Chemscore.Hbond>
2.7261

> <Gold.Chemscore.Metal>
0.0000

> <Gold.Chemscore.Lipo>
56.5475

> <Gold.Chemscore.Internal_Hbond>
0.0000

> <Gold.Chemscore.DEClash>
0.0029

> <Gold.Chemscore.DEInternal>
0.2227

> <Gold.Chemscore.Rot>
2.1063

> <Gold.Chemscore.Internal.Correction>
   9.000000E+99

> <Gold.Chemscore.Hbonds>
donor molecule, donor type, donor heavy atom, donor atom, acceptor molecule, acceptor atom, score
      P1  H  6896  6908       L1     7  0.07
      P1  H  6931  6943       L1    26  0.87
      P1  H  7997  8010       L1     3  0.69

> <Gold.Chemscore.Hbond.Weighted>
-9.1053

> <Gold.Chemscore.Metal.Weighted>
-0.0000

> <Gold.Chemscore.Lipo.Weighted>
-6.6161

> <Gold.Chemscore.Internal_Hbond.Weighted>
0.0000

> <Gold.Chemscore.DEClash.Weighted>
0.0029

> <Gold.Chemscore.DEInternal.Weighted>
0.2227

> <Gold.Chemscore.Rot.Weighted>
5.3921

> <Gold.Chemscore.Internal.Correction.Weighted>
   9.000000E+99

> <Gold.Protein.RotatedTorsions>
[ 6907 6896 6895 6894 ] final -137.18 input  -60.11 | X-H torsion
[ 7974 7965 7964 7962 ] final  -73.43 input  175.53 | X-H torsion
[ 8008 7997 7996 7995 ] final   60.34 input   59.86 | X-H torsion
[ 10167 10162 10161 10158 ] final  170.65 input  -65.29 | X-H torsion
[ 10718 10713 10712 10709 ] final  -65.19 input   66.30 | X-H torsion
[ 10763 10752 10751 10750 ] final  169.63 input  -60.55 | X-H torsion
[ 11005 11000 10999 10996 ] final  156.60 input  -57.11 | X-H torsion

> <Gold.Protein.ActiveResidues>
 VAL166  LYS551  ARG553  GLY616  TRP617  ASP618  TYR619  PRO620  LYS621  CYS622 
 ASP623  PHE694  ASN695  SER759  ASP760  ASP761  ALA762  ILE779  LEU786  VAL792 
 PHE793  MET794  SER795  GLU796  ALA797  LYS798  CYS799  TRP800  GLU811  SER814 

> <Gold.Protein.RotatedAtoms>
  151.0193  133.5892  159.2673 H   0  0  0  0  0  0  0  0  0  0  0  0  # atno 6907 bound_to 6896
  151.3015  135.0769  159.9250 H   0  0  0  0  0  0  0  0  0  0  0  0  # atno 6908 bound_to 6896
  152.5319  133.9873  159.7889 H   0  0  0  0  0  0  0  0  0  0  0  0  # atno 6909 bound_to 6896
  145.6523  140.9279  143.0978 H   0  0  0  0  0  0  0  0  0  0  0  0  # atno 7974 bound_to 7965
  155.5807  140.3491  155.4539 H   0  0  0  0  0  0  0  0  0  0  0  0  # atno 8008 bound_to 7997
  156.0376  140.1288  157.0216 H   0  0  0  0  0  0  0  0  0  0  0  0  # atno 8009 bound_to 7997
  154.4378  140.1031  156.6175 H   0  0  0  0  0  0  0  0  0  0  0  0  # atno 8010 bound_to 7997
  139.5024  144.3573  151.9861 H   0  0  0  0  0  0  0  0  0  0  0  0  # atno 10167 bound_to 10162
  156.0684  130.4244  150.1529 H   0  0  0  0  0  0  0  0  0  0  0  0  # atno 10718 bound_to 10713
  154.3859  135.2753  155.2183 H   0  0  0  0  0  0  0  0  0  0  0  0  # atno 10763 bound_to 10752
  154.4270  135.5986  153.6048 H   0  0  0  0  0  0  0  0  0  0  0  0  # atno 10764 bound_to 10752
  152.9833  135.5986  154.4108 H   0  0  0  0  0  0  0  0  0  0  0  0  # atno 10765 bound_to 10752
  140.1690  134.8556  157.2667 H   0  0  0  0  0  0  0  0  0  0  0  0  # atno 11005 bound_to 11000
  144.7118  139.8342  143.7412 LP  0  0  0  0  0  0  0  0  0  0  0  0  # atno 17320 bound_to 7965
  146.1194  139.4209  143.0238 LP  0  0  0  0  0  0  0  0  0  0  0  0  # atno 17321 bound_to 7965
  140.3010  144.3647  150.6060 LP  0  0  0  0  0  0  0  0  0  0  0  0  # atno 17342 bound_to 10162
  140.5873  143.2169  151.7318 LP  0  0  0  0  0  0  0  0  0  0  0  0  # atno 17343 bound_to 10162
  156.9584  130.9797  151.3484 LP  0  0  0  0  0  0  0  0  0  0  0  0  # atno 17370 bound_to 10713
  157.5740  130.8330  149.8430 LP  0  0  0  0  0  0  0  0  0  0  0  0  # atno 17371 bound_to 10713
  140.2400  134.3807  155.7485 LP  0  0  0  0  0  0  0  0  0  0  0  0  # atno 17394 bound_to 11000
  141.2216  133.7260  156.8774 LP  0  0  0  0  0  0  0  0  0  0  0  0  # atno 17395 bound_to 11000

$$$$
