#       Name:                AV-unprocessed.smi:1920
#       Creating user name   scv26
#       Creation time:       Fri Mar 27 09:52:58 2020


#       File generated by GOLD software.
#

@<TRIPOS>MOLECULE
AV-unprocessed.smi:1920
    39    40     1
SMALL
NO_CHARGES


@<TRIPOS>ATOM
      1 ****        -2.3574  -2.4769  -2.2101 C.3            1 S1                 0.0000
      2 ****        -2.0353  -1.3393  -1.2318 C.3            1 S1                 0.0000
      3 ****        -2.5069  -1.6749   0.1978 C.3            1 S1                 0.0000
      4 ****        -2.3159  -0.5738   1.1248 N.pl3          1 S1                 0.0000
      5 ****        -3.0064   0.6308   1.1513 C.2            1 S1                 0.0000
      6 ****        -2.4879   1.3580   2.1987 C.2            1 S1                 0.0000
      7 ****        -1.4894   0.6219   2.8323 N.2            1 S1                 0.0000
      8 ****        -1.4454  -0.5101   2.1418 C.2            1 S1                 0.0000
      9 ****        -0.5950  -1.0869  -1.2499 N.am           1 S1                 0.0000
     10 ****        -0.0085   0.1128  -1.3891 C.2            1 S1                 0.0000
     11 ****        -0.6345   1.1598  -1.5562 O.2            1 S1                 0.0000
     12 ****         1.5231   0.1281  -1.3201 C.3            1 S1                 0.0000
     13 ****         2.1083   1.3385  -0.5579 C.3            1 S1                 0.0000
     14 ****         1.6471   1.4314   0.8768 C.2            1 S1                 0.0000
     15 ****         2.6566   1.4703   1.7426 C.2            1 S1                 0.0000
     16 ****         3.9977   1.4119   1.0661 C.3            1 S1                 0.0000
     17 ****         3.6534   1.2882  -0.4355 C.3            1 S1                 0.0000
     18 ****        -3.4290  -2.6761  -2.2397 H              1 S1                 0.0000
     19 ****        -1.8550  -3.4021  -1.9252 H              1 S1                 0.0000
     20 ****        -2.0426  -2.2245  -3.2234 H              1 S1                 0.0000
     21 ****        -2.5776  -0.4570  -1.5764 H              1 S1                 0.0000
     22 ****        -3.5684  -1.9256   0.1934 H              1 S1                 0.0000
     23 ****        -1.9808  -2.5520   0.5783 H              1 S1                 0.0000
     24 ****        -3.7838   0.8664   0.4394 H              1 S1                 0.0000
     25 ****        -2.7557   2.3459   2.5434 H              1 S1                 0.0000
     26 ****        -0.7598  -1.3104   2.3798 H              1 S1                 0.0000
     27 ****         0.0052  -1.8886  -1.1213 H              1 S1                 0.0000
     28 ****         1.8692  -0.7956  -0.8532 H              1 S1                 0.0000
     29 ****         1.9060   0.1191  -2.3410 H              1 S1                 0.0000
     30 ****         1.8174   2.2636  -1.0579 H              1 S1                 0.0000
     31 ****         0.6021   1.4782   1.1443 H              1 S1                 0.0000
     32 ****         2.5542   1.5462   2.8152 H              1 S1                 0.0000
     33 ****         4.5643   2.3193   1.2778 H              1 S1                 0.0000
     34 ****         4.5667   0.5532   1.4235 H              1 S1                 0.0000
     35 ****         4.0529   0.3545  -0.8333 H              1 S1                 0.0000
     36 ****         4.1127   2.0962  -1.0062 H              1 S1                 0.0000
     37 ****        -0.9357   0.8850   3.6223 LP             1 S1                 0.0000
     38 ****        -1.6337   1.1443  -1.5941 LP             1 S1                 0.0000
     39 ****        -0.1438   2.0256  -1.6539 LP             1 S1                 0.0000
@<TRIPOS>BOND
    1    1    2 1     
    2    1   18 1     
    3    1   19 1     
    4    1   20 1     
    5    2    3 1     
    6    2    9 1     
    7    2   21 1     
    8    3    4 1     
    9    3   22 1     
   10    3   23 1     
   11    4    8 1     
   12    4    5 1     
   13    5    6 2     
   14    5   24 1     
   15    6    7 1     
   16    6   25 1     
   17    7    8 2     
   18    8   26 1     
   19    9   10 am    
   20    9   27 1     
   21   10   11 2     
   22   10   12 1     
   23   12   13 1     
   24   12   28 1     
   25   12   29 1     
   26   13   17 1     
   27   13   14 1     
   28   13   30 1     
   29   14   15 2     
   30   14   31 1     
   31   15   16 1     
   32   15   32 1     
   33   16   17 1     
   34   16   33 1     
   35   16   34 1     
   36   17   35 1     
   37   17   36 1     
   38    7   37 1     
   39   11   38 1     
   40   11   39 1     
@<TRIPOS>SUBSTRUCTURE
      1 S1             1
@<TRIPOS>SET
LONE_PAIRS      STATIC     ATOMS    <user>   **** ""
3 37 38 39
DONOR_HYDROGENS      STATIC     ATOMS    <user>   **** ""
1 27
ATOM$BLUE        STATIC     ATOMS    COLORGROUP SYSTEM
3 37 38 39
ATOM$RED        STATIC     ATOMS    COLORGROUP SYSTEM
1 27
