AV-unprocessed.smi:3314|AV-procd|sdf|12733|dock2
  -GOLD-   2272019 73D 1   1.00000     0.00000
 Structure written by MMmdl.
 38 39  0  0  0  0  0  0  0  0  2 V2000
  154.3240  141.2800  161.1089 C   0  0  0  0  0  0  0  0  0  0  0  0
  153.2725  142.0279  160.3161 C   0  0  0  0  0  0  0  0  0  0  0  0
  152.9717  143.3734  160.6018 C   0  0  0  0  0  0  0  0  0  0  0  0
  151.9853  144.0134  159.8261 C   0  0  0  0  0  0  0  0  0  0  0  0
  151.6110  145.4585  160.0797 C   0  0  0  0  0  0  0  0  0  0  0  0
  151.3200  143.3970  158.8255 N   0  0  0  0  0  0  0  0  0  0  0  0
  151.6036  142.1020  158.5404 C   0  0  0  0  0  0  0  0  0  0  0  0
  150.9622  141.3652  157.5102 N   0  0  0  0  0  0  0  0  0  0  0  0
  151.4748  140.3856  156.7423 C   0  0  0  0  0  0  0  0  0  0  0  0
  152.6255  139.9554  156.8347 O   0  0  0  0  0  0  0  0  0  0  0  0
  150.5078  139.7983  155.6961 C   0  0  2  0  0  0  0  0  0  0  0  0
  149.9381  138.4032  156.0493 C   0  0  0  0  0  0  0  0  0  0  0  0
  150.9722  137.3484  155.9228 N   0  3  1  0  0  0  0  0  0  0  0  0
  150.4707  136.0092  156.2968 C   0  0  0  0  0  0  0  0  0  0  0  0
  151.5890  137.3739  154.5777 C   0  0  0  0  0  0  0  0  0  0  0  0
  152.1588  138.7697  154.2781 C   0  0  0  0  0  0  0  0  0  0  0  0
  151.1279  139.7489  154.4076 O   0  0  0  0  0  0  0  0  0  0  0  0
  152.5764  141.3856  159.2725 C   0  0  0  0  0  0  0  0  0  0  0  0
  154.7513  141.9069  161.8921 H   0  0  0  0  0  0  0  0  0  0  0  0
  155.1317  140.9562  160.4523 H   0  0  0  0  0  0  0  0  0  0  0  0
  153.8878  140.3981  161.5785 H   0  0  0  0  0  0  0  0  0  0  0  0
  153.4831  143.9010  161.3939 H   0  0  0  0  0  0  0  0  0  0  0  0
  152.2401  145.9006  160.8529 H   0  0  0  0  0  0  0  0  0  0  0  0
  150.5723  145.5290  160.4035 H   0  0  0  0  0  0  0  0  0  0  0  0
  151.7285  146.0470  159.1693 H   0  0  0  0  0  0  0  0  0  0  0  0
  149.9970  141.6079  157.3404 H   0  0  0  0  0  0  0  0  0  0  0  0
  149.6700  140.4927  155.6217 H   0  0  0  0  0  0  0  0  0  0  0  0
  149.5331  138.4039  157.0626 H   0  0  0  0  0  0  0  0  0  0  0  0
  149.1057  138.1706  155.3832 H   0  0  0  0  0  0  0  0  0  0  0  0
  149.6811  135.6824  155.6187 H   0  0  0  0  0  0  0  0  0  0  0  0
  150.0696  136.0188  157.3108 H   0  0  0  0  0  0  0  0  0  0  0  0
  151.2762  135.2751  156.2641 H   0  0  0  0  0  0  0  0  0  0  0  0
  152.3837  136.6294  154.5209 H   0  0  0  0  0  0  0  0  0  0  0  0
  150.8436  137.1052  153.8274 H   0  0  0  0  0  0  0  0  0  0  0  0
  153.0005  138.9954  154.9342 H   0  0  0  0  0  0  0  0  0  0  0  0
  152.5443  138.8030  153.2591 H   0  0  0  0  0  0  0  0  0  0  0  0
  152.7922  140.3533  159.0365 H   0  0  0  0  0  0  0  0  0  0  0  0
  151.7018  137.5800  156.5829 H   0  0  0  0  0  0  0  0  0  0  0  0
  1  2  1  0  0  0  0
  1 19  1  0  0  0  0
  1 20  1  0  0  0  0
  1 21  1  0  0  0  0
  2 18  1  0  0  0  0
  2  3  2  0  0  0  0
  3  4  1  0  0  0  0
  3 22  1  0  0  0  0
  4  5  1  0  0  0  0
  4  6  2  0  0  0  0
  5 23  1  0  0  0  0
  5 24  1  0  0  0  0
  5 25  1  0  0  0  0
  6  7  1  0  0  0  0
  7  8  1  0  0  0  0
  7 18  2  0  0  0  0
  8  9  1  0  0  0  0
  8 26  1  0  0  0  0
  9 10  2  0  0  0  0
  9 11  1  0  0  0  0
 11 17  1  0  0  0  0
 11 12  1  0  0  0  0
 11 27  1  0  0  0  0
 12 13  1  0  0  0  0
 12 28  1  0  0  0  0
 12 29  1  0  0  0  0
 13 14  1  0  0  0  0
 13 15  1  0  0  0  0
 13 38  1  0  0  0  0
 14 30  1  0  0  0  0
 14 31  1  0  0  0  0
 14 32  1  0  0  0  0
 15 16  1  0  0  0  0
 15 33  1  0  0  0  0
 15 34  1  0  0  0  0
 16 17  1  0  0  0  0
 16 35  1  0  0  0  0
 16 36  1  0  0  0  0
 18 37  1  0  0  0  0
M  CHG  1  13   1
M  END
> <s_m_source_file>
AV-unprocessed.smi

> <i_m_source_file_index>
3314

> <i_lp_mmshare_version>
43012

> <i_f3d_flags>
0

> <s_epik_input>
W0NIM11jMVtjSF1jKFtDSDNdKW5jKFtjSF0xKVtOSF1DKD1PKVtDQEBIXTJbQ0gyXU4oW0NIM10pW0NIMl1bQ0gyXU8y

> <s_epik_cmdline>
J2VwaWtfcHl0aG9uJywgJy1waCcsICc3LjAnLCAnLXRuJywgJzgnLCAnLW1hJywgJzIwMCcsICctbWV0YWxfYmluZGluZycsICctaW1hZScsICc8aW5maWxlLm1hZT4nLCAnLW9tYWUnLCAnPG91dGZpbGUubWFlPic=

> <r_epik_Ionization_Penalty>
0.32442

> <r_epik_Ionization_Penalty_Charging>
0.314023

> <r_epik_Ionization_Penalty_Neutral>
0.0103972

> <r_epik_State_Penalty>
0.29453

> <r_epik_Charging_Adjusted_Penalty>
0.608553

> <i_epik_Tot_Q>
1

> <i_epik_Tot_abs_Q>
1

> <r_epik_Metal_State_Penalty>
0.286909

> <b_epik_Metal_Only>
0

> <s_lp_Force_Field>
OPLS_2005

> <r_lp_Energy>
14.9445

> <b_lp_Chiralities_Consistent>
1

> <s_lp_Variant>
AV-unprocessed.smi:3314-3

> <Gold.Version>
5.8.1

> <Gold.Id.Protein>
6NUR|6NUR_protein|mol2

> <Gold.PLP.Fitness>
41.7062

> <Gold.PLP.PLP>
-36.7184

> <Gold.PLP.part.hbond>
-2.0000

> <Gold.PLP.part.metal>
0.0000

> <Gold.PLP.part.buried>
-5.3249

> <Gold.PLP.part.nonpolar>
-29.0174

> <Gold.PLP.part.repulsive>
0.2646

> <Gold.PLP.ligand.clash>
0.0000

> <Gold.PLP.ligand.torsion>
0.5173

> <Gold.PLP.Chemscore.Hbond>
2.0000

> <Gold.PLP.Chemscore.CHOScore>
0.0000

> <Gold.PLP.Chemscore.Metal>
0.0000

> <Gold.Chemscore.Hbonds>
donor molecule, donor type, donor heavy atom, donor atom, acceptor molecule, acceptor atom, score
      P1  H  7989  7998       L1    17  0.99
      P1  H  7997  8008       L1    10  1.00

> <Gold.PLP.Chemscore.Internal.Correction>
0.0223

> <Gold.Rescore>
     Score         DG    S(hbond)    S(metal)    S(lipo)     H(rot)  DE(clash)    DE(int)     intcor
     16.59     -20.02       1.91        0.00      91.56       1.00       0.07       3.36       ----

> <Gold.Chemscore.Fitness>
16.5912

> <Gold.Chemscore.DG>
-20.0200

> <Gold.Chemscore.ZeroCoef>
-5.4800

> <Gold.Chemscore.Hbond>
1.9124

> <Gold.Chemscore.Metal>
0.0000

> <Gold.Chemscore.Lipo>
91.5610

> <Gold.Chemscore.Internal_Hbond>
0.0000

> <Gold.Chemscore.DEClash>
0.0706

> <Gold.Chemscore.DEInternal>
3.3581

> <Gold.Chemscore.Rot>
1.0000

> <Gold.Chemscore.Internal.Correction>
   9.000000E+99

> <Gold.Chemscore.Hbonds>
donor molecule, donor type, donor heavy atom, donor atom, acceptor molecule, acceptor atom, score
      P1  H  7989  7998       L1    17  0.28
      P1  H  7997  8008       L1    10  1.00

> <Gold.Chemscore.Hbond.Weighted>
-6.3873

> <Gold.Chemscore.Metal.Weighted>
-0.0000

> <Gold.Chemscore.Lipo.Weighted>
-10.7126

> <Gold.Chemscore.Internal_Hbond.Weighted>
0.0000

> <Gold.Chemscore.DEClash.Weighted>
0.0706

> <Gold.Chemscore.DEInternal.Weighted>
3.3581

> <Gold.Chemscore.Rot.Weighted>
2.5600

> <Gold.Chemscore.Internal.Correction.Weighted>
   9.000000E+99

> <Gold.Protein.RotatedTorsions>
[ 6907 6896 6895 6894 ] final   30.31 input  -60.11 | X-H torsion
[ 7974 7965 7964 7962 ] final   98.90 input  175.53 | X-H torsion
[ 8008 7997 7996 7995 ] final  -53.62 input   59.86 | X-H torsion
[ 10167 10162 10161 10158 ] final  -40.69 input  -65.29 | X-H torsion
[ 10718 10713 10712 10709 ] final  -32.93 input   66.30 | X-H torsion
[ 10763 10752 10751 10750 ] final -124.75 input  -60.55 | X-H torsion
[ 11005 11000 10999 10996 ] final -159.40 input  -57.11 | X-H torsion

> <Gold.Protein.ActiveResidues>
 VAL166  LYS551  ARG553  GLY616  TRP617  ASP618  TYR619  PRO620  LYS621  CYS622 
 ASP623  PHE694  ASN695  SER759  ASP760  ASP761  ALA762  ILE779  LEU786  VAL792 
 PHE793  MET794  SER795  GLU796  ALA797  LYS798  CYS799  TRP800  GLU811  SER814 

> <Gold.Protein.RotatedAtoms>
  152.0441  134.9693  160.0573 H   0  0  0  0  0  0  0  0  0  0  0  0  # atno 6907 bound_to 6896
  152.1120  133.4301  159.4644 H   0  0  0  0  0  0  0  0  0  0  0  0  # atno 6908 bound_to 6896
  150.6844  134.2555  159.4571 H   0  0  0  0  0  0  0  0  0  0  0  0  # atno 6909 bound_to 6896
  145.4060  139.2340  143.3274 H   0  0  0  0  0  0  0  0  0  0  0  0  # atno 7974 bound_to 7965
  154.4138  140.1195  156.5183 H   0  0  0  0  0  0  0  0  0  0  0  0  # atno 8008 bound_to 7997
  155.6728  140.3496  155.4806 H   0  0  0  0  0  0  0  0  0  0  0  0  # atno 8009 bound_to 7997
  155.9618  140.1124  157.0879 H   0  0  0  0  0  0  0  0  0  0  0  0  # atno 8010 bound_to 7997
  140.7026  143.3139  151.2960 H   0  0  0  0  0  0  0  0  0  0  0  0  # atno 10167 bound_to 10162
  156.3688  130.4336  149.7562 H   0  0  0  0  0  0  0  0  0  0  0  0  # atno 10718 bound_to 10713
  154.8727  135.4053  154.3156 H   0  0  0  0  0  0  0  0  0  0  0  0  # atno 10763 bound_to 10752
  153.3992  135.7017  153.6443 H   0  0  0  0  0  0  0  0  0  0  0  0  # atno 10764 bound_to 10752
  153.5193  135.3690  155.2595 H   0  0  0  0  0  0  0  0  0  0  0  0  # atno 10765 bound_to 10752
  140.6430  134.4531  157.5234 H   0  0  0  0  0  0  0  0  0  0  0  0  # atno 11005 bound_to 11000
  146.2728  140.4764  142.8807 LP  0  0  0  0  0  0  0  0  0  0  0  0  # atno 17320 bound_to 7965
  144.8341  140.6754  143.6271 LP  0  0  0  0  0  0  0  0  0  0  0  0  # atno 17321 bound_to 7965
  139.6570  144.0257  152.2667 LP  0  0  0  0  0  0  0  0  0  0  0  0  # atno 17342 bound_to 10162
  139.9812  144.6427  150.7899 LP  0  0  0  0  0  0  0  0  0  0  0  0  # atno 17343 bound_to 10162
  156.4698  130.7991  151.3009 LP  0  0  0  0  0  0  0  0  0  0  0  0  # atno 17370 bound_to 10713
  157.7482  131.0039  150.3057 LP  0  0  0  0  0  0  0  0  0  0  0  0  # atno 17371 bound_to 10713
  139.9073  134.8421  156.1657 LP  0  0  0  0  0  0  0  0  0  0  0  0  # atno 17394 bound_to 11000
  141.0593  133.6849  156.1921 LP  0  0  0  0  0  0  0  0  0  0  0  0  # atno 17395 bound_to 11000

$$$$
