AV-unprocessed.smi:2883|AV-procd|sdf|11075|dock3
  -GOLD-   2272015543D 1   1.00000     0.00000
 Structure written by MMmdl.
 40 42  0  0  0  0  0  0  0  0  2 V2000
  152.6634  144.7218  158.0170 C   0  0  0  0  0  0  0  0  0  0  0  0
  151.8438  144.1017  159.1727 C   0  0  0  0  0  0  0  0  0  0  0  0
  152.6608  142.9865  159.8503 C   0  0  0  0  0  0  0  0  0  0  0  0
  151.5862  145.2425  160.1832 C   0  0  0  0  0  0  0  0  0  0  0  0
  150.5203  143.5209  158.6543 C   0  0  0  0  0  0  0  0  0  0  0  0
  149.3681  143.8720  159.2535 N   0  3  0  0  0  0  0  0  0  0  0  0
  148.2032  143.2837  158.8878 C   0  0  0  0  0  0  0  0  0  0  0  0
  148.1913  142.2779  157.9048 C   0  0  0  0  0  0  0  0  0  0  0  0
  149.4302  141.9225  157.3471 C   0  0  0  0  0  0  0  0  0  0  0  0
  149.4896  140.9162  156.3732 N   0  0  0  0  0  0  0  0  0  0  0  0
  150.3507  139.7507  156.5461 C   0  0  2  0  0  0  0  0  0  0  0  0
  151.8405  140.1093  156.6289 C   0  0  0  0  0  0  0  0  0  0  0  0
  152.4337  139.2619  155.4967 C   0  0  1  0  0  0  0  0  0  0  0  0
  152.3915  137.7600  155.8096 C   0  0  0  0  0  0  0  0  0  0  0  0
  150.9039  137.4487  155.6483 C   0  0  0  0  0  0  0  0  0  0  0  0
  150.3263  138.8307  155.3139 C   0  0  2  0  0  0  0  0  0  0  0  0
  151.3916  139.3620  154.5427 O   0  0  0  0  0  0  0  0  0  0  0  0
  150.5664  142.5342  157.7459 N   0  0  0  0  0  0  0  0  0  0  0  0
  153.5870  145.1718  158.3825 H   0  0  0  0  0  0  0  0  0  0  0  0
  152.1004  145.5024  157.5036 H   0  0  0  0  0  0  0  0  0  0  0  0
  152.9493  143.9777  157.2724 H   0  0  0  0  0  0  0  0  0  0  0  0
  152.8828  142.1777  159.1530 H   0  0  0  0  0  0  0  0  0  0  0  0
  152.1196  142.5539  160.6925 H   0  0  0  0  0  0  0  0  0  0  0  0
  153.6115  143.3635  160.2288 H   0  0  0  0  0  0  0  0  0  0  0  0
  152.5219  145.6862  160.5257 H   0  0  0  0  0  0  0  0  0  0  0  0
  151.0614  144.8909  161.0724 H   0  0  0  0  0  0  0  0  0  0  0  0
  150.9899  146.0405  159.7393 H   0  0  0  0  0  0  0  0  0  0  0  0
  147.3190  143.6310  159.4020 H   0  0  0  0  0  0  0  0  0  0  0  0
  147.2718  141.7972  157.6040 H   0  0  0  0  0  0  0  0  0  0  0  0
  149.0779  141.0754  155.4650 H   0  0  0  0  0  0  0  0  0  0  0  0
  150.0253  139.1935  157.4258 H   0  0  0  0  0  0  0  0  0  0  0  0
  152.0123  141.1687  156.4324 H   0  0  0  0  0  0  0  0  0  0  0  0
  152.2760  139.8718  157.6002 H   0  0  0  0  0  0  0  0  0  0  0  0
  153.4025  139.6142  155.1419 H   0  0  0  0  0  0  0  0  0  0  0  0
  152.9806  137.1941  155.0872 H   0  0  0  0  0  0  0  0  0  0  0  0
  152.7667  137.5356  156.8086 H   0  0  0  0  0  0  0  0  0  0  0  0
  150.7467  136.7548  154.8219 H   0  0  0  0  0  0  0  0  0  0  0  0
  150.4609  137.0156  156.5457 H   0  0  0  0  0  0  0  0  0  0  0  0
  149.3666  138.7880  154.7972 H   0  0  0  0  0  0  0  0  0  0  0  0
  149.3624  144.5855  159.9827 H   0  0  0  0  0  0  0  0  0  0  0  0
  1  2  1  0  0  0  0
  1 19  1  0  0  0  0
  1 20  1  0  0  0  0
  1 21  1  0  0  0  0
  2  3  1  0  0  0  0
  2  4  1  0  0  0  0
  2  5  1  0  0  0  0
  3 22  1  0  0  0  0
  3 23  1  0  0  0  0
  3 24  1  0  0  0  0
  4 25  1  0  0  0  0
  4 26  1  0  0  0  0
  4 27  1  0  0  0  0
  5 18  1  0  0  0  0
  5  6  2  0  0  0  0
  6  7  1  0  0  0  0
  6 40  1  0  0  0  0
  7  8  2  0  0  0  0
  7 28  1  0  0  0  0
  8  9  1  0  0  0  0
  8 29  1  0  0  0  0
  9 10  1  0  0  0  0
  9 18  2  0  0  0  0
 10 11  1  0  0  0  0
 10 30  1  0  0  0  0
 11 16  1  0  0  0  0
 11 12  1  0  0  0  0
 11 31  1  0  0  0  0
 12 13  1  0  0  0  0
 12 32  1  0  0  0  0
 12 33  1  0  0  0  0
 13 17  1  0  0  0  0
 13 14  1  0  0  0  0
 13 34  1  0  0  0  0
 14 15  1  0  0  0  0
 14 35  1  0  0  0  0
 14 36  1  0  0  0  0
 15 16  1  0  0  0  0
 15 37  1  0  0  0  0
 15 38  1  0  0  0  0
 16 17  1  0  0  0  0
 16 39  1  0  0  0  0
M  CHG  1   6   1
M  END
> <s_m_source_file>
AV-unprocessed.smi

> <i_m_source_file_index>
2883

> <i_lp_mmshare_version>
43012

> <i_f3d_flags>
0

> <s_epik_input>
W0NIM11DKFtDSDNdKShbQ0gzXSljMW5bY0hdW2NIXWMobjEpW05IXVtDQEhdKFtDSDJdW0NAQEhdMjMpW0NAQEhdKE8zKVtDSDJdW0NIMl0y

> <s_epik_cmdline>
J2VwaWtfcHl0aG9uJywgJy1waCcsICc3LjAnLCAnLXRuJywgJzgnLCAnLW1hJywgJzIwMCcsICctbWV0YWxfYmluZGluZycsICctaW1hZScsICc8aW5maWxlLm1hZT4nLCAnLW9tYWUnLCAnPG91dGZpbGUubWFlPic=

> <r_lp_tautomer_probability>
0.999336

> <r_epik_Ionization_Penalty>
0.371831

> <r_epik_Ionization_Penalty_Charging>
0.371821

> <r_epik_Ionization_Penalty_Neutral>
1.06897e-05

> <r_epik_State_Penalty>
0.369311

> <r_epik_Charging_Adjusted_Penalty>
0.741132

> <i_epik_Tot_Q>
1

> <i_epik_Tot_abs_Q>
1

> <r_epik_Metal_State_Penalty>
0.621338

> <b_epik_Metal_Only>
0

> <s_lp_Force_Field>
OPLS_2005

> <r_lp_Energy>
38.7215

> <b_lp_Chiralities_Consistent>
1

> <s_lp_Variant>
AV-unprocessed.smi:2883-1

> <Gold.Version>
5.8.1

> <Gold.Id.Protein>
6NUR|6NUR_protein|mol2

> <Gold.PLP.Fitness>
36.3995

> <Gold.PLP.PLP>
-34.5390

> <Gold.PLP.part.hbond>
-1.2812

> <Gold.PLP.part.metal>
0.0000

> <Gold.PLP.part.buried>
-3.1150

> <Gold.PLP.part.nonpolar>
-30.8262

> <Gold.PLP.part.repulsive>
0.4114

> <Gold.PLP.ligand.clash>
0.0000

> <Gold.PLP.ligand.torsion>
0.6500

> <Gold.PLP.Chemscore.Hbond>
1.0000

> <Gold.PLP.Chemscore.CHOScore>
0.0000

> <Gold.PLP.Chemscore.Metal>
0.0000

> <Gold.Chemscore.Hbonds>
donor molecule, donor type, donor heavy atom, donor atom, acceptor molecule, acceptor atom, score
      P1  H  7989  7998       L1    17  1.00

> <Gold.PLP.Chemscore.Internal.Correction>
0.1605

> <Gold.Rescore>
     Score         DG    S(hbond)    S(metal)    S(lipo)     H(rot)  DE(clash)    DE(int)     intcor
     14.57     -16.75       0.97        0.00      94.07       1.16       0.30       1.88       ----

> <Gold.Chemscore.Fitness>
14.5695

> <Gold.Chemscore.DG>
-16.7532

> <Gold.Chemscore.ZeroCoef>
-5.4800

> <Gold.Chemscore.Hbond>
0.9709

> <Gold.Chemscore.Metal>
0.0000

> <Gold.Chemscore.Lipo>
94.0742

> <Gold.Chemscore.Internal_Hbond>
0.0000

> <Gold.Chemscore.DEClash>
0.3047

> <Gold.Chemscore.DEInternal>
1.8790

> <Gold.Chemscore.Rot>
1.1626

> <Gold.Chemscore.Internal.Correction>
   9.000000E+99

> <Gold.Chemscore.Hbonds>
donor molecule, donor type, donor heavy atom, donor atom, acceptor molecule, acceptor atom, score
      P1  H  7989  7998       L1    17  0.74

> <Gold.Chemscore.Hbond.Weighted>
-3.2428

> <Gold.Chemscore.Metal.Weighted>
-0.0000

> <Gold.Chemscore.Lipo.Weighted>
-11.0067

> <Gold.Chemscore.Internal_Hbond.Weighted>
0.0000

> <Gold.Chemscore.DEClash.Weighted>
0.3047

> <Gold.Chemscore.DEInternal.Weighted>
1.8790

> <Gold.Chemscore.Rot.Weighted>
2.9763

> <Gold.Chemscore.Internal.Correction.Weighted>
   9.000000E+99

> <Gold.Protein.RotatedTorsions>
[ 6907 6896 6895 6894 ] final -125.95 input  -60.11 | X-H torsion
[ 7974 7965 7964 7962 ] final  -16.69 input  175.53 | X-H torsion
[ 8008 7997 7996 7995 ] final -165.51 input   59.86 | X-H torsion
[ 10167 10162 10161 10158 ] final   -2.94 input  -65.29 | X-H torsion
[ 10718 10713 10712 10709 ] final  -89.42 input   66.30 | X-H torsion
[ 10763 10752 10751 10750 ] final  -53.90 input  -60.55 | X-H torsion
[ 11005 11000 10999 10996 ] final -142.54 input  -57.11 | X-H torsion

> <Gold.Protein.ActiveResidues>
 VAL166  LYS551  ARG553  GLY616  TRP617  ASP618  TYR619  PRO620  LYS621  CYS622 
 ASP623  PHE694  ASN695  SER759  ASP760  ASP761  ALA762  ILE779  LEU786  VAL792 
 PHE793  MET794  SER795  GLU796  ALA797  LYS798  CYS799  TRP800  GLU811  SER814 

> <Gold.Protein.RotatedAtoms>
  150.8919  133.7232  159.2902 H   0  0  0  0  0  0  0  0  0  0  0  0  # atno 6907 bound_to 6896
  151.4779  135.1049  159.9779 H   0  0  0  0  0  0  0  0  0  0  0  0  # atno 6908 bound_to 6896
  152.4825  133.8243  159.7125 H   0  0  0  0  0  0  0  0  0  0  0  0  # atno 6909 bound_to 6896
  146.1976  140.3672  142.8435 H   0  0  0  0  0  0  0  0  0  0  0  0  # atno 7974 bound_to 7965
  155.8508  140.0963  157.1676 H   0  0  0  0  0  0  0  0  0  0  0  0  # atno 8008 bound_to 7997
  154.3985  140.1383  156.3903 H   0  0  0  0  0  0  0  0  0  0  0  0  # atno 8009 bound_to 7997
  155.7963  140.3454  155.5380 H   0  0  0  0  0  0  0  0  0  0  0  0  # atno 8010 bound_to 7997
  140.6871  143.6598  150.8277 H   0  0  0  0  0  0  0  0  0  0  0  0  # atno 10167 bound_to 10162
  155.9984  130.4872  150.5169 H   0  0  0  0  0  0  0  0  0  0  0  0  # atno 10718 bound_to 10713
  154.1662  135.6466  153.4998 H   0  0  0  0  0  0  0  0  0  0  0  0  # atno 10763 bound_to 10752
  153.0097  135.5372  154.6660 H   0  0  0  0  0  0  0  0  0  0  0  0  # atno 10764 bound_to 10752
  154.5987  135.2941  155.0531 H   0  0  0  0  0  0  0  0  0  0  0  0  # atno 10765 bound_to 10752
  140.8215  134.2625  157.4898 H   0  0  0  0  0  0  0  0  0  0  0  0  # atno 11005 bound_to 11000
  144.8613  140.7143  143.6105 LP  0  0  0  0  0  0  0  0  0  0  0  0  # atno 17320 bound_to 7965
  145.3592  139.1686  143.4392 LP  0  0  0  0  0  0  0  0  0  0  0  0  # atno 17321 bound_to 7965
  140.0306  143.5447  152.2762 LP  0  0  0  0  0  0  0  0  0  0  0  0  # atno 17342 bound_to 10162
  139.6239  144.7634  151.2681 LP  0  0  0  0  0  0  0  0  0  0  0  0  # atno 17343 bound_to 10162
  157.3135  131.0668  151.1983 LP  0  0  0  0  0  0  0  0  0  0  0  0  # atno 17370 bound_to 10713
  157.2921  130.6801  149.6120 LP  0  0  0  0  0  0  0  0  0  0  0  0  # atno 17371 bound_to 10713
  139.8708  134.9538  156.4156 LP  0  0  0  0  0  0  0  0  0  0  0  0  # atno 17394 bound_to 11000
  140.9093  133.7723  155.9773 LP  0  0  0  0  0  0  0  0  0  0  0  0  # atno 17395 bound_to 11000

$$$$
