AV-unprocessed.smi:2636|AV-procd|sdf|10259|dock4
  -GOLD-   2272014273D 1   1.00000     0.00000
 Structure written by MMmdl.
 35 36  0  0  0  0  0  0  0  0  2 V2000
  151.0320  137.1854  159.0327 C   0  0  0  0  0  0  0  0  0  0  0  0
  151.5596  137.8782  157.7894 C   0  0  0  0  0  0  0  0  0  0  0  0
  150.7999  138.0887  156.6945 C   0  0  0  0  0  0  0  0  0  0  0  0
  151.2979  138.7336  155.5507 N   0  0  0  0  0  0  0  0  0  0  0  0
  150.3975  138.9716  154.4354 C   0  0  0  0  0  0  0  0  0  0  0  0
  150.4376  140.3211  154.1058 O   0  0  0  0  0  0  0  0  0  0  0  0
  149.7466  141.1414  155.0343 C   0  0  0  0  0  0  0  0  0  0  0  0
  150.5771  141.4276  156.2710 C   0  0  0  0  0  0  0  0  0  0  0  0
  150.3958  142.4684  157.1065 C   0  0  0  0  0  0  0  0  0  0  0  0
  151.1860  142.7727  158.3135 C   0  0  0  0  0  0  0  0  0  0  0  0
  152.0017  141.8103  158.9555 C   0  0  0  0  0  0  0  0  0  0  0  0
  152.7394  142.1499  160.1065 C   0  0  0  0  0  0  0  0  0  0  0  0
  152.6728  143.4548  160.6286 C   0  0  0  0  0  0  0  0  0  0  0  0
  151.8663  144.4199  159.9977 C   0  0  0  0  0  0  0  0  0  0  0  0
  151.1279  144.0786  158.8478 C   0  0  0  0  0  0  0  0  0  0  0  0
  152.5784  139.2094  155.5300 C   0  0  0  0  0  0  0  0  0  0  0  0
  152.9836  139.8056  154.5310 O   0  0  0  0  0  0  0  0  0  0  0  0
  153.3702  138.9989  156.6259 N   0  5  0  0  0  0  0  0  0  0  0  0
  152.9438  138.3575  157.7533 C   0  0  0  0  0  0  0  0  0  0  0  0
  153.6770  138.1752  158.7247 O   0  0  0  0  0  0  0  0  0  0  0  0
  149.9941  136.8782  158.9021 H   0  0  0  0  0  0  0  0  0  0  0  0
  151.0818  137.8557  159.8914 H   0  0  0  0  0  0  0  0  0  0  0  0
  151.6232  136.2964  159.2540 H   0  0  0  0  0  0  0  0  0  0  0  0
  149.7663  137.7815  156.6320 H   0  0  0  0  0  0  0  0  0  0  0  0
  150.7081  138.3512  153.5919 H   0  0  0  0  0  0  0  0  0  0  0  0
  149.3835  138.6820  154.7160 H   0  0  0  0  0  0  0  0  0  0  0  0
  149.4825  142.0914  154.5675 H   0  0  0  0  0  0  0  0  0  0  0  0
  148.8201  140.6574  155.3464 H   0  0  0  0  0  0  0  0  0  0  0  0
  151.3649  140.7135  156.4542 H   0  0  0  0  0  0  0  0  0  0  0  0
  149.5968  143.1635  156.8911 H   0  0  0  0  0  0  0  0  0  0  0  0
  152.0756  140.8015  158.5803 H   0  0  0  0  0  0  0  0  0  0  0  0
  153.3576  141.4072  160.5893 H   0  0  0  0  0  0  0  0  0  0  0  0
  153.2389  143.7145  161.5110 H   0  0  0  0  0  0  0  0  0  0  0  0
  151.8121  145.4224  160.3958 H   0  0  0  0  0  0  0  0  0  0  0  0
  150.5122  144.8303  158.3749 H   0  0  0  0  0  0  0  0  0  0  0  0
  1  2  1  0  0  0  0
  1 21  1  0  0  0  0
  1 22  1  0  0  0  0
  1 23  1  0  0  0  0
  2 19  1  0  0  0  0
  2  3  2  0  0  0  0
  3  4  1  0  0  0  0
  3 24  1  0  0  0  0
  4  5  1  0  0  0  0
  4 16  1  0  0  0  0
  5  6  1  0  0  0  0
  5 25  1  0  0  0  0
  5 26  1  0  0  0  0
  6  7  1  0  0  0  0
  7  8  1  0  0  0  0
  7 27  1  0  0  0  0
  7 28  1  0  0  0  0
  8  9  2  0  0  0  0
  8 29  1  0  0  0  0
  9 10  1  0  0  0  0
  9 30  1  0  0  0  0
 10 15  1  0  0  0  0
 10 11  2  0  0  0  0
 11 12  1  0  0  0  0
 11 31  1  0  0  0  0
 12 13  2  0  0  0  0
 12 32  1  0  0  0  0
 13 14  1  0  0  0  0
 13 33  1  0  0  0  0
 14 15  2  0  0  0  0
 14 34  1  0  0  0  0
 15 35  1  0  0  0  0
 16 17  2  0  0  0  0
 16 18  1  0  0  0  0
 18 19  1  0  0  0  0
 19 20  2  0  0  0  0
M  CHG  1  18  -1
M  END
> <s_m_source_file>
AV-unprocessed.smi

> <i_m_source_file_index>
2636

> <i_lp_mmshare_version>
43012

> <i_f3d_flags>
0

> <s_epik_input>
Tz1jMVtuSF1jKD1PKW4oW2NIXWMxW0NIM10pW0NIMl1PW0NIMl0vW0NIXT1bQ0hdL2MyW2NIXVtjSF1bY0hdW2NIXVtjSF0y

> <s_epik_cmdline>
J2VwaWtfcHl0aG9uJywgJy1waCcsICc3LjAnLCAnLXRuJywgJzgnLCAnLW1hJywgJzIwMCcsICctbWV0YWxfYmluZGluZycsICctaW1hZScsICc8aW5maWxlLm1hZT4nLCAnLW9tYWUnLCAnPG91dGZpbGUubWFlPic=

> <r_lp_tautomer_probability>
0.999537

> <r_epik_Ionization_Penalty>
3.43625

> <r_epik_Ionization_Penalty_Charging>
7.29021e-08

> <r_epik_Ionization_Penalty_Neutral>
3.43625

> <r_epik_State_Penalty>
3.43567

> <r_epik_Charging_Adjusted_Penalty>
3.43567

> <i_epik_Tot_Q>
-1

> <i_epik_Tot_abs_Q>
1

> <r_epik_Metal_State_Penalty>
0.168611

> <b_epik_Metal_Only>
1

> <s_epik_Chemistry_Notes>
This compound contains an acetal/aminal-like group ( X-CH(R)-Y where X, Y are N, S, or O) that may be acid/base labile, releasing an aldehyde.

> <s_lp_Force_Field>
OPLS_2005

> <r_lp_Energy>
15.3134

> <b_lp_Chiralities_Consistent>
1

> <s_lp_Variant>
AV-unprocessed.smi:2636-3

> <Gold.Version>
5.8.1

> <Gold.Id.Protein>
6NUR|6NUR_protein|mol2

> <Gold.PLP.Fitness>
48.7333

> <Gold.PLP.PLP>
-40.5991

> <Gold.PLP.part.hbond>
-3.5233

> <Gold.PLP.part.metal>
0.0000

> <Gold.PLP.part.buried>
-3.8245

> <Gold.PLP.part.nonpolar>
-33.8717

> <Gold.PLP.part.repulsive>
0.2842

> <Gold.PLP.ligand.clash>
0.0000

> <Gold.PLP.ligand.torsion>
0.4587

> <Gold.PLP.Chemscore.Hbond>
3.0000

> <Gold.PLP.Chemscore.CHOScore>
0.0000

> <Gold.PLP.Chemscore.Metal>
0.0000

> <Gold.Chemscore.Hbonds>
donor molecule, donor type, donor heavy atom, donor atom, acceptor molecule, acceptor atom, score
      P1  H  7989  7998       L1     6  0.77
      P1  H  7997  8009       L1    18  1.84

> <Gold.PLP.Chemscore.Internal.Correction>
0.0516

> <Gold.Rescore>
     Score         DG    S(hbond)    S(metal)    S(lipo)     H(rot)  DE(clash)    DE(int)     intcor
     14.20     -17.54       1.66        0.00      96.70       1.88       0.08       3.26       ----

> <Gold.Chemscore.Fitness>
14.1954

> <Gold.Chemscore.DG>
-17.5355

> <Gold.Chemscore.ZeroCoef>
-5.4800

> <Gold.Chemscore.Hbond>
1.6629

> <Gold.Chemscore.Metal>
0.0000

> <Gold.Chemscore.Lipo>
96.7041

> <Gold.Chemscore.Internal_Hbond>
0.0000

> <Gold.Chemscore.DEClash>
0.0811

> <Gold.Chemscore.DEInternal>
3.2590

> <Gold.Chemscore.Rot>
1.8800

> <Gold.Chemscore.Internal.Correction>
   9.000000E+99

> <Gold.Chemscore.Hbonds>
donor molecule, donor type, donor heavy atom, donor atom, acceptor molecule, acceptor atom, score
      P1  H  7989  7998       L1     6  0.67
      P1  H  7997  8009       L1    18  0.69

> <Gold.Chemscore.Hbond.Weighted>
-5.5539

> <Gold.Chemscore.Metal.Weighted>
-0.0000

> <Gold.Chemscore.Lipo.Weighted>
-11.3144

> <Gold.Chemscore.Internal_Hbond.Weighted>
0.0000

> <Gold.Chemscore.DEClash.Weighted>
0.0811

> <Gold.Chemscore.DEInternal.Weighted>
3.2590

> <Gold.Chemscore.Rot.Weighted>
4.8129

> <Gold.Chemscore.Internal.Correction.Weighted>
   9.000000E+99

> <Gold.Protein.RotatedTorsions>
[ 6907 6896 6895 6894 ] final    2.48 input  -60.11 | X-H torsion
[ 7974 7965 7964 7962 ] final   74.16 input  175.53 | X-H torsion
[ 8008 7997 7996 7995 ] final  169.28 input   59.86 | X-H torsion
[ 10167 10162 10161 10158 ] final  -42.79 input  -65.29 | X-H torsion
[ 10718 10713 10712 10709 ] final  -83.92 input   66.30 | X-H torsion
[ 10763 10752 10751 10750 ] final   -5.81 input  -60.55 | X-H torsion
[ 11005 11000 10999 10996 ] final -134.03 input  -57.11 | X-H torsion

> <Gold.Protein.ActiveResidues>
 VAL166  LYS551  ARG553  GLY616  TRP617  ASP618  TYR619  PRO620  LYS621  CYS622 
 ASP623  PHE694  ASN695  SER759  ASP760  ASP761  ALA762  ILE779  LEU786  VAL792 
 PHE793  MET794  SER795  GLU796  ALA797  LYS798  CYS799  TRP800  GLU811  SER814 

> <Gold.Protein.RotatedAtoms>
  151.6096  135.1041  160.0077 H   0  0  0  0  0  0  0  0  0  0  0  0  # atno 6907 bound_to 6896
  152.4215  133.7120  159.6495 H   0  0  0  0  0  0  0  0  0  0  0  0  # atno 6908 bound_to 6896
  150.8103  133.8361  159.3207 H   0  0  0  0  0  0  0  0  0  0  0  0  # atno 6909 bound_to 6896
  145.7317  139.2686  143.1537 H   0  0  0  0  0  0  0  0  0  0  0  0  # atno 7974 bound_to 7965
  156.1471  140.1568  156.8829 H   0  0  0  0  0  0  0  0  0  0  0  0  # atno 8008 bound_to 7997
  154.5038  140.0818  156.7890 H   0  0  0  0  0  0  0  0  0  0  0  0  # atno 8009 bound_to 7997
  155.3967  140.3412  155.4257 H   0  0  0  0  0  0  0  0  0  0  0  0  # atno 8010 bound_to 7997
  140.6957  143.3018  151.3260 H   0  0  0  0  0  0  0  0  0  0  0  0  # atno 10167 bound_to 10162
  156.0012  130.4681  150.4331 H   0  0  0  0  0  0  0  0  0  0  0  0  # atno 10718 bound_to 10713
  153.4037  135.7005  153.6408 H   0  0  0  0  0  0  0  0  0  0  0  0  # atno 10763 bound_to 10752
  153.4930  135.3668  155.2502 H   0  0  0  0  0  0  0  0  0  0  0  0  # atno 10764 bound_to 10752
  154.8712  135.4093  154.3377 H   0  0  0  0  0  0  0  0  0  0  0  0  # atno 10765 bound_to 10752
  140.9027  134.1670  157.4449 H   0  0  0  0  0  0  0  0  0  0  0  0  # atno 11005 bound_to 11000
  146.0531  140.8049  142.9772 LP  0  0  0  0  0  0  0  0  0  0  0  0  # atno 17320 bound_to 7965
  144.6891  140.3083  143.7252 LP  0  0  0  0  0  0  0  0  0  0  0  0  # atno 17321 bound_to 7965
  139.6409  144.0542  152.2553 LP  0  0  0  0  0  0  0  0  0  0  0  0  # atno 17342 bound_to 10162
  140.0047  144.6268  150.7699 LP  0  0  0  0  0  0  0  0  0  0  0  0  # atno 17343 bound_to 10162
  157.2378  131.0518  151.2454 LP  0  0  0  0  0  0  0  0  0  0  0  0  # atno 17370 bound_to 10713
  157.3649  130.7151  149.6526 LP  0  0  0  0  0  0  0  0  0  0  0  0  # atno 17371 bound_to 10713
  139.8744  134.9904  156.5502 LP  0  0  0  0  0  0  0  0  0  0  0  0  # atno 17394 bound_to 11000
  140.8210  133.8354  155.8896 LP  0  0  0  0  0  0  0  0  0  0  0  0  # atno 17395 bound_to 11000

$$$$
