AV-unprocessed.smi:1439|AV-procd|sdf|5872|dock1
  -GOLD-   22720 5543D 1   1.00000     0.00000
 Structure written by MMmdl.
 35 36  0  0  0  0  0  0  0  0  2 V2000
  148.8270  140.7367  154.0480 N   0  0  0  0  0  0  0  0  0  0  0  0
  149.7409  140.6712  155.0214 C   0  0  0  0  0  0  0  0  0  0  0  0
  150.7967  140.0572  154.8815 O   0  0  0  0  0  0  0  0  0  0  0  0
  149.4500  141.4174  156.3296 C   0  0  0  0  0  0  0  0  0  0  0  0
  150.6196  141.3669  157.2728 C   0  0  0  0  0  0  0  0  0  0  0  0
  151.0143  142.3486  158.1452 C   0  0  0  0  0  0  0  0  0  0  0  0
  152.4167  141.8730  159.0589 S   0  0  0  0  0  0  0  0  0  0  0  0
  152.4286  140.3244  158.2138 C   0  0  0  0  0  0  0  0  0  0  0  0
  153.3218  139.3444  158.4203 N   0  5  0  0  0  0  0  0  0  0  0  0
  152.8864  138.0946  158.7089 C   0  0  0  0  0  0  0  0  0  0  0  0
  151.9153  137.4919  158.2478 O   0  0  0  0  0  0  0  0  0  0  0  0
  153.7708  137.4049  159.7561 C   0  0  0  0  0  0  0  0  0  0  0  0
  153.0841  137.3171  161.1308 C   0  0  0  0  0  0  0  0  0  0  0  0
  154.0676  136.9944  162.2652 C   0  0  1  0  0  0  0  0  0  0  0  0
  153.4179  136.9288  163.6453 C   0  0  0  0  0  0  0  0  0  0  0  0
  154.4163  136.0877  164.4073 C   0  0  0  0  0  0  0  0  0  0  0  0
  154.8560  135.0776  163.3495 C   0  0  0  0  0  0  0  0  0  0  0  0
  154.6513  135.7069  162.0863 O   0  0  0  0  0  0  0  0  0  0  0  0
  151.4413  140.2364  157.3157 N   0  0  0  0  0  0  0  0  0  0  0  0
  148.9751  140.2326  153.1861 H   0  0  0  0  0  0  0  0  0  0  0  0
  147.9789  141.2662  154.1900 H   0  0  0  0  0  0  0  0  0  0  0  0
  149.1926  142.4526  156.1021 H   0  0  0  0  0  0  0  0  0  0  0  0
  148.5657  140.9762  156.7902 H   0  0  0  0  0  0  0  0  0  0  0  0
  150.5657  143.3169  158.3083 H   0  0  0  0  0  0  0  0  0  0  0  0
  154.0052  136.4033  159.3942 H   0  0  0  0  0  0  0  0  0  0  0  0
  154.7261  137.9228  159.8635 H   0  0  0  0  0  0  0  0  0  0  0  0
  152.5941  138.2674  161.3481 H   0  0  0  0  0  0  0  0  0  0  0  0
  152.2967  136.5623  161.1085 H   0  0  0  0  0  0  0  0  0  0  0  0
  154.8728  137.7308  162.2869 H   0  0  0  0  0  0  0  0  0  0  0  0
  153.2587  137.9121  164.0887 H   0  0  0  0  0  0  0  0  0  0  0  0
  152.4570  136.4143  163.5958 H   0  0  0  0  0  0  0  0  0  0  0  0
  155.2635  136.7027  164.7141 H   0  0  0  0  0  0  0  0  0  0  0  0
  153.9943  135.6186  165.2965 H   0  0  0  0  0  0  0  0  0  0  0  0
  155.8959  134.7760  163.4778 H   0  0  0  0  0  0  0  0  0  0  0  0
  154.2360  134.1816  163.3930 H   0  0  0  0  0  0  0  0  0  0  0  0
  1  2  1  0  0  0  0
  1 20  1  0  0  0  0
  1 21  1  0  0  0  0
  2  3  2  0  0  0  0
  2  4  1  0  0  0  0
  4  5  1  0  0  0  0
  4 22  1  0  0  0  0
  4 23  1  0  0  0  0
  5 19  1  0  0  0  0
  5  6  2  0  0  0  0
  6  7  1  0  0  0  0
  6 24  1  0  0  0  0
  7  8  1  0  0  0  0
  8  9  1  0  0  0  0
  8 19  2  0  0  0  0
  9 10  1  0  0  0  0
 10 11  2  0  0  0  0
 10 12  1  0  0  0  0
 12 13  1  0  0  0  0
 12 25  1  0  0  0  0
 12 26  1  0  0  0  0
 13 14  1  0  0  0  0
 13 27  1  0  0  0  0
 13 28  1  0  0  0  0
 14 18  1  0  0  0  0
 14 15  1  0  0  0  0
 14 29  1  0  0  0  0
 15 16  1  0  0  0  0
 15 30  1  0  0  0  0
 15 31  1  0  0  0  0
 16 17  1  0  0  0  0
 16 32  1  0  0  0  0
 16 33  1  0  0  0  0
 17 18  1  0  0  0  0
 17 34  1  0  0  0  0
 17 35  1  0  0  0  0
M  CHG  1   9  -1
M  END
> <s_m_source_file>
AV-unprocessed.smi

> <i_m_source_file_index>
1439

> <i_lp_mmshare_version>
43012

> <i_f3d_flags>
0

> <s_epik_input>
W05IMl1DKD1PKVtDSDJdYzFbY0hdc2MobjEpW05IXUMoPU8pW0NIMl1bQ0gyXVtDQEBIXTJbQ0gyXVtDSDJdW0NIMl1PMg==

> <s_epik_cmdline>
J2VwaWtfcHl0aG9uJywgJy1waCcsICc3LjAnLCAnLXRuJywgJzgnLCAnLW1hJywgJzIwMCcsICctbWV0YWxfYmluZGluZycsICctaW1hZScsICc8aW5maWxlLm1hZT4nLCAnLW9tYWUnLCAnPG91dGZpbGUubWFlPic=

> <r_lp_tautomer_probability>
1

> <r_epik_Ionization_Penalty>
4.85214

> <r_epik_Ionization_Penalty_Charging>
4.5239

> <r_epik_Ionization_Penalty_Neutral>
0.32824

> <r_epik_State_Penalty>
4.52362

> <r_epik_Charging_Adjusted_Penalty>
9.04752

> <i_epik_Tot_Q>
-1

> <i_epik_Tot_abs_Q>
1

> <r_epik_Metal_State_Penalty>
0.831335

> <b_epik_Metal_Only>
1

> <s_lp_Force_Field>
OPLS_2005

> <r_lp_Energy>
13.9468

> <b_lp_Chiralities_Consistent>
1

> <s_lp_Variant>
AV-unprocessed.smi:1439-4

> <Gold.Version>
5.8.1

> <Gold.Id.Protein>
6NUR|6NUR_protein|mol2

> <Gold.PLP.Fitness>
41.9368

> <Gold.PLP.PLP>
-32.3405

> <Gold.PLP.part.hbond>
-3.0000

> <Gold.PLP.part.metal>
0.0000

> <Gold.PLP.part.buried>
-4.3677

> <Gold.PLP.part.nonpolar>
-25.1442

> <Gold.PLP.part.repulsive>
0.2453

> <Gold.PLP.ligand.clash>
0.0000

> <Gold.PLP.ligand.torsion>
1.3855

> <Gold.PLP.Chemscore.Hbond>
4.0000

> <Gold.PLP.Chemscore.CHOScore>
0.0000

> <Gold.PLP.Chemscore.Metal>
0.0000

> <Gold.Chemscore.Hbonds>
donor molecule, donor type, donor heavy atom, donor atom, acceptor molecule, acceptor atom, score
      L1  H     1    20       P1  7957  0.75
      P1  H  7989  7998       L1     3  1.00
      P1  H  7997  8010       L1     9  1.70

> <Gold.PLP.Chemscore.Internal.Correction>
0.3673

> <Gold.Rescore>
     Score         DG    S(hbond)    S(metal)    S(lipo)     H(rot)  DE(clash)    DE(int)     intcor
     12.29     -16.65       2.80        0.00      70.55       2.51       0.04       4.31       ----

> <Gold.Chemscore.Fitness>
12.2933

> <Gold.Chemscore.DG>
-16.6483

> <Gold.Chemscore.ZeroCoef>
-5.4800

> <Gold.Chemscore.Hbond>
2.7966

> <Gold.Chemscore.Metal>
0.0000

> <Gold.Chemscore.Lipo>
70.5487

> <Gold.Chemscore.Internal_Hbond>
0.0000

> <Gold.Chemscore.DEClash>
0.0431

> <Gold.Chemscore.DEInternal>
4.3119

> <Gold.Chemscore.Rot>
2.5103

> <Gold.Chemscore.Internal.Correction>
   9.000000E+99

> <Gold.Chemscore.Hbonds>
donor molecule, donor type, donor heavy atom, donor atom, acceptor molecule, acceptor atom, score
      L1  H     1    20       P1  7957  0.73
      P1  H  7989  7998       L1     3  0.50
      P1  H  7997  8010       L1     9  0.14

> <Gold.Chemscore.Hbond.Weighted>
-9.3405

> <Gold.Chemscore.Metal.Weighted>
-0.0000

> <Gold.Chemscore.Lipo.Weighted>
-8.2542

> <Gold.Chemscore.Internal_Hbond.Weighted>
0.0000

> <Gold.Chemscore.DEClash.Weighted>
0.0431

> <Gold.Chemscore.DEInternal.Weighted>
4.3119

> <Gold.Chemscore.Rot.Weighted>
6.4264

> <Gold.Chemscore.Internal.Correction.Weighted>
   9.000000E+99

> <Gold.Protein.RotatedTorsions>
[ 6907 6896 6895 6894 ] final -101.81 input  -60.11 | X-H torsion
[ 7974 7965 7964 7962 ] final -133.19 input  175.53 | X-H torsion
[ 8008 7997 7996 7995 ] final   24.91 input   59.86 | X-H torsion
[ 10167 10162 10161 10158 ] final   91.99 input  -65.29 | X-H torsion
[ 10718 10713 10712 10709 ] final   -8.74 input   66.30 | X-H torsion
[ 10763 10752 10751 10750 ] final  132.23 input  -60.55 | X-H torsion
[ 11005 11000 10999 10996 ] final  -64.33 input  -57.11 | X-H torsion

> <Gold.Protein.ActiveResidues>
 VAL166  LYS551  ARG553  GLY616  TRP617  ASP618  TYR619  PRO620  LYS621  CYS622 
 ASP623  PHE694  ASN695  SER759  ASP760  ASP761  ALA762  ILE779  LEU786  VAL792 
 PHE793  MET794  SER795  GLU796  ALA797  LYS798  CYS799  TRP800  GLU811  SER814 

> <Gold.Protein.RotatedAtoms>
  150.7170  134.0677  159.3853 H   0  0  0  0  0  0  0  0  0  0  0  0  # atno 6907 bound_to 6896
  151.8658  135.0505  160.0483 H   0  0  0  0  0  0  0  0  0  0  0  0  # atno 6908 bound_to 6896
  152.2681  133.5322  159.5459 H   0  0  0  0  0  0  0  0  0  0  0  0  # atno 6909 bound_to 6896
  144.9216  140.7021  143.4962 H   0  0  0  0  0  0  0  0  0  0  0  0  # atno 7974 bound_to 7965
  155.0035  140.3128  155.4858 H   0  0  0  0  0  0  0  0  0  0  0  0  # atno 8008 bound_to 7997
  156.2921  140.2227  156.5087 H   0  0  0  0  0  0  0  0  0  0  0  0  # atno 8009 bound_to 7997
  154.7597  140.0460  157.0951 H   0  0  0  0  0  0  0  0  0  0  0  0  # atno 8010 bound_to 7997
  139.8320  144.6682  150.9388 H   0  0  0  0  0  0  0  0  0  0  0  0  # atno 10167 bound_to 10162
  156.6982  130.5085  149.5924 H   0  0  0  0  0  0  0  0  0  0  0  0  # atno 10718 bound_to 10713
  153.7873  135.3160  155.3374 H   0  0  0  0  0  0  0  0  0  0  0  0  # atno 10763 bound_to 10752
  154.8139  135.4649  154.0593 H   0  0  0  0  0  0  0  0  0  0  0  0  # atno 10764 bound_to 10752
  153.1900  135.6907  153.8451 H   0  0  0  0  0  0  0  0  0  0  0  0  # atno 10765 bound_to 10752
  141.1421  133.6664  156.5817 H   0  0  0  0  0  0  0  0  0  0  0  0  # atno 11005 bound_to 11000
  145.3287  139.1766  143.4548 LP  0  0  0  0  0  0  0  0  0  0  0  0  # atno 17320 bound_to 7965
  146.3207  140.3314  142.8640 LP  0  0  0  0  0  0  0  0  0  0  0  0  # atno 17321 bound_to 7965
  140.7806  143.3992  151.1178 LP  0  0  0  0  0  0  0  0  0  0  0  0  # atno 17342 bound_to 10162
  139.7645  143.8586  152.3107 LP  0  0  0  0  0  0  0  0  0  0  0  0  # atno 17343 bound_to 10162
  156.1748  130.6460  151.0881 LP  0  0  0  0  0  0  0  0  0  0  0  0  # atno 17370 bound_to 10713
  157.6983  131.0785  150.6900 LP  0  0  0  0  0  0  0  0  0  0  0  0  # atno 17371 bound_to 10713
  140.3833  134.7504  157.4675 LP  0  0  0  0  0  0  0  0  0  0  0  0  # atno 17394 bound_to 11000
  140.0621  134.5981  155.8737 LP  0  0  0  0  0  0  0  0  0  0  0  0  # atno 17395 bound_to 11000

$$$$
