#       Name:                AV-unprocessed.smi:1247
#       Creating user name   scv26
#       Creation time:       Fri Mar 27 04:35:26 2020


#       File generated by GOLD software.
#

@<TRIPOS>MOLECULE
AV-unprocessed.smi:1247
    52    53     1
SMALL
NO_CHARGES


@<TRIPOS>ATOM
      1 ****        -2.5579   6.7642   1.3934 C.3            1 S1                 0.0000
      2 ****        -2.8530   5.3758   0.9074 C.2            1 S1                 0.0000
      3 ****        -2.0675   4.1993   1.0818 C.2            1 S1                 0.0000
      4 ****        -2.8104   3.2441   0.4433 C.2            1 S1                 0.0000
      5 ****        -2.5520   1.9176   0.2947 N.am           1 S1                 0.0000
      6 ****        -1.4640   1.2260   0.6762 C.2            1 S1                 0.0000
      7 ****        -0.4700   1.7033   1.2242 O.2            1 S1                 0.0000
      8 ****        -1.5885  -0.0748   0.3769 N.am           1 S1                 0.0000
      9 ****        -0.5861  -1.0963   0.6541 C.3            1 S1                 0.0000
     10 ****         0.4987  -1.1254  -0.4386 C.3            1 S1                 0.0000
     11 ****         1.5957  -2.0599  -0.1934 N.3            1 S1                 0.0000
     12 ****         1.1663  -3.4562  -0.2369 C.3            1 S1                 0.0000
     13 ****         2.3282  -4.4453  -0.0132 C.3            1 S1                 0.0000
     14 ****         2.8018  -4.5079   1.4491 C.3            1 S1                 0.0000
     15 ****         3.4050  -4.1583  -0.9069 O.3            1 S1                 0.0000
     16 ****         3.8600  -2.8065  -0.8953 C.3            1 S1                 0.0000
     17 ****         4.9535  -2.6630  -1.9590 C.3            1 S1                 0.0000
     18 ****         2.6708  -1.8651  -1.1579 C.3            1 S1                 0.0000
     19 ****        -3.9497   3.8301  -0.0616 N.pl3          1 S1                 0.0000
     20 ****        -5.0393   3.2323  -0.8085 C.3            1 S1                 0.0000
     21 ****        -3.9703   5.1496   0.2253 N.2            1 S1                 0.0000
     22 ****        -1.6476   6.7867   1.9929 H              1 S1                 0.0000
     23 ****        -3.3707   7.1455   2.0121 H              1 S1                 0.0000
     24 ****        -2.4221   7.4515   0.5581 H              1 S1                 0.0000
     25 ****        -1.1232   4.0962   1.5945 H              1 S1                 0.0000
     26 ****        -3.2772   1.3873  -0.1654 H              1 S1                 0.0000
     27 ****        -2.4377  -0.3819  -0.0742 H              1 S1                 0.0000
     28 ****        -0.1373  -0.9290   1.6349 H              1 S1                 0.0000
     29 ****        -1.1069  -2.0517   0.7086 H              1 S1                 0.0000
     30 ****         0.0393  -1.3415  -1.4043 H              1 S1                 0.0000
     31 ****         0.9135  -0.1200  -0.5237 H              1 S1                 0.0000
     32 ****         0.3973  -3.6443   0.5116 H              1 S1                 0.0000
     33 ****         0.7099  -3.6634  -1.2060 H              1 S1                 0.0000
     34 ****         1.9727  -5.4426  -0.2740 H              1 S1                 0.0000
     35 ****         1.9950  -4.8384   2.1034 H              1 S1                 0.0000
     36 ****         3.1382  -3.5375   1.8136 H              1 S1                 0.0000
     37 ****         3.6269  -5.2114   1.5609 H              1 S1                 0.0000
     38 ****         4.2966  -2.5791   0.0776 H              1 S1                 0.0000
     39 ****         5.3450  -1.6457  -1.9839 H              1 S1                 0.0000
     40 ****         4.5714  -2.9001  -2.9523 H              1 S1                 0.0000
     41 ****         5.7873  -3.3347  -1.7537 H              1 S1                 0.0000
     42 ****         2.2929  -2.0277  -2.1687 H              1 S1                 0.0000
     43 ****         3.0176  -0.8317  -1.1187 H              1 S1                 0.0000
     44 ****        -5.4792   2.4209  -0.2283 H              1 S1                 0.0000
     45 ****        -4.6615   2.8341  -1.7506 H              1 S1                 0.0000
     46 ****        -5.8116   3.9727  -1.0215 H              1 S1                 0.0000
     47 ****        -0.4288   2.6832   1.4196 LP             1 S1                 0.0000
     48 ****         0.2961   1.1111   1.4739 LP             1 S1                 0.0000
     49 ****         1.9252  -1.8638   0.7302 LP             1 S1                 0.0000
     50 ****         3.1027  -4.3750  -1.8351 LP             1 S1                 0.0000
     51 ****         4.1758  -4.7462  -0.6615 LP             1 S1                 0.0000
     52 ****        -4.6754   5.8140  -0.0225 LP             1 S1                 0.0000
@<TRIPOS>BOND
    1    1    2 1     
    2    1   22 1     
    3    1   23 1     
    4    1   24 1     
    5    2   21 2     
    6    2    3 1     
    7    3    4 2     
    8    3   25 1     
    9    4    5 1     
   10    4   19 1     
   11    5    6 am    
   12    5   26 1     
   13    6    7 2     
   14    6    8 am    
   15    8    9 1     
   16    8   27 1     
   17    9   10 1     
   18    9   28 1     
   19    9   29 1     
   20   10   11 1     
   21   10   30 1     
   22   10   31 1     
   23   11   18 1     
   24   11   12 1     
   25   12   13 1     
   26   12   32 1     
   27   12   33 1     
   28   13   14 1     
   29   13   15 1     
   30   13   34 1     
   31   14   35 1     
   32   14   36 1     
   33   14   37 1     
   34   15   16 1     
   35   16   17 1     
   36   16   18 1     
   37   16   38 1     
   38   17   39 1     
   39   17   40 1     
   40   17   41 1     
   41   18   42 1     
   42   18   43 1     
   43   19   20 1     
   44   19   21 1     
   45   20   44 1     
   46   20   45 1     
   47   20   46 1     
   48    7   47 1     
   49    7   48 1     
   50   11   49 1     
   51   15   50 1     
   52   15   51 1     
   53   21   52 1     
@<TRIPOS>SUBSTRUCTURE
      1 S1             1
@<TRIPOS>SET
LONE_PAIRS      STATIC     ATOMS    <user>   **** ""
6 47 48 49 50 51 52
DONOR_HYDROGENS      STATIC     ATOMS    <user>   **** ""
2 26 27
ATOM$BLUE        STATIC     ATOMS    COLORGROUP SYSTEM
6 47 48 49 50 51 52
ATOM$RED        STATIC     ATOMS    COLORGROUP SYSTEM
2 26 27
