AV-unprocessed.smi:77|AV-procd|sdf|771|dock9
  -GOLD-   2262017113D 1   1.00000     0.00000
 Structure written by MMmdl.
 57 61  0  0  0  0  0  0  0  0  1 V2000
  153.5357  139.1879  158.6679 O   0  0  0  0  0  0  0  0  0  0  0  0
  152.3582  139.5481  158.7049 C   0  0  0  0  0  0  0  0  0  0  0  0
  151.2359  138.6051  158.2512 C   0  0  0  0  0  0  0  0  0  0  0  0
  151.4359  138.0873  156.8932 N   0  0  0  0  0  0  0  0  0  0  0  0
  150.3305  137.5585  156.3207 C   0  0  0  0  0  0  0  0  0  0  0  0
  149.2831  138.3624  155.9986 N   0  0  0  0  0  0  0  0  0  0  0  0
  148.1892  137.8367  155.4380 C   0  0  0  0  0  0  0  0  0  0  0  0
  147.9414  136.5630  155.1224 N   0  0  0  0  0  0  0  0  0  0  0  0
  148.9955  135.7589  155.4443 C   0  0  0  0  0  0  0  0  0  0  0  0
  150.2202  136.1728  156.0361 C   0  0  0  0  0  0  0  0  0  0  0  0
  151.0613  135.0814  156.2102 N   0  0  0  0  0  0  0  0  0  0  0  0
  150.3671  134.0734  155.7568 C   0  0  0  0  0  0  0  0  0  0  0  0
  149.1117  134.3896  155.2869 N   0  0  0  0  0  0  0  0  0  0  0  0
  148.1297  133.4735  154.7362 C   0  0  0  0  0  0  0  0  0  0  0  0
  147.7295  133.7862  153.2692 C   0  0  2  0  0  0  0  0  0  0  0  0
  146.6117  134.8568  153.1757 C   0  0  0  0  0  0  0  0  0  0  0  0
  146.6762  135.5862  151.9673 O   0  0  0  0  0  0  0  0  0  0  0  0
  147.3177  132.4849  152.5323 C   0  0  2  0  0  0  0  0  0  0  0  0
  146.6908  132.6939  151.1635 C   0  0  0  0  0  0  0  0  0  0  0  0
  145.9900  131.3630  150.9226 C   0  0  0  0  0  0  0  0  0  0  0  0
  145.5435  130.9365  152.2032 O   0  0  0  0  0  0  0  0  0  0  0  0
  146.2087  131.6777  153.2218 C   0  0  0  0  0  0  0  0  0  0  0  0
  152.1846  138.9404  155.9809 C   0  0  0  0  0  0  0  0  0  0  0  0
  151.4834  139.5324  154.7797 C   0  0  0  0  0  0  0  0  0  0  0  0
  152.4905  138.4195  154.5978 C   0  0  0  0  0  0  0  0  0  0  0  0
  151.9724  140.7665  159.1107 N   0  0  0  0  0  0  0  0  0  0  0  0
  152.8411  141.7983  159.5771 C   0  0  0  0  0  0  0  0  0  0  0  0
  152.2064  143.0001  160.2431 C   0  0  0  0  0  0  0  0  0  0  0  0
  152.7952  143.1332  158.8658 C   0  0  0  0  0  0  0  0  0  0  0  0
  151.1227  137.7856  158.9634 H   0  0  0  0  0  0  0  0  0  0  0  0
  150.3018  139.1677  158.2847 H   0  0  0  0  0  0  0  0  0  0  0  0
  147.3973  138.5358  155.2133 H   0  0  0  0  0  0  0  0  0  0  0  0
  150.7514  133.0639  155.7614 H   0  0  0  0  0  0  0  0  0  0  0  0
  148.5502  132.4711  154.8164 H   0  0  0  0  0  0  0  0  0  0  0  0
  147.2463  133.4895  155.3760 H   0  0  0  0  0  0  0  0  0  0  0  0
  148.6094  134.1775  152.7557 H   0  0  0  0  0  0  0  0  0  0  0  0
  145.6232  134.4012  153.2017 H   0  0  0  0  0  0  0  0  0  0  0  0
  146.6607  135.5435  154.0212 H   0  0  0  0  0  0  0  0  0  0  0  0
  147.5842  135.6999  151.7310 H   0  0  0  0  0  0  0  0  0  0  0  0
  148.1927  131.8434  152.4133 H   0  0  0  0  0  0  0  0  0  0  0  0
  145.9581  133.5017  151.1976 H   0  0  0  0  0  0  0  0  0  0  0  0
  147.4177  132.9228  150.3838 H   0  0  0  0  0  0  0  0  0  0  0  0
  145.1634  131.4455  150.2165 H   0  0  0  0  0  0  0  0  0  0  0  0
  146.6957  130.6266  150.5360 H   0  0  0  0  0  0  0  0  0  0  0  0
  146.5960  131.0085  153.9902 H   0  0  0  0  0  0  0  0  0  0  0  0
  145.4795  132.3404  153.6897 H   0  0  0  0  0  0  0  0  0  0  0  0
  152.9549  139.5600  156.4370 H   0  0  0  0  0  0  0  0  0  0  0  0
  150.4343  139.2867  154.6264 H   0  0  0  0  0  0  0  0  0  0  0  0
  151.7771  140.5336  154.4718 H   0  0  0  0  0  0  0  0  0  0  0  0
  153.4553  138.6784  154.1669 H   0  0  0  0  0  0  0  0  0  0  0  0
  152.1089  137.4356  154.3311 H   0  0  0  0  0  0  0  0  0  0  0  0
  150.9848  140.9764  159.0976 H   0  0  0  0  0  0  0  0  0  0  0  0
  153.8116  141.4964  159.9686 H   0  0  0  0  0  0  0  0  0  0  0  0
  151.1215  143.0215  160.3293 H   0  0  0  0  0  0  0  0  0  0  0  0
  152.7475  143.4611  161.0670 H   0  0  0  0  0  0  0  0  0  0  0  0
  153.7299  143.6822  158.7697 H   0  0  0  0  0  0  0  0  0  0  0  0
  152.1039  143.2421  158.0321 H   0  0  0  0  0  0  0  0  0  0  0  0
  1  2  2  0  0  0  0
  2  3  1  0  0  0  0
  2 26  1  0  0  0  0
  3  4  1  0  0  0  0
  3 30  1  0  0  0  0
  3 31  1  0  0  0  0
  4  5  1  0  0  0  0
  4 23  1  0  0  0  0
  5 10  1  0  0  0  0
  5  6  2  0  0  0  0
  6  7  1  0  0  0  0
  7  8  2  0  0  0  0
  7 32  1  0  0  0  0
  8  9  1  0  0  0  0
  9 13  1  0  0  0  0
  9 10  2  0  0  0  0
 10 11  1  0  0  0  0
 11 12  2  0  0  0  0
 12 13  1  0  0  0  0
 12 33  1  0  0  0  0
 13 14  1  0  0  0  0
 14 15  1  0  0  0  0
 14 34  1  0  0  0  0
 14 35  1  0  0  0  0
 15 16  1  0  0  0  0
 15 18  1  0  0  0  0
 15 36  1  0  0  0  0
 16 17  1  0  0  0  0
 16 37  1  0  0  0  0
 16 38  1  0  0  0  0
 17 39  1  0  0  0  0
 18 22  1  0  0  0  0
 18 19  1  0  0  0  0
 18 40  1  0  0  0  0
 19 20  1  0  0  0  0
 19 41  1  0  0  0  0
 19 42  1  0  0  0  0
 20 21  1  0  0  0  0
 20 43  1  0  0  0  0
 20 44  1  0  0  0  0
 21 22  1  0  0  0  0
 22 45  1  0  0  0  0
 22 46  1  0  0  0  0
 23 25  1  0  0  0  0
 23 24  1  0  0  0  0
 23 47  1  0  0  0  0
 24 25  1  0  0  0  0
 24 48  1  0  0  0  0
 24 49  1  0  0  0  0
 25 50  1  0  0  0  0
 25 51  1  0  0  0  0
 26 27  1  0  0  0  0
 26 52  1  0  0  0  0
 27 29  1  0  0  0  0
 27 28  1  0  0  0  0
 27 53  1  0  0  0  0
 28 29  1  0  0  0  0
 28 54  1  0  0  0  0
 28 55  1  0  0  0  0
 29 56  1  0  0  0  0
 29 57  1  0  0  0  0
M  END
> <s_m_source_file>
AV-unprocessed.smi

> <i_m_source_file_index>
77

> <i_lp_mmshare_version>
43012

> <i_f3d_flags>
0

> <s_epik_input>
W0NIMl0xW0NIMl1bQ0hdMVtOSF1DKD1PKVtDSDJdTihbQ0hdMltDSDJdW0NIMl0yKWMobltjSF1uMyljKGMzNCluW2NIXW40W0NIMl1bQ0BIXShbQ0gyXVtPSF0pW0NAQEhdNVtDSDJdW0NIMl1PW0NIMl01

> <s_epik_cmdline>
J2VwaWtfcHl0aG9uJywgJy1waCcsICc3LjAnLCAnLXRuJywgJzgnLCAnLW1hJywgJzIwMCcsICctbWV0YWxfYmluZGluZycsICctaW1hZScsICc8aW5maWxlLm1hZT4nLCAnLW9tYWUnLCAnPG91dGZpbGUubWFlPic=

> <r_lp_tautomer_probability>
1

> <r_epik_Ionization_Penalty>
0.000703847

> <r_epik_Ionization_Penalty_Charging>
0

> <r_epik_Ionization_Penalty_Neutral>
0.000703847

> <r_epik_State_Penalty>
0.00034025

> <r_epik_Charging_Adjusted_Penalty>
0.00034025

> <i_epik_Tot_Q>
0

> <i_epik_Tot_abs_Q>
0

> <r_epik_Metal_State_Penalty>
-0

> <b_epik_Metal_Only>
0

> <s_lp_Force_Field>
OPLS_2005

> <r_lp_Energy>
55.2708

> <b_lp_Chiralities_Consistent>
1

> <s_lp_Variant>
AV-unprocessed.smi:77-1

> <Gold.Version>
5.8.1

> <Gold.Id.Protein>
6NUR|6NUR_protein|mol2

> <Gold.PLP.Fitness>
50.0429

> <Gold.PLP.PLP>
-42.7599

> <Gold.PLP.part.hbond>
-3.0000

> <Gold.PLP.part.metal>
0.0000

> <Gold.PLP.part.buried>
-4.0728

> <Gold.PLP.part.nonpolar>
-36.4785

> <Gold.PLP.part.repulsive>
0.4046

> <Gold.PLP.ligand.clash>
0.0000

> <Gold.PLP.ligand.torsion>
1.8870

> <Gold.PLP.Chemscore.Hbond>
3.0000

> <Gold.PLP.Chemscore.CHOScore>
0.0000

> <Gold.PLP.Chemscore.Metal>
0.0000

> <Gold.Chemscore.Hbonds>
donor molecule, donor type, donor heavy atom, donor atom, acceptor molecule, acceptor atom, score
      L1  H    17    39       P1  7948  0.76
      P1  H  7997  8010       L1     1  0.55
      P1  H 10752 10763       L1    11  0.10

> <Gold.PLP.Chemscore.Internal.Correction>
2.0571

> <Gold.Rescore>
     Score         DG    S(hbond)    S(metal)    S(lipo)     H(rot)  DE(clash)    DE(int)     intcor
     11.58     -17.02       2.77        0.00     102.07       3.77       0.95       4.50       ----

> <Gold.Chemscore.Fitness>
11.5811

> <Gold.Chemscore.DG>
-17.0235

> <Gold.Chemscore.ZeroCoef>
-5.4800

> <Gold.Chemscore.Hbond>
2.7715

> <Gold.Chemscore.Metal>
0.0000

> <Gold.Chemscore.Lipo>
102.0656

> <Gold.Chemscore.Internal_Hbond>
0.0000

> <Gold.Chemscore.DEClash>
0.9468

> <Gold.Chemscore.DEInternal>
4.4956

> <Gold.Chemscore.Rot>
3.7714

> <Gold.Chemscore.Internal.Correction>
   9.000000E+99

> <Gold.Chemscore.Hbonds>
donor molecule, donor type, donor heavy atom, donor atom, acceptor molecule, acceptor atom, score
      L1  H    17    39       P1  7948  0.74
      P1  H  7997  8010       L1     1  0.52
      P1  H 10752 10763       L1    11  0.07

> <Gold.Chemscore.Hbond.Weighted>
-9.2567

> <Gold.Chemscore.Metal.Weighted>
-0.0000

> <Gold.Chemscore.Lipo.Weighted>
-11.9417

> <Gold.Chemscore.Internal_Hbond.Weighted>
0.0000

> <Gold.Chemscore.DEClash.Weighted>
0.9468

> <Gold.Chemscore.DEInternal.Weighted>
4.4956

> <Gold.Chemscore.Rot.Weighted>
9.6548

> <Gold.Chemscore.Internal.Correction.Weighted>
   9.000000E+99

> <Gold.Protein.RotatedTorsions>
[ 6907 6896 6895 6894 ] final  -14.89 input  -60.11 | X-H torsion
[ 7974 7965 7964 7962 ] final  -59.80 input  175.53 | X-H torsion
[ 8008 7997 7996 7995 ] final    0.84 input   59.86 | X-H torsion
[ 10167 10162 10161 10158 ] final  -96.13 input  -65.29 | X-H torsion
[ 10718 10713 10712 10709 ] final   85.94 input   66.30 | X-H torsion
[ 10763 10752 10751 10750 ] final   80.76 input  -60.55 | X-H torsion
[ 11005 11000 10999 10996 ] final  179.31 input  -57.11 | X-H torsion

> <Gold.Protein.ActiveResidues>
 VAL166  LYS551  ARG553  GLY616  TRP617  ASP618  TYR619  PRO620  LYS621  CYS622 
 ASP623  PHE694  ASN695  SER759  ASP760  ASP761  ALA762  ILE779  LEU786  VAL792 
 PHE793  MET794  SER795  GLU796  ALA797  LYS798  CYS799  TRP800  GLU811  SER814 

> <Gold.Protein.RotatedAtoms>
  151.3323  135.0844  159.9342 H   0  0  0  0  0  0  0  0  0  0  0  0  # atno 6907 bound_to 6896
  152.5231  133.9530  159.7691 H   0  0  0  0  0  0  0  0  0  0  0  0  # atno 6908 bound_to 6896
  150.9871  133.6134  159.2743 H   0  0  0  0  0  0  0  0  0  0  0  0  # atno 6909 bound_to 6896
  145.8231  140.8527  143.0122 H   0  0  0  0  0  0  0  0  0  0  0  0  # atno 7974 bound_to 7965
  154.6727  140.2615  155.6990 H   0  0  0  0  0  0  0  0  0  0  0  0  # atno 8008 bound_to 7997
  156.2665  140.2826  156.1165 H   0  0  0  0  0  0  0  0  0  0  0  0  # atno 8009 bound_to 7997
  155.1144  140.0376  157.2723 H   0  0  0  0  0  0  0  0  0  0  0  0  # atno 8010 bound_to 7997
  140.2970  143.3186  152.0287 H   0  0  0  0  0  0  0  0  0  0  0  0  # atno 10167 bound_to 10162
  157.6922  131.0195  150.2897 H   0  0  0  0  0  0  0  0  0  0  0  0  # atno 10718 bound_to 10713
  153.1060  135.4791  154.8951 H   0  0  0  0  0  0  0  0  0  0  0  0  # atno 10763 bound_to 10752
  154.7430  135.3087  154.8697 H   0  0  0  0  0  0  0  0  0  0  0  0  # atno 10764 bound_to 10752
  153.9299  135.6846  153.4799 H   0  0  0  0  0  0  0  0  0  0  0  0  # atno 10765 bound_to 10752
  140.4047  134.6746  157.4581 H   0  0  0  0  0  0  0  0  0  0  0  0  # atno 11005 bound_to 11000
  144.6746  140.0562  143.7477 LP  0  0  0  0  0  0  0  0  0  0  0  0  # atno 17320 bound_to 7965
  145.9653  139.2830  143.1131 LP  0  0  0  0  0  0  0  0  0  0  0  0  # atno 17321 bound_to 7965
  139.4924  144.6484  151.6729 LP  0  0  0  0  0  0  0  0  0  0  0  0  # atno 17342 bound_to 10162
  140.5684  144.0151  150.6204 LP  0  0  0  0  0  0  0  0  0  0  0  0  # atno 17343 bound_to 10162
  156.3430  130.3818  149.7393 LP  0  0  0  0  0  0  0  0  0  0  0  0  # atno 17370 bound_to 10713
  156.4895  130.8078  151.3089 LP  0  0  0  0  0  0  0  0  0  0  0  0  # atno 17371 bound_to 10713
  140.0311  134.6405  155.9106 LP  0  0  0  0  0  0  0  0  0  0  0  0  # atno 17394 bound_to 11000
  141.1843  133.6552  156.5154 LP  0  0  0  0  0  0  0  0  0  0  0  0  # atno 17395 bound_to 11000

$$$$
