AV-unprocessed.smi:2503|AV-procd|sdf|9848|dock3
  -GOLD-   2272013473D 1   1.00000     0.00000
 Structure written by MMmdl.
 36 37  0  0  0  0  0  0  0  0  1 V2000
  150.1815  141.2551  158.3969 C   0  0  0  0  0  0  0  0  0  0  0  0
  151.2117  141.4810  157.2802 C   0  0  0  0  0  0  0  0  0  0  0  0
  151.2437  142.9442  156.8143 C   0  0  0  0  0  0  0  0  0  0  0  0
  150.9996  140.5403  156.1244 C   0  0  0  0  0  0  0  0  0  0  0  0
  151.7809  139.4887  155.8891 N   0  0  0  0  0  0  0  0  0  0  0  0
  151.2321  138.8716  154.7719 C   0  0  0  0  0  0  0  0  0  0  0  0
  150.1180  139.5666  154.3722 C   0  0  0  0  0  0  0  0  0  0  0  0
  149.9683  140.6301  155.2546 N   0  0  0  0  0  0  0  0  0  0  0  0
  148.8926  141.6106  155.2065 C   0  0  0  0  0  0  0  0  0  0  0  0
  147.9375  141.4553  156.3940 C   0  0  0  0  0  0  0  0  0  0  0  0
  147.4544  140.3465  156.6335 O   0  0  0  0  0  0  0  0  0  0  0  0
  147.7110  142.5863  157.1015 N   0  0  0  0  0  0  0  0  0  0  0  0
  146.9925  142.8026  158.2285 C   0  0  0  0  0  0  0  0  0  0  0  0
  146.6395  141.8581  158.9328 O   0  0  0  0  0  0  0  0  0  0  0  0
  146.6822  144.0789  158.5218 N   0  0  0  0  0  0  0  0  0  0  0  0
  146.1616  144.5470  159.7650 C   0  0  0  0  0  0  0  0  0  0  0  0
  146.7922  145.7829  160.3691 C   0  0  0  0  0  0  0  0  0  0  0  0
  147.0529  144.4350  160.9828 C   0  0  0  0  0  0  0  0  0  0  0  0
  150.2134  140.2262  158.7562 H   0  0  0  0  0  0  0  0  0  0  0  0
  149.1668  141.4563  158.0514 H   0  0  0  0  0  0  0  0  0  0  0  0
  150.3762  141.9076  159.2483 H   0  0  0  0  0  0  0  0  0  0  0  0
  152.1821  141.2719  157.7264 H   0  0  0  0  0  0  0  0  0  0  0  0
  152.0283  143.1031  156.0736 H   0  0  0  0  0  0  0  0  0  0  0  0
  151.4381  143.6180  157.6489 H   0  0  0  0  0  0  0  0  0  0  0  0
  150.2958  143.2378  156.3624 H   0  0  0  0  0  0  0  0  0  0  0  0
  151.6751  137.9825  154.3483 H   0  0  0  0  0  0  0  0  0  0  0  0
  149.4298  139.3914  153.5582 H   0  0  0  0  0  0  0  0  0  0  0  0
  149.3233  142.6121  155.1650 H   0  0  0  0  0  0  0  0  0  0  0  0
  148.3299  141.4748  154.2822 H   0  0  0  0  0  0  0  0  0  0  0  0
  148.1645  143.4102  156.7343 H   0  0  0  0  0  0  0  0  0  0  0  0
  146.8253  144.7724  157.8010 H   0  0  0  0  0  0  0  0  0  0  0  0
  145.0950  144.4161  159.9429 H   0  0  0  0  0  0  0  0  0  0  0  0
  147.6094  146.2542  159.8258 H   0  0  0  0  0  0  0  0  0  0  0  0
  146.1400  146.4645  160.9113 H   0  0  0  0  0  0  0  0  0  0  0  0
  146.5749  144.2157  161.9353 H   0  0  0  0  0  0  0  0  0  0  0  0
  148.0451  144.0075  160.8508 H   0  0  0  0  0  0  0  0  0  0  0  0
  1  2  1  0  0  0  0
  1 19  1  0  0  0  0
  1 20  1  0  0  0  0
  1 21  1  0  0  0  0
  2  3  1  0  0  0  0
  2  4  1  0  0  0  0
  2 22  1  0  0  0  0
  3 23  1  0  0  0  0
  3 24  1  0  0  0  0
  3 25  1  0  0  0  0
  4  8  1  0  0  0  0
  4  5  2  0  0  0  0
  5  6  1  0  0  0  0
  6  7  2  0  0  0  0
  6 26  1  0  0  0  0
  7  8  1  0  0  0  0
  7 27  1  0  0  0  0
  8  9  1  0  0  0  0
  9 10  1  0  0  0  0
  9 28  1  0  0  0  0
  9 29  1  0  0  0  0
 10 11  2  0  0  0  0
 10 12  1  0  0  0  0
 12 13  1  0  0  0  0
 12 30  1  0  0  0  0
 13 14  2  0  0  0  0
 13 15  1  0  0  0  0
 15 16  1  0  0  0  0
 15 31  1  0  0  0  0
 16 18  1  0  0  0  0
 16 17  1  0  0  0  0
 16 32  1  0  0  0  0
 17 18  1  0  0  0  0
 17 33  1  0  0  0  0
 17 34  1  0  0  0  0
 18 35  1  0  0  0  0
 18 36  1  0  0  0  0
M  END
> <s_m_source_file>
AV-unprocessed.smi

> <i_m_source_file_index>
2503

> <i_lp_mmshare_version>
43012

> <i_f3d_flags>
0

> <s_epik_input>
W0NIM11bQ0hdKFtDSDNdKWMxbltjSF1bY0hdbjFbQ0gyXUMoPU8pW05IXUMoPU8pW05IXVtDSF0yW0NIMl1bQ0gyXTI=

> <s_epik_cmdline>
J2VwaWtfcHl0aG9uJywgJy1waCcsICc3LjAnLCAnLXRuJywgJzgnLCAnLW1hJywgJzIwMCcsICctbWV0YWxfYmluZGluZycsICctaW1hZScsICc8aW5maWxlLm1hZT4nLCAnLW9tYWUnLCAnPG91dGZpbGUubWFlPic=

> <r_lp_tautomer_probability>
1

> <r_epik_Ionization_Penalty>
0.441646

> <r_epik_Ionization_Penalty_Charging>
0.441618

> <r_epik_Ionization_Penalty_Neutral>
2.81151e-05

> <r_epik_State_Penalty>
0.443748

> <r_epik_Charging_Adjusted_Penalty>
0.885366

> <i_epik_Tot_Q>
0

> <i_epik_Tot_abs_Q>
0

> <r_epik_Metal_State_Penalty>
0.251733

> <b_epik_Metal_Only>
0

> <s_lp_Force_Field>
OPLS_2005

> <r_lp_Energy>
20.0487

> <b_lp_Chiralities_Consistent>
1

> <s_lp_Variant>
AV-unprocessed.smi:2503-2

> <Gold.Version>
5.8.1

> <Gold.Id.Protein>
6NUR|6NUR_protein|mol2

> <Gold.PLP.Fitness>
39.7818

> <Gold.PLP.PLP>
-30.0042

> <Gold.PLP.part.hbond>
-2.9800

> <Gold.PLP.part.metal>
0.0000

> <Gold.PLP.part.buried>
-1.6934

> <Gold.PLP.part.nonpolar>
-23.9640

> <Gold.PLP.part.repulsive>
0.0906

> <Gold.PLP.ligand.clash>
0.0000

> <Gold.PLP.ligand.torsion>
0.5247

> <Gold.PLP.Chemscore.Hbond>
2.5700

> <Gold.PLP.Chemscore.CHOScore>
1.0000

> <Gold.PLP.Chemscore.Metal>
0.0000

> <Gold.Chemscore.Hbonds>
donor molecule, donor type, donor heavy atom, donor atom, acceptor molecule, acceptor atom, score
      L1  H    12    30       P1  8028  0.75
      L1  H    15    31       P1  8029  0.90
      P1  H  6934  6946       L1    14  0.72
      L1  C     7    27       P1  7957  0.99

> <Gold.PLP.Chemscore.Internal.Correction>
0.1169

> <Gold.Rescore>
     Score         DG    S(hbond)    S(metal)    S(lipo)     H(rot)  DE(clash)    DE(int)     intcor
     11.25     -13.30       1.87        0.00      52.37       1.77       0.10       1.95       ----

> <Gold.Chemscore.Fitness>
11.2454

> <Gold.Chemscore.DG>
-13.2974

> <Gold.Chemscore.ZeroCoef>
-5.4800

> <Gold.Chemscore.Hbond>
1.8655

> <Gold.Chemscore.Metal>
0.0000

> <Gold.Chemscore.Lipo>
52.3733

> <Gold.Chemscore.Internal_Hbond>
0.0000

> <Gold.Chemscore.DEClash>
0.1041

> <Gold.Chemscore.DEInternal>
1.9479

> <Gold.Chemscore.Rot>
1.7738

> <Gold.Chemscore.Internal.Correction>
   9.000000E+99

> <Gold.Chemscore.Hbonds>
donor molecule, donor type, donor heavy atom, donor atom, acceptor molecule, acceptor atom, score
      L1  H    12    30       P1  8028  0.09
      L1  H    15    31       P1  8029  0.35
      P1  H  6934  6946       L1    14  0.67

> <Gold.Chemscore.Hbond.Weighted>
-6.2307

> <Gold.Chemscore.Metal.Weighted>
-0.0000

> <Gold.Chemscore.Lipo.Weighted>
-6.1277

> <Gold.Chemscore.Internal_Hbond.Weighted>
0.0000

> <Gold.Chemscore.DEClash.Weighted>
0.1041

> <Gold.Chemscore.DEInternal.Weighted>
1.9479

> <Gold.Chemscore.Rot.Weighted>
4.5409

> <Gold.Chemscore.Internal.Correction.Weighted>
   9.000000E+99

> <Gold.Protein.RotatedTorsions>
[ 6907 6896 6895 6894 ] final   46.78 input  -60.11 | X-H torsion
[ 7974 7965 7964 7962 ] final  -16.17 input  175.53 | X-H torsion
[ 8008 7997 7996 7995 ] final  170.10 input   59.86 | X-H torsion
[ 10167 10162 10161 10158 ] final  144.25 input  -65.29 | X-H torsion
[ 10718 10713 10712 10709 ] final  -30.29 input   66.30 | X-H torsion
[ 10763 10752 10751 10750 ] final   59.45 input  -60.55 | X-H torsion
[ 11005 11000 10999 10996 ] final -136.64 input  -57.11 | X-H torsion

> <Gold.Protein.ActiveResidues>
 VAL166  LYS551  ARG553  GLY616  TRP617  ASP618  TYR619  PRO620  LYS621  CYS622 
 ASP623  PHE694  ASN695  SER759  ASP760  ASP761  ALA762  ILE779  LEU786  VAL792 
 PHE793  MET794  SER795  GLU796  ALA797  LYS798  CYS799  TRP800  GLU811  SER814 

> <Gold.Protein.RotatedAtoms>
  152.2604  134.8040  160.0431 H   0  0  0  0  0  0  0  0  0  0  0  0  # atno 6907 bound_to 6896
  151.8688  133.3466  159.3736 H   0  0  0  0  0  0  0  0  0  0  0  0  # atno 6908 bound_to 6896
  150.7115  134.5060  159.5629 H   0  0  0  0  0  0  0  0  0  0  0  0  # atno 6909 bound_to 6896
  146.1999  140.3598  142.8427 H   0  0  0  0  0  0  0  0  0  0  0  0  # atno 7974 bound_to 7965
  156.1397  140.1547  156.8940 H   0  0  0  0  0  0  0  0  0  0  0  0  # atno 8008 bound_to 7997
  154.4977  140.0834  156.7770 H   0  0  0  0  0  0  0  0  0  0  0  0  # atno 8009 bound_to 7997
  155.4102  140.3418  155.4265 H   0  0  0  0  0  0  0  0  0  0  0  0  # atno 8010 bound_to 7997
  139.4951  144.5985  151.6531 H   0  0  0  0  0  0  0  0  0  0  0  0  # atno 10167 bound_to 10162
  156.4016  130.4391  149.7318 H   0  0  0  0  0  0  0  0  0  0  0  0  # atno 10718 bound_to 10713
  152.9895  135.5571  154.5716 H   0  0  0  0  0  0  0  0  0  0  0  0  # atno 10763 bound_to 10752
  154.5115  135.2802  155.1341 H   0  0  0  0  0  0  0  0  0  0  0  0  # atno 10764 bound_to 10752
  154.2731  135.6359  153.5370 H   0  0  0  0  0  0  0  0  0  0  0  0  # atno 10765 bound_to 10752
  140.8786  134.1961  157.4606 H   0  0  0  0  0  0  0  0  0  0  0  0  # atno 11005 bound_to 11000
  144.8661  140.7208  143.6076 LP  0  0  0  0  0  0  0  0  0  0  0  0  # atno 17320 bound_to 7965
  145.3518  139.1704  143.4430 LP  0  0  0  0  0  0  0  0  0  0  0  0  # atno 17321 bound_to 7965
  140.5629  144.0238  150.6178 LP  0  0  0  0  0  0  0  0  0  0  0  0  # atno 17342 bound_to 10162
  140.3330  143.3066  152.0667 LP  0  0  0  0  0  0  0  0  0  0  0  0  # atno 17343 bound_to 10162
  156.4332  130.7825  151.2845 LP  0  0  0  0  0  0  0  0  0  0  0  0  # atno 17370 bound_to 10713
  157.7504  131.0147  150.3477 LP  0  0  0  0  0  0  0  0  0  0  0  0  # atno 17371 bound_to 10713
  139.8717  134.9807  156.5086 LP  0  0  0  0  0  0  0  0  0  0  0  0  # atno 17394 bound_to 11000
  140.8489  133.8147  155.9148 LP  0  0  0  0  0  0  0  0  0  0  0  0  # atno 17395 bound_to 11000

$$$$
