AV-unprocessed.smi:3303|AV-procd|sdf|12680|dock8
  -GOLD-   2272019 13D 1   1.00000     0.00000
 Structure written by MMmdl.
 44 45  0  0  0  0  0  0  0  0  2 V2000
  147.0343  141.2502  153.9683 C   0  0  0  0  0  0  0  0  0  0  0  0
  148.4712  140.7071  154.0521 C   0  0  1  0  0  0  0  0  0  0  0  0
  149.1380  141.1735  155.3611 C   0  0  0  0  0  0  0  0  0  0  0  0
  150.5261  140.7135  155.4538 N   0  0  0  0  0  0  0  0  0  0  0  0
  151.0957  141.2987  156.6649 C   0  0  0  0  0  0  0  0  0  0  0  0
  150.5749  139.2415  155.4759 C   0  0  2  0  0  0  0  0  0  0  0  0
  152.0141  138.7090  155.6316 C   0  0  0  0  0  0  0  0  0  0  0  0
  149.9655  138.6985  154.1663 C   0  0  0  0  0  0  0  0  0  0  0  0
  148.5195  139.1697  153.9596 C   0  0  2  0  0  0  0  0  0  0  0  0
  148.0283  138.7024  152.6439 N   0  3  0  0  0  0  0  0  0  0  0  0
  146.5591  138.6131  152.5268 C   0  0  0  0  0  0  0  0  0  0  0  0
  146.0158  137.4164  153.3194 C   0  0  0  0  0  0  0  0  0  0  0  0
  145.3834  136.3712  152.4205 C   0  0  0  0  0  0  0  0  0  0  0  0
  144.1021  135.8537  152.7069 C   0  0  0  0  0  0  0  0  0  0  0  0
  143.5639  134.8799  151.8432 C   0  0  0  0  0  0  0  0  0  0  0  0
  144.3236  134.4636  150.7331 C   0  0  0  0  0  0  0  0  0  0  0  0
  145.5936  135.0411  150.5352 C   0  0  0  0  0  0  0  0  0  0  0  0
  146.1201  135.9737  151.3588 N   0  0  0  0  0  0  0  0  0  0  0  0
  146.4102  140.8462  154.7662 H   0  0  0  0  0  0  0  0  0  0  0  0
  146.5641  140.9983  153.0176 H   0  0  0  0  0  0  0  0  0  0  0  0
  147.0215  142.3369  154.0564 H   0  0  0  0  0  0  0  0  0  0  0  0
  149.0372  141.1267  153.2184 H   0  0  0  0  0  0  0  0  0  0  0  0
  149.1192  142.2638  155.3969 H   0  0  0  0  0  0  0  0  0  0  0  0
  148.5699  140.8195  156.2234 H   0  0  0  0  0  0  0  0  0  0  0  0
  152.1660  141.1076  156.7345 H   0  0  0  0  0  0  0  0  0  0  0  0
  150.6146  140.9055  157.5616 H   0  0  0  0  0  0  0  0  0  0  0  0
  150.9744  142.3827  156.6623 H   0  0  0  0  0  0  0  0  0  0  0  0
  149.9812  138.8804  156.3178 H   0  0  0  0  0  0  0  0  0  0  0  0
  152.0409  137.6251  155.5156 H   0  0  0  0  0  0  0  0  0  0  0  0
  152.4286  138.9226  156.6166 H   0  0  0  0  0  0  0  0  0  0  0  0
  152.6816  139.1358  154.8821 H   0  0  0  0  0  0  0  0  0  0  0  0
  150.5812  139.0128  153.3214 H   0  0  0  0  0  0  0  0  0  0  0  0
  149.9909  137.6079  154.1740 H   0  0  0  0  0  0  0  0  0  0  0  0
  147.9051  138.7483  154.7576 H   0  0  0  0  0  0  0  0  0  0  0  0
  148.3671  139.3402  151.9379 H   0  0  0  0  0  0  0  0  0  0  0  0
  146.1159  139.5407  152.8916 H   0  0  0  0  0  0  0  0  0  0  0  0
  146.2869  138.5145  151.4750 H   0  0  0  0  0  0  0  0  0  0  0  0
  146.8195  136.9537  153.8938 H   0  0  0  0  0  0  0  0  0  0  0  0
  145.2740  137.7531  154.0452 H   0  0  0  0  0  0  0  0  0  0  0  0
  143.5429  136.1921  153.5668 H   0  0  0  0  0  0  0  0  0  0  0  0
  142.5865  134.4598  152.0293 H   0  0  0  0  0  0  0  0  0  0  0  0
  143.9421  133.7196  150.0494 H   0  0  0  0  0  0  0  0  0  0  0  0
  146.2033  134.7454  149.6941 H   0  0  0  0  0  0  0  0  0  0  0  0
  148.4199  137.7889  152.4634 H   0  0  0  0  0  0  0  0  0  0  0  0
  1  2  1  0  0  0  0
  1 19  1  0  0  0  0
  1 20  1  0  0  0  0
  1 21  1  0  0  0  0
  2  9  1  0  0  0  0
  2  3  1  0  0  0  0
  2 22  1  0  0  0  0
  3  4  1  0  0  0  0
  3 23  1  0  0  0  0
  3 24  1  0  0  0  0
  4  5  1  0  0  0  0
  4  6  1  0  0  0  0
  5 25  1  0  0  0  0
  5 26  1  0  0  0  0
  5 27  1  0  0  0  0
  6  7  1  0  0  0  0
  6  8  1  0  0  0  0
  6 28  1  0  0  0  0
  7 29  1  0  0  0  0
  7 30  1  0  0  0  0
  7 31  1  0  0  0  0
  8  9  1  0  0  0  0
  8 32  1  0  0  0  0
  8 33  1  0  0  0  0
  9 10  1  0  0  0  0
  9 34  1  0  0  0  0
 10 11  1  0  0  0  0
 10 35  1  0  0  0  0
 10 44  1  0  0  0  0
 11 12  1  0  0  0  0
 11 36  1  0  0  0  0
 11 37  1  0  0  0  0
 12 13  1  0  0  0  0
 12 38  1  0  0  0  0
 12 39  1  0  0  0  0
 13 18  1  0  0  0  0
 13 14  2  0  0  0  0
 14 15  1  0  0  0  0
 14 40  1  0  0  0  0
 15 16  2  0  0  0  0
 15 41  1  0  0  0  0
 16 17  1  0  0  0  0
 16 42  1  0  0  0  0
 17 18  2  0  0  0  0
 17 43  1  0  0  0  0
M  CHG  1  10   1
M  END
> <s_m_source_file>
AV-unprocessed.smi

> <i_m_source_file_index>
3303

> <i_lp_mmshare_version>
43012

> <i_f3d_flags>
0

> <s_epik_input>
W0NIM11bQ0BASF0xW0NIMl1OKFtDSDNdKVtDQEBIXShbQ0gzXSlbQ0gyXVtDQEhdMVtOSF1bQ0gyXVtDSDJdYzJbY0hdW2NIXVtjSF1bY0hdbjI=

> <s_epik_cmdline>
J2VwaWtfcHl0aG9uJywgJy1waCcsICc3LjAnLCAnLXRuJywgJzgnLCAnLW1hJywgJzIwMCcsICctbWV0YWxfYmluZGluZycsICctaW1hZScsICc8aW5maWxlLm1hZT4nLCAnLW9tYWUnLCAnPG91dGZpbGUubWFlPic=

> <r_epik_Ionization_Penalty>
1.37325

> <r_epik_Ionization_Penalty_Charging>
0.000251572

> <r_epik_Ionization_Penalty_Neutral>
1.373

> <r_epik_State_Penalty>
1.46343

> <r_epik_Charging_Adjusted_Penalty>
1.46368

> <i_epik_Tot_Q>
1

> <i_epik_Tot_abs_Q>
1

> <r_epik_Metal_State_Penalty>
1.46331

> <b_epik_Metal_Only>
0

> <s_lp_Force_Field>
OPLS_2005

> <r_lp_Energy>
21.6133

> <b_lp_Chiralities_Consistent>
1

> <s_lp_Variant>
AV-unprocessed.smi:3303-24

> <Gold.Version>
5.8.1

> <Gold.Id.Protein>
6NUR|6NUR_protein|mol2

> <Gold.PLP.Fitness>
48.3244

> <Gold.PLP.PLP>
-35.2664

> <Gold.PLP.part.hbond>
-2.9759

> <Gold.PLP.part.metal>
0.0000

> <Gold.PLP.part.buried>
-3.9527

> <Gold.PLP.part.nonpolar>
-29.7275

> <Gold.PLP.part.repulsive>
0.9391

> <Gold.PLP.ligand.clash>
0.0000

> <Gold.PLP.ligand.torsion>
0.7458

> <Gold.PLP.Chemscore.Hbond>
3.8480

> <Gold.PLP.Chemscore.CHOScore>
1.0000

> <Gold.PLP.Chemscore.Metal>
0.0000

> <Gold.Chemscore.Hbonds>
donor molecule, donor type, donor heavy atom, donor atom, acceptor molecule, acceptor atom, score
      L1  H    10    35       P1  7957  1.00
      L1  H    10    44       P1  7948  2.00
      P1  H  7989  7998       L1     4  0.29
      L1  C    17    43       P1  7921  1.00

> <Gold.PLP.Chemscore.Internal.Correction>
0.0055

> <Gold.Rescore>
     Score         DG    S(hbond)    S(metal)    S(lipo)     H(rot)  DE(clash)    DE(int)     intcor
     18.90     -19.90       2.21        0.00      89.21       1.33       0.25       0.76       ----

> <Gold.Chemscore.Fitness>
18.8962

> <Gold.Chemscore.DG>
-19.9035

> <Gold.Chemscore.ZeroCoef>
-5.4800

> <Gold.Chemscore.Hbond>
2.2126

> <Gold.Chemscore.Metal>
0.0000

> <Gold.Chemscore.Lipo>
89.2109

> <Gold.Chemscore.Internal_Hbond>
0.0000

> <Gold.Chemscore.DEClash>
0.2502

> <Gold.Chemscore.DEInternal>
0.7570

> <Gold.Chemscore.Rot>
1.3298

> <Gold.Chemscore.Internal.Correction>
   9.000000E+99

> <Gold.Chemscore.Hbonds>
donor molecule, donor type, donor heavy atom, donor atom, acceptor molecule, acceptor atom, score
      L1  H    10    35       P1  7957  0.94
      L1  H    10    44       P1  7948  1.00
      P1  H  7989  7998       L1     4  0.03

> <Gold.Chemscore.Hbond.Weighted>
-7.3901

> <Gold.Chemscore.Metal.Weighted>
-0.0000

> <Gold.Chemscore.Lipo.Weighted>
-10.4377

> <Gold.Chemscore.Internal_Hbond.Weighted>
0.0000

> <Gold.Chemscore.DEClash.Weighted>
0.2502

> <Gold.Chemscore.DEInternal.Weighted>
0.7570

> <Gold.Chemscore.Rot.Weighted>
3.4043

> <Gold.Chemscore.Internal.Correction.Weighted>
   9.000000E+99

> <Gold.Protein.RotatedTorsions>
[ 6907 6896 6895 6894 ] final  -16.27 input  -60.11 | X-H torsion
[ 7974 7965 7964 7962 ] final  -83.03 input  175.53 | X-H torsion
[ 8008 7997 7996 7995 ] final   96.46 input   59.86 | X-H torsion
[ 10167 10162 10161 10158 ] final   11.86 input  -65.29 | X-H torsion
[ 10718 10713 10712 10709 ] final  -63.80 input   66.30 | X-H torsion
[ 10763 10752 10751 10750 ] final  107.75 input  -60.55 | X-H torsion
[ 11005 11000 10999 10996 ] final -132.98 input  -57.11 | X-H torsion

> <Gold.Protein.ActiveResidues>
 VAL166  LYS551  ARG553  GLY616  TRP617  ASP618  TYR619  PRO620  LYS621  CYS622 
 ASP623  PHE694  ASN695  SER759  ASP760  ASP761  ALA762  ILE779  LEU786  VAL792 
 PHE793  MET794  SER795  GLU796  ALA797  LYS798  CYS799  TRP800  GLU811  SER814 

> <Gold.Protein.RotatedAtoms>
  151.3111  135.0794  159.9272 H   0  0  0  0  0  0  0  0  0  0  0  0  # atno 6907 bound_to 6896
  152.5277  133.9735  159.7783 H   0  0  0  0  0  0  0  0  0  0  0  0  # atno 6908 bound_to 6896
  151.0039  133.5978  159.2721 H   0  0  0  0  0  0  0  0  0  0  0  0  # atno 6909 bound_to 6896
  145.5255  140.9527  143.1632 H   0  0  0  0  0  0  0  0  0  0  0  0  # atno 7974 bound_to 7965
  156.0799  140.3272  155.7680 H   0  0  0  0  0  0  0  0  0  0  0  0  # atno 8008 bound_to 7997
  155.5170  140.0582  157.2931 H   0  0  0  0  0  0  0  0  0  0  0  0  # atno 8009 bound_to 7997
  154.4576  140.1950  156.0352 H   0  0  0  0  0  0  0  0  0  0  0  0  # atno 8010 bound_to 7997
  140.6105  143.8418  150.7060 H   0  0  0  0  0  0  0  0  0  0  0  0  # atno 10167 bound_to 10162
  156.0768  130.4225  150.1329 H   0  0  0  0  0  0  0  0  0  0  0  0  # atno 10718 bound_to 10713
  153.4110  135.3834  155.2050 H   0  0  0  0  0  0  0  0  0  0  0  0  # atno 10763 bound_to 10752
  154.8738  135.3794  154.4500 H   0  0  0  0  0  0  0  0  0  0  0  0  # atno 10764 bound_to 10752
  153.5009  135.7088  153.5895 H   0  0  0  0  0  0  0  0  0  0  0  0  # atno 10765 bound_to 10752
  140.9121  134.1554  157.4381 H   0  0  0  0  0  0  0  0  0  0  0  0  # atno 11005 bound_to 11000
  144.7653  139.6859  143.7217 LP  0  0  0  0  0  0  0  0  0  0  0  0  # atno 17320 bound_to 7965
  146.2078  139.5415  142.9701 LP  0  0  0  0  0  0  0  0  0  0  0  0  # atno 17321 bound_to 7965
  140.1985  143.3978  152.1809 LP  0  0  0  0  0  0  0  0  0  0  0  0  # atno 17342 bound_to 10162
  139.5357  144.7207  151.4901 LP  0  0  0  0  0  0  0  0  0  0  0  0  # atno 17343 bound_to 10162
  156.9369  130.9732  151.3523 LP  0  0  0  0  0  0  0  0  0  0  0  0  # atno 17370 bound_to 10713
  157.5867  130.8415  149.8600 LP  0  0  0  0  0  0  0  0  0  0  0  0  # atno 17371 bound_to 10713
  139.8759  134.9940  156.5670 LP  0  0  0  0  0  0  0  0  0  0  0  0  # atno 17394 bound_to 11000
  140.8096  133.8439  155.8798 LP  0  0  0  0  0  0  0  0  0  0  0  0  # atno 17395 bound_to 11000

$$$$
