#       Name:                AV-unprocessed.smi:99
#       Creating user name   scv26
#       Creation time:       Thu Mar 26 17:34:49 2020


#       File generated by GOLD software.
#

@<TRIPOS>MOLECULE
AV-unprocessed.smi:99
    65    68     1
SMALL
NO_CHARGES


@<TRIPOS>ATOM
      1 ****        -3.8293   1.1423  -0.2137 O.2            1 S1                 0.0000
      2 ****        -2.9983   2.0187   0.0341 C.2            1 S1                 0.0000
      3 ****        -1.6726   1.7912   0.1040 O.3            1 S1                 0.0000
      4 ****        -1.1617   0.4908  -0.1350 C.3            1 S1                 0.0000
      5 ****         0.3620   0.5076   0.0734 C.3            1 S1                 0.0000
      6 ****         0.9607   1.2067  -1.0184 O.3            1 S1                 0.0000
      7 ****         1.5147   0.3209  -1.9522 C.3            1 S1                 0.0000
      8 ****         3.0022   0.5780  -2.0563 N.am           1 S1                 0.0000
      9 ****         3.7323   1.0836  -0.9878 C.2            1 S1                 0.0000
     10 ****         5.0669   1.3048  -1.0441 C.2            1 S1                 0.0000
     11 ****         5.8161   1.0084  -2.2605 C.2            1 S1                 0.0000
     12 ****         7.0244   1.1780  -2.4078 O.2            1 S1                 0.0000
     13 ****         5.0454   0.4892  -3.3044 N.am           1 S1                 0.0000
     14 ****         3.6708   0.2518  -3.2568 C.2            1 S1                 0.0000
     15 ****         3.0952  -0.2301  -4.2316 O.2            1 S1                 0.0000
     16 ****         1.2648  -1.1121  -1.4606 C.3            1 S1                 0.0000
     17 ****         0.1436  -1.6762  -2.1152 O.3            1 S1                 0.0000
     18 ****         1.0255  -0.8693   0.0223 C.3            1 S1                 0.0000
     19 ****         0.3052  -1.9109   0.6725 O.3            1 S1                 0.0000
     20 ****         0.9354  -3.0243   1.1033 C.2            1 S1                 0.0000
     21 ****         2.1465  -3.2162   0.9776 O.2            1 S1                 0.0000
     22 ****         0.0088  -4.0029   1.7410 C.ar           1 S1                 0.0000
     23 ****         0.5274  -5.2130   2.2582 C.ar           1 S1                 0.0000
     24 ****        -0.3242  -6.1583   2.8623 C.ar           1 S1                 0.0000
     25 ****        -1.7049  -5.9048   2.9563 C.ar           1 S1                 0.0000
     26 ****        -2.2332  -4.7047   2.4459 C.ar           1 S1                 0.0000
     27 ****        -1.3832  -3.7580   1.8417 C.ar           1 S1                 0.0000
     28 ****        -3.3555   3.4435   0.2918 C.ar           1 S1                 0.0000
     29 ****        -4.7176   3.8240   0.3122 C.ar           1 S1                 0.0000
     30 ****        -5.0845   5.1624   0.5529 C.ar           1 S1                 0.0000
     31 ****        -4.0940   6.1367   0.7744 C.ar           1 S1                 0.0000
     32 ****        -2.7355   5.7712   0.7553 C.ar           1 S1                 0.0000
     33 ****        -2.3665   4.4331   0.5159 C.ar           1 S1                 0.0000
     34 ****         5.5247   0.2610  -4.1633 H              1 S1                 0.0000
     35 ****        -1.6267  -0.2032   0.5664 H              1 S1                 0.0000
     36 ****        -1.4205   0.1652  -1.1427 H              1 S1                 0.0000
     37 ****         0.5972   1.0026   1.0162 H              1 S1                 0.0000
     38 ****         1.0961   0.5392  -2.9368 H              1 S1                 0.0000
     39 ****         3.2327   1.3133  -0.0584 H              1 S1                 0.0000
     40 ****         5.5841   1.7016  -0.1824 H              1 S1                 0.0000
     41 ****         2.1301  -1.7516  -1.6399 H              1 S1                 0.0000
     42 ****        -0.0071  -2.5397  -1.7618 H              1 S1                 0.0000
     43 ****         1.9984  -0.7585   0.5042 H              1 S1                 0.0000
     44 ****         1.5842  -5.4299   2.1968 H              1 S1                 0.0000
     45 ****         0.0830  -7.0793   3.2530 H              1 S1                 0.0000
     46 ****        -2.3581  -6.6303   3.4185 H              1 S1                 0.0000
     47 ****        -3.2930  -4.5095   2.5172 H              1 S1                 0.0000
     48 ****        -1.8222  -2.8480   1.4592 H              1 S1                 0.0000
     49 ****        -5.4962   3.0936   0.1454 H              1 S1                 0.0000
     50 ****        -6.1277   5.4412   0.5680 H              1 S1                 0.0000
     51 ****        -4.3757   7.1630   0.9588 H              1 S1                 0.0000
     52 ****        -1.9741   6.5181   0.9245 H              1 S1                 0.0000
     53 ****        -1.3147   4.1873   0.5062 H              1 S1                 0.0000
     54 ****        -3.5308   0.2018  -0.3760 LP             1 S1                 0.0000
     55 ****        -4.8018   1.3720  -0.2524 LP             1 S1                 0.0000
     56 ****         1.6831   1.8018  -0.6664 LP             1 S1                 0.0000
     57 ****         0.2627   1.7617  -1.4710 LP             1 S1                 0.0000
     58 ****         7.5727   1.5468  -1.6572 LP             1 S1                 0.0000
     59 ****         7.4592   0.9473  -3.2782 LP             1 S1                 0.0000
     60 ****         2.1116  -0.4068  -4.1945 LP             1 S1                 0.0000
     61 ****         3.6109  -0.4450  -5.0610 LP             1 S1                 0.0000
     62 ****         0.3231  -1.7401  -3.0969 LP             1 S1                 0.0000
     63 ****        -0.6611  -1.1031  -1.9601 LP             1 S1                 0.0000
     64 ****         2.7189  -2.5255   0.5357 LP             1 S1                 0.0000
     65 ****         2.5565  -4.0625   1.3176 LP             1 S1                 0.0000
@<TRIPOS>BOND
    1    1    2 2     
    2    2    3 1     
    3    2   28 1     
    4    3    4 1     
    5    4    5 1     
    6    4   35 1     
    7    4   36 1     
    8    5   18 1     
    9    5    6 1     
   10    5   37 1     
   11    6    7 1     
   12    7    8 1     
   13    7   16 1     
   14    7   38 1     
   15    8   14 1     
   16    8    9 1     
   17    9   10 2     
   18    9   39 1     
   19   10   11 1     
   20   10   40 1     
   21   11   12 2     
   22   11   13 1     
   23   13   34 1     
   24   13   14 1     
   25   14   15 2     
   26   16   17 1     
   27   16   18 1     
   28   16   41 1     
   29   17   42 1     
   30   18   19 1     
   31   18   43 1     
   32   19   20 1     
   33   20   21 2     
   34   20   22 1     
   35   22   27 ar    
   36   22   23 ar    
   37   23   24 ar    
   38   23   44 1     
   39   24   25 ar    
   40   24   45 1     
   41   25   26 ar    
   42   25   46 1     
   43   26   27 ar    
   44   26   47 1     
   45   27   48 1     
   46   28   33 ar    
   47   28   29 ar    
   48   29   30 ar    
   49   29   49 1     
   50   30   31 ar    
   51   30   50 1     
   52   31   32 ar    
   53   31   51 1     
   54   32   33 ar    
   55   32   52 1     
   56   33   53 1     
   57    1   54 1     
   58    1   55 1     
   59    6   56 1     
   60    6   57 1     
   61   12   58 1     
   62   12   59 1     
   63   15   60 1     
   64   15   61 1     
   65   17   62 1     
   66   17   63 1     
   67   21   64 1     
   68   21   65 1     
@<TRIPOS>SUBSTRUCTURE
      1 S1             1
@<TRIPOS>SET
LONE_PAIRS      STATIC     ATOMS    <user>   **** ""
12 54 55 56 57 58 59 60 61 62 63 64 65
DONOR_HYDROGENS      STATIC     ATOMS    <user>   **** ""
2 34 42
ATOM$BLUE        STATIC     ATOMS    COLORGROUP SYSTEM
12 54 55 56 57 58 59 60 61 62 63 64 65
ATOM$RED        STATIC     ATOMS    COLORGROUP SYSTEM
2 34 42
