AV-unprocessed.smi:3148|AV-procd|sdf|11997|dock5
  -GOLD-   2272017403D 1   1.00000     0.00000
 Structure written by MMmdl.
 35 37  0  0  0  0  0  0  0  0  2 V2000
  153.5438  140.5651  160.2424 C   0  0  0  0  0  0  0  0  0  0  0  0
  152.5306  140.3776  159.2597 O   0  0  0  0  0  0  0  0  0  0  0  0
  151.9657  141.4954  158.6815 C   0  0  0  0  0  0  0  0  0  0  0  0
  152.3984  142.7730  159.0728 C   0  0  0  0  0  0  0  0  0  0  0  0
  151.7865  143.8760  158.4469 C   0  0  0  0  0  0  0  0  0  0  0  0
  152.1619  145.3031  158.7845 C   0  0  0  0  0  0  0  0  0  0  0  0
  150.8239  143.6797  157.5116 N   0  3  0  0  0  0  0  0  0  0  0  0
  150.4528  142.4331  157.1844 C   0  0  0  0  0  0  0  0  0  0  0  0
  149.4605  142.2905  156.2314 N   0  0  0  0  0  0  0  0  0  0  0  0
  148.9491  141.0051  155.7698 C   0  0  2  0  0  0  0  0  0  0  0  0
  149.1364  140.7861  154.2666 C   0  0  0  0  0  0  0  0  0  0  0  0
  147.7081  140.4452  153.8187 C   0  0  2  0  0  0  0  0  0  0  0  0
  146.8155  141.6926  153.7855 C   0  0  0  0  0  0  0  0  0  0  0  0
  146.6041  141.9626  155.2739 C   0  0  0  0  0  0  0  0  0  0  0  0
  147.4245  140.8341  155.9222 C   0  0  1  0  0  0  0  0  0  0  0  0
  147.2080  139.7995  154.9779 O   0  0  0  0  0  0  0  0  0  0  0  0
  151.0005  141.3458  157.7447 N   0  0  0  0  0  0  0  0  0  0  0  0
  153.8754  139.5933  160.6084 H   0  0  0  0  0  0  0  0  0  0  0  0
  153.1712  141.1298  161.0982 H   0  0  0  0  0  0  0  0  0  0  0  0
  154.4131  141.0769  159.8269 H   0  0  0  0  0  0  0  0  0  0  0  0
  153.1672  142.8985  159.8216 H   0  0  0  0  0  0  0  0  0  0  0  0
  153.0428  145.3367  159.4262 H   0  0  0  0  0  0  0  0  0  0  0  0
  151.3407  145.7965  159.3051 H   0  0  0  0  0  0  0  0  0  0  0  0
  152.3819  145.8655  157.8766 H   0  0  0  0  0  0  0  0  0  0  0  0
  148.9615  143.1230  155.9534 H   0  0  0  0  0  0  0  0  0  0  0  0
  149.4597  140.2050  156.3078 H   0  0  0  0  0  0  0  0  0  0  0  0
  149.5327  141.6551  153.7391 H   0  0  0  0  0  0  0  0  0  0  0  0
  149.8099  139.9470  154.0887 H   0  0  0  0  0  0  0  0  0  0  0  0
  147.6600  139.8435  152.9108 H   0  0  0  0  0  0  0  0  0  0  0  0
  147.2865  142.5274  153.2654 H   0  0  0  0  0  0  0  0  0  0  0  0
  145.8643  141.4784  153.2966 H   0  0  0  0  0  0  0  0  0  0  0  0
  146.9273  142.9587  155.5771 H   0  0  0  0  0  0  0  0  0  0  0  0
  145.5486  141.8617  155.5293 H   0  0  0  0  0  0  0  0  0  0  0  0
  147.1053  140.5834  156.9341 H   0  0  0  0  0  0  0  0  0  0  0  0
  150.3880  144.4876  157.0667 H   0  0  0  0  0  0  0  0  0  0  0  0
  1  2  1  0  0  0  0
  1 18  1  0  0  0  0
  1 19  1  0  0  0  0
  1 20  1  0  0  0  0
  2  3  1  0  0  0  0
  3 17  1  0  0  0  0
  3  4  2  0  0  0  0
  4  5  1  0  0  0  0
  4 21  1  0  0  0  0
  5  6  1  0  0  0  0
  5  7  2  0  0  0  0
  6 22  1  0  0  0  0
  6 23  1  0  0  0  0
  6 24  1  0  0  0  0
  7  8  1  0  0  0  0
  7 35  1  0  0  0  0
  8  9  1  0  0  0  0
  8 17  2  0  0  0  0
  9 10  1  0  0  0  0
  9 25  1  0  0  0  0
 10 15  1  0  0  0  0
 10 11  1  0  0  0  0
 10 26  1  0  0  0  0
 11 12  1  0  0  0  0
 11 27  1  0  0  0  0
 11 28  1  0  0  0  0
 12 16  1  0  0  0  0
 12 13  1  0  0  0  0
 12 29  1  0  0  0  0
 13 14  1  0  0  0  0
 13 30  1  0  0  0  0
 13 31  1  0  0  0  0
 14 15  1  0  0  0  0
 14 32  1  0  0  0  0
 14 33  1  0  0  0  0
 15 16  1  0  0  0  0
 15 34  1  0  0  0  0
M  CHG  1   7   1
M  END
> <s_m_source_file>
AV-unprocessed.smi

> <i_m_source_file_index>
3148

> <i_lp_mmshare_version>
43012

> <i_f3d_flags>
0

> <s_epik_input>
W0NIM11PYzFbY0hdYyhbQ0gzXSluYyhuMSlbTkhdW0NASF0oW0NIMl1bQ0BASF0yMylbQ0BASF0oTzMpW0NIMl1bQ0gyXTI=

> <s_epik_cmdline>
J2VwaWtfcHl0aG9uJywgJy1waCcsICc3LjAnLCAnLXRuJywgJzgnLCAnLW1hJywgJzIwMCcsICctbWV0YWxfYmluZGluZycsICctaW1hZScsICc8aW5maWxlLm1hZT4nLCAnLW9tYWUnLCAnPG91dGZpbGUubWFlPic=

> <r_lp_tautomer_probability>
0.999985

> <r_epik_Ionization_Penalty>
1.09461

> <r_epik_Ionization_Penalty_Charging>
1.0946

> <r_epik_Ionization_Penalty_Neutral>
6.69406e-06

> <r_epik_State_Penalty>
1.15119

> <r_epik_Charging_Adjusted_Penalty>
2.24579

> <i_epik_Tot_Q>
1

> <i_epik_Tot_abs_Q>
1

> <r_epik_Metal_State_Penalty>
1.2392

> <b_epik_Metal_Only>
0

> <s_lp_Force_Field>
OPLS_2005

> <r_lp_Energy>
36.3956

> <b_lp_Chiralities_Consistent>
1

> <s_lp_Variant>
AV-unprocessed.smi:3148-7

> <Gold.Version>
5.8.1

> <Gold.Id.Protein>
6NUR|6NUR_protein|mol2

> <Gold.PLP.Fitness>
43.2467

> <Gold.PLP.PLP>
-33.0204

> <Gold.PLP.part.hbond>
-2.0000

> <Gold.PLP.part.metal>
0.0000

> <Gold.PLP.part.buried>
-4.3499

> <Gold.PLP.part.nonpolar>
-27.5864

> <Gold.PLP.part.repulsive>
0.1645

> <Gold.PLP.ligand.clash>
0.0494

> <Gold.PLP.ligand.torsion>
0.0077

> <Gold.PLP.Chemscore.Hbond>
3.4274

> <Gold.PLP.Chemscore.CHOScore>
0.0000

> <Gold.PLP.Chemscore.Metal>
0.0000

> <Gold.Chemscore.Hbonds>
donor molecule, donor type, donor heavy atom, donor atom, acceptor molecule, acceptor atom, score
      L1  H     7    35       P1  8028  1.40
      L1  H     9    25       P1  8028  2.00

> <Gold.PLP.Chemscore.Internal.Correction>
0.0089

> <Gold.Rescore>
     Score         DG    S(hbond)    S(metal)    S(lipo)     H(rot)  DE(clash)    DE(int)     intcor
     17.31     -17.53       1.72        0.00      81.10       1.24       0.12       0.10       ----

> <Gold.Chemscore.Fitness>
17.3146

> <Gold.Chemscore.DG>
-17.5323

> <Gold.Chemscore.ZeroCoef>
-5.4800

> <Gold.Chemscore.Hbond>
1.7160

> <Gold.Chemscore.Metal>
0.0000

> <Gold.Chemscore.Lipo>
81.1030

> <Gold.Chemscore.Internal_Hbond>
0.0000

> <Gold.Chemscore.DEClash>
0.1207

> <Gold.Chemscore.DEInternal>
0.0970

> <Gold.Chemscore.Rot>
1.2376

> <Gold.Chemscore.Internal.Correction>
   9.000000E+99

> <Gold.Chemscore.Hbonds>
donor molecule, donor type, donor heavy atom, donor atom, acceptor molecule, acceptor atom, score
      L1  H     7    35       P1  8028  0.52
      L1  H     9    25       P1  8028  0.96

> <Gold.Chemscore.Hbond.Weighted>
-5.7314

> <Gold.Chemscore.Metal.Weighted>
-0.0000

> <Gold.Chemscore.Lipo.Weighted>
-9.4891

> <Gold.Chemscore.Internal_Hbond.Weighted>
0.0000

> <Gold.Chemscore.DEClash.Weighted>
0.1207

> <Gold.Chemscore.DEInternal.Weighted>
0.0970

> <Gold.Chemscore.Rot.Weighted>
3.1681

> <Gold.Chemscore.Internal.Correction.Weighted>
   9.000000E+99

> <Gold.Protein.RotatedTorsions>
[ 6907 6896 6895 6894 ] final  -82.68 input  -60.11 | X-H torsion
[ 7974 7965 7964 7962 ] final -156.49 input  175.53 | X-H torsion
[ 8008 7997 7996 7995 ] final  -35.83 input   59.86 | X-H torsion
[ 10167 10162 10161 10158 ] final   85.34 input  -65.29 | X-H torsion
[ 10718 10713 10712 10709 ] final   94.69 input   66.30 | X-H torsion
[ 10763 10752 10751 10750 ] final -129.67 input  -60.55 | X-H torsion
[ 11005 11000 10999 10996 ] final  165.11 input  -57.11 | X-H torsion

> <Gold.Protein.ActiveResidues>
 VAL166  LYS551  ARG553  GLY616  TRP617  ASP618  TYR619  PRO620  LYS621  CYS622 
 ASP623  PHE694  ASN695  SER759  ASP760  ASP761  ALA762  ILE779  LEU786  VAL792 
 PHE793  MET794  SER795  GLU796  ALA797  LYS798  CYS799  TRP800  GLU811  SER814 

> <Gold.Protein.RotatedAtoms>
  150.6894  134.3627  159.4957 H   0  0  0  0  0  0  0  0  0  0  0  0  # atno 6907 bound_to 6896
  152.1454  134.9027  160.0560 H   0  0  0  0  0  0  0  0  0  0  0  0  # atno 6908 bound_to 6896
  152.0145  133.3839  159.4270 H   0  0  0  0  0  0  0  0  0  0  0  0  # atno 6909 bound_to 6896
  144.7591  140.4102  143.5990 H   0  0  0  0  0  0  0  0  0  0  0  0  # atno 7974 bound_to 7965
  154.4086  140.1647  156.2275 H   0  0  0  0  0  0  0  0  0  0  0  0  # atno 8008 bound_to 7997
  155.9311  140.3414  155.6227 H   0  0  0  0  0  0  0  0  0  0  0  0  # atno 8009 bound_to 7997
  155.7105  140.0756  157.2363 H   0  0  0  0  0  0  0  0  0  0  0  0  # atno 8010 bound_to 7997
  139.8988  144.6342  150.8660 H   0  0  0  0  0  0  0  0  0  0  0  0  # atno 10167 bound_to 10162
  157.6946  131.0521  150.4225 H   0  0  0  0  0  0  0  0  0  0  0  0  # atno 10718 bound_to 10713
  154.8757  135.3887  154.3958 H   0  0  0  0  0  0  0  0  0  0  0  0  # atno 10763 bound_to 10752
  153.4689  135.7030  153.6011 H   0  0  0  0  0  0  0  0  0  0  0  0  # atno 10764 bound_to 10752
  153.4477  135.3841  155.2233 H   0  0  0  0  0  0  0  0  0  0  0  0  # atno 10765 bound_to 10752
  140.2528  134.7964  157.3517 H   0  0  0  0  0  0  0  0  0  0  0  0  # atno 11005 bound_to 11000
  145.6680  139.1594  143.2770 LP  0  0  0  0  0  0  0  0  0  0  0  0  # atno 17320 bound_to 7965
  146.1634  140.6755  142.9267 LP  0  0  0  0  0  0  0  0  0  0  0  0  # atno 17321 bound_to 7965
  140.7711  143.3453  151.2124 LP  0  0  0  0  0  0  0  0  0  0  0  0  # atno 17342 bound_to 10162
  139.7044  143.9479  152.2920 LP  0  0  0  0  0  0  0  0  0  0  0  0  # atno 17343 bound_to 10162
  156.4598  130.4029  149.6583 LP  0  0  0  0  0  0  0  0  0  0  0  0  # atno 17370 bound_to 10713
  156.3702  130.7526  151.2509 LP  0  0  0  0  0  0  0  0  0  0  0  0  # atno 17371 bound_to 10713
  140.1541  134.4812  155.7940 LP  0  0  0  0  0  0  0  0  0  0  0  0  # atno 17394 bound_to 11000
  141.2199  133.6874  156.7430 LP  0  0  0  0  0  0  0  0  0  0  0  0  # atno 17395 bound_to 11000

$$$$
