AV-unprocessed.smi:1619|AV-procd|sdf|6488|dock3
  -GOLD-   22720 7153D 1   1.00000     0.00000
 Structure written by MMmdl.
 44 46  0  0  0  0  0  0  0  0  2 V2000
  152.4053  143.5346  161.4533 C   0  0  0  0  0  0  0  0  0  0  0  0
  152.2264  142.7080  160.1921 C   0  0  0  0  0  0  0  0  0  0  0  0
  152.4519  141.3142  160.2465 C   0  0  0  0  0  0  0  0  0  0  0  0
  152.2985  140.5103  159.0961 C   0  0  0  0  0  0  0  0  0  0  0  0
  152.4644  139.1470  158.9238 N   0  0  0  0  0  0  0  0  0  0  0  0
  152.1805  139.0028  157.6331 C   0  0  0  0  0  0  0  0  0  0  0  0
  151.8363  140.1116  156.9496 N   0  0  0  0  0  0  0  0  0  0  0  0
  151.4815  140.1986  155.5446 C   0  0  0  0  0  0  0  0  0  0  0  0
  150.4009  139.1769  155.1378 C   0  0  1  0  0  0  0  0  0  0  0  0
  149.8214  139.6197  153.9275 O   0  0  0  0  0  0  0  0  0  0  0  0
  150.9459  137.7461  154.9355 C   0  0  0  0  0  0  0  0  0  0  0  0
  149.8653  136.7684  154.6667 N   0  3  0  0  0  0  0  0  0  0  0  0
  150.2956  135.3577  154.7310 C   0  0  0  0  0  0  0  0  0  0  0  0
  149.0155  134.5690  154.9839 C   0  0  0  0  0  0  0  0  0  0  0  0
  148.2319  135.4854  155.9184 C   0  0  0  0  0  0  0  0  0  0  0  0
  148.6584  136.9047  155.5186 C   0  0  0  0  0  0  0  0  0  0  0  0
  151.9093  141.1437  157.8794 C   0  0  0  0  0  0  0  0  0  0  0  0
  151.6837  142.5300  157.8122 C   0  0  0  0  0  0  0  0  0  0  0  0
  151.8401  143.3181  158.9717 C   0  0  0  0  0  0  0  0  0  0  0  0
  151.5919  144.8142  158.8898 C   0  0  0  0  0  0  0  0  0  0  0  0
  152.7210  142.9160  162.2938 H   0  0  0  0  0  0  0  0  0  0  0  0
  151.4685  144.0192  161.7282 H   0  0  0  0  0  0  0  0  0  0  0  0
  153.1625  144.3042  161.3023 H   0  0  0  0  0  0  0  0  0  0  0  0
  152.7472  140.8496  161.1759 H   0  0  0  0  0  0  0  0  0  0  0  0
  152.2177  138.0329  157.1584 H   0  0  0  0  0  0  0  0  0  0  0  0
  151.1393  141.2147  155.3433 H   0  0  0  0  0  0  0  0  0  0  0  0
  152.3849  140.0498  154.9507 H   0  0  0  0  0  0  0  0  0  0  0  0
  149.6213  139.1724  155.8997 H   0  0  0  0  0  0  0  0  0  0  0  0
  148.9652  139.9749  154.1146 H   0  0  0  0  0  0  0  0  0  0  0  0
  151.6494  137.7424  154.1014 H   0  0  0  0  0  0  0  0  0  0  0  0
  151.5033  137.4104  155.8111 H   0  0  0  0  0  0  0  0  0  0  0  0
  150.8062  135.0494  153.8183 H   0  0  0  0  0  0  0  0  0  0  0  0
  150.9829  135.2188  155.5675 H   0  0  0  0  0  0  0  0  0  0  0  0
  148.4696  134.4364  154.0488 H   0  0  0  0  0  0  0  0  0  0  0  0
  149.2005  133.5827  155.4109 H   0  0  0  0  0  0  0  0  0  0  0  0
  147.1544  135.3337  155.8479 H   0  0  0  0  0  0  0  0  0  0  0  0
  148.5264  135.2915  156.9509 H   0  0  0  0  0  0  0  0  0  0  0  0
  148.8491  137.5080  156.4078 H   0  0  0  0  0  0  0  0  0  0  0  0
  147.8777  137.4032  154.9431 H   0  0  0  0  0  0  0  0  0  0  0  0
  151.3943  142.9843  156.8763 H   0  0  0  0  0  0  0  0  0  0  0  0
  151.2642  145.1095  157.8925 H   0  0  0  0  0  0  0  0  0  0  0  0
  152.5039  145.3655  159.1198 H   0  0  0  0  0  0  0  0  0  0  0  0
  150.8182  145.1139  159.5970 H   0  0  0  0  0  0  0  0  0  0  0  0
  149.5601  136.9214  153.7157 H   0  0  0  0  0  0  0  0  0  0  0  0
  1  2  1  0  0  0  0
  1 21  1  0  0  0  0
  1 22  1  0  0  0  0
  1 23  1  0  0  0  0
  2 19  1  0  0  0  0
  2  3  2  0  0  0  0
  3  4  1  0  0  0  0
  3 24  1  0  0  0  0
  4 17  2  0  0  0  0
  4  5  1  0  0  0  0
  5  6  2  0  0  0  0
  6  7  1  0  0  0  0
  6 25  1  0  0  0  0
  7  8  1  0  0  0  0
  7 17  1  0  0  0  0
  8  9  1  0  0  0  0
  8 26  1  0  0  0  0
  8 27  1  0  0  0  0
  9 10  1  0  0  0  0
  9 11  1  0  0  0  0
  9 28  1  0  0  0  0
 10 29  1  0  0  0  0
 11 12  1  0  0  0  0
 11 30  1  0  0  0  0
 11 31  1  0  0  0  0
 12 16  1  0  0  0  0
 12 13  1  0  0  0  0
 12 44  1  0  0  0  0
 13 14  1  0  0  0  0
 13 32  1  0  0  0  0
 13 33  1  0  0  0  0
 14 15  1  0  0  0  0
 14 34  1  0  0  0  0
 14 35  1  0  0  0  0
 15 16  1  0  0  0  0
 15 36  1  0  0  0  0
 15 37  1  0  0  0  0
 16 38  1  0  0  0  0
 16 39  1  0  0  0  0
 17 18  1  0  0  0  0
 18 19  2  0  0  0  0
 18 40  1  0  0  0  0
 19 20  1  0  0  0  0
 20 41  1  0  0  0  0
 20 42  1  0  0  0  0
 20 43  1  0  0  0  0
M  CHG  1  12   1
M  END
> <s_m_source_file>
AV-unprocessed.smi

> <i_m_source_file_index>
1619

> <i_lp_mmshare_version>
43012

> <i_f3d_flags>
0

> <s_epik_input>
W0NIM11jKFtjSF0xKWMoW0NIM10pW2NIXWMoYzEyKW4oW2NIXW4yKVtDSDJdW0NASF0oW09IXSlbQ0gyXU4zW0NIMl1bQ0gyXVtDSDJdW0NIMl0z

> <s_epik_cmdline>
J2VwaWtfcHl0aG9uJywgJy1waCcsICc3LjAnLCAnLXRuJywgJzgnLCAnLW1hJywgJzIwMCcsICctbWV0YWxfYmluZGluZycsICctaW1hZScsICc8aW5maWxlLm1hZT4nLCAnLW9tYWUnLCAnPG91dGZpbGUubWFlPic=

> <r_epik_Ionization_Penalty>
0.0947557

> <r_epik_Ionization_Penalty_Charging>
0.00674132

> <r_epik_Ionization_Penalty_Neutral>
0.0880144

> <r_epik_State_Penalty>
0.0806172

> <r_epik_Charging_Adjusted_Penalty>
0.0873585

> <i_epik_Tot_Q>
1

> <i_epik_Tot_abs_Q>
1

> <r_epik_Metal_State_Penalty>
8.03852e-05

> <b_epik_Metal_Only>
0

> <s_lp_Force_Field>
OPLS_2005

> <r_lp_Energy>
32.1533

> <b_lp_Chiralities_Consistent>
1

> <s_lp_Variant>
AV-unprocessed.smi:1619-2

> <Gold.Version>
5.8.1

> <Gold.Id.Protein>
6NUR|6NUR_protein|mol2

> <Gold.PLP.Fitness>
47.8383

> <Gold.PLP.PLP>
-40.3813

> <Gold.PLP.part.hbond>
-3.0000

> <Gold.PLP.part.metal>
0.0000

> <Gold.PLP.part.buried>
-3.5212

> <Gold.PLP.part.nonpolar>
-33.6088

> <Gold.PLP.part.repulsive>
0.0445

> <Gold.PLP.ligand.clash>
0.0000

> <Gold.PLP.ligand.torsion>
0.3669

> <Gold.PLP.Chemscore.Hbond>
2.7080

> <Gold.PLP.Chemscore.CHOScore>
0.0000

> <Gold.PLP.Chemscore.Metal>
0.0000

> <Gold.Chemscore.Hbonds>
donor molecule, donor type, donor heavy atom, donor atom, acceptor molecule, acceptor atom, score
      L1  H    12    44       P1  7948  1.95
      P1  H  7989  7998       L1    10  0.25

> <Gold.PLP.Chemscore.Internal.Correction>
0.0668

> <Gold.Rescore>
     Score         DG    S(hbond)    S(metal)    S(lipo)     H(rot)  DE(clash)    DE(int)     intcor
     15.72     -16.31       0.87        0.00     111.82       2.02       0.21       0.37       ----

> <Gold.Chemscore.Fitness>
15.7204

> <Gold.Chemscore.DG>
-16.3066

> <Gold.Chemscore.ZeroCoef>
-5.4800

> <Gold.Chemscore.Hbond>
0.8747

> <Gold.Chemscore.Metal>
0.0000

> <Gold.Chemscore.Lipo>
111.8210

> <Gold.Chemscore.Internal_Hbond>
0.0000

> <Gold.Chemscore.DEClash>
0.2124

> <Gold.Chemscore.DEInternal>
0.3738

> <Gold.Chemscore.Rot>
2.0227

> <Gold.Chemscore.Internal.Correction>
   9.000000E+99

> <Gold.Chemscore.Hbonds>
donor molecule, donor type, donor heavy atom, donor atom, acceptor molecule, acceptor atom, score
      L1  H    12    44       P1  7948  0.75
      P1  H  7989  7998       L1    10  0.01

> <Gold.Chemscore.Hbond.Weighted>
-2.9215

> <Gold.Chemscore.Metal.Weighted>
-0.0000

> <Gold.Chemscore.Lipo.Weighted>
-13.0831

> <Gold.Chemscore.Internal_Hbond.Weighted>
0.0000

> <Gold.Chemscore.DEClash.Weighted>
0.2124

> <Gold.Chemscore.DEInternal.Weighted>
0.3738

> <Gold.Chemscore.Rot.Weighted>
5.1780

> <Gold.Chemscore.Internal.Correction.Weighted>
   9.000000E+99

> <Gold.Protein.RotatedTorsions>
[ 6907 6896 6895 6894 ] final  103.93 input  -60.11 | X-H torsion
[ 7974 7965 7964 7962 ] final  126.85 input  175.53 | X-H torsion
[ 8008 7997 7996 7995 ] final -141.85 input   59.86 | X-H torsion
[ 10167 10162 10161 10158 ] final -150.22 input  -65.29 | X-H torsion
[ 10718 10713 10712 10709 ] final   12.53 input   66.30 | X-H torsion
[ 10763 10752 10751 10750 ] final  176.45 input  -60.55 | X-H torsion
[ 11005 11000 10999 10996 ] final -125.76 input  -57.11 | X-H torsion

> <Gold.Protein.ActiveResidues>
 VAL166  LYS551  ARG553  GLY616  TRP617  ASP618  TYR619  PRO620  LYS621  CYS622 
 ASP623  PHE694  ASN695  SER759  ASP760  ASP761  ALA762  ILE779  LEU786  VAL792 
 PHE793  MET794  SER795  GLU796  ALA797  LYS798  CYS799  TRP800  GLU811  SER814 

> <Gold.Protein.RotatedAtoms>
  152.5280  133.9752  159.7780 H   0  0  0  0  0  0  0  0  0  0  0  0  # atno 6907 bound_to 6896
  151.0016  133.6043  159.2701 H   0  0  0  0  0  0  0  0  0  0  0  0  # atno 6908 bound_to 6896
  151.3150  135.0810  159.9339 H   0  0  0  0  0  0  0  0  0  0  0  0  # atno 6909 bound_to 6896
  145.0571  139.3835  143.5024 H   0  0  0  0  0  0  0  0  0  0  0  0  # atno 7974 bound_to 7965
  155.4845  140.0563  157.2962 H   0  0  0  0  0  0  0  0  0  0  0  0  # atno 8008 bound_to 7997
  154.4647  140.2013  156.0102 H   0  0  0  0  0  0  0  0  0  0  0  0  # atno 8009 bound_to 7997
  156.0953  140.3227  155.7874 H   0  0  0  0  0  0  0  0  0  0  0  0  # atno 8010 bound_to 7997
  139.7373  143.8716  152.2552 H   0  0  0  0  0  0  0  0  0  0  0  0  # atno 10167 bound_to 10162
  157.0115  130.6119  149.5708 H   0  0  0  0  0  0  0  0  0  0  0  0  # atno 10718 bound_to 10713
  154.4813  135.2775  155.1568 H   0  0  0  0  0  0  0  0  0  0  0  0  # atno 10763 bound_to 10752
  154.3277  135.6196  153.5540 H   0  0  0  0  0  0  0  0  0  0  0  0  # atno 10764 bound_to 10752
  152.9875  135.5758  154.5215 H   0  0  0  0  0  0  0  0  0  0  0  0  # atno 10765 bound_to 10752
  140.9736  134.0772  157.3843 H   0  0  0  0  0  0  0  0  0  0  0  0  # atno 11005 bound_to 11000
  146.3522  140.0251  142.8655 LP  0  0  0  0  0  0  0  0  0  0  0  0  # atno 17320 bound_to 7965
  145.1454  140.9594  143.4464 LP  0  0  0  0  0  0  0  0  0  0  0  0  # atno 17321 bound_to 7965
  139.8656  144.7095  150.9048 LP  0  0  0  0  0  0  0  0  0  0  0  0  # atno 17342 bound_to 10162
  140.7781  143.3781  151.1527 LP  0  0  0  0  0  0  0  0  0  0  0  0  # atno 17343 bound_to 10162
  156.0134  130.5227  150.8061 LP  0  0  0  0  0  0  0  0  0  0  0  0  # atno 17370 bound_to 10713
  157.5317  131.0937  150.9946 LP  0  0  0  0  0  0  0  0  0  0  0  0  # atno 17371 bound_to 10713
  139.8921  135.0123  156.6830 LP  0  0  0  0  0  0  0  0  0  0  0  0  # atno 17394 bound_to 11000
  140.7293  133.9073  155.8200 LP  0  0  0  0  0  0  0  0  0  0  0  0  # atno 17395 bound_to 11000

$$$$
