AV-unprocessed.smi:2023|AV-procd|sdf|8190|dock4
  -GOLD-   2272010443D 1   1.00000     0.00000
 Structure written by MMmdl.
 34 35  0  0  0  0  0  0  0  0  2 V2000
  151.1299  139.6135  154.8819 O   0  0  0  0  0  0  0  0  0  0  0  0
  152.1885  138.9716  155.6782 S   0  0  0  0  0  0  0  0  0  0  0  0
  153.1371  138.0912  154.9763 O   0  0  0  0  0  0  0  0  0  0  0  0
  152.9163  139.9703  156.7252 N   0  5  0  0  0  0  0  0  0  0  0  0
  152.1037  140.7956  157.6011 C   0  0  0  0  0  0  0  0  0  0  0  0
  152.9395  141.2770  158.8070 C   0  0  0  0  0  0  0  0  0  0  0  0
  152.5086  142.6206  159.3867 C   0  0  0  0  0  0  0  0  0  0  0  0
  152.0683  143.6673  158.5478 C   0  0  0  0  0  0  0  0  0  0  0  0
  151.6697  144.8856  159.1301 C   0  0  0  0  0  0  0  0  0  0  0  0
  151.7246  145.0074  160.5326 C   0  0  0  0  0  0  0  0  0  0  0  0
  152.1360  144.0137  161.3485 N   0  0  0  0  0  0  0  0  0  0  0  0
  152.5186  142.8488  160.7817 C   0  0  0  0  0  0  0  0  0  0  0  0
  151.3705  137.9802  156.8470 N   0  0  0  0  0  0  0  0  0  0  0  0
  152.0645  137.7504  158.1255 C   0  0  0  0  0  0  0  0  0  0  0  0
  151.1354  137.0787  159.1496 C   0  0  0  0  0  0  0  0  0  0  0  0
  150.5863  135.8877  158.6081 O   0  0  0  0  0  0  0  0  0  0  0  0
  149.7907  136.1622  157.4656 C   0  0  0  0  0  0  0  0  0  0  0  0
  150.6538  136.7848  156.3571 C   0  0  0  0  0  0  0  0  0  0  0  0
  151.6919  141.6608  157.0805 H   0  0  0  0  0  0  0  0  0  0  0  0
  151.2452  140.2392  157.9777 H   0  0  0  0  0  0  0  0  0  0  0  0
  152.8786  140.5308  159.5998 H   0  0  0  0  0  0  0  0  0  0  0  0
  153.9939  141.3301  158.5318 H   0  0  0  0  0  0  0  0  0  0  0  0
  152.0378  143.5394  157.4758 H   0  0  0  0  0  0  0  0  0  0  0  0
  151.3304  145.7067  158.5164 H   0  0  0  0  0  0  0  0  0  0  0  0
  151.4261  145.9278  161.0122 H   0  0  0  0  0  0  0  0  0  0  0  0
  152.8434  142.0751  161.4619 H   0  0  0  0  0  0  0  0  0  0  0  0
  152.9395  137.1255  157.9428 H   0  0  0  0  0  0  0  0  0  0  0  0
  152.4243  138.6966  158.5288 H   0  0  0  0  0  0  0  0  0  0  0  0
  151.6934  136.8309  160.0525 H   0  0  0  0  0  0  0  0  0  0  0  0
  150.3354  137.7576  159.4491 H   0  0  0  0  0  0  0  0  0  0  0  0
  149.3467  135.2314  157.1128 H   0  0  0  0  0  0  0  0  0  0  0  0
  148.9655  136.8248  157.7314 H   0  0  0  0  0  0  0  0  0  0  0  0
  150.0200  137.0384  155.5083 H   0  0  0  0  0  0  0  0  0  0  0  0
  151.3849  136.0585  156.0007 H   0  0  0  0  0  0  0  0  0  0  0  0
  1  2  2  0  0  0  0
  2  3  2  0  0  0  0
  2  4  1  0  0  0  0
  2 13  1  0  0  0  0
  4  5  1  0  0  0  0
  5  6  1  0  0  0  0
  5 19  1  0  0  0  0
  5 20  1  0  0  0  0
  6  7  1  0  0  0  0
  6 21  1  0  0  0  0
  6 22  1  0  0  0  0
  7 12  1  0  0  0  0
  7  8  2  0  0  0  0
  8  9  1  0  0  0  0
  8 23  1  0  0  0  0
  9 10  2  0  0  0  0
  9 24  1  0  0  0  0
 10 11  1  0  0  0  0
 10 25  1  0  0  0  0
 11 12  2  0  0  0  0
 12 26  1  0  0  0  0
 13 18  1  0  0  0  0
 13 14  1  0  0  0  0
 14 15  1  0  0  0  0
 14 27  1  0  0  0  0
 14 28  1  0  0  0  0
 15 16  1  0  0  0  0
 15 29  1  0  0  0  0
 15 30  1  0  0  0  0
 16 17  1  0  0  0  0
 17 18  1  0  0  0  0
 17 31  1  0  0  0  0
 17 32  1  0  0  0  0
 18 33  1  0  0  0  0
 18 34  1  0  0  0  0
M  CHG  1   4  -1
M  END
> <s_m_source_file>
AV-unprocessed.smi

> <i_m_source_file_index>
2023

> <i_lp_mmshare_version>
43012

> <i_f3d_flags>
0

> <s_epik_input>
W0NIMl0xW0NIMl1PW0NIMl1bQ0gyXU4xUyg9TykoPU8pW05IXVtDSDJdW0NIMl1jMltjSF1bY0hdW2NIXW5bY0hdMg==

> <s_epik_cmdline>
J2VwaWtfcHl0aG9uJywgJy1waCcsICc3LjAnLCAnLXRuJywgJzgnLCAnLW1hJywgJzIwMCcsICctbWV0YWxfYmluZGluZycsICctaW1hZScsICc8aW5maWxlLm1hZT4nLCAnLW9tYWUnLCAnPG91dGZpbGUubWFlPic=

> <r_epik_Ionization_Penalty>
1.23471

> <r_epik_Ionization_Penalty_Charging>
1.20871

> <r_epik_Ionization_Penalty_Neutral>
0.025996

> <r_epik_State_Penalty>
1.46261

> <r_epik_Charging_Adjusted_Penalty>
2.67132

> <i_epik_Tot_Q>
-1

> <i_epik_Tot_abs_Q>
1

> <r_epik_Metal_State_Penalty>
0.521406

> <b_epik_Metal_Only>
0

> <s_lp_Force_Field>
OPLS_2005

> <r_lp_Energy>
4.19534

> <b_lp_Chiralities_Consistent>
1

> <s_lp_Variant>
AV-unprocessed.smi:2023-2

> <Gold.Version>
5.8.1

> <Gold.Id.Protein>
6NUR|6NUR_protein|mol2

> <Gold.PLP.Fitness>
46.6120

> <Gold.PLP.PLP>
-36.2526

> <Gold.PLP.part.hbond>
-4.0000

> <Gold.PLP.part.metal>
0.0000

> <Gold.PLP.part.buried>
-5.0327

> <Gold.PLP.part.nonpolar>
-26.5902

> <Gold.PLP.part.repulsive>
0.2173

> <Gold.PLP.ligand.clash>
0.0000

> <Gold.PLP.ligand.torsion>
1.7309

> <Gold.PLP.Chemscore.Hbond>
4.0928

> <Gold.PLP.Chemscore.CHOScore>
0.0000

> <Gold.PLP.Chemscore.Metal>
0.0000

> <Gold.Chemscore.Hbonds>
donor molecule, donor type, donor heavy atom, donor atom, acceptor molecule, acceptor atom, score
      P1  H  6896  6907       L1    16  0.64
      P1  H  7989  7998       L1     1  1.00
      P1  H  7997  8008       L1     4  1.81

> <Gold.PLP.Chemscore.Internal.Correction>
1.5428

> <Gold.Rescore>
     Score         DG    S(hbond)    S(metal)    S(lipo)     H(rot)  DE(clash)    DE(int)     intcor
     19.84     -21.61       2.87        0.00      90.22       1.56       0.00       1.78       ----

> <Gold.Chemscore.Fitness>
19.8365

> <Gold.Chemscore.DG>
-21.6145

> <Gold.Chemscore.ZeroCoef>
-5.4800

> <Gold.Chemscore.Hbond>
2.8683

> <Gold.Chemscore.Metal>
0.0000

> <Gold.Chemscore.Lipo>
90.2194

> <Gold.Chemscore.Internal_Hbond>
0.0000

> <Gold.Chemscore.DEClash>
0.0021

> <Gold.Chemscore.DEInternal>
1.7758

> <Gold.Chemscore.Rot>
1.5630

> <Gold.Chemscore.Internal.Correction>
   9.000000E+99

> <Gold.Chemscore.Hbonds>
donor molecule, donor type, donor heavy atom, donor atom, acceptor molecule, acceptor atom, score
      P1  H  6896  6907       L1    16  0.55
      P1  H  7989  7998       L1     1  0.95
      P1  H  7997  8008       L1     4  0.81

> <Gold.Chemscore.Hbond.Weighted>
-9.5801

> <Gold.Chemscore.Metal.Weighted>
-0.0000

> <Gold.Chemscore.Lipo.Weighted>
-10.5557

> <Gold.Chemscore.Internal_Hbond.Weighted>
0.0000

> <Gold.Chemscore.DEClash.Weighted>
0.0021

> <Gold.Chemscore.DEInternal.Weighted>
1.7758

> <Gold.Chemscore.Rot.Weighted>
4.0013

> <Gold.Chemscore.Internal.Correction.Weighted>
   9.000000E+99

> <Gold.Protein.RotatedTorsions>
[ 6907 6896 6895 6894 ] final  -68.49 input  -60.11 | X-H torsion
[ 7974 7965 7964 7962 ] final -118.54 input  175.53 | X-H torsion
[ 8008 7997 7996 7995 ] final  -70.71 input   59.86 | X-H torsion
[ 10167 10162 10161 10158 ] final -159.07 input  -65.29 | X-H torsion
[ 10718 10713 10712 10709 ] final  100.32 input   66.30 | X-H torsion
[ 10763 10752 10751 10750 ] final   59.81 input  -60.55 | X-H torsion
[ 11005 11000 10999 10996 ] final  116.36 input  -57.11 | X-H torsion

> <Gold.Protein.ActiveResidues>
 VAL166  LYS551  ARG553  GLY616  TRP617  ASP618  TYR619  PRO620  LYS621  CYS622 
 ASP623  PHE694  ASN695  SER759  ASP760  ASP761  ALA762  ILE779  LEU786  VAL792 
 PHE793  MET794  SER795  GLU796  ALA797  LYS798  CYS799  TRP800  GLU811  SER814 

> <Gold.Protein.RotatedAtoms>
  150.7354  134.5732  159.5900 H   0  0  0  0  0  0  0  0  0  0  0  0  # atno 6907 bound_to 6896
  152.3165  134.7430  160.0333 H   0  0  0  0  0  0  0  0  0  0  0  0  # atno 6908 bound_to 6896
  151.7960  133.3329  159.3549 H   0  0  0  0  0  0  0  0  0  0  0  0  # atno 6909 bound_to 6896
  145.0726  140.8370  143.4086 H   0  0  0  0  0  0  0  0  0  0  0  0  # atno 7974 bound_to 7965
  154.5033  140.0829  156.7842 H   0  0  0  0  0  0  0  0  0  0  0  0  # atno 8008 bound_to 7997
  155.3953  140.3434  155.4235 H   0  0  0  0  0  0  0  0  0  0  0  0  # atno 8009 bound_to 7997
  156.1483  140.1550  156.8798 H   0  0  0  0  0  0  0  0  0  0  0  0  # atno 8010 bound_to 7997
  139.6644  143.9856  152.2245 H   0  0  0  0  0  0  0  0  0  0  0  0  # atno 10167 bound_to 10162
  157.6857  131.0695  150.5082 H   0  0  0  0  0  0  0  0  0  0  0  0  # atno 10718 bound_to 10713
  152.9904  135.5558  154.5773 H   0  0  0  0  0  0  0  0  0  0  0  0  # atno 10763 bound_to 10752
  154.5162  135.2805  155.1303 H   0  0  0  0  0  0  0  0  0  0  0  0  # atno 10764 bound_to 10752
  154.2675  135.6369  153.5350 H   0  0  0  0  0  0  0  0  0  0  0  0  # atno 10765 bound_to 10752
  139.9039  134.9597  156.7187 H   0  0  0  0  0  0  0  0  0  0  0  0  # atno 11005 bound_to 11000
  145.1274  139.2654  143.5557 LP  0  0  0  0  0  0  0  0  0  0  0  0  # atno 17320 bound_to 7965
  146.3529  140.0915  142.8612 LP  0  0  0  0  0  0  0  0  0  0  0  0  # atno 17321 bound_to 7965
  139.9604  144.6562  150.8085 LP  0  0  0  0  0  0  0  0  0  0  0  0  # atno 17342 bound_to 10162
  140.7593  143.3126  151.2809 LP  0  0  0  0  0  0  0  0  0  0  0  0  # atno 17343 bound_to 10162
  156.5400  130.4206  149.6158 LP  0  0  0  0  0  0  0  0  0  0  0  0  # atno 17370 bound_to 10713
  156.2993  130.7168  151.2036 LP  0  0  0  0  0  0  0  0  0  0  0  0  # atno 17371 bound_to 10713
  140.7018  133.9300  155.8029 LP  0  0  0  0  0  0  0  0  0  0  0  0  # atno 17394 bound_to 11000
  141.0366  134.0681  157.3952 LP  0  0  0  0  0  0  0  0  0  0  0  0  # atno 17395 bound_to 11000

$$$$
