AV-unprocessed.smi:52|AV-procd|sdf|508|dock1
  -GOLD-   2262016383D 1   1.00000     0.00000
 Structure written by MMmdl.
 27 28  0  0  0  0  0  0  0  0  3 V2000
  152.5587  135.7549  157.0103 O   0  0  0  0  0  0  0  0  0  0  0  0
  151.7861  136.6629  157.3881 C   0  0  0  0  0  0  0  0  0  0  0  0
  151.1449  136.5836  158.4589 O   0  5  0  0  0  0  0  0  0  0  0  0
  151.6219  137.8691  156.5373 C   0  0  0  0  0  0  0  0  0  0  0  0
  152.2797  138.1451  155.3653 C   0  0  0  0  0  0  0  0  0  0  0  0
  151.8407  139.3455  154.8750 O   0  0  0  0  0  0  0  0  0  0  0  0
  150.9206  139.7619  155.7866 C   0  0  0  0  0  0  0  0  0  0  0  0
  150.2000  141.0479  155.5527 C   0  0  0  0  0  0  0  0  0  0  0  0
  148.7862  140.6442  155.3590 N   0  3  1  0  0  0  0  0  0  0  0  0
  147.7929  141.7413  155.4414 C   0  0  0  0  0  0  0  0  0  0  0  0
  146.6124  141.2769  154.5947 C   0  0  0  0  0  0  0  0  0  0  0  0
  147.3037  140.5499  153.4468 C   0  0  2  0  0  0  0  0  0  0  0  0
  146.4595  139.5943  152.8415 O   0  0  0  0  0  0  0  0  0  0  0  0
  148.5351  139.9059  154.0984 C   0  0  0  0  0  0  0  0  0  0  0  0
  150.7535  138.9200  156.8028 N   0  0  0  0  0  0  0  0  0  0  0  0
  147.6242  141.2760  152.6981 H   0  0  0  0  0  0  0  0  0  0  0  0
  153.0291  137.6240  154.7879 H   0  0  0  0  0  0  0  0  0  0  0  0
  150.3227  141.7273  156.3971 H   0  0  0  0  0  0  0  0  0  0  0  0
  150.5983  141.5243  154.6561 H   0  0  0  0  0  0  0  0  0  0  0  0
  147.5057  141.9528  156.4720 H   0  0  0  0  0  0  0  0  0  0  0  0
  148.2100  142.6548  155.0141 H   0  0  0  0  0  0  0  0  0  0  0  0
  145.9975  140.5845  155.1721 H   0  0  0  0  0  0  0  0  0  0  0  0
  145.9772  142.0980  154.2605 H   0  0  0  0  0  0  0  0  0  0  0  0
  145.5833  139.9466  152.7998 H   0  0  0  0  0  0  0  0  0  0  0  0
  149.3896  139.9290  153.4204 H   0  0  0  0  0  0  0  0  0  0  0  0
  148.3489  138.8624  154.3564 H   0  0  0  0  0  0  0  0  0  0  0  0
  148.5618  139.9990  156.1032 H   0  0  0  0  0  0  0  0  0  0  0  0
  1  2  2  0  0  0  0
  2  3  1  0  0  0  0
  2  4  1  0  0  0  0
  4 15  1  0  0  0  0
  4  5  2  0  0  0  0
  5  6  1  0  0  0  0
  5 17  1  0  0  0  0
  6  7  1  0  0  0  0
  7  8  1  0  0  0  0
  7 15  2  0  0  0  0
  8  9  1  0  0  0  0
  8 18  1  0  0  0  0
  8 19  1  0  0  0  0
  9 14  1  0  0  0  0
  9 10  1  0  0  0  0
  9 27  1  0  0  0  0
 10 11  1  0  0  0  0
 10 20  1  0  0  0  0
 10 21  1  0  0  0  0
 11 12  1  0  0  0  0
 11 22  1  0  0  0  0
 11 23  1  0  0  0  0
 12 16  1  0  0  0  0
 12 13  1  0  0  0  0
 12 14  1  0  0  0  0
 13 24  1  0  0  0  0
 14 25  1  0  0  0  0
 14 26  1  0  0  0  0
M  CHG  1   3  -1
M  CHG  1   9   1
M  END
> <s_m_source_file>
AV-unprocessed.smi

> <i_m_source_file_index>
52

> <i_lp_mmshare_version>
43012

> <i_f3d_flags>
0

> <s_epik_input>
Tz1DKFtPSF0pYzFbY0hdb2MobjEpW0NIMl1OMltDSDJdW0NIMl1bQ0BIXShbT0hdKVtDSDJdMg==

> <s_epik_cmdline>
J2VwaWtfcHl0aG9uJywgJy1waCcsICc3LjAnLCAnLXRuJywgJzgnLCAnLW1hJywgJzIwMCcsICctbWV0YWxfYmluZGluZycsICctaW1hZScsICc8aW5maWxlLm1hZT4nLCAnLW9tYWUnLCAnPG91dGZpbGUubWFlPic=

> <r_epik_Ionization_Penalty>
0.0376014

> <r_epik_Ionization_Penalty_Charging>
0.0376013

> <r_epik_Ionization_Penalty_Neutral>
1.78687e-08

> <r_epik_State_Penalty>
0.0314164

> <r_epik_Charging_Adjusted_Penalty>
0.0690177

> <i_epik_Tot_Q>
0

> <i_epik_Tot_abs_Q>
2

> <r_epik_Metal_State_Penalty>
0.0314164

> <b_epik_Metal_Only>
0

> <s_lp_Force_Field>
OPLS_2005

> <r_lp_Energy>
18.2584

> <b_lp_Chiralities_Consistent>
1

> <s_lp_Variant>
AV-unprocessed.smi:52-2

> <Gold.Version>
5.8.1

> <Gold.Id.Protein>
6NUR|6NUR_protein|mol2

> <Gold.PLP.Fitness>
37.1820

> <Gold.PLP.PLP>
-20.9918

> <Gold.PLP.part.hbond>
-4.0000

> <Gold.PLP.part.metal>
0.0000

> <Gold.PLP.part.buried>
-2.6159

> <Gold.PLP.part.nonpolar>
-15.8009

> <Gold.PLP.part.repulsive>
0.1124

> <Gold.PLP.ligand.clash>
0.0000

> <Gold.PLP.ligand.torsion>
0.0982

> <Gold.PLP.Chemscore.Hbond>
5.4577

> <Gold.PLP.Chemscore.CHOScore>
0.0000

> <Gold.PLP.Chemscore.Metal>
0.0000

> <Gold.Chemscore.Hbonds>
donor molecule, donor type, donor heavy atom, donor atom, acceptor molecule, acceptor atom, score
      L1  H    13    24       P1 10175  1.00
      P1  H  6896  6908       L1     3  1.52
      P1  H  7989  7998       L1     6  0.94
      P1  H 10752 10764       L1     1  2.00

> <Gold.PLP.Chemscore.Internal.Correction>
0.0136

> <Gold.Rescore>
     Score         DG    S(hbond)    S(metal)    S(lipo)     H(rot)  DE(clash)    DE(int)     intcor
     15.86     -15.94       3.28        0.00      39.26       1.99       0.00       0.08       ----

> <Gold.Chemscore.Fitness>
15.8636

> <Gold.Chemscore.DG>
-15.9400

> <Gold.Chemscore.ZeroCoef>
-5.4800

> <Gold.Chemscore.Hbond>
3.2830

> <Gold.Chemscore.Metal>
0.0000

> <Gold.Chemscore.Lipo>
39.2645

> <Gold.Chemscore.Internal_Hbond>
0.0000

> <Gold.Chemscore.DEClash>
0.0000

> <Gold.Chemscore.DEInternal>
0.0764

> <Gold.Chemscore.Rot>
1.9919

> <Gold.Chemscore.Internal.Correction>
   9.000000E+99

> <Gold.Chemscore.Hbonds>
donor molecule, donor type, donor heavy atom, donor atom, acceptor molecule, acceptor atom, score
      L1  H    13    24       P1 10175  0.96
      P1  H  6896  6908       L1     3  0.70
      P1  H  7989  7998       L1     6  0.22
      P1  H 10752 10764       L1     1  0.92

> <Gold.Chemscore.Hbond.Weighted>
-10.9652

> <Gold.Chemscore.Metal.Weighted>
-0.0000

> <Gold.Chemscore.Lipo.Weighted>
-4.5940

> <Gold.Chemscore.Internal_Hbond.Weighted>
0.0000

> <Gold.Chemscore.DEClash.Weighted>
0.0000

> <Gold.Chemscore.DEInternal.Weighted>
0.0764

> <Gold.Chemscore.Rot.Weighted>
5.0991

> <Gold.Chemscore.Internal.Correction.Weighted>
   9.000000E+99

> <Gold.Protein.RotatedTorsions>
[ 6907 6896 6895 6894 ] final -147.13 input  -60.11 | X-H torsion
[ 7974 7965 7964 7962 ] final -127.03 input  175.53 | X-H torsion
[ 8008 7997 7996 7995 ] final  -77.85 input   59.86 | X-H torsion
[ 10167 10162 10161 10158 ] final  -20.22 input  -65.29 | X-H torsion
[ 10718 10713 10712 10709 ] final  134.96 input   66.30 | X-H torsion
[ 10763 10752 10751 10750 ] final    9.59 input  -60.55 | X-H torsion
[ 11005 11000 10999 10996 ] final   51.76 input  -57.11 | X-H torsion

> <Gold.Protein.ActiveResidues>
 VAL166  LYS551  ARG553  GLY616  TRP617  ASP618  TYR619  PRO620  LYS621  CYS622 
 ASP623  PHE694  ASN695  SER759  ASP760  ASP761  ALA762  ILE779  LEU786  VAL792 
 PHE793  MET794  SER795  GLU796  ALA797  LYS798  CYS799  TRP800  GLU811  SER814 

> <Gold.Protein.RotatedAtoms>
  151.1513  133.4906  159.2595 H   0  0  0  0  0  0  0  0  0  0  0  0  # atno 6907 bound_to 6896
  151.1551  135.0246  159.8695 H   0  0  0  0  0  0  0  0  0  0  0  0  # atno 6908 bound_to 6896
  152.5463  134.1393  159.8525 H   0  0  0  0  0  0  0  0  0  0  0  0  # atno 6909 bound_to 6896
  144.9813  140.7642  143.4611 H   0  0  0  0  0  0  0  0  0  0  0  0  # atno 7974 bound_to 7965
  154.5634  140.0704  156.8854 H   0  0  0  0  0  0  0  0  0  0  0  0  # atno 8008 bound_to 7997
  155.2769  140.3369  155.4243 H   0  0  0  0  0  0  0  0  0  0  0  0  # atno 8009 bound_to 7997
  156.2061  140.1740  156.7783 H   0  0  0  0  0  0  0  0  0  0  0  0  # atno 8010 bound_to 7997
  140.7274  143.4743  151.0204 H   0  0  0  0  0  0  0  0  0  0  0  0  # atno 10167 bound_to 10162
  157.4620  131.1074  150.9908 H   0  0  0  0  0  0  0  0  0  0  0  0  # atno 10718 bound_to 10713
  153.2124  135.6870  153.8098 H   0  0  0  0  0  0  0  0  0  0  0  0  # atno 10763 bound_to 10752
  153.7326  135.3250  155.3290 H   0  0  0  0  0  0  0  0  0  0  0  0  # atno 10764 bound_to 10752
  154.8228  135.4639  154.0937 H   0  0  0  0  0  0  0  0  0  0  0  0  # atno 10765 bound_to 10752
  140.0905  134.5215  155.8856 H   0  0  0  0  0  0  0  0  0  0  0  0  # atno 11005 bound_to 11000
  145.2417  139.2069  143.4989 LP  0  0  0  0  0  0  0  0  0  0  0  0  # atno 17320 bound_to 7965
  146.3408  140.2314  142.8593 LP  0  0  0  0  0  0  0  0  0  0  0  0  # atno 17321 bound_to 7965
  139.8437  143.7530  152.3180 LP  0  0  0  0  0  0  0  0  0  0  0  0  # atno 17342 bound_to 10162
  139.7687  144.7483  151.0256 LP  0  0  0  0  0  0  0  0  0  0  0  0  # atno 17343 bound_to 10162
  157.0702  130.5861  149.5401 LP  0  0  0  0  0  0  0  0  0  0  0  0  # atno 17370 bound_to 10713
  156.0033  130.5116  150.7741 LP  0  0  0  0  0  0  0  0  0  0  0  0  # atno 17371 bound_to 10713
  141.2076  133.6666  156.6319 LP  0  0  0  0  0  0  0  0  0  0  0  0  # atno 17394 bound_to 11000
  140.3358  134.7890  157.4361 LP  0  0  0  0  0  0  0  0  0  0  0  0  # atno 17395 bound_to 11000

$$$$
