AV-unprocessed.smi:1299|AV-procd|sdf|5418|dock2
  -GOLD-   22720 4573D 1   1.00000     0.00000
 Structure written by MMmdl.
 39 40  0  0  0  0  0  0  0  0  1 V2000
  152.7986  136.8911  164.5319 C   0  0  0  0  0  0  0  0  0  0  0  0
  153.4499  135.6767  163.8929 C   0  0  0  0  0  0  0  0  0  0  0  0
  153.2087  134.4032  164.2211 C   0  0  0  0  0  0  0  0  0  0  0  0
  154.1127  133.2708  163.2464 S   0  0  0  0  0  0  0  0  0  0  0  0
  154.8571  134.6345  162.3374 C   0  0  0  0  0  0  0  0  0  0  0  0
  155.6633  134.4657  161.4239 O   0  0  0  0  0  0  0  0  0  0  0  0
  154.3699  135.8380  162.8470 N   0  0  0  0  0  0  0  0  0  0  0  0
  154.7919  137.1466  162.3295 C   0  0  0  0  0  0  0  0  0  0  0  0
  153.8364  137.7178  161.2730 C   0  0  0  0  0  0  0  0  0  0  0  0
  152.9521  137.0212  160.7723 O   0  0  0  0  0  0  0  0  0  0  0  0
  154.0228  139.0069  160.9516 N   0  0  0  0  0  0  0  0  0  0  0  0
  153.2327  139.7500  159.9762 C   0  0  0  0  0  0  0  0  0  0  0  0
  153.8179  141.1545  159.7237 C   0  0  0  0  0  0  0  0  0  0  0  0
  153.2147  142.2472  160.6222 C   0  0  0  0  0  0  0  0  0  0  0  0
  153.1789  142.0879  161.8432 O   0  0  0  0  0  0  0  0  0  0  0  0
  152.7352  143.3620  160.0322 N   0  0  0  0  0  0  0  0  0  0  0  0
  152.1211  144.4968  160.7212 C   0  0  0  0  0  0  0  0  0  0  0  0
  151.5302  145.3783  159.6204 C   0  0  0  0  0  0  0  0  0  0  0  0
  152.3670  145.0528  158.3913 C   0  0  0  0  0  0  0  0  0  0  0  0
  152.7692  143.5911  158.5889 C   0  0  0  0  0  0  0  0  0  0  0  0
  151.8881  136.5993  165.0560 H   0  0  0  0  0  0  0  0  0  0  0  0
  152.5205  137.6395  163.7900 H   0  0  0  0  0  0  0  0  0  0  0  0
  153.4748  137.3460  165.2557 H   0  0  0  0  0  0  0  0  0  0  0  0
  152.5307  134.0571  164.9872 H   0  0  0  0  0  0  0  0  0  0  0  0
  154.9100  137.8670  163.1389 H   0  0  0  0  0  0  0  0  0  0  0  0
  155.7830  137.0533  161.8822 H   0  0  0  0  0  0  0  0  0  0  0  0
  154.7693  139.5085  161.4106 H   0  0  0  0  0  0  0  0  0  0  0  0
  153.2225  139.1748  159.0496 H   0  0  0  0  0  0  0  0  0  0  0  0
  152.1967  139.8162  160.3143 H   0  0  0  0  0  0  0  0  0  0  0  0
  154.8961  141.1327  159.8856 H   0  0  0  0  0  0  0  0  0  0  0  0
  153.6573  141.4304  158.6809 H   0  0  0  0  0  0  0  0  0  0  0  0
  151.3493  144.1886  161.4275 H   0  0  0  0  0  0  0  0  0  0  0  0
  152.8917  145.0394  161.2708 H   0  0  0  0  0  0  0  0  0  0  0  0
  150.4932  145.0912  159.4410 H   0  0  0  0  0  0  0  0  0  0  0  0
  151.5438  146.4386  159.8740 H   0  0  0  0  0  0  0  0  0  0  0  0
  151.8309  145.2215  157.4569 H   0  0  0  0  0  0  0  0  0  0  0  0
  153.2597  145.6795  158.3821 H   0  0  0  0  0  0  0  0  0  0  0  0
  153.7538  143.3904  158.1634 H   0  0  0  0  0  0  0  0  0  0  0  0
  152.0497  142.9270  158.1074 H   0  0  0  0  0  0  0  0  0  0  0  0
  1  2  1  0  0  0  0
  1 21  1  0  0  0  0
  1 22  1  0  0  0  0
  1 23  1  0  0  0  0
  2  7  1  0  0  0  0
  2  3  2  0  0  0  0
  3  4  1  0  0  0  0
  3 24  1  0  0  0  0
  4  5  1  0  0  0  0
  5  6  2  0  0  0  0
  5  7  1  0  0  0  0
  7  8  1  0  0  0  0
  8  9  1  0  0  0  0
  8 25  1  0  0  0  0
  8 26  1  0  0  0  0
  9 10  2  0  0  0  0
  9 11  1  0  0  0  0
 11 12  1  0  0  0  0
 11 27  1  0  0  0  0
 12 13  1  0  0  0  0
 12 28  1  0  0  0  0
 12 29  1  0  0  0  0
 13 14  1  0  0  0  0
 13 30  1  0  0  0  0
 13 31  1  0  0  0  0
 14 15  2  0  0  0  0
 14 16  1  0  0  0  0
 16 20  1  0  0  0  0
 16 17  1  0  0  0  0
 17 18  1  0  0  0  0
 17 32  1  0  0  0  0
 17 33  1  0  0  0  0
 18 19  1  0  0  0  0
 18 34  1  0  0  0  0
 18 35  1  0  0  0  0
 19 20  1  0  0  0  0
 19 36  1  0  0  0  0
 19 37  1  0  0  0  0
 20 38  1  0  0  0  0
 20 39  1  0  0  0  0
M  END
> <s_m_source_file>
AV-unprocessed.smi

> <i_m_source_file_index>
1299

> <i_lp_mmshare_version>
43012

> <i_f3d_flags>
0

> <s_epik_input>
W0NIM11jMVtjSF1zYyg9TyluMVtDSDJdQyg9TylbTkhdW0NIMl1bQ0gyXUMoPU8pTjJbQ0gyXVtDSDJdW0NIMl1bQ0gyXTI=

> <s_epik_cmdline>
J2VwaWtfcHl0aG9uJywgJy1waCcsICc3LjAnLCAnLXRuJywgJzgnLCAnLW1hJywgJzIwMCcsICctbWV0YWxfYmluZGluZycsICctaW1hZScsICc8aW5maWxlLm1hZT4nLCAnLW9tYWUnLCAnPG91dGZpbGUubWFlPic=

> <r_lp_tautomer_probability>
1

> <r_epik_Ionization_Penalty>
1.42672e-06

> <r_epik_Ionization_Penalty_Charging>
1.08064e-06

> <r_epik_Ionization_Penalty_Neutral>
3.46085e-07

> <r_epik_State_Penalty>
-0

> <r_epik_Charging_Adjusted_Penalty>
1.08064e-06

> <i_epik_Tot_Q>
0

> <i_epik_Tot_abs_Q>
0

> <r_epik_Metal_State_Penalty>
-0

> <b_epik_Metal_Only>
0

> <s_lp_Force_Field>
OPLS_2005

> <r_lp_Energy>
30.8751

> <b_lp_Chiralities_Consistent>
1

> <s_lp_Variant>
AV-unprocessed.smi:1299-1

> <Gold.Version>
5.8.1

> <Gold.Id.Protein>
6NUR|6NUR_protein|mol2

> <Gold.PLP.Fitness>
45.9142

> <Gold.PLP.PLP>
-47.4326

> <Gold.PLP.part.hbond>
0.0000

> <Gold.PLP.part.metal>
0.0000

> <Gold.PLP.part.buried>
-6.1990

> <Gold.PLP.part.nonpolar>
-41.2927

> <Gold.PLP.part.repulsive>
0.0390

> <Gold.PLP.ligand.clash>
0.0000

> <Gold.PLP.ligand.torsion>
0.7746

> <Gold.PLP.Chemscore.Hbond>
0.0000

> <Gold.PLP.Chemscore.CHOScore>
0.0000

> <Gold.PLP.Chemscore.Metal>
0.0000

> <Gold.PLP.Chemscore.Internal.Correction>
0.0308

> <Gold.Rescore>
     Score         DG    S(hbond)    S(metal)    S(lipo)     H(rot)  DE(clash)    DE(int)     intcor
     11.80     -12.63       0.00        0.00     105.19       2.02       0.05       0.78       ----

> <Gold.Chemscore.Fitness>
11.7996

> <Gold.Chemscore.DG>
-12.6259

> <Gold.Chemscore.ZeroCoef>
-5.4800

> <Gold.Chemscore.Hbond>
0.0000

> <Gold.Chemscore.Metal>
0.0000

> <Gold.Chemscore.Lipo>
105.1902

> <Gold.Chemscore.Internal_Hbond>
0.0000

> <Gold.Chemscore.DEClash>
0.0475

> <Gold.Chemscore.DEInternal>
0.7788

> <Gold.Chemscore.Rot>
2.0162

> <Gold.Chemscore.Internal.Correction>
   9.000000E+99

> <Gold.Chemscore.Hbonds>
donor molecule, donor type, donor heavy atom, donor atom, acceptor molecule, acceptor atom, score
      P1  H  6896  6907       L1    10  0.01

> <Gold.Chemscore.Hbond.Weighted>
-0.0000

> <Gold.Chemscore.Metal.Weighted>
-0.0000

> <Gold.Chemscore.Lipo.Weighted>
-12.3073

> <Gold.Chemscore.Internal_Hbond.Weighted>
0.0000

> <Gold.Chemscore.DEClash.Weighted>
0.0475

> <Gold.Chemscore.DEInternal.Weighted>
0.7788

> <Gold.Chemscore.Rot.Weighted>
5.1614

> <Gold.Chemscore.Internal.Correction.Weighted>
   9.000000E+99

> <Gold.Protein.RotatedTorsions>
[ 6907 6896 6895 6894 ] final   -6.67 input  -60.11 | X-H torsion
[ 7974 7965 7964 7962 ] final   64.66 input  175.53 | X-H torsion
[ 8008 7997 7996 7995 ] final   96.16 input   59.86 | X-H torsion
[ 10167 10162 10161 10158 ] final  -67.48 input  -65.29 | X-H torsion
[ 10718 10713 10712 10709 ] final   97.16 input   66.30 | X-H torsion
[ 10763 10752 10751 10750 ] final   24.85 input  -60.55 | X-H torsion
[ 11005 11000 10999 10996 ] final -117.83 input  -57.11 | X-H torsion

> <Gold.Protein.ActiveResidues>
 VAL166  LYS551  ARG553  GLY616  TRP617  ASP618  TYR619  PRO620  LYS621  CYS622 
 ASP623  PHE694  ASN695  SER759  ASP760  ASP761  ALA762  ILE779  LEU786  VAL792 
 PHE793  MET794  SER795  GLU796  ALA797  LYS798  CYS799  TRP800  GLU811  SER814 

> <Gold.Protein.RotatedAtoms>
  151.4619  135.1039  159.9726 H   0  0  0  0  0  0  0  0  0  0  0  0  # atno 6907 bound_to 6896
  152.4849  133.8344  159.7131 H   0  0  0  0  0  0  0  0  0  0  0  0  # atno 6908 bound_to 6896
  150.8951  133.7131  159.2921 H   0  0  0  0  0  0  0  0  0  0  0  0  # atno 6909 bound_to 6896
  145.8476  139.3234  143.0894 H   0  0  0  0  0  0  0  0  0  0  0  0  # atno 7974 bound_to 7965
  156.0767  140.3276  155.7642 H   0  0  0  0  0  0  0  0  0  0  0  0  # atno 8008 bound_to 7997
  155.5219  140.0586  157.2922 H   0  0  0  0  0  0  0  0  0  0  0  0  # atno 8009 bound_to 7997
  154.4559  140.1942  156.0398 H   0  0  0  0  0  0  0  0  0  0  0  0  # atno 8010 bound_to 7997
  140.5579  143.2312  151.6785 H   0  0  0  0  0  0  0  0  0  0  0  0  # atno 10167 bound_to 10162
  157.6917  131.0600  150.4601 H   0  0  0  0  0  0  0  0  0  0  0  0  # atno 10718 bound_to 10713
  153.0734  135.6596  154.0199 H   0  0  0  0  0  0  0  0  0  0  0  0  # atno 10763 bound_to 10752
  153.9839  135.2952  155.3419 H   0  0  0  0  0  0  0  0  0  0  0  0  # atno 10764 bound_to 10752
  154.7115  135.5203  153.8743 H   0  0  0  0  0  0  0  0  0  0  0  0  # atno 10765 bound_to 10752
  141.0328  133.9956  157.3117 H   0  0  0  0  0  0  0  0  0  0  0  0  # atno 11005 bound_to 11000
  145.9394  140.8991  143.0315 LP  0  0  0  0  0  0  0  0  0  0  0  0  # atno 17320 bound_to 7965
  144.6730  140.1527  143.7428 LP  0  0  0  0  0  0  0  0  0  0  0  0  # atno 17321 bound_to 7965
  139.5056  144.3710  152.0470 LP  0  0  0  0  0  0  0  0  0  0  0  0  # atno 17342 bound_to 10162
  140.2833  144.3835  150.6112 LP  0  0  0  0  0  0  0  0  0  0  0  0  # atno 17343 bound_to 10162
  156.4946  130.4103  149.6387 LP  0  0  0  0  0  0  0  0  0  0  0  0  # atno 17370 bound_to 10713
  156.3385  130.7369  151.2311 LP  0  0  0  0  0  0  0  0  0  0  0  0  # atno 17371 bound_to 10713
  139.9219  135.0200  156.8096 LP  0  0  0  0  0  0  0  0  0  0  0  0  # atno 17394 bound_to 11000
  140.6377  133.9847  155.7692 LP  0  0  0  0  0  0  0  0  0  0  0  0  # atno 17395 bound_to 11000

$$$$
