AV-unprocessed.smi:767|AV-procd|sdf|3663|dock4
  -GOLD-   22720 1 73D 1   1.00000     0.00000
 Structure written by MMmdl.
 47 49  0  0  0  0  0  0  0  0  1 V2000
  152.3270  145.2445  159.1677 C   0  0  0  0  0  0  0  0  0  0  0  0
  152.0525  143.7604  159.0422 C   0  0  0  0  0  0  0  0  0  0  0  0
  150.9859  143.2913  158.2471 C   0  0  0  0  0  0  0  0  0  0  0  0
  150.7652  141.9024  158.1724 C   0  0  0  0  0  0  0  0  0  0  0  0
  151.6135  141.0395  158.8956 C   0  0  0  0  0  0  0  0  0  0  0  0
  151.4003  139.5353  158.8723 C   0  0  0  0  0  0  0  0  0  0  0  0
  150.2157  139.0951  157.9879 C   0  0  0  0  0  0  0  0  0  0  0  0
  149.1933  138.3630  158.7298 N   0  0  0  0  0  0  0  0  0  0  0  0
  149.3105  137.0995  159.1590 C   0  0  0  0  0  0  0  0  0  0  0  0
  150.2903  136.3855  158.9458 O   0  0  0  0  0  0  0  0  0  0  0  0
  148.2410  136.7157  159.8678 N   0  0  0  0  0  0  0  0  0  0  0  0
  148.0947  135.4020  160.5024 C   0  0  2  0  0  0  0  0  0  0  0  0
  146.9004  134.6128  159.9596 C   0  0  2  0  0  0  0  0  0  0  0  0
  146.0373  134.6822  158.7518 C   0  0  0  0  0  0  0  0  0  0  0  0
  144.6843  134.4137  159.4656 C   0  0  0  0  0  0  0  0  0  0  0  0
  144.9599  134.4935  160.8879 O   0  0  0  0  0  0  0  0  0  0  0  0
  146.0649  135.3713  160.9702 C   0  0  1  0  0  0  0  0  0  0  0  0
  147.3147  135.3939  161.8776 C   0  0  0  0  0  0  0  0  0  0  0  0
  147.5339  134.1841  162.8034 C   0  0  0  0  0  0  0  0  0  0  0  0
  147.4531  136.6333  162.7681 C   0  0  0  0  0  0  0  0  0  0  0  0
  152.6558  141.6109  159.6563 C   0  0  0  0  0  0  0  0  0  0  0  0
  152.8740  142.9411  159.7351 N   0  0  0  0  0  0  0  0  0  0  0  0
  152.0144  145.7737  158.2669 H   0  0  0  0  0  0  0  0  0  0  0  0
  153.3899  145.4353  159.3192 H   0  0  0  0  0  0  0  0  0  0  0  0
  151.7798  145.6570  160.0155 H   0  0  0  0  0  0  0  0  0  0  0  0
  150.3485  143.9781  157.7098 H   0  0  0  0  0  0  0  0  0  0  0  0
  149.9537  141.5086  157.5782 H   0  0  0  0  0  0  0  0  0  0  0  0
  152.3160  139.0541  158.5278 H   0  0  0  0  0  0  0  0  0  0  0  0
  151.2429  139.1844  159.8931 H   0  0  0  0  0  0  0  0  0  0  0  0
  149.7336  139.9774  157.5662 H   0  0  0  0  0  0  0  0  0  0  0  0
  150.5689  138.5039  157.1417 H   0  0  0  0  0  0  0  0  0  0  0  0
  148.3496  138.8678  158.9588 H   0  0  0  0  0  0  0  0  0  0  0  0
  147.4858  137.3736  159.9929 H   0  0  0  0  0  0  0  0  0  0  0  0
  149.0146  134.8150  160.5223 H   0  0  0  0  0  0  0  0  0  0  0  0
  147.0367  133.5622  160.2276 H   0  0  0  0  0  0  0  0  0  0  0  0
  146.0631  135.6655  158.2804 H   0  0  0  0  0  0  0  0  0  0  0  0
  146.2803  133.9207  158.0104 H   0  0  0  0  0  0  0  0  0  0  0  0
  143.9410  135.1591  159.1805 H   0  0  0  0  0  0  0  0  0  0  0  0
  144.2849  133.4279  159.2263 H   0  0  0  0  0  0  0  0  0  0  0  0
  145.7760  136.3766  160.6466 H   0  0  0  0  0  0  0  0  0  0  0  0
  146.7580  134.1268  163.5675 H   0  0  0  0  0  0  0  0  0  0  0  0
  148.4929  134.2501  163.3182 H   0  0  0  0  0  0  0  0  0  0  0  0
  147.5287  133.2294  162.2805 H   0  0  0  0  0  0  0  0  0  0  0  0
  146.8153  136.5700  163.6502 H   0  0  0  0  0  0  0  0  0  0  0  0
  147.1670  137.5439  162.2423 H   0  0  0  0  0  0  0  0  0  0  0  0
  148.4796  136.7662  163.1111 H   0  0  0  0  0  0  0  0  0  0  0  0
  153.3257  140.9864  160.2289 H   0  0  0  0  0  0  0  0  0  0  0  0
  1  2  1  0  0  0  0
  1 23  1  0  0  0  0
  1 24  1  0  0  0  0
  1 25  1  0  0  0  0
  2 22  1  0  0  0  0
  2  3  2  0  0  0  0
  3  4  1  0  0  0  0
  3 26  1  0  0  0  0
  4  5  2  0  0  0  0
  4 27  1  0  0  0  0
  5  6  1  0  0  0  0
  5 21  1  0  0  0  0
  6  7  1  0  0  0  0
  6 28  1  0  0  0  0
  6 29  1  0  0  0  0
  7  8  1  0  0  0  0
  7 30  1  0  0  0  0
  7 31  1  0  0  0  0
  8  9  1  0  0  0  0
  8 32  1  0  0  0  0
  9 10  2  0  0  0  0
  9 11  1  0  0  0  0
 11 12  1  0  0  0  0
 11 33  1  0  0  0  0
 12 18  1  0  0  0  0
 12 13  1  0  0  0  0
 12 34  1  0  0  0  0
 13 17  1  0  0  0  0
 13 14  1  0  0  0  0
 13 35  1  0  0  0  0
 14 15  1  0  0  0  0
 14 36  1  0  0  0  0
 14 37  1  0  0  0  0
 15 16  1  0  0  0  0
 15 38  1  0  0  0  0
 15 39  1  0  0  0  0
 16 17  1  0  0  0  0
 17 18  1  0  0  0  0
 17 40  1  0  0  0  0
 18 19  1  0  0  0  0
 18 20  1  0  0  0  0
 19 41  1  0  0  0  0
 19 42  1  0  0  0  0
 19 43  1  0  0  0  0
 20 44  1  0  0  0  0
 20 45  1  0  0  0  0
 20 46  1  0  0  0  0
 21 22  2  0  0  0  0
 21 47  1  0  0  0  0
M  END
> <s_m_source_file>
AV-unprocessed.smi

> <i_m_source_file_index>
767

> <i_lp_mmshare_version>
43012

> <i_f3d_flags>
0

> <s_epik_input>
W0NIM11jMVtjSF1bY0hdYyhbY0hdbjEpW0NIMl1bQ0gyXVtOSF1DKD1PKVtOSF1bQ0BIXTJDKFtDSDNdKShbQ0gzXSlbQ0BIXShbQ0BASF0yMylPW0NIMl1bQ0gyXTM=

> <s_epik_cmdline>
J2VwaWtfcHl0aG9uJywgJy1waCcsICc3LjAnLCAnLXRuJywgJzgnLCAnLW1hJywgJzIwMCcsICctbWV0YWxfYmluZGluZycsICctaW1hZScsICc8aW5maWxlLm1hZT4nLCAnLW9tYWUnLCAnPG91dGZpbGUubWFlPic=

> <r_epik_Ionization_Penalty>
0.0567523

> <r_epik_Ionization_Penalty_Charging>
0

> <r_epik_Ionization_Penalty_Neutral>
0.0567523

> <r_epik_State_Penalty>
0.0489186

> <r_epik_Charging_Adjusted_Penalty>
0.0489186

> <i_epik_Tot_Q>
0

> <i_epik_Tot_abs_Q>
0

> <r_epik_Metal_State_Penalty>
0.044622

> <b_epik_Metal_Only>
0

> <s_lp_Force_Field>
OPLS_2005

> <r_lp_Energy>
58.7335

> <b_lp_Chiralities_Consistent>
1

> <s_lp_Variant>
AV-unprocessed.smi:767-7

> <Gold.Version>
5.8.1

> <Gold.Id.Protein>
6NUR|6NUR_protein|mol2

> <Gold.PLP.Fitness>
40.2959

> <Gold.PLP.PLP>
-38.2928

> <Gold.PLP.part.hbond>
-1.0000

> <Gold.PLP.part.metal>
0.0000

> <Gold.PLP.part.buried>
-6.5143

> <Gold.PLP.part.nonpolar>
-31.7725

> <Gold.PLP.part.repulsive>
0.3887

> <Gold.PLP.ligand.clash>
0.0000

> <Gold.PLP.ligand.torsion>
0.6373

> <Gold.PLP.Chemscore.Hbond>
1.0000

> <Gold.PLP.Chemscore.CHOScore>
0.0000

> <Gold.PLP.Chemscore.Metal>
0.0000

> <Gold.Chemscore.Hbonds>
donor molecule, donor type, donor heavy atom, donor atom, acceptor molecule, acceptor atom, score
      P1  H  6896  6909       L1    10  1.00

> <Gold.PLP.Chemscore.Internal.Correction>
0.2777

> <Gold.Rescore>
     Score         DG    S(hbond)    S(metal)    S(lipo)     H(rot)  DE(clash)    DE(int)     intcor
     17.79     -18.38       0.98        0.00     113.97       1.45       0.01       0.59       ----

> <Gold.Chemscore.Fitness>
17.7881

> <Gold.Chemscore.DG>
-18.3833

> <Gold.Chemscore.ZeroCoef>
-5.4800

> <Gold.Chemscore.Hbond>
0.9819

> <Gold.Chemscore.Metal>
0.0000

> <Gold.Chemscore.Lipo>
113.9744

> <Gold.Chemscore.Internal_Hbond>
0.0000

> <Gold.Chemscore.DEClash>
0.0076

> <Gold.Chemscore.DEInternal>
0.5876

> <Gold.Chemscore.Rot>
1.4497

> <Gold.Chemscore.Internal.Correction>
   9.000000E+99

> <Gold.Chemscore.Hbonds>
donor molecule, donor type, donor heavy atom, donor atom, acceptor molecule, acceptor atom, score
      P1  H  6896  6909       L1    10  0.99

> <Gold.Chemscore.Hbond.Weighted>
-3.2795

> <Gold.Chemscore.Metal.Weighted>
-0.0000

> <Gold.Chemscore.Lipo.Weighted>
-13.3350

> <Gold.Chemscore.Internal_Hbond.Weighted>
0.0000

> <Gold.Chemscore.DEClash.Weighted>
0.0076

> <Gold.Chemscore.DEInternal.Weighted>
0.5876

> <Gold.Chemscore.Rot.Weighted>
3.7112

> <Gold.Chemscore.Internal.Correction.Weighted>
   9.000000E+99

> <Gold.Protein.RotatedTorsions>
[ 6907 6896 6895 6894 ] final   70.69 input  -60.11 | X-H torsion
[ 7974 7965 7964 7962 ] final  117.24 input  175.53 | X-H torsion
[ 8008 7997 7996 7995 ] final  -41.95 input   59.86 | X-H torsion
[ 10167 10162 10161 10158 ] final  -58.80 input  -65.29 | X-H torsion
[ 10718 10713 10712 10709 ] final   38.72 input   66.30 | X-H torsion
[ 10763 10752 10751 10750 ] final -175.29 input  -60.55 | X-H torsion
[ 11005 11000 10999 10996 ] final  -92.51 input  -57.11 | X-H torsion

> <Gold.Protein.ActiveResidues>
 VAL166  LYS551  ARG553  GLY616  TRP617  ASP618  TYR619  PRO620  LYS621  CYS622 
 ASP623  PHE694  ASN695  SER759  ASP760  ASP761  ALA762  ILE779  LEU786  VAL792 
 PHE793  MET794  SER795  GLU796  ALA797  LYS798  CYS799  TRP800  GLU811  SER814 

> <Gold.Protein.RotatedAtoms>
  152.4765  134.4831  159.9671 H   0  0  0  0  0  0  0  0  0  0  0  0  # atno 6907 bound_to 6896
  151.4846  133.3532  159.2851 H   0  0  0  0  0  0  0  0  0  0  0  0  # atno 6908 bound_to 6896
  150.8807  134.8224  159.7284 H   0  0  0  0  0  0  0  0  0  0  0  0  # atno 6909 bound_to 6896
  145.1697  139.3108  143.4474 H   0  0  0  0  0  0  0  0  0  0  0  0  # atno 7974 bound_to 7965
  154.4001  140.1486  156.3274 H   0  0  0  0  0  0  0  0  0  0  0  0  # atno 8008 bound_to 7997
  155.8474  140.3459  155.5650 H   0  0  0  0  0  0  0  0  0  0  0  0  # atno 8009 bound_to 7997
  155.8021  140.0872  157.1941 H   0  0  0  0  0  0  0  0  0  0  0  0  # atno 8010 bound_to 7997
  140.6174  143.2407  151.5563 H   0  0  0  0  0  0  0  0  0  0  0  0  # atno 10167 bound_to 10162
  157.3622  130.7655  149.7056 H   0  0  0  0  0  0  0  0  0  0  0  0  # atno 10718 bound_to 10713
  154.5861  135.2840  155.0683 H   0  0  0  0  0  0  0  0  0  0  0  0  # atno 10763 bound_to 10752
  154.2001  135.6426  153.5088 H   0  0  0  0  0  0  0  0  0  0  0  0  # atno 10764 bound_to 10752
  153.0105  135.5467  154.6532 H   0  0  0  0  0  0  0  0  0  0  0  0  # atno 10765 bound_to 10752
  141.1520  133.7825  157.0029 H   0  0  0  0  0  0  0  0  0  0  0  0  # atno 11005 bound_to 11000
  146.3470  140.1838  142.8589 LP  0  0  0  0  0  0  0  0  0  0  0  0  # atno 17320 bound_to 7965
  145.0245  140.8821  143.5146 LP  0  0  0  0  0  0  0  0  0  0  0  0  # atno 17321 bound_to 7965
  139.5410  144.2647  152.1351 LP  0  0  0  0  0  0  0  0  0  0  0  0  # atno 17342 bound_to 10162
  140.1860  144.4798  150.6503 LP  0  0  0  0  0  0  0  0  0  0  0  0  # atno 17343 bound_to 10162
  155.9739  130.4110  150.3962 LP  0  0  0  0  0  0  0  0  0  0  0  0  # atno 17370 bound_to 10713
  157.2041  131.0445  151.2635 LP  0  0  0  0  0  0  0  0  0  0  0  0  # atno 17371 bound_to 10713
  140.0928  134.9582  157.1802 LP  0  0  0  0  0  0  0  0  0  0  0  0  # atno 17394 bound_to 11000
  140.3423  134.2690  155.7210 LP  0  0  0  0  0  0  0  0  0  0  0  0  # atno 17395 bound_to 11000

$$$$
