AV-unprocessed.smi:1452|AV-procd|sdf|5908|dock5
  -GOLD-   22720 5593D 1   1.00000     0.00000
 Structure written by MMmdl.
 40 42  0  0  0  0  0  0  0  0  2 V2000
  146.1403  137.1557  154.2214 O   0  0  0  0  0  0  0  0  0  0  0  0
  145.5324  137.7889  153.3600 C   0  0  0  0  0  0  0  0  0  0  0  0
  145.8369  139.0782  153.0984 N   0  0  0  0  0  0  0  0  0  0  0  0
  146.8109  139.9547  153.6626 C   0  0  0  0  0  0  0  0  0  0  0  0
  148.0048  139.3173  154.0698 C   0  0  0  0  0  0  0  0  0  0  0  0
  149.0428  140.0796  154.6393 C   0  0  0  0  0  0  0  0  0  0  0  0
  148.8624  141.4659  154.7872 C   0  0  0  0  0  0  0  0  0  0  0  0
  147.6463  142.0251  154.3553 C   0  0  0  0  0  0  0  0  0  0  0  0
  146.6505  141.2952  153.8090 N   0  0  0  0  0  0  0  0  0  0  0  0
  144.5401  137.2517  152.6318 N   0  0  0  0  0  0  0  0  0  0  0  0
  144.0509  135.8812  152.7369 C   0  0  1  0  0  0  0  0  0  0  0  0
  142.5508  135.8026  152.9935 C   0  0  0  0  0  0  0  0  0  0  0  0
  142.2248  134.3714  152.5645 C   0  0  0  0  0  0  0  0  0  0  0  0
  143.1379  134.0663  151.4394 N   0  3  2  0  0  0  0  0  0  0  0  0
  143.5935  132.6557  151.3791 C   0  0  0  0  0  0  0  0  0  0  0  0
  144.5243  132.4349  150.1725 C   0  0  0  0  0  0  0  0  0  0  0  0
  145.6602  133.4758  150.0859 C   0  0  0  0  0  0  0  0  0  0  0  0
  145.6276  134.4786  151.2496 C   0  0  0  0  0  0  0  0  0  0  0  0
  144.2199  135.0916  151.4278 C   0  0  2  0  0  0  0  0  0  0  0  0
  145.2637  139.5024  152.3834 H   0  0  0  0  0  0  0  0  0  0  0  0
  148.1293  138.2507  153.9496 H   0  0  0  0  0  0  0  0  0  0  0  0
  149.9610  139.6079  154.9569 H   0  0  0  0  0  0  0  0  0  0  0  0
  149.6351  142.0842  155.2197 H   0  0  0  0  0  0  0  0  0  0  0  0
  147.4672  143.0856  154.4506 H   0  0  0  0  0  0  0  0  0  0  0  0
  144.0927  137.8456  151.9472 H   0  0  0  0  0  0  0  0  0  0  0  0
  144.5560  135.3598  153.5531 H   0  0  0  0  0  0  0  0  0  0  0  0
  142.2847  136.0041  154.0317 H   0  0  0  0  0  0  0  0  0  0  0  0
  142.0164  136.5134  152.3610 H   0  0  0  0  0  0  0  0  0  0  0  0
  142.4216  133.6943  153.3974 H   0  0  0  0  0  0  0  0  0  0  0  0
  141.1806  134.2488  152.2755 H   0  0  0  0  0  0  0  0  0  0  0  0
  144.1105  132.3952  152.3039 H   0  0  0  0  0  0  0  0  0  0  0  0
  142.7273  131.9967  151.3077 H   0  0  0  0  0  0  0  0  0  0  0  0
  144.9441  131.4295  150.2181 H   0  0  0  0  0  0  0  0  0  0  0  0
  143.9371  132.4723  149.2541 H   0  0  0  0  0  0  0  0  0  0  0  0
  146.6284  132.9747  150.0576 H   0  0  0  0  0  0  0  0  0  0  0  0
  145.5751  134.0197  149.1442 H   0  0  0  0  0  0  0  0  0  0  0  0
  145.9356  133.9746  152.1669 H   0  0  0  0  0  0  0  0  0  0  0  0
  146.3621  135.2659  151.0784 H   0  0  0  0  0  0  0  0  0  0  0  0
  144.0059  135.7447  150.5800 H   0  0  0  0  0  0  0  0  0  0  0  0
  142.6113  134.2272  150.5926 H   0  0  0  0  0  0  0  0  0  0  0  0
  1  2  2  0  0  0  0
  2  3  1  0  0  0  0
  2 10  1  0  0  0  0
  3  4  1  0  0  0  0
  3 20  1  0  0  0  0
  4  9  1  0  0  0  0
  4  5  2  0  0  0  0
  5  6  1  0  0  0  0
  5 21  1  0  0  0  0
  6  7  2  0  0  0  0
  6 22  1  0  0  0  0
  7  8  1  0  0  0  0
  7 23  1  0  0  0  0
  8  9  2  0  0  0  0
  8 24  1  0  0  0  0
 10 11  1  0  0  0  0
 10 25  1  0  0  0  0
 11 19  1  0  0  0  0
 11 12  1  0  0  0  0
 11 26  1  0  0  0  0
 12 13  1  0  0  0  0
 12 27  1  0  0  0  0
 12 28  1  0  0  0  0
 13 14  1  0  0  0  0
 13 29  1  0  0  0  0
 13 30  1  0  0  0  0
 14 19  1  0  0  0  0
 14 15  1  0  0  0  0
 14 40  1  0  0  0  0
 15 16  1  0  0  0  0
 15 31  1  0  0  0  0
 15 32  1  0  0  0  0
 16 17  1  0  0  0  0
 16 33  1  0  0  0  0
 16 34  1  0  0  0  0
 17 18  1  0  0  0  0
 17 35  1  0  0  0  0
 17 36  1  0  0  0  0
 18 19  1  0  0  0  0
 18 37  1  0  0  0  0
 18 38  1  0  0  0  0
 19 39  1  0  0  0  0
M  CHG  1  14   1
M  END
> <s_m_source_file>
AV-unprocessed.smi

> <i_m_source_file_index>
1452

> <i_lp_mmshare_version>
43012

> <i_f3d_flags>
0

> <s_epik_input>
W0NIMl0xW0NIMl1bQ0gyXVtDSDJdW0NASF0oTjEyKVtDQEBIXShbQ0gyXVtDSDJdMilbTkhdQyg9TylbTkhdYzNbY0hdW2NIXVtjSF1bY0hdbjM=

> <s_epik_cmdline>
J2VwaWtfcHl0aG9uJywgJy1waCcsICc3LjAnLCAnLXRuJywgJzgnLCAnLW1hJywgJzIwMCcsICctbWV0YWxfYmluZGluZycsICctaW1hZScsICc8aW5maWxlLm1hZT4nLCAnLW9tYWUnLCAnPG91dGZpbGUubWFlPic=

> <r_epik_Ionization_Penalty>
0.00100813

> <r_epik_Ionization_Penalty_Charging>
0.000974069

> <r_epik_Ionization_Penalty_Neutral>
3.40643e-05

> <r_epik_State_Penalty>
0.000633842

> <r_epik_Charging_Adjusted_Penalty>
0.00160791

> <i_epik_Tot_Q>
1

> <i_epik_Tot_abs_Q>
1

> <r_epik_Metal_State_Penalty>
-0

> <b_epik_Metal_Only>
0

> <s_lp_Force_Field>
OPLS_2005

> <r_lp_Energy>
44.0476

> <b_lp_Chiralities_Consistent>
1

> <s_lp_Variant>
AV-unprocessed.smi:1452-6

> <Gold.Version>
5.8.1

> <Gold.Id.Protein>
6NUR|6NUR_protein|mol2

> <Gold.PLP.Fitness>
46.0843

> <Gold.PLP.PLP>
-33.9300

> <Gold.PLP.part.hbond>
-2.7621

> <Gold.PLP.part.metal>
0.0000

> <Gold.PLP.part.buried>
-1.4186

> <Gold.PLP.part.nonpolar>
-27.6361

> <Gold.PLP.part.repulsive>
0.2926

> <Gold.PLP.ligand.clash>
0.0000

> <Gold.PLP.ligand.torsion>
0.2343

> <Gold.PLP.Chemscore.Hbond>
3.2051

> <Gold.PLP.Chemscore.CHOScore>
1.0000

> <Gold.PLP.Chemscore.Metal>
0.0000

> <Gold.Chemscore.Hbonds>
donor molecule, donor type, donor heavy atom, donor atom, acceptor molecule, acceptor atom, score
      L1  H     3    20       P1 10175  0.66
      L1  H    10    25       P1 10171  0.42
      L1  H    14    40       P1 10186  2.00
      L1  C     8    24       P1  8028  0.96

> <Gold.PLP.Chemscore.Internal.Correction>
0.0075

> <Gold.Rescore>
     Score         DG    S(hbond)    S(metal)    S(lipo)     H(rot)  DE(clash)    DE(int)     intcor
     16.96     -18.60       1.87        0.00      80.72       1.00       0.09       1.54       ----

> <Gold.Chemscore.Fitness>
16.9646

> <Gold.Chemscore.DG>
-18.5993

> <Gold.Chemscore.ZeroCoef>
-5.4800

> <Gold.Chemscore.Hbond>
1.8667

> <Gold.Chemscore.Metal>
0.0000

> <Gold.Chemscore.Lipo>
80.7209

> <Gold.Chemscore.Internal_Hbond>
0.0000

> <Gold.Chemscore.DEClash>
0.0933

> <Gold.Chemscore.DEInternal>
1.5414

> <Gold.Chemscore.Rot>
1.0000

> <Gold.Chemscore.Internal.Correction>
   9.000000E+99

> <Gold.Chemscore.Hbonds>
donor molecule, donor type, donor heavy atom, donor atom, acceptor molecule, acceptor atom, score
      L1  H     3    20       P1 10175  0.66
      L1  H    10    25       P1 10171  0.39
      L1  H    14    40       P1 10186  0.59

> <Gold.Chemscore.Hbond.Weighted>
-6.2349

> <Gold.Chemscore.Metal.Weighted>
-0.0000

> <Gold.Chemscore.Lipo.Weighted>
-9.4443

> <Gold.Chemscore.Internal_Hbond.Weighted>
0.0000

> <Gold.Chemscore.DEClash.Weighted>
0.0933

> <Gold.Chemscore.DEInternal.Weighted>
1.5414

> <Gold.Chemscore.Rot.Weighted>
2.5600

> <Gold.Chemscore.Internal.Correction.Weighted>
   9.000000E+99

> <Gold.Protein.RotatedTorsions>
[ 6907 6896 6895 6894 ] final  -78.82 input  -60.11 | X-H torsion
[ 7974 7965 7964 7962 ] final   95.65 input  175.53 | X-H torsion
[ 8008 7997 7996 7995 ] final   29.81 input   59.86 | X-H torsion
[ 10167 10162 10161 10158 ] final  102.78 input  -65.29 | X-H torsion
[ 10718 10713 10712 10709 ] final -149.44 input   66.30 | X-H torsion
[ 10763 10752 10751 10750 ] final   73.22 input  -60.55 | X-H torsion
[ 11005 11000 10999 10996 ] final  168.15 input  -57.11 | X-H torsion

> <Gold.Protein.ActiveResidues>
 VAL166  LYS551  ARG553  GLY616  TRP617  ASP618  TYR619  PRO620  LYS621  CYS622 
 ASP623  PHE694  ASN695  SER759  ASP760  ASP761  ALA762  ILE779  LEU786  VAL792 
 PHE793  MET794  SER795  GLU796  ALA797  LYS798  CYS799  TRP800  GLU811  SER814 

> <Gold.Protein.RotatedAtoms>
  150.6964  134.4215  159.5206 H   0  0  0  0  0  0  0  0  0  0  0  0  # atno 6907 bound_to 6896
  152.1957  134.8630  160.0522 H   0  0  0  0  0  0  0  0  0  0  0  0  # atno 6908 bound_to 6896
  151.9569  133.3648  159.4057 H   0  0  0  0  0  0  0  0  0  0  0  0  # atno 6909 bound_to 6896
  145.4494  139.2294  143.3048 H   0  0  0  0  0  0  0  0  0  0  0  0  # atno 7974 bound_to 7965
  155.0805  140.3209  155.4603 H   0  0  0  0  0  0  0  0  0  0  0  0  # atno 8008 bound_to 7997
  156.2768  140.2096  156.5878 H   0  0  0  0  0  0  0  0  0  0  0  0  # atno 8009 bound_to 7997
  154.6982  140.0509  157.0419 H   0  0  0  0  0  0  0  0  0  0  0  0  # atno 8010 bound_to 7997
  139.7320  144.7033  151.0707 H   0  0  0  0  0  0  0  0  0  0  0  0  # atno 10167 bound_to 10162
  156.4332  130.8085  151.2313 H   0  0  0  0  0  0  0  0  0  0  0  0  # atno 10718 bound_to 10713
  153.0508  135.5071  154.7862 H   0  0  0  0  0  0  0  0  0  0  0  0  # atno 10763 bound_to 10752
  154.6725  135.2955  154.9724 H   0  0  0  0  0  0  0  0  0  0  0  0  # atno 10764 bound_to 10752
  154.0538  135.6700  153.4856 H   0  0  0  0  0  0  0  0  0  0  0  0  # atno 10765 bound_to 10752
  140.2843  134.7725  157.3785 H   0  0  0  0  0  0  0  0  0  0  0  0  # atno 11005 bound_to 11000
  146.2513  140.5251  142.8892 LP  0  0  0  0  0  0  0  0  0  0  0  0  # atno 17320 bound_to 7965
  144.8071  140.6319  143.6440 LP  0  0  0  0  0  0  0  0  0  0  0  0  # atno 17321 bound_to 7965
  140.7773  143.5031  150.9746 LP  0  0  0  0  0  0  0  0  0  0  0  0  # atno 17342 bound_to 10162
  139.8720  143.7181  152.3165 LP  0  0  0  0  0  0  0  0  0  0  0  0  # atno 17343 bound_to 10162
  157.7508  131.0192  150.3656 LP  0  0  0  0  0  0  0  0  0  0  0  0  # atno 17370 bound_to 10713
  156.3998  130.3913  149.6968 LP  0  0  0  0  0  0  0  0  0  0  0  0  # atno 17371 bound_to 10713
  140.1254  134.5164  155.8149 LP  0  0  0  0  0  0  0  0  0  0  0  0  # atno 17394 bound_to 11000
  141.2157  133.6771  156.6943 LP  0  0  0  0  0  0  0  0  0  0  0  0  # atno 17395 bound_to 11000

$$$$
