AV-unprocessed.smi:16|AV-procd|sdf|95|dock7
  -GOLD-   2262015243D 1   1.00000     0.00000
 Structure written by MMmdl.
 59 63  0  0  0  0  0  0  0  0  1 V2000
  153.1358  138.3559  155.6506 C   0  0  0  0  0  0  0  0  0  0  0  0
  151.9531  138.5931  154.6985 C   0  0  0  0  0  0  0  0  0  0  0  0
  150.7752  139.1074  155.3962 N   0  0  0  0  0  0  0  0  0  0  0  0
  151.0218  140.5022  155.7698 C   0  0  0  0  0  0  0  0  0  0  0  0
  149.8499  141.0529  156.6000 C   0  0  0  0  0  0  0  0  0  0  0  0
  148.5235  140.9528  155.8368 C   0  0  1  0  0  0  0  0  0  0  0  0
  148.5249  141.8788  154.7524 O   0  0  0  0  0  0  0  0  0  0  0  0
  147.2899  141.8743  154.0448 C   0  0  0  0  0  0  0  0  0  0  0  0
  147.0424  140.4830  153.4408 C   0  0  0  0  0  0  0  0  0  0  0  0
  147.1211  139.4585  154.4820 N   0  0  0  0  0  0  0  0  0  0  0  0
  146.6496  138.2163  154.1925 C   0  0  0  0  0  0  0  0  0  0  0  0
  146.4541  137.3210  155.1983 N   0  0  0  0  0  0  0  0  0  0  0  0
  145.9860  136.0979  154.9364 C   0  0  0  0  0  0  0  0  0  0  0  0
  145.6534  135.5672  153.7591 N   0  0  0  0  0  0  0  0  0  0  0  0
  145.8487  136.4556  152.7432 C   0  0  0  0  0  0  0  0  0  0  0  0
  146.3434  137.7856  152.8690 C   0  0  0  0  0  0  0  0  0  0  0  0
  146.4376  138.3705  151.6112 N   0  0  0  0  0  0  0  0  0  0  0  0
  146.0173  137.4450  150.7930 C   0  0  0  0  0  0  0  0  0  0  0  0
  145.6200  136.2709  151.3906 N   0  0  0  0  0  0  0  0  0  0  0  0
  145.1719  135.0801  150.7297 C   0  0  0  0  0  0  0  0  0  0  0  0
  144.0190  134.2404  151.2904 C   0  0  0  0  0  0  0  0  0  0  0  0
  144.6893  132.9683  150.7210 C   0  0  0  0  0  0  0  0  0  0  0  0
  144.6197  131.6991  151.5926 C   0  0  0  0  0  0  0  0  0  0  0  0
  145.2149  131.8764  152.8622 O   0  0  0  0  0  0  0  0  0  0  0  0
  144.2038  132.5774  149.3118 C   0  0  0  0  0  0  0  0  0  0  0  0
  142.8673  132.1182  149.3304 O   0  0  0  0  0  0  0  0  0  0  0  0
  145.9980  133.7908  150.7681 C   0  0  0  0  0  0  0  0  0  0  0  0
  148.3323  139.5178  155.3042 C   0  0  1  0  0  0  0  0  0  0  0  0
  149.5884  139.0401  154.5377 C   0  0  0  0  0  0  0  0  0  0  0  0
  147.7085  141.2107  156.5156 H   0  0  0  0  0  0  0  0  0  0  0  0
  148.2114  138.8720  156.1722 H   0  0  0  0  0  0  0  0  0  0  0  0
  154.0324  138.1027  155.0849 H   0  0  0  0  0  0  0  0  0  0  0  0
  152.9533  137.5347  156.3429 H   0  0  0  0  0  0  0  0  0  0  0  0
  153.3582  139.2492  156.2349 H   0  0  0  0  0  0  0  0  0  0  0  0
  152.2708  139.3269  153.9563 H   0  0  0  0  0  0  0  0  0  0  0  0
  151.7072  137.6822  154.1507 H   0  0  0  0  0  0  0  0  0  0  0  0
  151.9348  140.5678  156.3628 H   0  0  0  0  0  0  0  0  0  0  0  0
  151.1764  141.1111  154.8775 H   0  0  0  0  0  0  0  0  0  0  0  0
  149.7746  140.4908  157.5319 H   0  0  0  0  0  0  0  0  0  0  0  0
  150.0423  142.0885  156.8810 H   0  0  0  0  0  0  0  0  0  0  0  0
  146.4748  142.1570  154.7127 H   0  0  0  0  0  0  0  0  0  0  0  0
  147.3288  142.6244  153.2551 H   0  0  0  0  0  0  0  0  0  0  0  0
  146.0588  140.4654  152.9694 H   0  0  0  0  0  0  0  0  0  0  0  0
  147.7764  140.2761  152.6612 H   0  0  0  0  0  0  0  0  0  0  0  0
  145.8595  135.4524  155.7928 H   0  0  0  0  0  0  0  0  0  0  0  0
  145.9868  137.5963  149.7237 H   0  0  0  0  0  0  0  0  0  0  0  0
  144.9680  135.3732  149.6985 H   0  0  0  0  0  0  0  0  0  0  0  0
  143.9801  134.2681  152.3806 H   0  0  0  0  0  0  0  0  0  0  0  0
  143.0435  134.4745  150.8630 H   0  0  0  0  0  0  0  0  0  0  0  0
  143.5850  131.3918  151.7486 H   0  0  0  0  0  0  0  0  0  0  0  0
  145.1266  130.8636  151.1092 H   0  0  0  0  0  0  0  0  0  0  0  0
  144.7707  131.3186  153.4823 H   0  0  0  0  0  0  0  0  0  0  0  0
  144.2742  133.4214  148.6248 H   0  0  0  0  0  0  0  0  0  0  0  0
  144.8199  131.7864  148.8841 H   0  0  0  0  0  0  0  0  0  0  0  0
  142.2943  132.8646  149.4188 H   0  0  0  0  0  0  0  0  0  0  0  0
  146.6595  133.6581  149.9115 H   0  0  0  0  0  0  0  0  0  0  0  0
  146.5499  133.6816  151.7032 H   0  0  0  0  0  0  0  0  0  0  0  0
  149.7487  139.6393  153.6403 H   0  0  0  0  0  0  0  0  0  0  0  0
  149.4259  138.0147  154.2089 H   0  0  0  0  0  0  0  0  0  0  0  0
  1  2  1  0  0  0  0
  1 32  1  0  0  0  0
  1 33  1  0  0  0  0
  1 34  1  0  0  0  0
  2  3  1  0  0  0  0
  2 35  1  0  0  0  0
  2 36  1  0  0  0  0
  3 29  1  0  0  0  0
  3  4  1  0  0  0  0
  4  5  1  0  0  0  0
  4 37  1  0  0  0  0
  4 38  1  0  0  0  0
  5  6  1  0  0  0  0
  5 39  1  0  0  0  0
  5 40  1  0  0  0  0
  6 30  1  0  0  0  0
  6 28  1  0  0  0  0
  6  7  1  0  0  0  0
  7  8  1  0  0  0  0
  8  9  1  0  0  0  0
  8 41  1  0  0  0  0
  8 42  1  0  0  0  0
  9 10  1  0  0  0  0
  9 43  1  0  0  0  0
  9 44  1  0  0  0  0
 10 11  1  0  0  0  0
 10 28  1  0  0  0  0
 11 16  1  0  0  0  0
 11 12  2  0  0  0  0
 12 13  1  0  0  0  0
 13 14  2  0  0  0  0
 13 45  1  0  0  0  0
 14 15  1  0  0  0  0
 15 19  1  0  0  0  0
 15 16  2  0  0  0  0
 16 17  1  0  0  0  0
 17 18  2  0  0  0  0
 18 19  1  0  0  0  0
 18 46  1  0  0  0  0
 19 20  1  0  0  0  0
 20 27  1  0  0  0  0
 20 21  1  0  0  0  0
 20 47  1  0  0  0  0
 21 22  1  0  0  0  0
 21 48  1  0  0  0  0
 21 49  1  0  0  0  0
 22 23  1  0  0  0  0
 22 25  1  0  0  0  0
 22 27  1  0  0  0  0
 23 24  1  0  0  0  0
 23 50  1  0  0  0  0
 23 51  1  0  0  0  0
 24 52  1  0  0  0  0
 25 26  1  0  0  0  0
 25 53  1  0  0  0  0
 25 54  1  0  0  0  0
 26 55  1  0  0  0  0
 27 56  1  0  0  0  0
 27 57  1  0  0  0  0
 28 31  1  0  0  0  0
 28 29  1  0  0  0  0
 29 58  1  0  0  0  0
 29 59  1  0  0  0  0
M  END
> <s_m_source_file>
AV-unprocessed.smi

> <i_m_source_file_index>
16

> <i_lp_mmshare_version>
43012

> <i_f3d_flags>
0

> <s_epik_input>
W0NIM11bQ0gyXU4oW0NIMl1bQ0gyXTEpW0NIMl1bQ0BASF0oW0NAQEhdMTIpTihbQ0gyXVtDSDJdTzIpYyhuW2NIXW4zKWMoYzM0KW5bY0hdbjRbQ0hdKFtDSDJdNSlbQ0gyXUM1KFtDSDJdW09IXSlbQ0gyXVtPSF0=

> <s_epik_cmdline>
J2VwaWtfcHl0aG9uJywgJy1waCcsICc3LjAnLCAnLXRuJywgJzgnLCAnLW1hJywgJzIwMCcsICctbWV0YWxfYmluZGluZycsICctaW1hZScsICc8aW5maWxlLm1hZT4nLCAnLW9tYWUnLCAnPG91dGZpbGUubWFlPic=

> <r_lp_tautomer_probability>
1

> <r_epik_Ionization_Penalty>
2.27341

> <r_epik_Ionization_Penalty_Charging>
0

> <r_epik_Ionization_Penalty_Neutral>
2.27341

> <r_epik_State_Penalty>
2.41121

> <r_epik_Charging_Adjusted_Penalty>
2.41121

> <i_epik_Tot_Q>
0

> <i_epik_Tot_abs_Q>
0

> <r_epik_Metal_State_Penalty>
2.40177

> <b_epik_Metal_Only>
0

> <s_lp_Force_Field>
OPLS_2005

> <r_lp_Energy>
57.2914

> <b_lp_Chiralities_Consistent>
1

> <s_lp_Variant>
AV-unprocessed.smi:16-9

> <Gold.Version>
5.8.1

> <Gold.Id.Protein>
6NUR|6NUR_protein|mol2

> <Gold.PLP.Fitness>
50.8815

> <Gold.PLP.PLP>
-44.8636

> <Gold.PLP.part.hbond>
-3.1136

> <Gold.PLP.part.metal>
0.0000

> <Gold.PLP.part.buried>
-2.6984

> <Gold.PLP.part.nonpolar>
-42.0406

> <Gold.PLP.part.repulsive>
1.5876

> <Gold.PLP.ligand.clash>
0.0000

> <Gold.PLP.ligand.torsion>
0.7652

> <Gold.PLP.Chemscore.Hbond>
1.8850

> <Gold.PLP.Chemscore.CHOScore>
0.3221

> <Gold.PLP.Chemscore.Metal>
0.0000

> <Gold.Chemscore.Hbonds>
donor molecule, donor type, donor heavy atom, donor atom, acceptor molecule, acceptor atom, score
      L1  H    26    55       P1 10186  1.00
      P1  H 10785 10796       L1    26  0.82
      L1  C    18    46       P1 10171  0.28

> <Gold.PLP.Chemscore.Internal.Correction>
0.9269

> <Gold.Rescore>
     Score         DG    S(hbond)    S(metal)    S(lipo)     H(rot)  DE(clash)    DE(int)     intcor
      9.14     -13.35       1.13        0.00     106.83       3.28       2.19       2.02       ----

> <Gold.Chemscore.Fitness>
9.1358

> <Gold.Chemscore.DG>
-13.3503

> <Gold.Chemscore.ZeroCoef>
-5.4800

> <Gold.Chemscore.Hbond>
1.1263

> <Gold.Chemscore.Metal>
0.0000

> <Gold.Chemscore.Lipo>
106.8315

> <Gold.Chemscore.Internal_Hbond>
0.0000

> <Gold.Chemscore.DEClash>
2.1943

> <Gold.Chemscore.DEInternal>
2.0202

> <Gold.Chemscore.Rot>
3.2776

> <Gold.Chemscore.Internal.Correction>
   9.000000E+99

> <Gold.Chemscore.Hbonds>
donor molecule, donor type, donor heavy atom, donor atom, acceptor molecule, acceptor atom, score
      L1  H    26    55       P1 10186  0.94
      P1  H 10785 10796       L1    26  0.18

> <Gold.Chemscore.Hbond.Weighted>
-3.7617

> <Gold.Chemscore.Metal.Weighted>
-0.0000

> <Gold.Chemscore.Lipo.Weighted>
-12.4993

> <Gold.Chemscore.Internal_Hbond.Weighted>
0.0000

> <Gold.Chemscore.DEClash.Weighted>
2.1943

> <Gold.Chemscore.DEInternal.Weighted>
2.0202

> <Gold.Chemscore.Rot.Weighted>
8.3907

> <Gold.Chemscore.Internal.Correction.Weighted>
   9.000000E+99

> <Gold.Protein.RotatedTorsions>
[ 6907 6896 6895 6894 ] final -146.78 input  -60.11 | X-H torsion
[ 7974 7965 7964 7962 ] final -177.74 input  175.53 | X-H torsion
[ 8008 7997 7996 7995 ] final  -75.98 input   59.86 | X-H torsion
[ 10167 10162 10161 10158 ] final   22.40 input  -65.29 | X-H torsion
[ 10718 10713 10712 10709 ] final -157.15 input   66.30 | X-H torsion
[ 10763 10752 10751 10750 ] final  120.79 input  -60.55 | X-H torsion
[ 11005 11000 10999 10996 ] final   76.91 input  -57.11 | X-H torsion

> <Gold.Protein.ActiveResidues>
 VAL166  LYS551  ARG553  GLY616  TRP617  ASP618  TYR619  PRO620  LYS621  CYS622 
 ASP623  PHE694  ASN695  SER759  ASP760  ASP761  ALA762  ILE779  LEU786  VAL792 
 PHE793  MET794  SER795  GLU796  ALA797  LYS798  CYS799  TRP800  GLU811  SER814 

> <Gold.Protein.RotatedAtoms>
  151.1464  133.4937  159.2595 H   0  0  0  0  0  0  0  0  0  0  0  0  # atno 6907 bound_to 6896
  151.1600  135.0268  159.8716 H   0  0  0  0  0  0  0  0  0  0  0  0  # atno 6908 bound_to 6896
  152.5463  134.1339  159.8503 H   0  0  0  0  0  0  0  0  0  0  0  0  # atno 6909 bound_to 6896
  144.7128  140.0973  143.6418 H   0  0  0  0  0  0  0  0  0  0  0  0  # atno 7974 bound_to 7965
  154.5465  140.0735  156.8597 H   0  0  0  0  0  0  0  0  0  0  0  0  # atno 8008 bound_to 7997
  155.3077  140.3388  155.4227 H   0  0  0  0  0  0  0  0  0  0  0  0  # atno 8009 bound_to 7997
  156.1923  140.1690  156.8054 H   0  0  0  0  0  0  0  0  0  0  0  0  # atno 8010 bound_to 7997
  140.5352  143.9773  150.6487 H   0  0  0  0  0  0  0  0  0  0  0  0  # atno 10167 bound_to 10162
  156.5364  130.8543  151.2734 H   0  0  0  0  0  0  0  0  0  0  0  0  # atno 10718 bound_to 10713
  153.6041  135.3442  155.2955 H   0  0  0  0  0  0  0  0  0  0  0  0  # atno 10763 bound_to 10752
  154.8631  135.4234  154.2381 H   0  0  0  0  0  0  0  0  0  0  0  0  # atno 10764 bound_to 10752
  153.3216  135.7038  153.7097 H   0  0  0  0  0  0  0  0  0  0  0  0  # atno 10765 bound_to 10752
  139.9277  134.7640  156.1455 H   0  0  0  0  0  0  0  0  0  0  0  0  # atno 11005 bound_to 11000
  145.9568  139.2772  143.1179 LP  0  0  0  0  0  0  0  0  0  0  0  0  # atno 17320 bound_to 7965
  145.9264  140.9079  143.0379 LP  0  0  0  0  0  0  0  0  0  0  0  0  # atno 17321 bound_to 7965
  140.3159  143.3168  152.0833 LP  0  0  0  0  0  0  0  0  0  0  0  0  # atno 17342 bound_to 10162
  139.4968  144.6606  151.6474 LP  0  0  0  0  0  0  0  0  0  0  0  0  # atno 17343 bound_to 10162
  157.7413  130.9867  150.2435 LP  0  0  0  0  0  0  0  0  0  0  0  0  # atno 17370 bound_to 10713
  156.3012  130.3759  149.7748 LP  0  0  0  0  0  0  0  0  0  0  0  0  # atno 17371 bound_to 10713
  141.0846  133.6739  156.2409 LP  0  0  0  0  0  0  0  0  0  0  0  0  # atno 17394 bound_to 11000
  140.6289  134.5285  157.5557 LP  0  0  0  0  0  0  0  0  0  0  0  0  # atno 17395 bound_to 11000

$$$$
