AV-unprocessed.smi:2234|AV-procd|sdf|9042|dock3
  -GOLD-   2272012253D 1   1.00000     0.00000
 Structure written by MMmdl.
 21 22  0  0  0  0  0  0  0  0  2 V2000
  151.0604  140.0750  155.2963 O   0  0  0  0  0  0  0  0  0  0  0  0
  152.1632  139.6613  155.7188 C   0  0  0  0  0  0  0  0  0  0  0  0
  153.1071  139.2635  155.0010 O   0  5  0  0  0  0  0  0  0  0  0  0
  152.3632  139.6116  157.2392 C   0  0  2  0  0  0  0  0  0  0  0  0
  152.2426  140.9673  157.9106 C   0  0  0  0  0  0  0  0  0  0  0  0
  153.1794  140.7833  159.0587 C   0  0  0  0  0  0  0  0  0  0  0  0
  153.1671  141.6087  160.2909 C   0  0  0  0  0  0  0  0  0  0  0  0
  152.2734  142.6944  160.4267 C   0  0  0  0  0  0  0  0  0  0  0  0
  152.2994  143.4544  161.6122 C   0  0  0  0  0  0  0  0  0  0  0  0
  153.2211  143.1004  162.6167 C   0  0  0  0  0  0  0  0  0  0  0  0
  154.0834  142.0685  162.5005 N   0  0  0  0  0  0  0  0  0  0  0  0
  154.0539  141.3435  161.3609 C   0  0  0  0  0  0  0  0  0  0  0  0
  153.9674  139.8109  158.8587 N   0  0  0  0  0  0  0  0  0  0  0  0
  153.6831  139.2236  157.6008 O   0  0  0  0  0  0  0  0  0  0  0  0
  151.6565  138.9035  157.6763 H   0  0  0  0  0  0  0  0  0  0  0  0
  152.5880  141.7912  157.2837 H   0  0  0  0  0  0  0  0  0  0  0  0
  151.2246  141.1654  158.2466 H   0  0  0  0  0  0  0  0  0  0  0  0
  151.5774  142.9537  159.6425 H   0  0  0  0  0  0  0  0  0  0  0  0
  151.6290  144.2903  161.7471 H   0  0  0  0  0  0  0  0  0  0  0  0
  153.2682  143.6625  163.5378 H   0  0  0  0  0  0  0  0  0  0  0  0
  154.7616  140.5289  161.3130 H   0  0  0  0  0  0  0  0  0  0  0  0
  1  2  2  0  0  0  0
  2  3  1  0  0  0  0
  2  4  1  0  0  0  0
  4 14  1  0  0  0  0
  4  5  1  0  0  0  0
  4 15  1  0  0  0  0
  5  6  1  0  0  0  0
  5 16  1  0  0  0  0
  5 17  1  0  0  0  0
  6  7  1  0  0  0  0
  6 13  2  0  0  0  0
  7 12  1  0  0  0  0
  7  8  2  0  0  0  0
  8  9  1  0  0  0  0
  8 18  1  0  0  0  0
  9 10  2  0  0  0  0
  9 19  1  0  0  0  0
 10 11  1  0  0  0  0
 10 20  1  0  0  0  0
 11 12  2  0  0  0  0
 12 21  1  0  0  0  0
 13 14  1  0  0  0  0
M  CHG  1   3  -1
M  END
> <s_m_source_file>
AV-unprocessed.smi

> <i_m_source_file_index>
2234

> <i_lp_mmshare_version>
43012

> <i_f3d_flags>
0

> <s_epik_input>
Tz1DKFtPSF0pW0NAQEhdMVtDSDJdQyg9Tk8xKWMyW2NIXVtjSF1bY0hdbltjSF0y

> <s_epik_cmdline>
J2VwaWtfcHl0aG9uJywgJy1waCcsICc3LjAnLCAnLXRuJywgJzgnLCAnLW1hJywgJzIwMCcsICctbWV0YWxfYmluZGluZycsICctaW1hZScsICc8aW5maWxlLm1hZT4nLCAnLW9tYWUnLCAnPG91dGZpbGUubWFlPic=

> <r_lp_tautomer_probability>
1

> <r_epik_Ionization_Penalty>
0.000239258

> <r_epik_Ionization_Penalty_Charging>
3.09051e-05

> <r_epik_Ionization_Penalty_Neutral>
0.000208353

> <r_epik_State_Penalty>
-0

> <r_epik_Charging_Adjusted_Penalty>
3.09051e-05

> <i_epik_Tot_Q>
-1

> <i_epik_Tot_abs_Q>
1

> <r_epik_Metal_State_Penalty>
-0

> <b_epik_Metal_Only>
0

> <s_epik_Chemistry_Notes>
This compound has an imine and may undergo hydrolysis.

> <s_lp_Force_Field>
OPLS_2005

> <r_lp_Energy>
16.9969

> <b_lp_Chiralities_Consistent>
1

> <s_lp_Variant>
AV-unprocessed.smi:2234-1

> <Gold.Version>
5.8.1

> <Gold.Id.Protein>
6NUR|6NUR_protein|mol2

> <Gold.PLP.Fitness>
42.3533

> <Gold.PLP.PLP>
-33.3835

> <Gold.PLP.part.hbond>
-5.0203

> <Gold.PLP.part.metal>
0.0000

> <Gold.PLP.part.buried>
-4.3642

> <Gold.PLP.part.nonpolar>
-23.6828

> <Gold.PLP.part.repulsive>
0.0630

> <Gold.PLP.ligand.clash>
0.0000

> <Gold.PLP.ligand.torsion>
0.0293

> <Gold.PLP.Chemscore.Hbond>
3.0000

> <Gold.PLP.Chemscore.CHOScore>
0.0000

> <Gold.PLP.Chemscore.Metal>
0.0000

> <Gold.Chemscore.Hbonds>
donor molecule, donor type, donor heavy atom, donor atom, acceptor molecule, acceptor atom, score
      P1  H  7989  7998       L1     1  0.96
      P1  H  7997  8009       L1     3  2.00

> <Gold.PLP.Chemscore.Internal.Correction>
0.0285

> <Gold.Rescore>
     Score         DG    S(hbond)    S(metal)    S(lipo)     H(rot)  DE(clash)    DE(int)     intcor
     15.67     -17.13       1.56        0.00      76.98       1.00       1.43       0.03       ----

> <Gold.Chemscore.Fitness>
15.6705

> <Gold.Chemscore.DG>
-17.1298

> <Gold.Chemscore.ZeroCoef>
-5.4800

> <Gold.Chemscore.Hbond>
1.5579

> <Gold.Chemscore.Metal>
0.0000

> <Gold.Chemscore.Lipo>
76.9784

> <Gold.Chemscore.Internal_Hbond>
0.0000

> <Gold.Chemscore.DEClash>
1.4280

> <Gold.Chemscore.DEInternal>
0.0314

> <Gold.Chemscore.Rot>
1.0000

> <Gold.Chemscore.Internal.Correction>
   9.000000E+99

> <Gold.Chemscore.Hbonds>
donor molecule, donor type, donor heavy atom, donor atom, acceptor molecule, acceptor atom, score
      P1  H  7989  7998       L1     1  0.23
      P1  H  7997  8009       L1     3  0.47

> <Gold.Chemscore.Hbond.Weighted>
-5.2033

> <Gold.Chemscore.Metal.Weighted>
-0.0000

> <Gold.Chemscore.Lipo.Weighted>
-9.0065

> <Gold.Chemscore.Internal_Hbond.Weighted>
0.0000

> <Gold.Chemscore.DEClash.Weighted>
1.4280

> <Gold.Chemscore.DEInternal.Weighted>
0.0314

> <Gold.Chemscore.Rot.Weighted>
2.5600

> <Gold.Chemscore.Internal.Correction.Weighted>
   9.000000E+99

> <Gold.Protein.RotatedTorsions>
[ 6907 6896 6895 6894 ] final -115.30 input  -60.11 | X-H torsion
[ 7974 7965 7964 7962 ] final   73.43 input  175.53 | X-H torsion
[ 8008 7997 7996 7995 ] final -115.80 input   59.86 | X-H torsion
[ 10167 10162 10161 10158 ] final  -60.65 input  -65.29 | X-H torsion
[ 10718 10713 10712 10709 ] final  161.15 input   66.30 | X-H torsion
[ 10763 10752 10751 10750 ] final  -75.28 input  -60.55 | X-H torsion
[ 11005 11000 10999 10996 ] final -162.12 input  -57.11 | X-H torsion

> <Gold.Protein.ActiveResidues>
 VAL166  LYS551  ARG553  GLY616  TRP617  ASP618  TYR619  PRO620  LYS621  CYS622 
 ASP623  PHE694  ASN695  SER759  ASP760  ASP761  ALA762  ILE779  LEU786  VAL792 
 PHE793  MET794  SER795  GLU796  ALA797  LYS798  CYS799  TRP800  GLU811  SER814 

> <Gold.Protein.RotatedAtoms>
  150.7967  133.8678  159.3249 H   0  0  0  0  0  0  0  0  0  0  0  0  # atno 6907 bound_to 6896
  151.6501  135.1001  160.0168 H   0  0  0  0  0  0  0  0  0  0  0  0  # atno 6908 bound_to 6896
  152.4050  133.6836  159.6384 H   0  0  0  0  0  0  0  0  0  0  0  0  # atno 6909 bound_to 6896
  145.7410  139.2721  143.1486 H   0  0  0  0  0  0  0  0  0  0  0  0  # atno 7974 bound_to 7965
  155.0577  140.0393  157.2566 H   0  0  0  0  0  0  0  0  0  0  0  0  # atno 8008 bound_to 7997
  154.7085  140.2688  155.6627 H   0  0  0  0  0  0  0  0  0  0  0  0  # atno 8009 bound_to 7997
  156.2782  140.2726  156.1719 H   0  0  0  0  0  0  0  0  0  0  0  0  # atno 8010 bound_to 7997
  140.6057  143.2373  151.5826 H   0  0  0  0  0  0  0  0  0  0  0  0  # atno 10167 bound_to 10162
  157.1406  131.0539  151.2328 H   0  0  0  0  0  0  0  0  0  0  0  0  # atno 10718 bound_to 10713
  154.4844  135.5836  153.6413 H   0  0  0  0  0  0  0  0  0  0  0  0  # atno 10763 bound_to 10752
  152.9852  135.6097  154.3205 H   0  0  0  0  0  0  0  0  0  0  0  0  # atno 10764 bound_to 10752
  154.3099  135.2845  155.2550 H   0  0  0  0  0  0  0  0  0  0  0  0  # atno 10765 bound_to 10752
  140.6128  134.4831  157.5217 H   0  0  0  0  0  0  0  0  0  0  0  0  # atno 11005 bound_to 11000
  146.0448  140.8129  142.9811 LP  0  0  0  0  0  0  0  0  0  0  0  0  # atno 17320 bound_to 7965
  144.6870  140.2964  143.7270 LP  0  0  0  0  0  0  0  0  0  0  0  0  # atno 17321 bound_to 7965
  139.5323  144.2880  152.1175 LP  0  0  0  0  0  0  0  0  0  0  0  0  # atno 17342 bound_to 10162
  140.2069  144.4602  150.6404 LP  0  0  0  0  0  0  0  0  0  0  0  0  # atno 17343 bound_to 10162
  157.4311  130.7491  149.6990 LP  0  0  0  0  0  0  0  0  0  0  0  0  # atno 17370 bound_to 10713
  155.9789  130.4046  150.3618 LP  0  0  0  0  0  0  0  0  0  0  0  0  # atno 17371 bound_to 10713
  139.9185  134.8197  156.1287 LP  0  0  0  0  0  0  0  0  0  0  0  0  # atno 17394 bound_to 11000
  141.0796  133.6760  156.2309 LP  0  0  0  0  0  0  0  0  0  0  0  0  # atno 17395 bound_to 11000

$$$$
