#       Name:                AV-unprocessed.smi:82
#       Creating user name   scv26
#       Creation time:       Thu Mar 26 17:17:14 2020


#       File generated by GOLD software.
#

@<TRIPOS>MOLECULE
AV-unprocessed.smi:82
    69    72     1
SMALL
NO_CHARGES


@<TRIPOS>ATOM
      1 ****        -5.8815   0.5792   5.5012 C.3            1 S1                 0.0000
      2 ****        -4.9942   1.2995   4.6634 O.3            1 S1                 0.0000
      3 ****        -3.6324   1.0402   4.9621 C.3            1 S1                 0.0000
      4 ****        -2.7526   1.8934   4.0356 C.3            1 S1                 0.0000
      5 ****        -2.9078   1.5138   2.6026 N.4            1 S1                 1.0000
      6 ****        -2.1309   0.2809   2.2867 C.3            1 S1                 0.0000
      7 ****        -2.3170  -0.1643   0.8298 C.3            1 S1                 0.0000
      8 ****        -1.9700   0.9221  -0.0749 N.3            1 S1                 0.0000
      9 ****        -0.6620   1.0139  -0.4354 C.ar           1 S1                 0.0000
     10 ****         0.0319   2.1554  -0.1815 N.ar           1 S1                 0.0000
     11 ****         1.3205   2.2548  -0.5195 C.ar           1 S1                 0.0000
     12 ****         2.0979   1.3492  -1.1145 N.ar           1 S1                 0.0000
     13 ****         1.4083   0.2041  -1.3853 C.ar           1 S1                 0.0000
     14 ****         0.0388  -0.0443  -1.0827 C.ar           1 S1                 0.0000
     15 ****        -0.3179  -1.3133  -1.5234 N.2            1 S1                 0.0000
     16 ****         0.7772  -1.7896  -2.0494 C.2            1 S1                 0.0000
     17 ****         1.8659  -0.9477  -2.0039 N.pl3          1 S1                 0.0000
     18 ****         3.1784  -1.2139  -2.5218 C.3            1 S1                 0.0000
     19 ****         3.3836  -1.5026  -4.0107 C.3            1 S1                 0.0000
     20 ****         4.4725  -2.5459  -3.6709 C.3            1 S1                 0.0000
     21 ****         4.3320  -3.8760  -4.4274 C.3            1 S1                 0.0000
     22 ****         5.0539  -4.9114  -3.7917 O.3            1 S1                 0.0000
     23 ****         5.9365  -2.0808  -3.8350 C.3            1 S1                 0.0000
     24 ****         6.1975  -0.8332  -3.2247 O.3            1 S1                 0.0000
     25 ****         3.8887  -2.5407  -2.2398 C.3            1 S1                 0.0000
     26 ****        -2.7341   2.1413   0.1699 C.3            1 S1                 0.0000
     27 ****        -2.6353   2.6279   1.6376 C.3            1 S1                 0.0000
     28 ****        -3.6022   3.8174   1.8094 C.3            1 S1                 0.0000
     29 ****        -6.9115   0.8055   5.2253 H              1 S1                 0.0000
     30 ****        -5.7460   0.8537   6.5482 H              1 S1                 0.0000
     31 ****        -5.7347  -0.4968   5.3988 H              1 S1                 0.0000
     32 ****        -3.4307   1.3127   5.9992 H              1 S1                 0.0000
     33 ****        -3.4115  -0.0228   4.8652 H              1 S1                 0.0000
     34 ****        -3.0190   2.9315   4.2147 H              1 S1                 0.0000
     35 ****        -1.7040   1.8090   4.3249 H              1 S1                 0.0000
     36 ****        -1.0719   0.4631   2.4777 H              1 S1                 0.0000
     37 ****        -2.4301  -0.5367   2.9411 H              1 S1                 0.0000
     38 ****        -1.7248  -1.0586   0.6406 H              1 S1                 0.0000
     39 ****        -3.3566  -0.4437   0.6551 H              1 S1                 0.0000
     40 ****         1.7971   3.1937  -0.2781 H              1 S1                 0.0000
     41 ****         0.8186  -2.7744  -2.4919 H              1 S1                 0.0000
     42 ****         3.8125  -0.3833  -2.2101 H              1 S1                 0.0000
     43 ****         2.4997  -1.9436  -4.4741 H              1 S1                 0.0000
     44 ****         3.7330  -0.6455  -4.5875 H              1 S1                 0.0000
     45 ****         3.2875  -4.1863  -4.4786 H              1 S1                 0.0000
     46 ****         4.6767  -3.7843  -5.4580 H              1 S1                 0.0000
     47 ****         5.9695  -4.6777  -3.7803 H              1 S1                 0.0000
     48 ****         6.6277  -2.8040  -3.4020 H              1 S1                 0.0000
     49 ****         6.1970  -1.9929  -4.8903 H              1 S1                 0.0000
     50 ****         7.1056  -0.6123  -3.3654 H              1 S1                 0.0000
     51 ****         4.6336  -2.4884  -1.4450 H              1 S1                 0.0000
     52 ****         3.1959  -3.3652  -2.0650 H              1 S1                 0.0000
     53 ****        -2.4273   2.9285  -0.5204 H              1 S1                 0.0000
     54 ****        -3.7757   1.9259  -0.0718 H              1 S1                 0.0000
     55 ****        -1.6199   2.9816   1.8202 H              1 S1                 0.0000
     56 ****        -3.4834   4.5312   0.9937 H              1 S1                 0.0000
     57 ****        -3.4284   4.3794   2.7251 H              1 S1                 0.0000
     58 ****        -4.6417   3.4875   1.8057 H              1 S1                 0.0000
     59 ****        -3.8825   1.2812   2.4752 H              1 S1                 0.0000
     60 ****        -5.1671   2.2777   4.7792 LP             1 S1                 0.0000
     61 ****        -5.1689   1.0404   3.7135 LP             1 S1                 0.0000
     62 ****        -2.3134   0.6533  -0.9748 LP             1 S1                 0.0000
     63 ****        -0.4258   2.9263   0.2616 LP             1 S1                 0.0000
     64 ****         3.0631   1.4916  -1.3340 LP             1 S1                 0.0000
     65 ****        -1.2101  -1.7594  -1.4533 LP             1 S1                 0.0000
     66 ****         4.9307  -5.7664  -4.2955 LP             1 S1                 0.0000
     67 ****         4.7238  -5.0260  -2.8547 LP             1 S1                 0.0000
     68 ****         6.0136  -0.8931  -2.2436 LP             1 S1                 0.0000
     69 ****         5.6132  -0.1307  -3.6310 LP             1 S1                 0.0000
@<TRIPOS>BOND
    1    1    2 1     
    2    1   29 1     
    3    1   30 1     
    4    1   31 1     
    5    2    3 1     
    6    3    4 1     
    7    3   32 1     
    8    3   33 1     
    9    4    5 1     
   10    4   34 1     
   11    4   35 1     
   12    5   27 1     
   13    5    6 1     
   14    5   59 1     
   15    6    7 1     
   16    6   36 1     
   17    6   37 1     
   18    7    8 1     
   19    7   38 1     
   20    7   39 1     
   21    8    9 1     
   22    8   26 1     
   23    9   14 ar    
   24    9   10 ar    
   25   10   11 ar    
   26   11   12 ar    
   27   11   40 1     
   28   12   13 ar    
   29   13   17 1     
   30   13   14 ar    
   31   14   15 1     
   32   15   16 2     
   33   16   17 1     
   34   16   41 1     
   35   17   18 1     
   36   18   25 1     
   37   18   19 1     
   38   18   42 1     
   39   19   20 1     
   40   19   43 1     
   41   19   44 1     
   42   20   21 1     
   43   20   23 1     
   44   20   25 1     
   45   21   22 1     
   46   21   45 1     
   47   21   46 1     
   48   22   47 1     
   49   23   24 1     
   50   23   48 1     
   51   23   49 1     
   52   24   50 1     
   53   25   51 1     
   54   25   52 1     
   55   26   27 1     
   56   26   53 1     
   57   26   54 1     
   58   27   28 1     
   59   27   55 1     
   60   28   56 1     
   61   28   57 1     
   62   28   58 1     
   63    2   60 1     
   64    2   61 1     
   65    8   62 1     
   66   10   63 1     
   67   12   64 1     
   68   15   65 1     
   69   22   66 1     
   70   22   67 1     
   71   24   68 1     
   72   24   69 1     
@<TRIPOS>SUBSTRUCTURE
      1 S1             1
@<TRIPOS>SET
LONE_PAIRS      STATIC     ATOMS    <user>   **** ""
10 60 61 62 63 64 65 66 67 68 69
DONOR_HYDROGENS      STATIC     ATOMS    <user>   **** ""
3 59 47 50
ATOM$BLUE        STATIC     ATOMS    COLORGROUP SYSTEM
10 60 61 62 63 64 65 66 67 68 69
ATOM$RED        STATIC     ATOMS    COLORGROUP SYSTEM
3 59 47 50
