AV-unprocessed.smi:743|AV-procd|sdf|3565|dock5
  -GOLD-   22720 0563D 1   1.00000     0.00000
 Structure written by MMmdl.
 28 29  0  0  0  0  0  0  0  0  1 V2000
  148.7492  141.0333  153.9991 C   0  0  0  0  0  0  0  0  0  0  0  0
  149.6882  141.0355  155.1004 N   0  0  0  0  0  0  0  0  0  0  0  0
  149.6197  141.7346  156.2855 C   0  0  0  0  0  0  0  0  0  0  0  0
  150.7356  141.4253  157.0143 C   0  0  0  0  0  0  0  0  0  0  0  0
  151.1521  141.9115  158.3830 C   0  0  1  0  0  0  0  0  0  0  0  0
  152.3425  141.1921  158.8482 N   0  0  0  0  0  0  0  0  0  0  0  0
  153.3798  141.6973  159.5395 C   0  0  0  0  0  0  0  0  0  0  0  0
  154.3056  140.9839  159.9190 O   0  0  0  0  0  0  0  0  0  0  0  0
  153.4204  143.2041  159.8315 C   0  0  0  0  0  0  0  0  0  0  0  0
  152.0522  143.8866  159.6883 C   0  0  0  0  0  0  0  0  0  0  0  0
  151.3641  143.4445  158.3919 C   0  0  2  0  0  0  0  0  0  0  0  0
  150.1020  144.1469  158.2439 N   0  0  0  0  0  0  0  0  0  0  0  0
  151.4301  140.5112  156.1700 C   0  0  0  0  0  0  0  0  0  0  0  0
  150.8043  140.2829  155.0271 N   0  0  0  0  0  0  0  0  0  0  0  0
  152.0009  143.7246  157.5515 H   0  0  0  0  0  0  0  0  0  0  0  0
  147.7727  141.3768  154.3420 H   0  0  0  0  0  0  0  0  0  0  0  0
  148.6462  140.0254  153.5953 H   0  0  0  0  0  0  0  0  0  0  0  0
  149.1054  141.7001  153.2135 H   0  0  0  0  0  0  0  0  0  0  0  0
  148.7901  142.3886  156.5114 H   0  0  0  0  0  0  0  0  0  0  0  0
  150.3729  141.6708  159.1081 H   0  0  0  0  0  0  0  0  0  0  0  0
  152.3613  140.2007  158.6572 H   0  0  0  0  0  0  0  0  0  0  0  0
  153.8183  143.3713  160.8330 H   0  0  0  0  0  0  0  0  0  0  0  0
  154.1271  143.6561  159.1348 H   0  0  0  0  0  0  0  0  0  0  0  0
  151.4276  143.6419  160.5491 H   0  0  0  0  0  0  0  0  0  0  0  0
  152.1848  144.9691  159.6981 H   0  0  0  0  0  0  0  0  0  0  0  0
  149.7588  144.0339  157.3007 H   0  0  0  0  0  0  0  0  0  0  0  0
  149.4101  143.7319  158.8515 H   0  0  0  0  0  0  0  0  0  0  0  0
  152.3689  140.0102  156.3547 H   0  0  0  0  0  0  0  0  0  0  0  0
  1  2  1  0  0  0  0
  1 16  1  0  0  0  0
  1 17  1  0  0  0  0
  1 18  1  0  0  0  0
  2 14  1  0  0  0  0
  2  3  1  0  0  0  0
  3  4  2  0  0  0  0
  3 19  1  0  0  0  0
  4  5  1  0  0  0  0
  4 13  1  0  0  0  0
  5 11  1  0  0  0  0
  5  6  1  0  0  0  0
  5 20  1  0  0  0  0
  6  7  1  0  0  0  0
  6 21  1  0  0  0  0
  7  8  2  0  0  0  0
  7  9  1  0  0  0  0
  9 10  1  0  0  0  0
  9 22  1  0  0  0  0
  9 23  1  0  0  0  0
 10 11  1  0  0  0  0
 10 24  1  0  0  0  0
 10 25  1  0  0  0  0
 11 15  1  0  0  0  0
 11 12  1  0  0  0  0
 12 26  1  0  0  0  0
 12 27  1  0  0  0  0
 13 14  2  0  0  0  0
 13 28  1  0  0  0  0
M  END
> <s_m_source_file>
AV-unprocessed.smi

> <i_m_source_file_index>
743

> <i_lp_mmshare_version>
43012

> <i_f3d_flags>
0

> <s_epik_input>
W0NIM11uMVtjSF1jKFtjSF1uMSlbQ0BASF0yW05IXUMoPU8pW0NIMl1bQ0gyXVtDQEBIXTJbTkgyXQ==

> <s_epik_cmdline>
J2VwaWtfcHl0aG9uJywgJy1waCcsICc3LjAnLCAnLXRuJywgJzgnLCAnLW1hJywgJzIwMCcsICctbWV0YWxfYmluZGluZycsICctaW1hZScsICc8aW5maWxlLm1hZT4nLCAnLW9tYWUnLCAnPG91dGZpbGUubWFlPic=

> <r_lp_tautomer_probability>
1

> <r_epik_Ionization_Penalty>
2.50279

> <r_epik_Ionization_Penalty_Charging>
0

> <r_epik_Ionization_Penalty_Neutral>
2.50279

> <r_epik_State_Penalty>
2.66754

> <r_epik_Charging_Adjusted_Penalty>
2.66754

> <i_epik_Tot_Q>
0

> <i_epik_Tot_abs_Q>
0

> <r_epik_Metal_State_Penalty>
2.66721

> <b_epik_Metal_Only>
0

> <s_lp_Force_Field>
OPLS_2005

> <r_lp_Energy>
8.34042

> <b_lp_Chiralities_Consistent>
1

> <s_lp_Variant>
AV-unprocessed.smi:743-6

> <Gold.Version>
5.8.1

> <Gold.Id.Protein>
6NUR|6NUR_protein|mol2

> <Gold.PLP.Fitness>
39.1134

> <Gold.PLP.PLP>
-30.9497

> <Gold.PLP.part.hbond>
-3.0000

> <Gold.PLP.part.metal>
0.0000

> <Gold.PLP.part.buried>
-2.7373

> <Gold.PLP.part.nonpolar>
-25.1576

> <Gold.PLP.part.repulsive>
0.1627

> <Gold.PLP.ligand.clash>
0.0000

> <Gold.PLP.ligand.torsion>
0.0474

> <Gold.PLP.Chemscore.Hbond>
2.0000

> <Gold.PLP.Chemscore.CHOScore>
0.7442

> <Gold.PLP.Chemscore.Metal>
0.0000

> <Gold.Chemscore.Hbonds>
donor molecule, donor type, donor heavy atom, donor atom, acceptor molecule, acceptor atom, score
      L1  H    12    26       P1  8028  1.00
      P1  H  7989  7998       L1    14  1.00
      L1  C     3    19       P1  8028  0.77

> <Gold.PLP.Chemscore.Internal.Correction>
0.0260

> <Gold.Rescore>
     Score         DG    S(hbond)    S(metal)    S(lipo)     H(rot)  DE(clash)    DE(int)     intcor
     15.02     -15.44       1.26        0.00      71.03       1.00       0.15       0.27       ----

> <Gold.Chemscore.Fitness>
15.0237

> <Gold.Chemscore.DG>
-15.4401

> <Gold.Chemscore.ZeroCoef>
-5.4800

> <Gold.Chemscore.Hbond>
1.2604

> <Gold.Chemscore.Metal>
0.0000

> <Gold.Chemscore.Lipo>
71.0280

> <Gold.Chemscore.Internal_Hbond>
0.0000

> <Gold.Chemscore.DEClash>
0.1462

> <Gold.Chemscore.DEInternal>
0.2702

> <Gold.Chemscore.Rot>
1.0000

> <Gold.Chemscore.Internal.Correction>
   9.000000E+99

> <Gold.Chemscore.Hbonds>
donor molecule, donor type, donor heavy atom, donor atom, acceptor molecule, acceptor atom, score
      L1  H    12    26       P1  8028  0.57
      P1  H  7989  7998       L1    14  0.42

> <Gold.Chemscore.Hbond.Weighted>
-4.2098

> <Gold.Chemscore.Metal.Weighted>
-0.0000

> <Gold.Chemscore.Lipo.Weighted>
-8.3103

> <Gold.Chemscore.Internal_Hbond.Weighted>
0.0000

> <Gold.Chemscore.DEClash.Weighted>
0.1462

> <Gold.Chemscore.DEInternal.Weighted>
0.2702

> <Gold.Chemscore.Rot.Weighted>
2.5600

> <Gold.Chemscore.Internal.Correction.Weighted>
   9.000000E+99

> <Gold.Protein.RotatedTorsions>
[ 6907 6896 6895 6894 ] final   21.24 input  -60.11 | X-H torsion
[ 7974 7965 7964 7962 ] final  139.09 input  175.53 | X-H torsion
[ 8008 7997 7996 7995 ] final   57.62 input   59.86 | X-H torsion
[ 10167 10162 10161 10158 ] final  -98.63 input  -65.29 | X-H torsion
[ 10718 10713 10712 10709 ] final -133.51 input   66.30 | X-H torsion
[ 10763 10752 10751 10750 ] final -159.95 input  -60.55 | X-H torsion
[ 11005 11000 10999 10996 ] final -101.26 input  -57.11 | X-H torsion

> <Gold.Protein.ActiveResidues>
 VAL166  LYS551  ARG553  GLY616  TRP617  ASP618  TYR619  PRO620  LYS621  CYS622 
 ASP623  PHE694  ASN695  SER759  ASP760  ASP761  ALA762  ILE779  LEU786  VAL792 
 PHE793  MET794  SER795  GLU796  ALA797  LYS798  CYS799  TRP800  GLU811  SER814 

> <Gold.Protein.RotatedAtoms>
  151.9088  135.0348  160.0512 H   0  0  0  0  0  0  0  0  0  0  0  0  # atno 6907 bound_to 6896
  152.2297  133.5044  159.5217 H   0  0  0  0  0  0  0  0  0  0  0  0  # atno 6908 bound_to 6896
  150.7022  134.1149  159.4056 H   0  0  0  0  0  0  0  0  0  0  0  0  # atno 6909 bound_to 6896
  144.9311  139.5046  143.5617 H   0  0  0  0  0  0  0  0  0  0  0  0  # atno 7974 bound_to 7965
  155.5368  140.3483  155.4438 H   0  0  0  0  0  0  0  0  0  0  0  0  # atno 8008 bound_to 7997
  156.0679  140.1356  156.9890 H   0  0  0  0  0  0  0  0  0  0  0  0  # atno 8009 bound_to 7997
  154.4513  140.0971  156.6600 H   0  0  0  0  0  0  0  0  0  0  0  0  # atno 8010 bound_to 7997
  140.2709  143.3344  152.0535 H   0  0  0  0  0  0  0  0  0  0  0  0  # atno 10167 bound_to 10162
  156.2456  130.7122  151.1001 H   0  0  0  0  0  0  0  0  0  0  0  0  # atno 10718 bound_to 10713
  154.7431  135.3073  154.8692 H   0  0  0  0  0  0  0  0  0  0  0  0  # atno 10763 bound_to 10752
  153.9501  135.6765  153.4748 H   0  0  0  0  0  0  0  0  0  0  0  0  # atno 10764 bound_to 10752
  153.1029  135.4903  154.8825 H   0  0  0  0  0  0  0  0  0  0  0  0  # atno 10765 bound_to 10752
  141.1238  133.8464  157.1209 H   0  0  0  0  0  0  0  0  0  0  0  0  # atno 11005 bound_to 11000
  146.3247  139.8262  142.8917 LP  0  0  0  0  0  0  0  0  0  0  0  0  # atno 17320 bound_to 7965
  145.3140  141.0227  143.3538 LP  0  0  0  0  0  0  0  0  0  0  0  0  # atno 17321 bound_to 7965
  139.4989  144.6657  151.6362 LP  0  0  0  0  0  0  0  0  0  0  0  0  # atno 17342 bound_to 10162
  140.5890  143.9813  150.6313 LP  0  0  0  0  0  0  0  0  0  0  0  0  # atno 17343 bound_to 10162
  157.7194  131.0691  150.6199 LP  0  0  0  0  0  0  0  0  0  0  0  0  # atno 17370 bound_to 10713
  156.6275  130.4423  149.5799 LP  0  0  0  0  0  0  0  0  0  0  0  0  # atno 17371 bound_to 10713
  140.0218  134.9942  157.0606 LP  0  0  0  0  0  0  0  0  0  0  0  0  # atno 17394 bound_to 11000
  140.4428  134.1663  155.7175 LP  0  0  0  0  0  0  0  0  0  0  0  0  # atno 17395 bound_to 11000

$$$$
