#       Name:                AV-unprocessed.smi:2583
#       Creating user name   scv26
#       Creation time:       Fri Mar 27 14:15:13 2020


#       File generated by GOLD software.
#

@<TRIPOS>MOLECULE
AV-unprocessed.smi:2583
    58    60     1
SMALL
NO_CHARGES


@<TRIPOS>ATOM
      1 ****        -8.9496   2.0719  -1.6405 C.3            1 S1                 0.0000
      2 ****        -7.5993   2.5460  -1.1452 C.ar           1 S1                 0.0000
      3 ****        -7.4197   3.8584  -0.6623 C.ar           1 S1                 0.0000
      4 ****        -6.2377   4.3239  -0.2070 N.ar           1 S1                 0.0000
      5 ****        -5.1759   3.4896  -0.2254 C.ar           1 S1                 0.0000
      6 ****        -5.2412   2.1568  -0.7014 C.ar           1 S1                 0.0000
      7 ****        -4.1411   1.2584  -0.7078 N.am           1 S1                 0.0000
      8 ****        -2.8291   1.5488  -0.7201 C.2            1 S1                 0.0000
      9 ****        -2.3516   2.6822  -0.7685 O.2            1 S1                 0.0000
     10 ****        -2.0865   0.4330  -0.6936 N.am           1 S1                 0.0000
     11 ****        -0.6275   0.3936  -0.7187 C.3            1 S1                 0.0000
     12 ****        -0.1474  -0.9933  -1.1528 C.3            1 S1                 0.0000
     13 ****         1.3858  -1.1003  -1.0785 C.3            1 S1                 0.0000
     14 ****         1.8940  -0.8449   0.2809 N.3            1 S1                 0.0000
     15 ****         3.3641  -1.0084   0.3536 C.3            1 S1                 0.0000
     16 ****         3.8118  -2.4293  -0.0875 C.3            1 S1                 0.0000
     17 ****         5.3201  -2.6622   0.0939 C.3            1 S1                 0.0000
     18 ****         5.7332  -2.4253   1.4946 N.4            1 S1                 1.0000
     19 ****         7.1532  -2.7642   1.7305 C.3            1 S1                 0.0000
     20 ****         5.4026  -1.0483   1.9233 C.3            1 S1                 0.0000
     21 ****         3.8960  -0.7739   1.7945 C.3            1 S1                 0.0000
     22 ****         1.4879   0.5177   0.6673 C.3            1 S1                 0.0000
     23 ****        -0.0410   0.6856   0.6672 C.3            1 S1                 0.0000
     24 ****        -6.4876   1.6811  -1.1570 C.ar           1 S1                 0.0000
     25 ****        -9.6814   2.8801  -1.6316 H              1 S1                 0.0000
     26 ****        -9.3219   1.2654  -1.0086 H              1 S1                 0.0000
     27 ****        -8.8675   1.6986  -2.6616 H              1 S1                 0.0000
     28 ****        -8.2455   4.5540  -0.6347 H              1 S1                 0.0000
     29 ****        -4.2660   3.9087   0.1748 H              1 S1                 0.0000
     30 ****        -4.3807   0.2794  -0.7644 H              1 S1                 0.0000
     31 ****        -2.5646  -0.4554  -0.6569 H              1 S1                 0.0000
     32 ****        -0.2587   1.1317  -1.4339 H              1 S1                 0.0000
     33 ****        -0.5938  -1.7607  -0.5182 H              1 S1                 0.0000
     34 ****        -0.4805  -1.2010  -2.1703 H              1 S1                 0.0000
     35 ****         1.6299  -2.1087  -1.4041 H              1 S1                 0.0000
     36 ****         1.8492  -0.4115  -1.7865 H              1 S1                 0.0000
     37 ****         3.8272  -0.2778  -0.3118 H              1 S1                 0.0000
     38 ****         3.2574  -3.1837   0.4732 H              1 S1                 0.0000
     39 ****         3.6029  -2.6038  -1.1415 H              1 S1                 0.0000
     40 ****         5.5648  -3.6867  -0.1900 H              1 S1                 0.0000
     41 ****         5.8835  -2.0062  -0.5718 H              1 S1                 0.0000
     42 ****         7.8120  -2.1262   1.1400 H              1 S1                 0.0000
     43 ****         7.3517  -3.8024   1.4621 H              1 S1                 0.0000
     44 ****         7.4093  -2.6391   2.7831 H              1 S1                 0.0000
     45 ****         5.7097  -0.9058   2.9602 H              1 S1                 0.0000
     46 ****         5.9669  -0.3316   1.3244 H              1 S1                 0.0000
     47 ****         3.7470   0.2555   2.1151 H              1 S1                 0.0000
     48 ****         3.3504  -1.4043   2.4986 H              1 S1                 0.0000
     49 ****         1.8150   0.7551   1.6764 H              1 S1                 0.0000
     50 ****         1.9487   1.2484   0.0005 H              1 S1                 0.0000
     51 ****        -0.2950   1.6997   0.9775 H              1 S1                 0.0000
     52 ****        -0.4802   0.0167   1.4092 H              1 S1                 0.0000
     53 ****        -6.5895   0.6676  -1.5172 H              1 S1                 0.0000
     54 ****         5.1873  -3.0504   2.0706 H              1 S1                 0.0000
     55 ****        -6.1505   5.2598   0.1342 LP             1 S1                 0.0000
     56 ****        -2.9557   3.4783  -0.8026 LP             1 S1                 0.0000
     57 ****        -1.3594   2.8068  -0.7738 LP             1 S1                 0.0000
     58 ****         1.5066  -1.5122   0.9170 LP             1 S1                 0.0000
@<TRIPOS>BOND
    1    1    2 1     
    2    1   25 1     
    3    1   26 1     
    4    1   27 1     
    5    2   24 ar    
    6    2    3 ar    
    7    3    4 ar    
    8    3   28 1     
    9    4    5 ar    
   10    5    6 ar    
   11    5   29 1     
   12    6    7 1     
   13    6   24 ar    
   14    7    8 am    
   15    7   30 1     
   16    8    9 2     
   17    8   10 am    
   18   10   11 1     
   19   10   31 1     
   20   11   23 1     
   21   11   12 1     
   22   11   32 1     
   23   12   13 1     
   24   12   33 1     
   25   12   34 1     
   26   13   14 1     
   27   13   35 1     
   28   13   36 1     
   29   14   15 1     
   30   14   22 1     
   31   15   21 1     
   32   15   16 1     
   33   15   37 1     
   34   16   17 1     
   35   16   38 1     
   36   16   39 1     
   37   17   18 1     
   38   17   40 1     
   39   17   41 1     
   40   18   19 1     
   41   18   20 1     
   42   18   54 1     
   43   19   42 1     
   44   19   43 1     
   45   19   44 1     
   46   20   21 1     
   47   20   45 1     
   48   20   46 1     
   49   21   47 1     
   50   21   48 1     
   51   22   23 1     
   52   22   49 1     
   53   22   50 1     
   54   23   51 1     
   55   23   52 1     
   56   24   53 1     
   57    4   55 1     
   58    9   56 1     
   59    9   57 1     
   60   14   58 1     
@<TRIPOS>SUBSTRUCTURE
      1 S1             1
@<TRIPOS>SET
LONE_PAIRS      STATIC     ATOMS    <user>   **** ""
4 55 56 57 58
DONOR_HYDROGENS      STATIC     ATOMS    <user>   **** ""
3 30 31 54
ATOM$BLUE        STATIC     ATOMS    COLORGROUP SYSTEM
4 55 56 57 58
ATOM$RED        STATIC     ATOMS    COLORGROUP SYSTEM
3 30 31 54
