#       Name:                AV-unprocessed.smi:1
#       Creating user name   scv26
#       Creation time:       Thu Mar 26 15:08:09 2020


#       File generated by GOLD software.
#

@<TRIPOS>MOLECULE
AV-unprocessed.smi:1
    66    71     1
SMALL
NO_CHARGES


@<TRIPOS>ATOM
      1 ****        -6.0670  -0.2078  -2.1366 O.2            1 S1                 0.0000
      2 ****        -5.9424  -0.8666  -1.1039 C.2            1 S1                 0.0000
      3 ****        -4.6525  -1.0691  -0.4674 N.am           1 S1                 0.0000
      4 ****        -3.4568  -0.5358  -0.8118 C.ar           1 S1                 0.0000
      5 ****        -3.3201   0.3483  -1.8348 N.ar           1 S1                 0.0000
      6 ****        -2.1185   0.8496  -2.1340 C.ar           1 S1                 0.0000
      7 ****        -0.9453   0.6075  -1.5469 N.ar           1 S1                 0.0000
      8 ****        -1.0720  -0.2785  -0.5173 C.ar           1 S1                 0.0000
      9 ****        -2.2853  -0.8887  -0.0922 C.ar           1 S1                 0.0000
     10 ****        -2.0361  -1.7331   0.9814 N.2            1 S1                 0.0000
     11 ****        -0.7484  -1.6305   1.1716 C.2            1 S1                 0.0000
     12 ****        -0.0880  -0.7804   0.3125 N.pl3          1 S1                 0.0000
     13 ****         1.3780  -0.4750   0.2901 C.3            1 S1                 0.0000
     14 ****         1.5582   0.8963   0.0991 O.3            1 S1                 0.0000
     15 ****         2.3340   1.1429  -1.0697 C.3            1 S1                 0.0000
     16 ****         3.2236   2.3790  -0.8845 C.3            1 S1                 0.0000
     17 ****         4.1537   2.1578   0.1647 O.3            1 S1                 0.0000
     18 ****         5.1566   3.0308   0.3777 C.2            1 S1                 0.0000
     19 ****         5.3320   4.0470  -0.2975 O.2            1 S1                 0.0000
     20 ****         6.0370   2.6348   1.5146 C.ar           1 S1                 0.0000
     21 ****         7.1667   3.4274   1.8252 C.ar           1 S1                 0.0000
     22 ****         8.0163   3.0783   2.8929 C.ar           1 S1                 0.0000
     23 ****         7.7455   1.9335   3.6646 C.ar           1 S1                 0.0000
     24 ****         6.6246   1.1370   3.3662 C.ar           1 S1                 0.0000
     25 ****         5.7746   1.4834   2.2977 C.ar           1 S1                 0.0000
     26 ****         3.0818  -0.1607  -1.3689 C.3            1 S1                 0.0000
     27 ****         3.2500  -0.3675  -2.7614 O.3            1 S1                 0.0000
     28 ****         1.9582  -1.2610  -3.3350 S.o2           1 S1                 0.0000
     29 ****         1.0596  -0.3582  -4.0703 O.2            1 S1                 0.0000
     30 ****         2.4840  -2.5040  -3.9193 O.2            1 S1                 0.0000
     31 ****         1.2451  -1.6308  -1.8721 O.3            1 S1                 0.0000
     32 ****         2.1181  -1.2223  -0.8316 C.3            1 S1                 0.0000
     33 ****        -7.1046  -1.5830  -0.4800 C.ar           1 S1                 0.0000
     34 ****        -8.1948  -1.9929  -1.2804 C.ar           1 S1                 0.0000
     35 ****        -9.2973  -2.6505  -0.7010 C.ar           1 S1                 0.0000
     36 ****        -9.3228  -2.8976   0.6844 C.ar           1 S1                 0.0000
     37 ****        -8.2466  -2.4824   1.4911 C.ar           1 S1                 0.0000
     38 ****        -7.1432  -1.8247   0.9131 C.ar           1 S1                 0.0000
     39 ****        -4.6501  -1.6721   0.3422 H              1 S1                 0.0000
     40 ****        -2.0936   1.5434  -2.9612 H              1 S1                 0.0000
     41 ****        -0.2393  -2.1820   1.9486 H              1 S1                 0.0000
     42 ****         1.7358  -0.7441   1.2846 H              1 S1                 0.0000
     43 ****         1.6314   1.3430  -1.8784 H              1 S1                 0.0000
     44 ****         3.7554   2.5859  -1.8144 H              1 S1                 0.0000
     45 ****         2.6129   3.2532  -0.6553 H              1 S1                 0.0000
     46 ****         7.3951   4.3111   1.2468 H              1 S1                 0.0000
     47 ****         8.8771   3.6901   3.1195 H              1 S1                 0.0000
     48 ****         8.3967   1.6666   4.4840 H              1 S1                 0.0000
     49 ****         6.4160   0.2583   3.9587 H              1 S1                 0.0000
     50 ****         4.9225   0.8507   2.0966 H              1 S1                 0.0000
     51 ****         4.0351  -0.2162  -0.8425 H              1 S1                 0.0000
     52 ****         2.6353  -2.0946  -0.4313 H              1 S1                 0.0000
     53 ****        -8.1913  -1.8095  -2.3453 H              1 S1                 0.0000
     54 ****       -10.1243  -2.9645  -1.3205 H              1 S1                 0.0000
     55 ****       -10.1688  -3.4009   1.1287 H              1 S1                 0.0000
     56 ****        -8.2685  -2.6652   2.5552 H              1 S1                 0.0000
     57 ****        -6.3326  -1.5060   1.5524 H              1 S1                 0.0000
     58 ****        -5.2645   0.2083  -2.5641 LP             1 S1                 0.0000
     59 ****        -6.9708  -0.0888  -2.5478 LP             1 S1                 0.0000
     60 ****        -4.1215   0.6245  -2.3653 LP             1 S1                 0.0000
     61 ****        -0.0803   1.0239  -1.8268 LP             1 S1                 0.0000
     62 ****        -2.6913  -2.2908   1.4911 LP             1 S1                 0.0000
     63 ****         2.0299   1.2794   0.8933 LP             1 S1                 0.0000
     64 ****         0.6648   1.3342  -0.0012 LP             1 S1                 0.0000
     65 ****         4.7105   4.2598  -1.0514 LP             1 S1                 0.0000
     66 ****         6.0958   4.6586  -0.0913 LP             1 S1                 0.0000
@<TRIPOS>BOND
    1    1    2 2     
    2    2    3 am    
    3    2   33 1     
    4    3    4 1     
    5    3   39 1     
    6    4    9 ar    
    7    4    5 ar    
    8    5    6 ar    
    9    6    7 ar    
   10    6   40 1     
   11    7    8 ar    
   12    8   12 1     
   13    8    9 ar    
   14    9   10 1     
   15   10   11 2     
   16   11   12 1     
   17   11   41 1     
   18   12   13 1     
   19   13   32 1     
   20   13   14 1     
   21   13   42 1     
   22   14   15 1     
   23   15   16 1     
   24   15   26 1     
   25   15   43 1     
   26   16   17 1     
   27   16   44 1     
   28   16   45 1     
   29   17   18 1     
   30   18   19 2     
   31   18   20 1     
   32   20   25 ar    
   33   20   21 ar    
   34   21   22 ar    
   35   21   46 1     
   36   22   23 ar    
   37   22   47 1     
   38   23   24 ar    
   39   23   48 1     
   40   24   25 ar    
   41   24   49 1     
   42   25   50 1     
   43   26   32 1     
   44   26   27 1     
   45   26   51 1     
   46   27   28 1     
   47   28   29 2     
   48   28   30 2     
   49   28   31 1     
   50   31   32 1     
   51   32   52 1     
   52   33   38 ar    
   53   33   34 ar    
   54   34   35 ar    
   55   34   53 1     
   56   35   36 ar    
   57   35   54 1     
   58   36   37 ar    
   59   36   55 1     
   60   37   38 ar    
   61   37   56 1     
   62   38   57 1     
   63    1   58 1     
   64    1   59 1     
   65    5   60 1     
   66    7   61 1     
   67   10   62 1     
   68   14   63 1     
   69   14   64 1     
   70   19   65 1     
   71   19   66 1     
@<TRIPOS>SUBSTRUCTURE
      1 S1             1
@<TRIPOS>SET
LONE_PAIRS      STATIC     ATOMS    <user>   **** ""
11 58 59 60 61 62 63 64 65 66 29 30
DONOR_HYDROGENS      STATIC     ATOMS    <user>   **** ""
1 39
ATOM$BLUE        STATIC     ATOMS    COLORGROUP SYSTEM
11 58 59 60 61 62 63 64 65 66 29 30
ATOM$RED        STATIC     ATOMS    COLORGROUP SYSTEM
1 39
