AV-unprocessed.smi:72|AV-procd|sdf|696|dock3
  -GOLD-   2262017 13D 1   1.00000     0.00000
 Structure written by MMmdl.
 30 31  0  0  0  0  0  0  0  0  2 V2000
  147.5020  138.9489  152.4013 N   0  0  0  0  0  0  0  0  0  0  0  0
  146.5658  137.9450  152.2668 C   0  0  0  0  0  0  0  0  0  0  0  0
  146.5034  137.2816  151.0543 N   0  3  0  0  0  0  0  0  0  0  0  0
  145.6516  136.2894  150.7616 C   0  0  0  0  0  0  0  0  0  0  0  0
  144.7925  135.8926  151.6783 N   0  0  0  0  0  0  0  0  0  0  0  0
  143.8192  134.7695  151.4163 C   0  0  1  0  0  0  0  0  0  0  0  0
  143.7730  134.5382  150.0394 O   0  0  0  0  0  0  0  0  0  0  0  0
  144.3950  133.2945  149.7243 C   0  0  2  0  0  0  0  0  0  0  0  0
  143.8189  132.7458  148.4104 C   0  0  0  0  0  0  0  0  0  0  0  0
  143.4688  133.8147  147.5575 O   0  0  0  0  0  0  0  0  0  0  0  0
  144.0459  132.4529  150.9506 C   0  0  1  0  0  0  0  0  0  0  0  0
  144.8436  131.2907  151.0789 O   0  0  0  0  0  0  0  0  0  0  0  0
  144.2368  133.4445  152.0927 C   0  0  1  0  0  0  0  0  0  0  0  0
  145.5753  133.4532  152.5694 O   0  0  0  0  0  0  0  0  0  0  0  0
  144.7902  136.5036  152.9582 C   0  0  0  0  0  0  0  0  0  0  0  0
  144.0085  136.1226  153.8290 O   0  0  0  0  0  0  0  0  0  0  0  0
  145.7145  137.5375  153.1673 N   0  0  0  0  0  0  0  0  0  0  0  0
  142.8380  135.1322  151.7269 H   0  0  0  0  0  0  0  0  0  0  0  0
  145.4780  133.4154  149.6609 H   0  0  0  0  0  0  0  0  0  0  0  0
  142.9963  132.1577  150.9018 H   0  0  0  0  0  0  0  0  0  0  0  0
  143.5698  133.2302  152.9286 H   0  0  0  0  0  0  0  0  0  0  0  0
  147.6188  139.4849  153.2498 H   0  0  0  0  0  0  0  0  0  0  0  0
  148.1449  139.2227  151.6724 H   0  0  0  0  0  0  0  0  0  0  0  0
  145.6868  135.8339  149.7814 H   0  0  0  0  0  0  0  0  0  0  0  0
  144.5675  132.1453  147.8929 H   0  0  0  0  0  0  0  0  0  0  0  0
  142.9562  132.1039  148.5910 H   0  0  0  0  0  0  0  0  0  0  0  0
  144.2625  134.2099  147.2300 H   0  0  0  0  0  0  0  0  0  0  0  0
  145.7159  131.5505  151.3337 H   0  0  0  0  0  0  0  0  0  0  0  0
  146.0593  132.7803  152.1144 H   0  0  0  0  0  0  0  0  0  0  0  0
  147.1526  137.5687  150.3358 H   0  0  0  0  0  0  0  0  0  0  0  0
  1  2  1  0  0  0  0
  1 22  1  0  0  0  0
  1 23  1  0  0  0  0
  2 17  2  0  0  0  0
  2  3  1  0  0  0  0
  3  4  2  0  0  0  0
  3 30  1  0  0  0  0
  4  5  1  0  0  0  0
  4 24  1  0  0  0  0
  5  6  1  0  0  0  0
  5 15  1  0  0  0  0
  6 18  1  0  0  0  0
  6 13  1  0  0  0  0
  6  7  1  0  0  0  0
  7  8  1  0  0  0  0
  8 19  1  0  0  0  0
  8  9  1  0  0  0  0
  8 11  1  0  0  0  0
  9 10  1  0  0  0  0
  9 25  1  0  0  0  0
  9 26  1  0  0  0  0
 10 27  1  0  0  0  0
 11 20  1  0  0  0  0
 11 12  1  0  0  0  0
 11 13  1  0  0  0  0
 12 28  1  0  0  0  0
 13 21  1  0  0  0  0
 13 14  1  0  0  0  0
 14 29  1  0  0  0  0
 15 16  2  0  0  0  0
 15 17  1  0  0  0  0
M  CHG  1   3   1
M  END
> <s_m_source_file>
AV-unprocessed.smi

> <i_m_source_file_index>
72

> <i_lp_mmshare_version>
43012

> <i_f3d_flags>
0

> <s_epik_input>
W05IMl1jMW5bY0hdbihjKD1PKW4xKVtDQEBIXTJPW0NASF0oW0NIMl1bT0hdKVtDQEBIXShbT0hdKVtDQEhdMltPSF0=

> <s_epik_cmdline>
J2VwaWtfcHl0aG9uJywgJy1waCcsICc3LjAnLCAnLXRuJywgJzgnLCAnLW1hJywgJzIwMCcsICctbWV0YWxfYmluZGluZycsICctaW1hZScsICc8aW5maWxlLm1hZT4nLCAnLW9tYWUnLCAnPG91dGZpbGUubWFlPic=

> <r_lp_tautomer_probability>
4.77166e-05

> <r_epik_Ionization_Penalty>
0.104979

> <r_epik_Ionization_Penalty_Charging>
0.0999619

> <r_epik_Ionization_Penalty_Neutral>
0.00501745

> <r_epik_State_Penalty>
2.51541

> <r_epik_Charging_Adjusted_Penalty>
2.61537

> <i_epik_Tot_Q>
1

> <i_epik_Tot_abs_Q>
1

> <r_epik_Metal_State_Penalty>
3.53763

> <b_epik_Metal_Only>
0

> <s_epik_Chemistry_Notes>
This compound contains an acetal/aminal-like group ( X-CH(R)-Y where X, Y are N, S, or O) that may be acid/base labile, releasing an aldehyde.

> <s_lp_Force_Field>
OPLS_2005

> <r_lp_Energy>
36.6563

> <b_lp_Chiralities_Consistent>
1

> <s_lp_Variant>
AV-unprocessed.smi:72-34

> <Gold.Version>
5.8.1

> <Gold.Id.Protein>
6NUR|6NUR_protein|mol2

> <Gold.PLP.Fitness>
38.7777

> <Gold.PLP.PLP>
-28.4085

> <Gold.PLP.part.hbond>
-6.9328

> <Gold.PLP.part.metal>
0.0000

> <Gold.PLP.part.buried>
-3.2747

> <Gold.PLP.part.nonpolar>
-21.2171

> <Gold.PLP.part.repulsive>
3.1086

> <Gold.PLP.ligand.clash>
0.0000

> <Gold.PLP.ligand.torsion>
0.7760

> <Gold.PLP.Chemscore.Hbond>
2.9348

> <Gold.PLP.Chemscore.CHOScore>
1.0000

> <Gold.PLP.Chemscore.Metal>
0.0000

> <Gold.Chemscore.Hbonds>
donor molecule, donor type, donor heavy atom, donor atom, acceptor molecule, acceptor atom, score
      L1  H     1    23       P1  7957  1.00
      L1  H    10    27       P1  7921  0.98
      P1  H 10192 10197       L1    10  1.00
      L1  C     4    24       P1  7921  1.00

> <Gold.PLP.Chemscore.Internal.Correction>
0.1170

> <Gold.Rescore>
     Score         DG    S(hbond)    S(metal)    S(lipo)     H(rot)  DE(clash)    DE(int)     intcor
      5.18      -6.81       2.23        0.00      37.04       4.08       0.80       0.83       ----

> <Gold.Chemscore.Fitness>
5.1803

> <Gold.Chemscore.DG>
-6.8106

> <Gold.Chemscore.ZeroCoef>
-5.4800

> <Gold.Chemscore.Hbond>
2.2266

> <Gold.Chemscore.Metal>
0.0000

> <Gold.Chemscore.Lipo>
37.0447

> <Gold.Chemscore.Internal_Hbond>
0.0000

> <Gold.Chemscore.DEClash>
0.8047

> <Gold.Chemscore.DEInternal>
0.8256

> <Gold.Chemscore.Rot>
4.0783

> <Gold.Chemscore.Internal.Correction>
   9.000000E+99

> <Gold.Chemscore.Hbonds>
donor molecule, donor type, donor heavy atom, donor atom, acceptor molecule, acceptor atom, score
      L1  H     1    23       P1  7957  0.93
      L1  H    10    27       P1  7921  0.92
      P1  H 10192 10197       L1    10  0.47

> <Gold.Chemscore.Hbond.Weighted>
-7.4368

> <Gold.Chemscore.Metal.Weighted>
-0.0000

> <Gold.Chemscore.Lipo.Weighted>
-4.3342

> <Gold.Chemscore.Internal_Hbond.Weighted>
0.0000

> <Gold.Chemscore.DEClash.Weighted>
0.8047

> <Gold.Chemscore.DEInternal.Weighted>
0.8256

> <Gold.Chemscore.Rot.Weighted>
10.4404

> <Gold.Chemscore.Internal.Correction.Weighted>
   9.000000E+99

> <Gold.Protein.RotatedTorsions>
[ 6907 6896 6895 6894 ] final -154.32 input  -60.11 | X-H torsion
[ 7974 7965 7964 7962 ] final  123.65 input  175.53 | X-H torsion
[ 8008 7997 7996 7995 ] final -145.56 input   59.86 | X-H torsion
[ 10167 10162 10161 10158 ] final  -15.48 input  -65.29 | X-H torsion
[ 10718 10713 10712 10709 ] final -164.74 input   66.30 | X-H torsion
[ 10763 10752 10751 10750 ] final -102.49 input  -60.55 | X-H torsion
[ 11005 11000 10999 10996 ] final  112.54 input  -57.11 | X-H torsion

> <Gold.Protein.ActiveResidues>
 VAL166  LYS551  ARG553  GLY616  TRP617  ASP618  TYR619  PRO620  LYS621  CYS622 
 ASP623  PHE694  ASN695  SER759  ASP760  ASP761  ALA762  ILE779  LEU786  VAL792 
 PHE793  MET794  SER795  GLU796  ALA797  LYS798  CYS799  TRP800  GLU811  SER814 

> <Gold.Protein.RotatedAtoms>
  151.2558  133.4327  159.2613 H   0  0  0  0  0  0  0  0  0  0  0  0  # atno 6907 bound_to 6896
  151.0576  134.9715  159.8254 H   0  0  0  0  0  0  0  0  0  0  0  0  # atno 6908 bound_to 6896
  152.5393  134.2509  159.8951 H   0  0  0  0  0  0  0  0  0  0  0  0  # atno 6909 bound_to 6896
  145.0935  139.3569  143.4848 H   0  0  0  0  0  0  0  0  0  0  0  0  # atno 7974 bound_to 7965
  155.5452  140.0611  157.2861 H   0  0  0  0  0  0  0  0  0  0  0  0  # atno 8008 bound_to 7997
  154.4439  140.1912  156.0675 H   0  0  0  0  0  0  0  0  0  0  0  0  # atno 8009 bound_to 7997
  156.0556  140.3279  155.7405 H   0  0  0  0  0  0  0  0  0  0  0  0  # atno 8010 bound_to 7997
  140.7219  143.5214  150.9629 H   0  0  0  0  0  0  0  0  0  0  0  0  # atno 10167 bound_to 10162
  156.6434  130.8978  151.3000 H   0  0  0  0  0  0  0  0  0  0  0  0  # atno 10718 bound_to 10713
  154.7738  135.4858  153.9702 H   0  0  0  0  0  0  0  0  0  0  0  0  # atno 10763 bound_to 10752
  153.1401  135.6771  153.9047 H   0  0  0  0  0  0  0  0  0  0  0  0  # atno 10764 bound_to 10752
  153.8724  135.3142  155.3421 H   0  0  0  0  0  0  0  0  0  0  0  0  # atno 10765 bound_to 10752
  139.8930  134.9532  156.6601 H   0  0  0  0  0  0  0  0  0  0  0  0  # atno 11005 bound_to 11000
  146.3531  140.0780  142.8619 LP  0  0  0  0  0  0  0  0  0  0  0  0  # atno 17320 bound_to 7965
  145.1038  140.9362  143.4697 LP  0  0  0  0  0  0  0  0  0  0  0  0  # atno 17321 bound_to 7965
  139.8932  143.6928  152.3142 LP  0  0  0  0  0  0  0  0  0  0  0  0  # atno 17342 bound_to 10162
  139.7251  144.7594  151.0892 LP  0  0  0  0  0  0  0  0  0  0  0  0  # atno 17343 bound_to 10162
  157.7164  130.9502  150.1270 LP  0  0  0  0  0  0  0  0  0  0  0  0  # atno 17370 bound_to 10713
  156.2141  130.3669  149.8635 LP  0  0  0  0  0  0  0  0  0  0  0  0  # atno 17371 bound_to 10713
  140.7454  133.8943  155.8308 LP  0  0  0  0  0  0  0  0  0  0  0  0  # atno 17394 bound_to 11000
  141.0044  134.1106  157.4285 LP  0  0  0  0  0  0  0  0  0  0  0  0  # atno 17395 bound_to 11000

$$$$
