#       Name:                AV-unprocessed.smi:1760
#       Creating user name   scv26
#       Creation time:       Fri Mar 27 08:31:22 2020


#       File generated by GOLD software.
#

@<TRIPOS>MOLECULE
AV-unprocessed.smi:1760
    48    50     1
SMALL
NO_CHARGES


@<TRIPOS>ATOM
      1 ****         1.9214   0.9080   0.0978 O.2            1 S1                 0.0000
      2 ****         1.5315  -0.2546  -0.0060 C.2            1 S1                 0.0000
      3 ****         2.3129  -1.3480  -0.0741 N.am           1 S1                 0.0000
      4 ****         3.7143  -1.4544  -0.0359 C.2            1 S1                 0.0000
      5 ****         4.5642  -0.4597   0.3434 C.2            1 S1                 0.0000
      6 ****         6.0111  -0.6352   0.3645 C.2            1 S1                 0.0000
      7 ****         6.9925   0.4793   0.6810 C.3            1 S1                 0.0000
      8 ****         8.0808   0.3899  -0.0840 F              1 S1                 0.0000
      9 ****         6.4384   1.6758   0.4850 F              1 S1                 0.0000
     10 ****         7.3737   0.4006   1.9551 F              1 S1                 0.0000
     11 ****         6.3921  -1.8985  -0.0438 C.2            1 S1                 0.0000
     12 ****         5.6183  -2.9452  -0.4051 N.pl3          1 S1                -1.0000
     13 ****         4.2669  -2.7698  -0.4225 C.2            1 S1                 0.0000
     14 ****         3.5044  -3.6796  -0.7507 O.2            1 S1                 0.0000
     15 ****         0.2366  -0.5934  -0.0877 N.am           1 S1                 0.0000
     16 ****        -0.8943   0.3313  -0.0791 C.3            1 S1                 0.0000
     17 ****        -1.7693   0.0887   1.1606 C.3            1 S1                 0.0000
     18 ****        -3.0491   0.9417   1.1069 C.3            1 S1                 0.0000
     19 ****        -3.8106   0.6353  -0.1042 N.3            1 S1                 0.0000
     20 ****        -5.0324   1.4232  -0.1028 C.3            1 S1                 0.0000
     21 ****        -6.2221   0.8670   0.6459 C.3            1 S1                 0.0000
     22 ****        -6.2183   0.8753  -0.8636 C.3            1 S1                 0.0000
     23 ****        -3.0249   0.9846  -1.2880 C.3            1 S1                 0.0000
     24 ****        -1.7426   0.1356  -1.3453 C.3            1 S1                 0.0000
     25 ****         1.8382  -2.2285  -0.2113 H              1 S1                 0.0000
     26 ****         4.1906   0.4997   0.6593 H              1 S1                 0.0000
     27 ****         7.4843  -2.0957  -0.0934 H              1 S1                 0.0000
     28 ****         0.0143  -1.5742  -0.1749 H              1 S1                 0.0000
     29 ****        -0.5478   1.3661  -0.0577 H              1 S1                 0.0000
     30 ****        -2.0412  -0.9661   1.2274 H              1 S1                 0.0000
     31 ****        -1.2076   0.3220   2.0657 H              1 S1                 0.0000
     32 ****        -3.6617   0.7327   1.9847 H              1 S1                 0.0000
     33 ****        -2.7985   2.0034   1.1367 H              1 S1                 0.0000
     34 ****        -4.9488   2.5088  -0.0953 H              1 S1                 0.0000
     35 ****        -6.1087  -0.0951   1.1421 H              1 S1                 0.0000
     36 ****        -6.8721   1.5779   1.1517 H              1 S1                 0.0000
     37 ****        -6.8669   1.5914  -1.3641 H              1 S1                 0.0000
     38 ****        -6.1034  -0.0818  -1.3692 H              1 S1                 0.0000
     39 ****        -3.6191   0.8060  -2.1850 H              1 S1                 0.0000
     40 ****        -2.7753   2.0470  -1.2757 H              1 S1                 0.0000
     41 ****        -1.1615   0.4039  -2.2282 H              1 S1                 0.0000
     42 ****        -2.0106  -0.9161  -1.4585 H              1 S1                 0.0000
     43 ****         2.9009   1.1051   0.1388 LP             1 S1                 0.0000
     44 ****         1.2587   1.6557   0.1410 LP             1 S1                 0.0000
     45 ****         6.0257  -3.8242  -0.6529 LP             1 S1                 0.0000
     46 ****         2.5162  -3.5267  -0.7549 LP             1 S1                 0.0000
     47 ****         3.8735  -4.5712  -1.0131 LP             1 S1                 0.0000
     48 ****        -4.0247  -0.3413  -0.1236 LP             1 S1                 0.0000
@<TRIPOS>BOND
    1    1    2 2     
    2    2    3 am    
    3    2   15 am    
    4    3    4 1     
    5    3   25 1     
    6    4   13 1     
    7    4    5 2     
    8    5    6 1     
    9    5   26 1     
   10    6    7 1     
   11    6   11 2     
   12    7    8 1     
   13    7    9 1     
   14    7   10 1     
   15   11   12 1     
   16   11   27 1     
   17   12   13 1     
   18   13   14 2     
   19   15   16 1     
   20   15   28 1     
   21   16   24 1     
   22   16   17 1     
   23   16   29 1     
   24   17   18 1     
   25   17   30 1     
   26   17   31 1     
   27   18   19 1     
   28   18   32 1     
   29   18   33 1     
   30   19   20 1     
   31   19   23 1     
   32   20   22 1     
   33   20   21 1     
   34   20   34 1     
   35   21   22 1     
   36   21   35 1     
   37   21   36 1     
   38   22   37 1     
   39   22   38 1     
   40   23   24 1     
   41   23   39 1     
   42   23   40 1     
   43   24   41 1     
   44   24   42 1     
   45    1   43 1     
   46    1   44 1     
   47   12   45 1     
   48   14   46 1     
   49   14   47 1     
   50   19   48 1     
@<TRIPOS>SUBSTRUCTURE
      1 S1             1
@<TRIPOS>SET
LONE_PAIRS      STATIC     ATOMS    <user>   **** ""
6 43 44 45 46 47 48
DONOR_HYDROGENS      STATIC     ATOMS    <user>   **** ""
2 25 28
ATOM$BLUE        STATIC     ATOMS    COLORGROUP SYSTEM
6 43 44 45 46 47 48
ATOM$RED        STATIC     ATOMS    COLORGROUP SYSTEM
2 25 28
