AV-unprocessed.smi:598|AV-procd|sdf|3025|dock3
  -GOLD-   2262023533D 1   1.00000     0.00000
 Structure written by MMmdl.
 43 44  0  0  0  0  0  0  0  0  3 V2000
  152.0480  144.2214  160.8170 C   0  0  0  0  0  0  0  0  0  0  0  0
  152.9956  143.4634  159.8645 C   0  0  2  0  0  0  0  0  0  0  0  0
  152.8898  143.9920  158.4194 C   0  0  0  0  0  0  0  0  0  0  0  0
  151.5801  143.5639  157.7393 C   0  0  0  0  0  0  0  0  0  0  0  0
  151.4148  142.0384  157.7668 C   0  0  0  0  0  0  0  0  0  0  0  0
  151.5098  141.4738  159.1994 C   0  0  1  0  0  0  0  0  0  0  0  0
  151.4282  140.0151  159.1561 N   0  0  0  0  0  0  0  0  0  0  0  0
  152.4450  139.1862  158.8759 C   0  0  0  0  0  0  0  0  0  0  0  0
  153.5901  139.5756  158.6427 O   0  0  0  0  0  0  0  0  0  0  0  0
  152.1108  137.6880  158.8824 C   0  0  0  0  0  0  0  0  0  0  0  0
  150.8978  137.3619  158.1136 N   0  0  0  0  0  0  0  0  0  0  0  0
  149.6629  137.4876  158.7804 C   0  0  0  0  0  0  0  0  0  0  0  0
  148.4912  137.2085  158.1760 C   0  0  0  0  0  0  0  0  0  0  0  0
  147.2330  137.3374  158.8778 N   0  3  0  0  0  0  0  0  0  0  0  0
  146.1932  137.1054  158.2692 O   0  0  0  0  0  0  0  0  0  0  0  0
  147.2413  137.6749  160.0581 O   0  5  0  0  0  0  0  0  0  0  0  0
  148.5331  136.7683  156.7949 C   0  0  0  0  0  0  0  0  0  0  0  0
  149.7112  136.6431  156.1528 C   0  0  0  0  0  0  0  0  0  0  0  0
  150.9854  136.9440  156.8136 C   0  0  0  0  0  0  0  0  0  0  0  0
  152.0653  136.8272  156.2341 O   0  0  0  0  0  0  0  0  0  0  0  0
  152.8241  141.9206  159.8910 C   0  0  2  0  0  0  0  0  0  0  0  0
  152.9865  141.3360  161.3085 C   0  0  0  0  0  0  0  0  0  0  0  0
  150.9990  144.0247  160.5982 H   0  0  0  0  0  0  0  0  0  0  0  0
  152.2014  145.2981  160.7406 H   0  0  0  0  0  0  0  0  0  0  0  0
  152.2247  143.9509  161.8578 H   0  0  0  0  0  0  0  0  0  0  0  0
  154.0085  143.6835  160.2050 H   0  0  0  0  0  0  0  0  0  0  0  0
  152.9791  145.0787  158.4058 H   0  0  0  0  0  0  0  0  0  0  0  0
  153.7312  143.6141  157.8369 H   0  0  0  0  0  0  0  0  0  0  0  0
  150.7299  144.0356  158.2327 H   0  0  0  0  0  0  0  0  0  0  0  0
  151.5680  143.9173  156.7079 H   0  0  0  0  0  0  0  0  0  0  0  0
  150.4578  141.7688  157.3186 H   0  0  0  0  0  0  0  0  0  0  0  0
  152.1852  141.5847  157.1415 H   0  0  0  0  0  0  0  0  0  0  0  0
  150.6697  141.8543  159.7829 H   0  0  0  0  0  0  0  0  0  0  0  0
  150.5235  139.6071  159.3423 H   0  0  0  0  0  0  0  0  0  0  0  0
  152.9720  137.1476  158.4876 H   0  0  0  0  0  0  0  0  0  0  0  0
  152.0063  137.3424  159.9129 H   0  0  0  0  0  0  0  0  0  0  0  0
  149.7393  137.8147  159.8073 H   0  0  0  0  0  0  0  0  0  0  0  0
  147.6206  136.5351  156.2659 H   0  0  0  0  0  0  0  0  0  0  0  0
  149.7189  136.3125  155.1244 H   0  0  0  0  0  0  0  0  0  0  0  0
  153.6472  141.5131  159.3013 H   0  0  0  0  0  0  0  0  0  0  0  0
  152.1379  141.5863  161.9457 H   0  0  0  0  0  0  0  0  0  0  0  0
  153.8893  141.7147  161.7879 H   0  0  0  0  0  0  0  0  0  0  0  0
  153.0675  140.2491  161.2865 H   0  0  0  0  0  0  0  0  0  0  0  0
  1  2  1  0  0  0  0
  1 23  1  0  0  0  0
  1 24  1  0  0  0  0
  1 25  1  0  0  0  0
  2 21  1  0  0  0  0
  2  3  1  0  0  0  0
  2 26  1  0  0  0  0
  3  4  1  0  0  0  0
  3 27  1  0  0  0  0
  3 28  1  0  0  0  0
  4  5  1  0  0  0  0
  4 29  1  0  0  0  0
  4 30  1  0  0  0  0
  5  6  1  0  0  0  0
  5 31  1  0  0  0  0
  5 32  1  0  0  0  0
  6  7  1  0  0  0  0
  6 21  1  0  0  0  0
  6 33  1  0  0  0  0
  7  8  1  0  0  0  0
  7 34  1  0  0  0  0
  8  9  2  0  0  0  0
  8 10  1  0  0  0  0
 10 11  1  0  0  0  0
 10 35  1  0  0  0  0
 10 36  1  0  0  0  0
 11 19  1  0  0  0  0
 11 12  1  0  0  0  0
 12 13  2  0  0  0  0
 12 37  1  0  0  0  0
 13 14  1  0  0  0  0
 13 17  1  0  0  0  0
 14 15  2  0  0  0  0
 14 16  1  0  0  0  0
 17 18  2  0  0  0  0
 17 38  1  0  0  0  0
 18 19  1  0  0  0  0
 18 39  1  0  0  0  0
 19 20  2  0  0  0  0
 21 22  1  0  0  0  0
 21 40  1  0  0  0  0
 22 41  1  0  0  0  0
 22 42  1  0  0  0  0
 22 43  1  0  0  0  0
M  CHG  1  14   1
M  CHG  1  16  -1
M  END
> <s_m_source_file>
AV-unprocessed.smi

> <i_m_source_file_index>
598

> <i_lp_mmshare_version>
43012

> <i_f3d_flags>
0

> <s_epik_input>
W0NIM11bQ0BASF0xW0NIMl1bQ0gyXVtDSDJdW0NASF0oW0NASF0xW0NIM10pW05IXUMoPU8pW0NIMl1uMltjSF1jKFtOK10oPU8pW08tXSlbY0hdW2NIXWMyPU8=

> <s_epik_cmdline>
J2VwaWtfcHl0aG9uJywgJy1waCcsICc3LjAnLCAnLXRuJywgJzgnLCAnLW1hJywgJzIwMCcsICctbWV0YWxfYmluZGluZycsICctaW1hZScsICc8aW5maWxlLm1hZT4nLCAnLW9tYWUnLCAnPG91dGZpbGUubWFlPic=

> <r_lp_tautomer_probability>
1

> <r_epik_Ionization_Penalty>
1.91291e-08

> <r_epik_Ionization_Penalty_Charging>
8.21931e-11

> <r_epik_Ionization_Penalty_Neutral>
1.90469e-08

> <r_epik_State_Penalty>
-0

> <r_epik_Charging_Adjusted_Penalty>
8.21931e-11

> <i_epik_Tot_Q>
0

> <i_epik_Tot_abs_Q>
2

> <r_epik_Metal_State_Penalty>
-0

> <b_epik_Metal_Only>
0

> <s_lp_Force_Field>
OPLS_2005

> <r_lp_Energy>
25.21

> <b_lp_Chiralities_Consistent>
1

> <s_lp_Variant>
AV-unprocessed.smi:598-5

> <Gold.Version>
5.8.1

> <Gold.Id.Protein>
6NUR|6NUR_protein|mol2

> <Gold.PLP.Fitness>
48.7009

> <Gold.PLP.PLP>
-39.4200

> <Gold.PLP.part.hbond>
-4.0000

> <Gold.PLP.part.metal>
0.0000

> <Gold.PLP.part.buried>
-4.3950

> <Gold.PLP.part.nonpolar>
-31.0357

> <Gold.PLP.part.repulsive>
0.1709

> <Gold.PLP.ligand.clash>
0.0000

> <Gold.PLP.ligand.torsion>
0.7644

> <Gold.PLP.Chemscore.Hbond>
3.6000

> <Gold.PLP.Chemscore.CHOScore>
0.0000

> <Gold.PLP.Chemscore.Metal>
0.0000

> <Gold.Chemscore.Hbonds>
donor molecule, donor type, donor heavy atom, donor atom, acceptor molecule, acceptor atom, score
      P1  H  6934  6947       L1    16  0.98
      P1  H  7997  8008       L1     9  1.00
      P1  H 10752 10764       L1    20  0.78

> <Gold.PLP.Chemscore.Internal.Correction>
0.0096

> <Gold.Rescore>
     Score         DG    S(hbond)    S(metal)    S(lipo)     H(rot)  DE(clash)    DE(int)     intcor
     23.51     -25.35       3.51        0.00     103.38       1.54       0.13       1.71       ----

> <Gold.Chemscore.Fitness>
23.5056

> <Gold.Chemscore.DG>
-25.3464

> <Gold.Chemscore.ZeroCoef>
-5.4800

> <Gold.Chemscore.Hbond>
3.5066

> <Gold.Chemscore.Metal>
0.0000

> <Gold.Chemscore.Lipo>
103.3777

> <Gold.Chemscore.Internal_Hbond>
0.0000

> <Gold.Chemscore.DEClash>
0.1274

> <Gold.Chemscore.DEInternal>
1.7134

> <Gold.Chemscore.Rot>
1.5393

> <Gold.Chemscore.Internal.Correction>
   9.000000E+99

> <Gold.Chemscore.Hbonds>
donor molecule, donor type, donor heavy atom, donor atom, acceptor molecule, acceptor atom, score
      P1  H  6934  6947       L1    16  0.92
      P1  H  7997  8008       L1     9  0.98
      P1  H 10752 10764       L1    20  0.73

> <Gold.Chemscore.Hbond.Weighted>
-11.7119

> <Gold.Chemscore.Metal.Weighted>
-0.0000

> <Gold.Chemscore.Lipo.Weighted>
-12.0952

> <Gold.Chemscore.Internal_Hbond.Weighted>
0.0000

> <Gold.Chemscore.DEClash.Weighted>
0.1274

> <Gold.Chemscore.DEInternal.Weighted>
1.7134

> <Gold.Chemscore.Rot.Weighted>
3.9407

> <Gold.Chemscore.Internal.Correction.Weighted>
   9.000000E+99

> <Gold.Protein.RotatedTorsions>
[ 6907 6896 6895 6894 ] final   23.01 input  -60.11 | X-H torsion
[ 7974 7965 7964 7962 ] final  171.04 input  175.53 | X-H torsion
[ 8008 7997 7996 7995 ] final  -85.90 input   59.86 | X-H torsion
[ 10167 10162 10161 10158 ] final  161.59 input  -65.29 | X-H torsion
[ 10718 10713 10712 10709 ] final   40.40 input   66.30 | X-H torsion
[ 10763 10752 10751 10750 ] final  -18.46 input  -60.55 | X-H torsion
[ 11005 11000 10999 10996 ] final  160.42 input  -57.11 | X-H torsion

> <Gold.Protein.ActiveResidues>
 VAL166  LYS551  ARG553  GLY616  TRP617  ASP618  TYR619  PRO620  LYS621  CYS622 
 ASP623  PHE694  ASN695  SER759  ASP760  ASP761  ALA762  ILE779  LEU786  VAL792 
 PHE793  MET794  SER795  GLU796  ALA797  LYS798  CYS799  TRP800  GLU811  SER814 

> <Gold.Protein.RotatedAtoms>
  151.9359  135.0235  160.0532 H   0  0  0  0  0  0  0  0  0  0  0  0  # atno 6907 bound_to 6896
  152.2078  133.4884  159.5102 H   0  0  0  0  0  0  0  0  0  0  0  0  # atno 6908 bound_to 6896
  150.6969  134.1423  159.4152 H   0  0  0  0  0  0  0  0  0  0  0  0  # atno 6909 bound_to 6896
  144.7306  139.9291  143.6424 H   0  0  0  0  0  0  0  0  0  0  0  0  # atno 7974 bound_to 7965
  154.6458  140.0585  156.9899 H   0  0  0  0  0  0  0  0  0  0  0  0  # atno 8008 bound_to 7997
  155.1446  140.3268  155.4426 H   0  0  0  0  0  0  0  0  0  0  0  0  # atno 8009 bound_to 7997
  156.2553  140.1958  156.6561 H   0  0  0  0  0  0  0  0  0  0  0  0  # atno 8010 bound_to 7997
  139.4851  144.4522  151.8815 H   0  0  0  0  0  0  0  0  0  0  0  0  # atno 10167 bound_to 10162
  157.3817  130.7757  149.7198 H   0  0  0  0  0  0  0  0  0  0  0  0  # atno 10718 bound_to 10713
  153.5897  135.7003  153.5428 H   0  0  0  0  0  0  0  0  0  0  0  0  # atno 10763 bound_to 10752
  153.3189  135.4080  155.1399 H   0  0  0  0  0  0  0  0  0  0  0  0  # atno 10764 bound_to 10752
  154.8603  135.3690  154.5428 H   0  0  0  0  0  0  0  0  0  0  0  0  # atno 10765 bound_to 10752
  140.2058  134.8304  157.3067 H   0  0  0  0  0  0  0  0  0  0  0  0  # atno 11005 bound_to 11000
  146.0871  139.3860  143.0428 LP  0  0  0  0  0  0  0  0  0  0  0  0  # atno 17320 bound_to 7965
  145.7761  140.9876  143.1124 LP  0  0  0  0  0  0  0  0  0  0  0  0  # atno 17321 bound_to 7965
  140.3979  144.2531  150.5895 LP  0  0  0  0  0  0  0  0  0  0  0  0  # atno 17342 bound_to 10162
  140.5085  143.2297  151.8572 LP  0  0  0  0  0  0  0  0  0  0  0  0  # atno 17343 bound_to 10162
  155.9777  130.4059  150.3693 LP  0  0  0  0  0  0  0  0  0  0  0  0  # atno 17370 bound_to 10713
  157.1798  131.0389  151.2754 LP  0  0  0  0  0  0  0  0  0  0  0  0  # atno 17371 bound_to 10713
  140.2005  134.4261  155.7665 LP  0  0  0  0  0  0  0  0  0  0  0  0  # atno 17394 bound_to 11000
  141.2227  133.7069  156.8175 LP  0  0  0  0  0  0  0  0  0  0  0  0  # atno 17395 bound_to 11000

$$$$
