AV-unprocessed.smi:193|AV-procd|sdf|1512|dock9
  -GOLD-   2262019343D 1   1.00000     0.00000
 Structure written by MMmdl.
 61 65  0  0  0  0  0  0  0  0  1 V2000
  143.6042  132.5209  149.4411 C   0  0  0  0  0  0  0  0  0  0  0  0
  144.4315  132.4271  150.7330 C   0  0  2  0  0  0  0  0  0  0  0  0
  145.3687  133.6502  150.8326 C   0  0  0  0  0  0  0  0  0  0  0  0
  145.8833  133.9125  152.1788 N   0  0  0  0  0  0  0  0  0  0  0  0
  145.9339  135.2074  152.5924 C   0  0  0  0  0  0  0  0  0  0  0  0
  145.0804  136.1120  152.0417 N   0  0  0  0  0  0  0  0  0  0  0  0
  145.1135  137.3937  152.4163 C   0  0  0  0  0  0  0  0  0  0  0  0
  145.9063  137.9790  153.3147 N   0  0  0  0  0  0  0  0  0  0  0  0
  146.7602  137.0799  153.8810 C   0  0  0  0  0  0  0  0  0  0  0  0
  146.8422  135.6896  153.5811 C   0  0  0  0  0  0  0  0  0  0  0  0
  147.8272  135.1000  154.3663 N   0  0  0  0  0  0  0  0  0  0  0  0
  148.3069  136.0842  155.0755 C   0  0  0  0  0  0  0  0  0  0  0  0
  147.7152  137.3075  154.8571 N   0  0  0  0  0  0  0  0  0  0  0  0
  148.0505  138.5652  155.5094 C   0  0  0  0  0  0  0  0  0  0  0  0
  149.2261  139.3334  154.8455 C   0  0  0  0  0  0  0  0  0  0  0  0
  149.5636  138.6520  153.6513 O   0  0  0  0  0  0  0  0  0  0  0  0
  148.8208  140.7682  154.4531 C   0  0  0  0  0  0  0  0  0  0  0  0
  148.7396  141.6920  155.6819 C   0  0  0  0  0  0  0  0  0  0  0  0
  149.9786  141.6820  156.3827 O   0  0  0  0  0  0  0  0  0  0  0  0
  150.3267  140.3952  156.8819 C   0  0  0  0  0  0  0  0  0  0  0  0
  150.5008  139.4090  155.7133 C   0  0  0  0  0  0  0  0  0  0  0  0
  145.9874  132.8474  153.1764 C   0  0  0  0  0  0  0  0  0  0  0  0
  146.6417  131.5735  152.6242 C   0  0  0  0  0  0  0  0  0  0  0  0
  145.6325  130.6705  152.0793 N   0  0  0  0  0  0  0  0  0  0  0  0
  146.2205  129.3447  151.9618 C   0  0  2  0  0  0  0  0  0  0  0  0
  145.7966  128.3014  152.9709 C   0  0  0  0  0  0  0  0  0  0  0  0
  147.1793  128.9043  153.0477 C   0  0  1  0  0  0  0  0  0  0  0  0
  148.3990  128.0745  152.7106 C   0  0  0  0  0  0  0  0  0  0  0  0
  145.2122  131.0942  150.7446 C   0  0  0  0  0  0  0  0  0  0  0  0
  144.2453  132.5211  148.5591 H   0  0  0  0  0  0  0  0  0  0  0  0
  143.0076  133.4333  149.4196 H   0  0  0  0  0  0  0  0  0  0  0  0
  142.9146  131.6811  149.3515 H   0  0  0  0  0  0  0  0  0  0  0  0
  143.7186  132.4427  151.5590 H   0  0  0  0  0  0  0  0  0  0  0  0
  146.2071  133.5430  150.1437 H   0  0  0  0  0  0  0  0  0  0  0  0
  144.8086  134.5248  150.4993 H   0  0  0  0  0  0  0  0  0  0  0  0
  144.4036  138.0428  151.9248 H   0  0  0  0  0  0  0  0  0  0  0  0
  149.1073  135.9425  155.7872 H   0  0  0  0  0  0  0  0  0  0  0  0
  147.1545  139.1876  155.5140 H   0  0  0  0  0  0  0  0  0  0  0  0
  148.2677  138.3532  156.5560 H   0  0  0  0  0  0  0  0  0  0  0  0
  149.3964  139.2279  152.9210 H   0  0  0  0  0  0  0  0  0  0  0  0
  149.5591  141.1823  153.7643 H   0  0  0  0  0  0  0  0  0  0  0  0
  147.8709  140.7682  153.9171 H   0  0  0  0  0  0  0  0  0  0  0  0
  148.5278  142.7132  155.3648 H   0  0  0  0  0  0  0  0  0  0  0  0
  147.9287  141.3978  156.3490 H   0  0  0  0  0  0  0  0  0  0  0  0
  151.2590  140.4773  157.4407 H   0  0  0  0  0  0  0  0  0  0  0  0
  149.5689  140.0513  157.5858 H   0  0  0  0  0  0  0  0  0  0  0  0
  150.7905  138.4260  156.0843 H   0  0  0  0  0  0  0  0  0  0  0  0
  151.3366  139.7542  155.1025 H   0  0  0  0  0  0  0  0  0  0  0  0
  146.6184  133.1977  153.9943 H   0  0  0  0  0  0  0  0  0  0  0  0
  145.0100  132.6374  153.6130 H   0  0  0  0  0  0  0  0  0  0  0  0
  147.4335  131.7911  151.9052 H   0  0  0  0  0  0  0  0  0  0  0  0
  147.1196  131.0701  153.4658 H   0  0  0  0  0  0  0  0  0  0  0  0
  146.4358  128.9617  150.9654 H   0  0  0  0  0  0  0  0  0  0  0  0
  145.0811  128.5926  153.7375 H   0  0  0  0  0  0  0  0  0  0  0  0
  145.7079  127.2754  152.6194 H   0  0  0  0  0  0  0  0  0  0  0  0
  147.3445  129.6086  153.8613 H   0  0  0  0  0  0  0  0  0  0  0  0
  148.1850  127.3843  151.8943 H   0  0  0  0  0  0  0  0  0  0  0  0
  148.7115  127.4979  153.5812 H   0  0  0  0  0  0  0  0  0  0  0  0
  149.2209  128.7244  152.4099 H   0  0  0  0  0  0  0  0  0  0  0  0
  144.5598  130.3140  150.3501 H   0  0  0  0  0  0  0  0  0  0  0  0
  146.0686  131.1443  150.0701 H   0  0  0  0  0  0  0  0  0  0  0  0
  1  2  1  0  0  0  0
  1 30  1  0  0  0  0
  1 31  1  0  0  0  0
  1 32  1  0  0  0  0
  2 29  1  0  0  0  0
  2  3  1  0  0  0  0
  2 33  1  0  0  0  0
  3  4  1  0  0  0  0
  3 34  1  0  0  0  0
  3 35  1  0  0  0  0
  4  5  1  0  0  0  0
  4 22  1  0  0  0  0
  5 10  1  0  0  0  0
  5  6  2  0  0  0  0
  6  7  1  0  0  0  0
  7  8  2  0  0  0  0
  7 36  1  0  0  0  0
  8  9  1  0  0  0  0
  9 13  1  0  0  0  0
  9 10  2  0  0  0  0
 10 11  1  0  0  0  0
 11 12  2  0  0  0  0
 12 13  1  0  0  0  0
 12 37  1  0  0  0  0
 13 14  1  0  0  0  0
 14 15  1  0  0  0  0
 14 38  1  0  0  0  0
 14 39  1  0  0  0  0
 15 21  1  0  0  0  0
 15 16  1  0  0  0  0
 15 17  1  0  0  0  0
 16 40  1  0  0  0  0
 17 18  1  0  0  0  0
 17 41  1  0  0  0  0
 17 42  1  0  0  0  0
 18 19  1  0  0  0  0
 18 43  1  0  0  0  0
 18 44  1  0  0  0  0
 19 20  1  0  0  0  0
 20 21  1  0  0  0  0
 20 45  1  0  0  0  0
 20 46  1  0  0  0  0
 21 47  1  0  0  0  0
 21 48  1  0  0  0  0
 22 23  1  0  0  0  0
 22 49  1  0  0  0  0
 22 50  1  0  0  0  0
 23 24  1  0  0  0  0
 23 51  1  0  0  0  0
 23 52  1  0  0  0  0
 24 25  1  0  0  0  0
 24 29  1  0  0  0  0
 25 27  1  0  0  0  0
 25 26  1  0  0  0  0
 25 53  1  0  0  0  0
 26 27  1  0  0  0  0
 26 54  1  0  0  0  0
 26 55  1  0  0  0  0
 27 28  1  0  0  0  0
 27 56  1  0  0  0  0
 28 57  1  0  0  0  0
 28 58  1  0  0  0  0
 28 59  1  0  0  0  0
 29 60  1  0  0  0  0
 29 61  1  0  0  0  0
M  END
> <s_m_source_file>
AV-unprocessed.smi

> <i_m_source_file_index>
193

> <i_lp_mmshare_version>
43012

> <i_f3d_flags>
0

> <s_epik_input>
W0NIM11bQ0BASF0xW0NIMl1bQ0BIXTFOKFtDSDJdMilbQ0gyXVtDSDJdTihbQ0gyXVtDQEhdMltDSDNdKWMobltjSF1uMyljKGMzNCluW2NIXW40W0NIMl1DNShbT0hdKVtDSDJdW0NIMl1PW0NIMl1bQ0gyXTU=

> <s_epik_cmdline>
J2VwaWtfcHl0aG9uJywgJy1waCcsICc3LjAnLCAnLXRuJywgJzgnLCAnLW1hJywgJzIwMCcsICctbWV0YWxfYmluZGluZycsICctaW1hZScsICc8aW5maWxlLm1hZT4nLCAnLW9tYWUnLCAnPG91dGZpbGUubWFlPic=

> <r_lp_tautomer_probability>
1

> <r_epik_Ionization_Penalty>
1.45227

> <r_epik_Ionization_Penalty_Charging>
0

> <r_epik_Ionization_Penalty_Neutral>
1.45227

> <r_epik_State_Penalty>
2.02377

> <r_epik_Charging_Adjusted_Penalty>
2.02377

> <i_epik_Tot_Q>
0

> <i_epik_Tot_abs_Q>
0

> <r_epik_Metal_State_Penalty>
2.01937

> <b_epik_Metal_Only>
0

> <s_lp_Force_Field>
OPLS_2005

> <r_lp_Energy>
48.8748

> <b_lp_Chiralities_Consistent>
1

> <s_lp_Variant>
AV-unprocessed.smi:193-17

> <Gold.Version>
5.8.1

> <Gold.Id.Protein>
6NUR|6NUR_protein|mol2

> <Gold.PLP.Fitness>
40.4062

> <Gold.PLP.PLP>
-35.7692

> <Gold.PLP.part.hbond>
-1.8945

> <Gold.PLP.part.metal>
0.0000

> <Gold.PLP.part.buried>
-1.2173

> <Gold.PLP.part.nonpolar>
-34.5081

> <Gold.PLP.part.repulsive>
2.1009

> <Gold.PLP.ligand.clash>
0.0000

> <Gold.PLP.ligand.torsion>
2.8109

> <Gold.PLP.Chemscore.Hbond>
1.0000

> <Gold.PLP.Chemscore.CHOScore>
2.0000

> <Gold.PLP.Chemscore.Metal>
0.0000

> <Gold.Chemscore.Hbonds>
donor molecule, donor type, donor heavy atom, donor atom, acceptor molecule, acceptor atom, score
      L1  H    16    40       P1  7957  1.00
      L1  C     7    36       P1 10171  1.00
      L1  C     7    36       P1 10175  0.93

> <Gold.PLP.Chemscore.Internal.Correction>
1.2587

> <Gold.Rescore>
     Score         DG    S(hbond)    S(metal)    S(lipo)     H(rot)  DE(clash)    DE(int)     intcor
     11.82     -16.61       0.97        0.00     109.24       1.91       1.97       2.82       ----

> <Gold.Chemscore.Fitness>
11.8233

> <Gold.Chemscore.DG>
-16.6089

> <Gold.Chemscore.ZeroCoef>
-5.4800

> <Gold.Chemscore.Hbond>
0.9670

> <Gold.Chemscore.Metal>
0.0000

> <Gold.Chemscore.Lipo>
109.2359

> <Gold.Chemscore.Internal_Hbond>
0.0000

> <Gold.Chemscore.DEClash>
1.9684

> <Gold.Chemscore.DEInternal>
2.8172

> <Gold.Chemscore.Rot>
1.9068

> <Gold.Chemscore.Internal.Correction>
   9.000000E+99

> <Gold.Chemscore.Hbonds>
donor molecule, donor type, donor heavy atom, donor atom, acceptor molecule, acceptor atom, score
      L1  H    16    40       P1  7957  0.98

> <Gold.Chemscore.Hbond.Weighted>
-3.2297

> <Gold.Chemscore.Metal.Weighted>
-0.0000

> <Gold.Chemscore.Lipo.Weighted>
-12.7806

> <Gold.Chemscore.Internal_Hbond.Weighted>
0.0000

> <Gold.Chemscore.DEClash.Weighted>
1.9684

> <Gold.Chemscore.DEInternal.Weighted>
2.8172

> <Gold.Chemscore.Rot.Weighted>
4.8814

> <Gold.Chemscore.Internal.Correction.Weighted>
   9.000000E+99

> <Gold.Protein.RotatedTorsions>
[ 6907 6896 6895 6894 ] final -170.32 input  -60.11 | X-H torsion
[ 7974 7965 7964 7962 ] final  -69.20 input  175.53 | X-H torsion
[ 8008 7997 7996 7995 ] final -157.92 input   59.86 | X-H torsion
[ 10167 10162 10161 10158 ] final  144.20 input  -65.29 | X-H torsion
[ 10718 10713 10712 10709 ] final -128.82 input   66.30 | X-H torsion
[ 10763 10752 10751 10750 ] final   94.88 input  -60.55 | X-H torsion
[ 11005 11000 10999 10996 ] final  112.25 input  -57.11 | X-H torsion

> <Gold.Protein.ActiveResidues>
 VAL166  LYS551  ARG553  GLY616  TRP617  ASP618  TYR619  PRO620  LYS621  CYS622 
 ASP623  PHE694  ASN695  SER759  ASP760  ASP761  ALA762  ILE779  LEU786  VAL792 
 PHE793  MET794  SER795  GLU796  ALA797  LYS798  CYS799  TRP800  GLU811  SER814 

> <Gold.Protein.RotatedAtoms>
  151.5059  133.3495  159.2876 H   0  0  0  0  0  0  0  0  0  0  0  0  # atno 6907 bound_to 6896
  150.8743  134.8125  159.7189 H   0  0  0  0  0  0  0  0  0  0  0  0  # atno 6908 bound_to 6896
  152.4720  134.4947  159.9758 H   0  0  0  0  0  0  0  0  0  0  0  0  # atno 6909 bound_to 6896
  145.7067  140.9095  143.0702 H   0  0  0  0  0  0  0  0  0  0  0  0  # atno 7974 bound_to 7965
  155.7397  140.0812  157.2251 H   0  0  0  0  0  0  0  0  0  0  0  0  # atno 8008 bound_to 7997
  154.4023  140.1580  156.2657 H   0  0  0  0  0  0  0  0  0  0  0  0  # atno 8009 bound_to 7997
  155.9032  140.3408  155.6045 H   0  0  0  0  0  0  0  0  0  0  0  0  # atno 8010 bound_to 7997
  139.4952  144.5988  151.6525 H   0  0  0  0  0  0  0  0  0  0  0  0  # atno 10167 bound_to 10162
  156.1987  130.6843  151.0513 H   0  0  0  0  0  0  0  0  0  0  0  0  # atno 10718 bound_to 10713
  153.2467  135.4274  155.0755 H   0  0  0  0  0  0  0  0  0  0  0  0  # atno 10763 bound_to 10752
  154.8364  135.3416  154.6571 H   0  0  0  0  0  0  0  0  0  0  0  0  # atno 10764 bound_to 10752
  153.6993  135.7029  153.5124 H   0  0  0  0  0  0  0  0  0  0  0  0  # atno 10765 bound_to 10752
  139.8923  134.9526  156.6557 H   0  0  0  0  0  0  0  0  0  0  0  0  # atno 11005 bound_to 11000
  144.6953  139.9020  143.7459 LP  0  0  0  0  0  0  0  0  0  0  0  0  # atno 17320 bound_to 7965
  146.0749  139.3737  143.0500 LP  0  0  0  0  0  0  0  0  0  0  0  0  # atno 17321 bound_to 7965
  140.5633  144.0233  150.6180 LP  0  0  0  0  0  0  0  0  0  0  0  0  # atno 17342 bound_to 10162
  140.3326  143.3068  152.0672 LP  0  0  0  0  0  0  0  0  0  0  0  0  # atno 17343 bound_to 10162
  157.6973  131.0789  150.6930 LP  0  0  0  0  0  0  0  0  0  0  0  0  # atno 17370 bound_to 10713
  156.6987  130.4617  149.5579 LP  0  0  0  0  0  0  0  0  0  0  0  0  # atno 17371 bound_to 10713
  140.7486  133.8917  155.8330 LP  0  0  0  0  0  0  0  0  0  0  0  0  # atno 17394 bound_to 11000
  141.0019  134.1138  157.4308 LP  0  0  0  0  0  0  0  0  0  0  0  0  # atno 17395 bound_to 11000

$$$$
