AV-unprocessed.smi:623|AV-procd|sdf|3091|dock4
  -GOLD-   22720 0 13D 1   1.00000     0.00000
 Structure written by MMmdl.
 45 47  0  0  0  0  0  0  0  0  1 V2000
  151.6498  143.5788  161.2723 C   0  0  0  0  0  0  0  0  0  0  0  0
  151.9038  144.2899  159.9135 C   0  0  0  0  0  0  0  0  0  0  0  0
  151.8432  145.8117  160.2264 C   0  0  0  0  0  0  0  0  0  0  0  0
  153.1946  143.8456  159.1966 C   0  0  2  0  0  0  0  0  0  0  0  0
  153.1352  144.5885  157.8433 C   0  0  0  0  0  0  0  0  0  0  0  0
  151.6255  144.5954  157.5312 C   0  0  0  0  0  0  0  0  0  0  0  0
  151.0246  143.8064  158.7277 C   0  0  2  0  0  0  0  0  0  0  0  0
  149.5095  144.0205  158.8898 C   0  0  0  0  0  0  0  0  0  0  0  0
  151.4365  142.3062  158.5832 C   0  0  1  0  0  0  0  0  0  0  0  0
  151.1915  141.7347  157.2587 N   0  0  0  0  0  0  0  0  0  0  0  0
  149.9848  141.4615  156.7407 C   0  0  0  0  0  0  0  0  0  0  0  0
  148.9293  141.6731  157.3397 O   0  0  0  0  0  0  0  0  0  0  0  0
  149.9769  140.8861  155.3178 C   0  0  0  0  0  0  0  0  0  0  0  0
  150.3801  139.4733  155.2716 N   0  0  0  0  0  0  0  0  0  0  0  0
  149.4237  138.4703  155.3423 C   0  0  0  0  0  0  0  0  0  0  0  0
  149.7252  137.1503  155.3268 C   0  0  0  0  0  0  0  0  0  0  0  0
  151.1133  136.7109  155.2318 C   0  0  0  0  0  0  0  0  0  0  0  0
  151.4868  135.5402  155.2096 O   0  0  0  0  0  0  0  0  0  0  0  0
  152.0459  137.7495  155.1643 N   0  0  0  0  0  0  0  0  0  0  0  0
  151.7420  139.1115  155.1823 C   0  0  0  0  0  0  0  0  0  0  0  0
  152.6438  139.9469  155.1237 O   0  0  0  0  0  0  0  0  0  0  0  0
  152.9491  142.3501  158.8983 C   0  0  0  0  0  0  0  0  0  0  0  0
  153.0203  137.4931  155.1001 H   0  0  0  0  0  0  0  0  0  0  0  0
  152.4028  143.8727  162.0041 H   0  0  0  0  0  0  0  0  0  0  0  0
  151.6660  142.4922  161.2379 H   0  0  0  0  0  0  0  0  0  0  0  0
  150.6795  143.8616  161.6813 H   0  0  0  0  0  0  0  0  0  0  0  0
  152.0205  146.4672  159.3768 H   0  0  0  0  0  0  0  0  0  0  0  0
  152.5880  146.0774  160.9771 H   0  0  0  0  0  0  0  0  0  0  0  0
  150.8693  146.0856  160.6329 H   0  0  0  0  0  0  0  0  0  0  0  0
  154.1158  144.0291  159.7505 H   0  0  0  0  0  0  0  0  0  0  0  0
  153.5280  145.6023  157.9228 H   0  0  0  0  0  0  0  0  0  0  0  0
  153.7117  144.0821  157.0685 H   0  0  0  0  0  0  0  0  0  0  0  0
  151.2422  145.6153  157.4938 H   0  0  0  0  0  0  0  0  0  0  0  0
  151.4025  144.1605  156.5574 H   0  0  0  0  0  0  0  0  0  0  0  0
  148.9695  143.6919  158.0019 H   0  0  0  0  0  0  0  0  0  0  0  0
  149.2697  145.0723  159.0446 H   0  0  0  0  0  0  0  0  0  0  0  0
  149.1180  143.4610  159.7393 H   0  0  0  0  0  0  0  0  0  0  0  0
  150.9313  141.6936  159.3313 H   0  0  0  0  0  0  0  0  0  0  0  0
  152.0041  141.5361  156.6933 H   0  0  0  0  0  0  0  0  0  0  0  0
  148.9716  141.0037  154.9109 H   0  0  0  0  0  0  0  0  0  0  0  0
  150.6209  141.4861  154.6715 H   0  0  0  0  0  0  0  0  0  0  0  0
  148.3825  138.7505  155.4198 H   0  0  0  0  0  0  0  0  0  0  0  0
  148.9353  136.4155  155.3869 H   0  0  0  0  0  0  0  0  0  0  0  0
  153.5690  141.9926  158.0745 H   0  0  0  0  0  0  0  0  0  0  0  0
  153.1885  141.7270  159.7601 H   0  0  0  0  0  0  0  0  0  0  0  0
  1  2  1  0  0  0  0
  1 24  1  0  0  0  0
  1 25  1  0  0  0  0
  1 26  1  0  0  0  0
  2  7  1  0  0  0  0
  2  3  1  0  0  0  0
  2  4  1  0  0  0  0
  3 27  1  0  0  0  0
  3 28  1  0  0  0  0
  3 29  1  0  0  0  0
  4 22  1  0  0  0  0
  4  5  1  0  0  0  0
  4 30  1  0  0  0  0
  5  6  1  0  0  0  0
  5 31  1  0  0  0  0
  5 32  1  0  0  0  0
  6  7  1  0  0  0  0
  6 33  1  0  0  0  0
  6 34  1  0  0  0  0
  7  8  1  0  0  0  0
  7  9  1  0  0  0  0
  8 35  1  0  0  0  0
  8 36  1  0  0  0  0
  8 37  1  0  0  0  0
  9 10  1  0  0  0  0
  9 22  1  0  0  0  0
  9 38  1  0  0  0  0
 10 11  1  0  0  0  0
 10 39  1  0  0  0  0
 11 12  2  0  0  0  0
 11 13  1  0  0  0  0
 13 14  1  0  0  0  0
 13 40  1  0  0  0  0
 13 41  1  0  0  0  0
 14 20  1  0  0  0  0
 14 15  1  0  0  0  0
 15 16  2  0  0  0  0
 15 42  1  0  0  0  0
 16 17  1  0  0  0  0
 16 43  1  0  0  0  0
 17 18  2  0  0  0  0
 17 19  1  0  0  0  0
 19 23  1  0  0  0  0
 19 20  1  0  0  0  0
 20 21  2  0  0  0  0
 22 44  1  0  0  0  0
 22 45  1  0  0  0  0
M  END
> <s_m_source_file>
AV-unprocessed.smi

> <i_m_source_file_index>
623

> <i_lp_mmshare_version>
43012

> <i_f3d_flags>
0

> <s_epik_input>
W0NIM11bQ0BdMTJDKFtDSDNdKShbQ0gzXSlbQ0BIXShbQ0gyXVtDSDJdMSlbQ0gyXVtDQEBIXTJbTkhdQyg9TylbQ0gyXW4zW2NIXVtjSF1jKD1PKVtuSF1jMz1P

> <s_epik_cmdline>
J2VwaWtfcHl0aG9uJywgJy1waCcsICc3LjAnLCAnLXRuJywgJzgnLCAnLW1hJywgJzIwMCcsICctbWV0YWxfYmluZGluZycsICctaW1hZScsICc8aW5maWxlLm1hZT4nLCAnLW9tYWUnLCAnPG91dGZpbGUubWFlPic=

> <r_lp_tautomer_probability>
0.999537

> <r_epik_Ionization_Penalty>
0.00303563

> <r_epik_Ionization_Penalty_Charging>
0.00303561

> <r_epik_Ionization_Penalty_Neutral>
2.03238e-08

> <r_epik_State_Penalty>
0.00213308

> <r_epik_Charging_Adjusted_Penalty>
0.00516869

> <i_epik_Tot_Q>
0

> <i_epik_Tot_abs_Q>
0

> <r_epik_Metal_State_Penalty>
0.361714

> <b_epik_Metal_Only>
0

> <s_lp_Force_Field>
OPLS_2005

> <r_lp_Energy>
55.109

> <b_lp_Chiralities_Consistent>
1

> <s_lp_Variant>
AV-unprocessed.smi:623-1

> <Gold.Version>
5.8.1

> <Gold.Id.Protein>
6NUR|6NUR_protein|mol2

> <Gold.PLP.Fitness>
46.5085

> <Gold.PLP.PLP>
-40.9951

> <Gold.PLP.part.hbond>
-2.8381

> <Gold.PLP.part.metal>
0.0000

> <Gold.PLP.part.buried>
-3.4630

> <Gold.PLP.part.nonpolar>
-35.7388

> <Gold.PLP.part.repulsive>
0.4238

> <Gold.PLP.ligand.clash>
0.0000

> <Gold.PLP.ligand.torsion>
0.6163

> <Gold.PLP.Chemscore.Hbond>
2.2440

> <Gold.PLP.Chemscore.CHOScore>
0.0000

> <Gold.PLP.Chemscore.Metal>
0.0000

> <Gold.Chemscore.Hbonds>
donor molecule, donor type, donor heavy atom, donor atom, acceptor molecule, acceptor atom, score
      P1  H  7989  7998       L1    21  0.22
      P1  H  7997  8009       L1    21  1.00
      P1  H 10752 10765       L1    18  1.00

> <Gold.PLP.Chemscore.Internal.Correction>
0.0139

> <Gold.Rescore>
     Score         DG    S(hbond)    S(metal)    S(lipo)     H(rot)  DE(clash)    DE(int)     intcor
     19.31     -21.88       1.81        0.00     124.98       1.66       0.72       1.85       ----

> <Gold.Chemscore.Fitness>
19.3072

> <Gold.Chemscore.DG>
-21.8816

> <Gold.Chemscore.ZeroCoef>
-5.4800

> <Gold.Chemscore.Hbond>
1.8085

> <Gold.Chemscore.Metal>
0.0000

> <Gold.Chemscore.Lipo>
124.9824

> <Gold.Chemscore.Internal_Hbond>
0.0000

> <Gold.Chemscore.DEClash>
0.7202

> <Gold.Chemscore.DEInternal>
1.8543

> <Gold.Chemscore.Rot>
1.6647

> <Gold.Chemscore.Internal.Correction>
   9.000000E+99

> <Gold.Chemscore.Hbonds>
donor molecule, donor type, donor heavy atom, donor atom, acceptor molecule, acceptor atom, score
      P1  H  7989  7998       L1    21  0.01
      P1  H  7997  8009       L1    21  0.98
      P1  H 10752 10765       L1    18  0.62

> <Gold.Chemscore.Hbond.Weighted>
-6.0404

> <Gold.Chemscore.Metal.Weighted>
-0.0000

> <Gold.Chemscore.Lipo.Weighted>
-14.6229

> <Gold.Chemscore.Internal_Hbond.Weighted>
0.0000

> <Gold.Chemscore.DEClash.Weighted>
0.7202

> <Gold.Chemscore.DEInternal.Weighted>
1.8543

> <Gold.Chemscore.Rot.Weighted>
4.2617

> <Gold.Chemscore.Internal.Correction.Weighted>
   9.000000E+99

> <Gold.Protein.RotatedTorsions>
[ 6907 6896 6895 6894 ] final  144.19 input  -60.11 | X-H torsion
[ 7974 7965 7964 7962 ] final  -72.15 input  175.53 | X-H torsion
[ 8008 7997 7996 7995 ] final -144.47 input   59.86 | X-H torsion
[ 10167 10162 10161 10158 ] final -153.58 input  -65.29 | X-H torsion
[ 10718 10713 10712 10709 ] final   34.84 input   66.30 | X-H torsion
[ 10763 10752 10751 10750 ] final -169.43 input  -60.55 | X-H torsion
[ 11005 11000 10999 10996 ] final -139.03 input  -57.11 | X-H torsion

> <Gold.Protein.ActiveResidues>
 VAL166  LYS551  ARG553  GLY616  TRP617  ASP618  TYR619  PRO620  LYS621  CYS622 
 ASP623  PHE694  ASN695  SER759  ASP760  ASP761  ALA762  ILE779  LEU786  VAL792 
 PHE793  MET794  SER795  GLU796  ALA797  LYS798  CYS799  TRP800  GLU811  SER814 

> <Gold.Protein.RotatedAtoms>
  152.1968  133.4812  159.5036 H   0  0  0  0  0  0  0  0  0  0  0  0  # atno 6907 bound_to 6896
  150.6961  134.1642  159.4197 H   0  0  0  0  0  0  0  0  0  0  0  0  # atno 6908 bound_to 6896
  151.9559  135.0147  160.0595 H   0  0  0  0  0  0  0  0  0  0  0  0  # atno 6909 bound_to 6896
  145.6688  140.9228  143.0894 H   0  0  0  0  0  0  0  0  0  0  0  0  # atno 7974 bound_to 7965
  155.5274  140.0596  157.2895 H   0  0  0  0  0  0  0  0  0  0  0  0  # atno 8008 bound_to 7997
  154.4496  140.1942  156.0505 H   0  0  0  0  0  0  0  0  0  0  0  0  # atno 8009 bound_to 7997
  156.0676  140.3264  155.7541 H   0  0  0  0  0  0  0  0  0  0  0  0  # atno 8010 bound_to 7997
  139.7085  143.9147  152.2458 H   0  0  0  0  0  0  0  0  0  0  0  0  # atno 10167 bound_to 10162
  157.3153  130.7420  149.6750 H   0  0  0  0  0  0  0  0  0  0  0  0  # atno 10718 bound_to 10713
  154.6524  135.2913  154.9970 H   0  0  0  0  0  0  0  0  0  0  0  0  # atno 10763 bound_to 10752
  154.1059  135.6570  153.4880 H   0  0  0  0  0  0  0  0  0  0  0  0  # atno 10764 bound_to 10752
  153.0384  135.5253  154.7438 H   0  0  0  0  0  0  0  0  0  0  0  0  # atno 10765 bound_to 10752
  140.8559  134.2228  157.4734 H   0  0  0  0  0  0  0  0  0  0  0  0  # atno 11005 bound_to 11000
  144.7064  139.8545  143.7428 LP  0  0  0  0  0  0  0  0  0  0  0  0  # atno 17320 bound_to 7965
  146.1063  139.4063  143.0315 LP  0  0  0  0  0  0  0  0  0  0  0  0  # atno 17321 bound_to 7965
  139.9009  144.6912  150.8666 LP  0  0  0  0  0  0  0  0  0  0  0  0  # atno 17342 bound_to 10162
  140.7727  143.3514  151.2006 LP  0  0  0  0  0  0  0  0  0  0  0  0  # atno 17343 bound_to 10162
  155.9681  130.4239  150.4584 LP  0  0  0  0  0  0  0  0  0  0  0  0  # atno 17370 bound_to 10713
  157.2590  131.0563  151.2332 LP  0  0  0  0  0  0  0  0  0  0  0  0  # atno 17371 bound_to 10713
  139.8705  134.9706  156.4707 LP  0  0  0  0  0  0  0  0  0  0  0  0  # atno 17394 bound_to 11000
  140.8738  133.7969  155.9392 LP  0  0  0  0  0  0  0  0  0  0  0  0  # atno 17395 bound_to 11000

$$$$
