AV-unprocessed.smi:1163|AV-procd|sdf|4923|dock3
  -GOLD-   22720 3503D 1   1.00000     0.00000
 Structure written by MMmdl.
 40 41  0  0  0  0  0  0  0  0  2 V2000
  146.2026  142.9141  154.8773 C   0  0  0  0  0  0  0  0  0  0  0  0
  145.6483  141.7472  155.4744 O   0  0  0  0  0  0  0  0  0  0  0  0
  145.8697  140.5303  154.8630 C   0  0  0  0  0  0  0  0  0  0  0  0
  145.1892  139.3969  155.3504 C   0  0  0  0  0  0  0  0  0  0  0  0
  145.4102  138.1507  154.7334 C   0  0  0  0  0  0  0  0  0  0  0  0
  146.3151  138.0758  153.6473 C   0  0  0  0  0  0  0  0  0  0  0  0
  146.6134  136.8861  152.9289 N   0  0  0  0  0  0  0  0  0  0  0  0
  145.9425  135.7214  152.9157 C   0  0  0  0  0  0  0  0  0  0  0  0
  144.9258  135.4740  153.5636 O   0  0  0  0  0  0  0  0  0  0  0  0
  146.5347  134.8288  152.1097 N   0  0  0  0  0  0  0  0  0  0  0  0
  146.0531  133.4715  151.8762 C   0  0  1  0  0  0  0  0  0  0  0  0
  145.9134  133.1125  150.4036 C   0  0  0  0  0  0  0  0  0  0  0  0
  145.8757  131.5817  150.4481 C   0  0  0  0  0  0  0  0  0  0  0  0
  146.6956  131.1690  151.6164 N   0  3  2  0  0  0  0  0  0  0  0  0
  146.1119  130.0770  152.4360 C   0  0  0  0  0  0  0  0  0  0  0  0
  146.9835  128.8082  152.4465 C   0  0  0  0  0  0  0  0  0  0  0  0
  146.4200  127.9013  153.2430 F   0  0  0  0  0  0  0  0  0  0  0  0
  147.0963  128.2846  151.2263 F   0  0  0  0  0  0  0  0  0  0  0  0
  148.1981  129.0927  152.9160 F   0  0  0  0  0  0  0  0  0  0  0  0
  147.0190  132.3959  152.3817 C   0  0  0  0  0  0  0  0  0  0  0  0
  146.9340  139.2715  153.2274 C   0  0  0  0  0  0  0  0  0  0  0  0
  146.7275  140.4686  153.8149 N   0  0  0  0  0  0  0  0  0  0  0  0
  145.9393  143.7858  155.4762 H   0  0  0  0  0  0  0  0  0  0  0  0
  145.8099  143.0734  153.8717 H   0  0  0  0  0  0  0  0  0  0  0  0
  147.2913  142.8603  154.8324 H   0  0  0  0  0  0  0  0  0  0  0  0
  144.5055  139.4823  156.1819 H   0  0  0  0  0  0  0  0  0  0  0  0
  144.8732  137.2888  155.0969 H   0  0  0  0  0  0  0  0  0  0  0  0
  147.4722  136.9096  152.3987 H   0  0  0  0  0  0  0  0  0  0  0  0
  147.3690  135.1113  151.6160 H   0  0  0  0  0  0  0  0  0  0  0  0
  145.0826  133.3432  152.3607 H   0  0  0  0  0  0  0  0  0  0  0  0
  145.0252  133.5443  149.9412 H   0  0  0  0  0  0  0  0  0  0  0  0
  146.7872  133.4490  149.8431 H   0  0  0  0  0  0  0  0  0  0  0  0
  144.8414  131.2599  150.5798 H   0  0  0  0  0  0  0  0  0  0  0  0
  146.2467  131.1331  149.5262 H   0  0  0  0  0  0  0  0  0  0  0  0
  146.0234  130.4291  153.4648 H   0  0  0  0  0  0  0  0  0  0  0  0
  145.0990  129.8522  152.0983 H   0  0  0  0  0  0  0  0  0  0  0  0
  148.0491  132.6716  152.1508 H   0  0  0  0  0  0  0  0  0  0  0  0
  146.9527  132.2601  153.4623 H   0  0  0  0  0  0  0  0  0  0  0  0
  147.6220  139.2687  152.3946 H   0  0  0  0  0  0  0  0  0  0  0  0
  147.5757  130.8219  151.2619 H   0  0  0  0  0  0  0  0  0  0  0  0
  1  2  1  0  0  0  0
  1 23  1  0  0  0  0
  1 24  1  0  0  0  0
  1 25  1  0  0  0  0
  2  3  1  0  0  0  0
  3 22  1  0  0  0  0
  3  4  2  0  0  0  0
  4  5  1  0  0  0  0
  4 26  1  0  0  0  0
  5  6  2  0  0  0  0
  5 27  1  0  0  0  0
  6  7  1  0  0  0  0
  6 21  1  0  0  0  0
  7  8  1  0  0  0  0
  7 28  1  0  0  0  0
  8  9  2  0  0  0  0
  8 10  1  0  0  0  0
 10 11  1  0  0  0  0
 10 29  1  0  0  0  0
 11 20  1  0  0  0  0
 11 12  1  0  0  0  0
 11 30  1  0  0  0  0
 12 13  1  0  0  0  0
 12 31  1  0  0  0  0
 12 32  1  0  0  0  0
 13 14  1  0  0  0  0
 13 33  1  0  0  0  0
 13 34  1  0  0  0  0
 14 15  1  0  0  0  0
 14 20  1  0  0  0  0
 14 40  1  0  0  0  0
 15 16  1  0  0  0  0
 15 35  1  0  0  0  0
 15 36  1  0  0  0  0
 16 17  1  0  0  0  0
 16 18  1  0  0  0  0
 16 19  1  0  0  0  0
 20 37  1  0  0  0  0
 20 38  1  0  0  0  0
 21 22  2  0  0  0  0
 21 39  1  0  0  0  0
M  CHG  1  14   1
M  END
> <s_m_source_file>
AV-unprocessed.smi

> <i_m_source_file_index>
1163

> <i_lp_mmshare_version>
43012

> <i_f3d_flags>
0

> <s_epik_input>
W0NIM11PYzFbY0hdW2NIXWMoW2NIXW4xKVtOSF1DKD1PKVtOSF1bQ0BASF0yW0NIMl1bQ0gyXU4oW0NIMl0yKVtDSDJdQyhGKShGKUY=

> <s_epik_cmdline>
J2VwaWtfcHl0aG9uJywgJy1waCcsICc3LjAnLCAnLXRuJywgJzgnLCAnLW1hJywgJzIwMCcsICctbWV0YWxfYmluZGluZycsICctaW1hZScsICc8aW5maWxlLm1hZT4nLCAnLW9tYWUnLCAnPG91dGZpbGUubWFlPic=

> <r_lp_tautomer_probability>
1

> <r_epik_Ionization_Penalty>
1.12054

> <r_epik_Ionization_Penalty_Charging>
1.12047

> <r_epik_Ionization_Penalty_Neutral>
7.20346e-05

> <r_epik_State_Penalty>
1.17927

> <r_epik_Charging_Adjusted_Penalty>
2.29974

> <i_epik_Tot_Q>
1

> <i_epik_Tot_abs_Q>
1

> <r_epik_Metal_State_Penalty>
1.17928

> <b_epik_Metal_Only>
0

> <s_lp_Force_Field>
OPLS_2005

> <r_lp_Energy>
31.6131

> <b_lp_Chiralities_Consistent>
1

> <s_lp_Variant>
AV-unprocessed.smi:1163-4

> <Gold.Version>
5.8.1

> <Gold.Id.Protein>
6NUR|6NUR_protein|mol2

> <Gold.PLP.Fitness>
42.7276

> <Gold.PLP.PLP>
-32.5014

> <Gold.PLP.part.hbond>
-3.0000

> <Gold.PLP.part.metal>
0.0000

> <Gold.PLP.part.buried>
-2.5920

> <Gold.PLP.part.nonpolar>
-26.9033

> <Gold.PLP.part.repulsive>
0.3762

> <Gold.PLP.ligand.clash>
0.0000

> <Gold.PLP.ligand.torsion>
0.9143

> <Gold.PLP.Chemscore.Hbond>
2.8480

> <Gold.PLP.Chemscore.CHOScore>
1.0000

> <Gold.PLP.Chemscore.Metal>
0.0000

> <Gold.Chemscore.Hbonds>
donor molecule, donor type, donor heavy atom, donor atom, acceptor molecule, acceptor atom, score
      L1  H     7    28       P1  7948  1.00
      L1  H    10    29       P1  7948  0.85
      L1  H    14    40       P1 10747  1.00
      L1  C    21    39       P1  7957  1.00

> <Gold.PLP.Chemscore.Internal.Correction>
0.5109

> <Gold.Rescore>
     Score         DG    S(hbond)    S(metal)    S(lipo)     H(rot)  DE(clash)    DE(int)     intcor
     15.92     -17.94       2.90        0.00      60.42       1.68       0.01       2.01       ----

> <Gold.Chemscore.Fitness>
15.9220

> <Gold.Chemscore.DG>
-17.9412

> <Gold.Chemscore.ZeroCoef>
-5.4800

> <Gold.Chemscore.Hbond>
2.9002

> <Gold.Chemscore.Metal>
0.0000

> <Gold.Chemscore.Lipo>
60.4244

> <Gold.Chemscore.Internal_Hbond>
0.0000

> <Gold.Chemscore.DEClash>
0.0073

> <Gold.Chemscore.DEInternal>
2.0118

> <Gold.Chemscore.Rot>
1.6778

> <Gold.Chemscore.Internal.Correction>
   9.000000E+99

> <Gold.Chemscore.Hbonds>
donor molecule, donor type, donor heavy atom, donor atom, acceptor molecule, acceptor atom, score
      L1  H     7    28       P1  7948  0.98
      L1  H    10    29       P1  7948  0.71
      L1  H    14    40       P1 10747  0.98

> <Gold.Chemscore.Hbond.Weighted>
-9.6866

> <Gold.Chemscore.Metal.Weighted>
-0.0000

> <Gold.Chemscore.Lipo.Weighted>
-7.0697

> <Gold.Chemscore.Internal_Hbond.Weighted>
0.0000

> <Gold.Chemscore.DEClash.Weighted>
0.0073

> <Gold.Chemscore.DEInternal.Weighted>
2.0118

> <Gold.Chemscore.Rot.Weighted>
4.2951

> <Gold.Chemscore.Internal.Correction.Weighted>
   9.000000E+99

> <Gold.Protein.RotatedTorsions>
[ 6907 6896 6895 6894 ] final -136.48 input  -60.11 | X-H torsion
[ 7974 7965 7964 7962 ] final   75.45 input  175.53 | X-H torsion
[ 8008 7997 7996 7995 ] final  -76.23 input   59.86 | X-H torsion
[ 10167 10162 10161 10158 ] final  112.60 input  -65.29 | X-H torsion
[ 10718 10713 10712 10709 ] final   11.97 input   66.30 | X-H torsion
[ 10763 10752 10751 10750 ] final  -50.40 input  -60.55 | X-H torsion
[ 11005 11000 10999 10996 ] final   96.54 input  -57.11 | X-H torsion

> <Gold.Protein.ActiveResidues>
 VAL166  LYS551  ARG553  GLY616  TRP617  ASP618  TYR619  PRO620  LYS621  CYS622 
 ASP623  PHE694  ASN695  SER759  ASP760  ASP761  ALA762  ILE779  LEU786  VAL792 
 PHE793  MET794  SER795  GLU796  ALA797  LYS798  CYS799  TRP800  GLU811  SER814 

> <Gold.Protein.RotatedAtoms>
  151.0106  133.5969  159.2682 H   0  0  0  0  0  0  0  0  0  0  0  0  # atno 6907 bound_to 6896
  151.3122  135.0796  159.9286 H   0  0  0  0  0  0  0  0  0  0  0  0  # atno 6908 bound_to 6896
  152.5298  133.9769  159.7842 H   0  0  0  0  0  0  0  0  0  0  0  0  # atno 6909 bound_to 6896
  145.7155  139.2629  143.1626 H   0  0  0  0  0  0  0  0  0  0  0  0  # atno 7974 bound_to 7965
  154.5487  140.0730  156.8631 H   0  0  0  0  0  0  0  0  0  0  0  0  # atno 8008 bound_to 7997
  155.3037  140.3386  155.4228 H   0  0  0  0  0  0  0  0  0  0  0  0  # atno 8009 bound_to 7997
  156.1941  140.1697  156.8019 H   0  0  0  0  0  0  0  0  0  0  0  0  # atno 8010 bound_to 7997
  139.6524  144.7128  151.2023 H   0  0  0  0  0  0  0  0  0  0  0  0  # atno 10167 bound_to 10162
  157.0034  130.6088  149.5699 H   0  0  0  0  0  0  0  0  0  0  0  0  # atno 10718 bound_to 10713
  154.1097  135.6551  153.4883 H   0  0  0  0  0  0  0  0  0  0  0  0  # atno 10763 bound_to 10752
  153.0261  135.5244  154.7204 H   0  0  0  0  0  0  0  0  0  0  0  0  # atno 10764 bound_to 10752
  154.6381  135.2984  155.0106 H   0  0  0  0  0  0  0  0  0  0  0  0  # atno 10765 bound_to 10752
  139.8781  134.8956  156.4173 H   0  0  0  0  0  0  0  0  0  0  0  0  # atno 11005 bound_to 11000
  146.0674  140.7906  142.9705 LP  0  0  0  0  0  0  0  0  0  0  0  0  # atno 17320 bound_to 7965
  144.6930  140.3289  143.7219 LP  0  0  0  0  0  0  0  0  0  0  0  0  # atno 17321 bound_to 7965
  140.7543  143.6129  150.8588 LP  0  0  0  0  0  0  0  0  0  0  0  0  # atno 17342 bound_to 10162
  139.9778  143.5985  152.2953 LP  0  0  0  0  0  0  0  0  0  0  0  0  # atno 17343 bound_to 10162
  156.0163  130.5257  150.8143 LP  0  0  0  0  0  0  0  0  0  0  0  0  # atno 17370 bound_to 10713
  157.5374  131.0939  150.9874 LP  0  0  0  0  0  0  0  0  0  0  0  0  # atno 17371 bound_to 10713
  140.9158  133.7679  155.9846 LP  0  0  0  0  0  0  0  0  0  0  0  0  # atno 17394 bound_to 11000
  140.8495  134.2971  157.5281 LP  0  0  0  0  0  0  0  0  0  0  0  0  # atno 17395 bound_to 11000

$$$$
