AV-unprocessed.smi:3110|AV-procd|sdf|11830|dock9
  -GOLD-   2272017203D 1   1.00000     0.00000
 Structure written by MMmdl.
 33 34  0  0  0  0  0  0  0  0  1 V2000
  152.8133  139.8695  157.5705 O   0  0  0  0  0  0  0  0  0  0  0  0
  152.0339  140.7770  157.8600 C   0  0  0  0  0  0  0  0  0  0  0  0
  152.0391  141.3770  159.2685 C   0  0  0  0  0  0  0  0  0  0  0  0
  152.6605  142.7889  159.3086 C   0  0  2  0  0  0  0  0  0  0  0  0
  152.5347  143.4334  160.6651 C   0  0  0  0  0  0  0  0  0  0  0  0
  152.0607  144.6759  160.6031 C   0  0  0  0  0  0  0  0  0  0  0  0
  151.7725  145.1104  159.1932 C   0  0  0  0  0  0  0  0  0  0  0  0
  152.0007  143.8287  158.3628 C   0  0  0  0  0  0  0  0  0  0  0  0
  151.1433  141.2889  156.9960 N   0  0  0  0  0  0  0  0  0  0  0  0
  150.9141  140.8063  155.6372 C   0  0  0  0  0  0  0  0  0  0  0  0
  149.6794  139.8889  155.5552 C   0  0  0  0  0  0  0  0  0  0  0  0
  148.5981  140.4724  154.7824 N   0  0  0  0  0  0  0  0  0  0  0  0
  147.8786  139.8694  153.7586 C   0  0  0  0  0  0  0  0  0  0  0  0
  146.9679  140.8019  153.3162 C   0  0  0  0  0  0  0  0  0  0  0  0
  147.1031  141.9758  154.0536 N   0  0  0  0  0  0  0  0  0  0  0  0
  148.0864  141.7051  154.9025 C   0  0  0  0  0  0  0  0  0  0  0  0
  151.0136  141.4065  159.6397 H   0  0  0  0  0  0  0  0  0  0  0  0
  152.5866  140.7139  159.9403 H   0  0  0  0  0  0  0  0  0  0  0  0
  153.7275  142.7226  159.0897 H   0  0  0  0  0  0  0  0  0  0  0  0
  152.8249  142.9251  161.5728 H   0  0  0  0  0  0  0  0  0  0  0  0
  151.9073  145.3280  161.4501 H   0  0  0  0  0  0  0  0  0  0  0  0
  150.7513  145.4804  159.0987 H   0  0  0  0  0  0  0  0  0  0  0  0
  152.4615  145.9051  158.9063 H   0  0  0  0  0  0  0  0  0  0  0  0
  152.6132  144.0190  157.4808 H   0  0  0  0  0  0  0  0  0  0  0  0
  151.0350  143.4657  158.0088 H   0  0  0  0  0  0  0  0  0  0  0  0
  150.5506  142.0403  157.3181 H   0  0  0  0  0  0  0  0  0  0  0  0
  150.7554  141.6781  155.0023 H   0  0  0  0  0  0  0  0  0  0  0  0
  151.7969  140.3013  155.2412 H   0  0  0  0  0  0  0  0  0  0  0  0
  149.9462  138.9262  155.1175 H   0  0  0  0  0  0  0  0  0  0  0  0
  149.3049  139.6827  156.5584 H   0  0  0  0  0  0  0  0  0  0  0  0
  148.0746  138.8586  153.4325 H   0  0  0  0  0  0  0  0  0  0  0  0
  146.2322  140.7188  152.5300 H   0  0  0  0  0  0  0  0  0  0  0  0
  148.4468  142.4222  155.6256 H   0  0  0  0  0  0  0  0  0  0  0  0
  1  2  2  0  0  0  0
  2  3  1  0  0  0  0
  2  9  1  0  0  0  0
  3  4  1  0  0  0  0
  3 17  1  0  0  0  0
  3 18  1  0  0  0  0
  4  8  1  0  0  0  0
  4  5  1  0  0  0  0
  4 19  1  0  0  0  0
  5  6  2  0  0  0  0
  5 20  1  0  0  0  0
  6  7  1  0  0  0  0
  6 21  1  0  0  0  0
  7  8  1  0  0  0  0
  7 22  1  0  0  0  0
  7 23  1  0  0  0  0
  8 24  1  0  0  0  0
  8 25  1  0  0  0  0
  9 10  1  0  0  0  0
  9 26  1  0  0  0  0
 10 11  1  0  0  0  0
 10 27  1  0  0  0  0
 10 28  1  0  0  0  0
 11 12  1  0  0  0  0
 11 29  1  0  0  0  0
 11 30  1  0  0  0  0
 12 16  1  0  0  0  0
 12 13  1  0  0  0  0
 13 14  2  0  0  0  0
 13 31  1  0  0  0  0
 14 15  1  0  0  0  0
 14 32  1  0  0  0  0
 15 16  2  0  0  0  0
 16 33  1  0  0  0  0
M  END
> <s_m_source_file>
AV-unprocessed.smi

> <i_m_source_file_index>
3110

> <i_lp_mmshare_version>
43012

> <i_f3d_flags>
0

> <s_epik_input>
W0NIMl0xW0NIMl1bQ0hdPVtDSF1bQ0BIXTFbQ0gyXUMoPU8pW05IXVtDSDJdW0NIMl1uMltjSF1bY0hdbltjSF0y

> <s_epik_cmdline>
J2VwaWtfcHl0aG9uJywgJy1waCcsICc3LjAnLCAnLXRuJywgJzgnLCAnLW1hJywgJzIwMCcsICctbWV0YWxfYmluZGluZycsICctaW1hZScsICc8aW5maWxlLm1hZT4nLCAnLW9tYWUnLCAnPG91dGZpbGUubWFlPic=

> <r_lp_tautomer_probability>
1

> <r_epik_Ionization_Penalty>
0.593629

> <r_epik_Ionization_Penalty_Charging>
0.593629

> <r_epik_Ionization_Penalty_Neutral>
1.57355e-08

> <r_epik_State_Penalty>
0.607413

> <r_epik_Charging_Adjusted_Penalty>
1.20104

> <i_epik_Tot_Q>
0

> <i_epik_Tot_abs_Q>
0

> <r_epik_Metal_State_Penalty>
0.299385

> <b_epik_Metal_Only>
0

> <s_lp_Force_Field>
OPLS_2005

> <r_lp_Energy>
17.6057

> <b_lp_Chiralities_Consistent>
1

> <s_lp_Variant>
AV-unprocessed.smi:3110-3

> <Gold.Version>
5.8.1

> <Gold.Id.Protein>
6NUR|6NUR_protein|mol2

> <Gold.PLP.Fitness>
44.6526

> <Gold.PLP.PLP>
-37.2035

> <Gold.PLP.part.hbond>
-1.0000

> <Gold.PLP.part.metal>
0.0000

> <Gold.PLP.part.buried>
-3.1953

> <Gold.PLP.part.nonpolar>
-33.7966

> <Gold.PLP.part.repulsive>
0.2442

> <Gold.PLP.ligand.clash>
0.0000

> <Gold.PLP.ligand.torsion>
0.7836

> <Gold.PLP.Chemscore.Hbond>
1.0000

> <Gold.PLP.Chemscore.CHOScore>
2.0000

> <Gold.PLP.Chemscore.Metal>
0.0000

> <Gold.Chemscore.Hbonds>
donor molecule, donor type, donor heavy atom, donor atom, acceptor molecule, acceptor atom, score
      P1  H  7997  8009       L1     1  1.00
      L1  C    14    32       P1 10175  0.96
      L1  C    16    33       P1  8028  1.00

> <Gold.PLP.Chemscore.Internal.Correction>
0.0163

> <Gold.Rescore>
     Score         DG    S(hbond)    S(metal)    S(lipo)     H(rot)  DE(clash)    DE(int)     intcor
     13.24     -14.95       0.99        0.00      96.56       2.01       0.16       1.55       ----

> <Gold.Chemscore.Fitness>
13.2392

> <Gold.Chemscore.DG>
-14.9496

> <Gold.Chemscore.ZeroCoef>
-5.4800

> <Gold.Chemscore.Hbond>
0.9939

> <Gold.Chemscore.Metal>
0.0000

> <Gold.Chemscore.Lipo>
96.5603

> <Gold.Chemscore.Internal_Hbond>
0.0000

> <Gold.Chemscore.DEClash>
0.1557

> <Gold.Chemscore.DEInternal>
1.5547

> <Gold.Chemscore.Rot>
2.0108

> <Gold.Chemscore.Internal.Correction>
   9.000000E+99

> <Gold.Chemscore.Hbonds>
donor molecule, donor type, donor heavy atom, donor atom, acceptor molecule, acceptor atom, score
      P1  H  7997  8009       L1     1  0.99

> <Gold.Chemscore.Hbond.Weighted>
-3.3198

> <Gold.Chemscore.Metal.Weighted>
-0.0000

> <Gold.Chemscore.Lipo.Weighted>
-11.2976

> <Gold.Chemscore.Internal_Hbond.Weighted>
0.0000

> <Gold.Chemscore.DEClash.Weighted>
0.1557

> <Gold.Chemscore.DEInternal.Weighted>
1.5547

> <Gold.Chemscore.Rot.Weighted>
5.1477

> <Gold.Chemscore.Internal.Correction.Weighted>
   9.000000E+99

> <Gold.Protein.RotatedTorsions>
[ 6907 6896 6895 6894 ] final  176.47 input  -60.11 | X-H torsion
[ 7974 7965 7964 7962 ] final   53.00 input  175.53 | X-H torsion
[ 8008 7997 7996 7995 ] final  176.96 input   59.86 | X-H torsion
[ 10167 10162 10161 10158 ] final -108.84 input  -65.29 | X-H torsion
[ 10718 10713 10712 10709 ] final  103.36 input   66.30 | X-H torsion
[ 10763 10752 10751 10750 ] final   26.28 input  -60.55 | X-H torsion
[ 11005 11000 10999 10996 ] final   39.31 input  -57.11 | X-H torsion

> <Gold.Protein.ActiveResidues>
 VAL166  LYS551  ARG553  GLY616  TRP617  ASP618  TYR619  PRO620  LYS621  CYS622 
 ASP623  PHE694  ASN695  SER759  ASP760  ASP761  ALA762  ILE779  LEU786  VAL792 
 PHE793  MET794  SER795  GLU796  ALA797  LYS798  CYS799  TRP800  GLU811  SER814 

> <Gold.Protein.RotatedAtoms>
  151.7196  133.3314  159.3311 H   0  0  0  0  0  0  0  0  0  0  0  0  # atno 6907 bound_to 6896
  150.7658  134.6459  159.6271 H   0  0  0  0  0  0  0  0  0  0  0  0  # atno 6908 bound_to 6896
  152.3660  134.6806  160.0243 H   0  0  0  0  0  0  0  0  0  0  0  0  # atno 6909 bound_to 6896
  145.9756  139.4191  143.0163 H   0  0  0  0  0  0  0  0  0  0  0  0  # atno 7974 bound_to 7965
  156.0708  140.1370  156.9831 H   0  0  0  0  0  0  0  0  0  0  0  0  # atno 8008 bound_to 7997
  154.4531  140.0972  156.6728 H   0  0  0  0  0  0  0  0  0  0  0  0  # atno 8009 bound_to 7997
  155.5231  140.3457  155.4413 H   0  0  0  0  0  0  0  0  0  0  0  0  # atno 8010 bound_to 7997
  140.1618  143.4114  152.1420 H   0  0  0  0  0  0  0  0  0  0  0  0  # atno 10167 bound_to 10162
  157.6775  131.0777  150.5544 H   0  0  0  0  0  0  0  0  0  0  0  0  # atno 10718 bound_to 10713
  153.0633  135.6564  154.0411 H   0  0  0  0  0  0  0  0  0  0  0  0  # atno 10763 bound_to 10752
  154.0074  135.2931  155.3397 H   0  0  0  0  0  0  0  0  0  0  0  0  # atno 10764 bound_to 10752
  154.6981  135.5256  153.8556 H   0  0  0  0  0  0  0  0  0  0  0  0  # atno 10765 bound_to 10752
  140.2041  134.3835  155.8081 H   0  0  0  0  0  0  0  0  0  0  0  0  # atno 11005 bound_to 11000
  145.7844  140.9842  143.1082 LP  0  0  0  0  0  0  0  0  0  0  0  0  # atno 17320 bound_to 7965
  144.6848  139.9604  143.7480 LP  0  0  0  0  0  0  0  0  0  0  0  0  # atno 17321 bound_to 7965
  139.5378  144.7227  151.4836 LP  0  0  0  0  0  0  0  0  0  0  0  0  # atno 17342 bound_to 10162
  140.6638  143.8441  150.6918 LP  0  0  0  0  0  0  0  0  0  0  0  0  # atno 17343 bound_to 10162
  156.5848  130.4314  149.5962 LP  0  0  0  0  0  0  0  0  0  0  0  0  # atno 17370 bound_to 10713
  156.2632  130.6974  151.1749 LP  0  0  0  0  0  0  0  0  0  0  0  0  # atno 17371 bound_to 10713
  141.2227  133.7109  156.8307 LP  0  0  0  0  0  0  0  0  0  0  0  0  # atno 17394 bound_to 11000
  140.2022  134.8888  157.3182 LP  0  0  0  0  0  0  0  0  0  0  0  0  # atno 17395 bound_to 11000

$$$$
