AV-unprocessed.smi:212|AV-procd|sdf|1629|dock8
  -GOLD-   2262019583D 1   1.00000     0.00000
 Structure written by MMmdl.
 65 68  0  0  0  0  0  0  0  0  2 V2000
  146.9627  134.5597  154.8306 C   0  0  0  0  0  0  0  0  0  0  0  0
  145.6922  134.8875  154.0228 C   0  0  2  0  0  0  0  0  0  0  0  0
  145.7979  134.5098  152.5287 C   0  0  0  0  0  0  0  0  0  0  0  0
  144.5246  134.7888  151.8145 N   0  3  2  0  0  0  0  0  0  0  0  0
  144.5549  134.3794  150.3851 C   0  0  0  0  0  0  0  0  0  0  0  0
  144.0732  132.9251  150.1703 C   0  0  0  0  0  0  0  0  0  0  0  0
  143.8264  132.6658  148.6744 C   0  0  0  0  0  0  0  0  0  0  0  0
  145.0667  131.8915  150.7328 C   0  0  0  0  0  0  0  0  0  0  0  0
  142.8297  132.7462  150.8191 O   0  0  0  0  0  0  0  0  0  0  0  0
  144.0531  136.1843  152.0171 C   0  0  0  0  0  0  0  0  0  0  0  0
  143.9424  136.5202  153.5161 C   0  0  0  0  0  0  0  0  0  0  0  0
  145.2061  136.2620  154.1999 N   0  0  0  0  0  0  0  0  0  0  0  0
  146.0547  137.3208  154.1464 C   0  0  0  0  0  0  0  0  0  0  0  0
  146.4622  137.8267  152.9525 N   0  0  0  0  0  0  0  0  0  0  0  0
  147.2720  138.8892  152.9124 C   0  0  0  0  0  0  0  0  0  0  0  0
  147.7755  139.5938  153.9280 N   0  0  0  0  0  0  0  0  0  0  0  0
  147.3602  139.0959  155.1275 C   0  0  0  0  0  0  0  0  0  0  0  0
  146.5086  137.9734  155.3244 C   0  0  0  0  0  0  0  0  0  0  0  0
  146.3060  137.7609  156.6823 N   0  0  0  0  0  0  0  0  0  0  0  0
  146.9965  138.7080  157.2571 C   0  0  0  0  0  0  0  0  0  0  0  0
  147.6526  139.5601  156.3971 N   0  0  0  0  0  0  0  0  0  0  0  0
  148.4782  140.6986  156.7577 C   0  0  0  0  0  0  0  0  0  0  0  0
  149.9753  140.3489  156.9725 C   0  0  1  0  0  0  0  0  0  0  0  0
  150.5810  139.5733  155.7739 C   0  0  0  0  0  0  0  0  0  0  0  0
  150.4622  140.2922  154.5630 O   0  0  0  0  0  0  0  0  0  0  0  0
  150.7921  141.6331  157.2723 C   0  0  1  0  0  0  0  0  0  0  0  0
  150.1573  142.5773  158.2801 C   0  0  0  0  0  0  0  0  0  0  0  0
  151.3414  143.4359  158.7052 C   0  0  0  0  0  0  0  0  0  0  0  0
  152.4587  142.5578  158.6971 O   0  0  0  0  0  0  0  0  0  0  0  0
  152.1547  141.3915  157.9375 C   0  0  0  0  0  0  0  0  0  0  0  0
  147.1758  133.4910  154.7928 H   0  0  0  0  0  0  0  0  0  0  0  0
  146.8396  134.8301  155.8796 H   0  0  0  0  0  0  0  0  0  0  0  0
  147.8452  135.0748  154.4527 H   0  0  0  0  0  0  0  0  0  0  0  0
  144.9081  134.2583  154.4465 H   0  0  0  0  0  0  0  0  0  0  0  0
  146.6123  135.0476  152.0431 H   0  0  0  0  0  0  0  0  0  0  0  0
  146.0298  133.4474  152.4412 H   0  0  0  0  0  0  0  0  0  0  0  0
  143.9674  135.0744  149.7822 H   0  0  0  0  0  0  0  0  0  0  0  0
  145.5742  134.4582  150.0029 H   0  0  0  0  0  0  0  0  0  0  0  0
  144.7453  132.7779  148.0976 H   0  0  0  0  0  0  0  0  0  0  0  0
  143.0942  133.3624  148.2636 H   0  0  0  0  0  0  0  0  0  0  0  0
  143.4525  131.6560  148.5003 H   0  0  0  0  0  0  0  0  0  0  0  0
  146.0488  131.9976  150.2706 H   0  0  0  0  0  0  0  0  0  0  0  0
  144.7256  130.8725  150.5460 H   0  0  0  0  0  0  0  0  0  0  0  0
  145.1967  131.9957  151.8106 H   0  0  0  0  0  0  0  0  0  0  0  0
  142.1413  133.0253  150.2342 H   0  0  0  0  0  0  0  0  0  0  0  0
  144.7441  136.8743  151.5302 H   0  0  0  0  0  0  0  0  0  0  0  0
  143.0826  136.3245  151.5419 H   0  0  0  0  0  0  0  0  0  0  0  0
  143.6277  137.5569  153.6451 H   0  0  0  0  0  0  0  0  0  0  0  0
  143.1677  135.9072  153.9782 H   0  0  0  0  0  0  0  0  0  0  0  0
  147.5551  139.2249  151.9257 H   0  0  0  0  0  0  0  0  0  0  0  0
  147.0381  138.8181  158.3308 H   0  0  0  0  0  0  0  0  0  0  0  0
  148.3794  141.4554  155.9784 H   0  0  0  0  0  0  0  0  0  0  0  0
  148.0504  141.1306  157.6623 H   0  0  0  0  0  0  0  0  0  0  0  0
  150.0490  139.7101  157.8543 H   0  0  0  0  0  0  0  0  0  0  0  0
  151.6288  139.3329  155.9575 H   0  0  0  0  0  0  0  0  0  0  0  0
  150.0672  138.6265  155.6144 H   0  0  0  0  0  0  0  0  0  0  0  0
  149.6882  139.9930  154.1104 H   0  0  0  0  0  0  0  0  0  0  0  0
  150.9526  142.1842  156.3439 H   0  0  0  0  0  0  0  0  0  0  0  0
  149.3451  143.1735  157.8635 H   0  0  0  0  0  0  0  0  0  0  0  0
  149.7707  142.0213  159.1357 H   0  0  0  0  0  0  0  0  0  0  0  0
  151.5159  144.2297  157.9777 H   0  0  0  0  0  0  0  0  0  0  0  0
  151.1984  143.8953  159.6836 H   0  0  0  0  0  0  0  0  0  0  0  0
  152.1095  140.5437  158.6222 H   0  0  0  0  0  0  0  0  0  0  0  0
  152.9418  141.1934  157.2096 H   0  0  0  0  0  0  0  0  0  0  0  0
  143.8345  134.1961  152.2532 H   0  0  0  0  0  0  0  0  0  0  0  0
  1  2  1  0  0  0  0
  1 31  1  0  0  0  0
  1 32  1  0  0  0  0
  1 33  1  0  0  0  0
  2 12  1  0  0  0  0
  2  3  1  0  0  0  0
  2 34  1  0  0  0  0
  3  4  1  0  0  0  0
  3 35  1  0  0  0  0
  3 36  1  0  0  0  0
  4  5  1  0  0  0  0
  4 10  1  0  0  0  0
  4 65  1  0  0  0  0
  5  6  1  0  0  0  0
  5 37  1  0  0  0  0
  5 38  1  0  0  0  0
  6  7  1  0  0  0  0
  6  8  1  0  0  0  0
  6  9  1  0  0  0  0
  7 39  1  0  0  0  0
  7 40  1  0  0  0  0
  7 41  1  0  0  0  0
  8 42  1  0  0  0  0
  8 43  1  0  0  0  0
  8 44  1  0  0  0  0
  9 45  1  0  0  0  0
 10 11  1  0  0  0  0
 10 46  1  0  0  0  0
 10 47  1  0  0  0  0
 11 12  1  0  0  0  0
 11 48  1  0  0  0  0
 11 49  1  0  0  0  0
 12 13  1  0  0  0  0
 13 18  1  0  0  0  0
 13 14  2  0  0  0  0
 14 15  1  0  0  0  0
 15 16  2  0  0  0  0
 15 50  1  0  0  0  0
 16 17  1  0  0  0  0
 17 21  1  0  0  0  0
 17 18  2  0  0  0  0
 18 19  1  0  0  0  0
 19 20  2  0  0  0  0
 20 21  1  0  0  0  0
 20 51  1  0  0  0  0
 21 22  1  0  0  0  0
 22 23  1  0  0  0  0
 22 52  1  0  0  0  0
 22 53  1  0  0  0  0
 23 24  1  0  0  0  0
 23 26  1  0  0  0  0
 23 54  1  0  0  0  0
 24 25  1  0  0  0  0
 24 55  1  0  0  0  0
 24 56  1  0  0  0  0
 25 57  1  0  0  0  0
 26 30  1  0  0  0  0
 26 27  1  0  0  0  0
 26 58  1  0  0  0  0
 27 28  1  0  0  0  0
 27 59  1  0  0  0  0
 27 60  1  0  0  0  0
 28 29  1  0  0  0  0
 28 61  1  0  0  0  0
 28 62  1  0  0  0  0
 29 30  1  0  0  0  0
 30 63  1  0  0  0  0
 30 64  1  0  0  0  0
M  CHG  1   4   1
M  END
> <s_m_source_file>
AV-unprocessed.smi

> <i_m_source_file_index>
212

> <i_lp_mmshare_version>
43012

> <i_f3d_flags>
0

> <s_epik_input>
W0NIM11bQ0BASF0xW0NIMl1OKFtDSDJdQyhbQ0gzXSkoW0NIM10pW09IXSlbQ0gyXVtDSDJdTjFjKG5bY0hdbjIpYyhjMjMpbltjSF1uM1tDSDJdW0NASF0oW0NIMl1bT0hdKVtDQEBIXTRbQ0gyXVtDSDJdT1tDSDJdNA==

> <s_epik_cmdline>
J2VwaWtfcHl0aG9uJywgJy1waCcsICc3LjAnLCAnLXRuJywgJzgnLCAnLW1hJywgJzIwMCcsICctbWV0YWxfYmluZGluZycsICctaW1hZScsICc8aW5maWxlLm1hZT4nLCAnLW9tYWUnLCAnPG91dGZpbGUubWFlPic=

> <r_lp_tautomer_probability>
1

> <r_epik_Ionization_Penalty>
0.00182193

> <r_epik_Ionization_Penalty_Charging>
0.00173996

> <r_epik_Ionization_Penalty_Neutral>
8.19718e-05

> <r_epik_State_Penalty>
-0

> <r_epik_Charging_Adjusted_Penalty>
0.00173996

> <i_epik_Tot_Q>
1

> <i_epik_Tot_abs_Q>
1

> <r_epik_Metal_State_Penalty>
-0

> <b_epik_Metal_Only>
0

> <s_lp_Force_Field>
OPLS_2005

> <r_lp_Energy>
57.8479

> <b_lp_Chiralities_Consistent>
1

> <s_lp_Variant>
AV-unprocessed.smi:212-13

> <Gold.Version>
5.8.1

> <Gold.Id.Protein>
6NUR|6NUR_protein|mol2

> <Gold.PLP.Fitness>
43.2007

> <Gold.PLP.PLP>
-35.7714

> <Gold.PLP.part.hbond>
-2.0000

> <Gold.PLP.part.metal>
0.0000

> <Gold.PLP.part.buried>
-6.9732

> <Gold.PLP.part.nonpolar>
-26.3708

> <Gold.PLP.part.repulsive>
0.4409

> <Gold.PLP.ligand.clash>
0.0000

> <Gold.PLP.ligand.torsion>
1.4345

> <Gold.PLP.Chemscore.Hbond>
2.0000

> <Gold.PLP.Chemscore.CHOScore>
1.0000

> <Gold.PLP.Chemscore.Metal>
0.0000

> <Gold.Chemscore.Hbonds>
donor molecule, donor type, donor heavy atom, donor atom, acceptor molecule, acceptor atom, score
      L1  H     9    45       P1 10186  1.00
      P1  H  7989  7998       L1    25  1.00
      L1  C    15    50       P1  7957  1.00

> <Gold.PLP.Chemscore.Internal.Correction>
1.2982

> <Gold.Rescore>
     Score         DG    S(hbond)    S(metal)    S(lipo)     H(rot)  DE(clash)    DE(int)     intcor
     11.26     -13.47       1.95        0.00      93.30       3.68       0.08       2.13       ----

> <Gold.Chemscore.Fitness>
11.2602

> <Gold.Chemscore.DG>
-13.4719

> <Gold.Chemscore.ZeroCoef>
-5.4800

> <Gold.Chemscore.Hbond>
1.9461

> <Gold.Chemscore.Metal>
0.0000

> <Gold.Chemscore.Lipo>
93.2972

> <Gold.Chemscore.Internal_Hbond>
0.0000

> <Gold.Chemscore.DEClash>
0.0821

> <Gold.Chemscore.DEInternal>
2.1296

> <Gold.Chemscore.Rot>
3.6812

> <Gold.Chemscore.Internal.Correction>
   9.000000E+99

> <Gold.Chemscore.Hbonds>
donor molecule, donor type, donor heavy atom, donor atom, acceptor molecule, acceptor atom, score
      L1  H     9    45       P1 10186  0.94
      P1  H  7989  7998       L1    25  0.81

> <Gold.Chemscore.Hbond.Weighted>
-6.5000

> <Gold.Chemscore.Metal.Weighted>
-0.0000

> <Gold.Chemscore.Lipo.Weighted>
-10.9158

> <Gold.Chemscore.Internal_Hbond.Weighted>
0.0000

> <Gold.Chemscore.DEClash.Weighted>
0.0821

> <Gold.Chemscore.DEInternal.Weighted>
2.1296

> <Gold.Chemscore.Rot.Weighted>
9.4239

> <Gold.Chemscore.Internal.Correction.Weighted>
   9.000000E+99

> <Gold.Protein.RotatedTorsions>
[ 6907 6896 6895 6894 ] final -172.70 input  -60.11 | X-H torsion
[ 7974 7965 7964 7962 ] final -167.89 input  175.53 | X-H torsion
[ 8008 7997 7996 7995 ] final -169.00 input   59.86 | X-H torsion
[ 10167 10162 10161 10158 ] final  141.59 input  -65.29 | X-H torsion
[ 10718 10713 10712 10709 ] final -180.00 input   66.30 | X-H torsion
[ 10763 10752 10751 10750 ] final -106.69 input  -60.55 | X-H torsion
[ 11005 11000 10999 10996 ] final -102.26 input  -57.11 | X-H torsion

> <Gold.Protein.ActiveResidues>
 VAL166  LYS551  ARG553  GLY616  TRP617  ASP618  TYR619  PRO620  LYS621  CYS622 
 ASP623  PHE694  ASN695  SER759  ASP760  ASP761  ALA762  ILE779  LEU786  VAL792 
 PHE793  MET794  SER795  GLU796  ALA797  LYS798  CYS799  TRP800  GLU811  SER814 

> <Gold.Protein.RotatedAtoms>
  151.5443  133.3427  159.2940 H   0  0  0  0  0  0  0  0  0  0  0  0  # atno 6907 bound_to 6896
  150.8517  134.7846  159.7025 H   0  0  0  0  0  0  0  0  0  0  0  0  # atno 6908 bound_to 6896
  152.4561  134.5296  159.9858 H   0  0  0  0  0  0  0  0  0  0  0  0  # atno 6909 bound_to 6896
  144.7214  140.2452  143.6286 H   0  0  0  0  0  0  0  0  0  0  0  0  # atno 7974 bound_to 7965
  155.8991  140.1038  157.1363 H   0  0  0  0  0  0  0  0  0  0  0  0  # atno 8008 bound_to 7997
  154.4024  140.1296  156.4477 H   0  0  0  0  0  0  0  0  0  0  0  0  # atno 8009 bound_to 7997
  155.7444  140.3466  155.5122 H   0  0  0  0  0  0  0  0  0  0  0  0  # atno 8010 bound_to 7997
  139.5016  144.6162  151.6158 H   0  0  0  0  0  0  0  0  0  0  0  0  # atno 10167 bound_to 10162
  156.8674  130.9772  151.3077 H   0  0  0  0  0  0  0  0  0  0  0  0  # atno 10718 bound_to 10713
  154.8028  135.4702  154.0318 H   0  0  0  0  0  0  0  0  0  0  0  0  # atno 10763 bound_to 10752
  153.1810  135.6840  153.8485 H   0  0  0  0  0  0  0  0  0  0  0  0  # atno 10764 bound_to 10752
  153.8035  135.3226  155.3370 H   0  0  0  0  0  0  0  0  0  0  0  0  # atno 10765 bound_to 10752
  141.1196  133.8544  157.1337 H   0  0  0  0  0  0  0  0  0  0  0  0  # atno 11005 bound_to 11000
  145.8281  139.2074  143.1898 LP  0  0  0  0  0  0  0  0  0  0  0  0  # atno 17320 bound_to 7965
  146.0455  140.8123  142.9808 LP  0  0  0  0  0  0  0  0  0  0  0  0  # atno 17321 bound_to 7965
  140.5850  143.9879  150.6290 LP  0  0  0  0  0  0  0  0  0  0  0  0  # atno 17342 bound_to 10162
  140.3041  143.3241  152.0943 LP  0  0  0  0  0  0  0  0  0  0  0  0  # atno 17343 bound_to 10162
  157.6215  130.8659  149.9117 LP  0  0  0  0  0  0  0  0  0  0  0  0  # atno 17370 bound_to 10713
  156.0744  130.3681  150.0708 LP  0  0  0  0  0  0  0  0  0  0  0  0  # atno 17371 bound_to 10713
  140.0144  134.9974  157.0462 LP  0  0  0  0  0  0  0  0  0  0  0  0  # atno 17394 bound_to 11000
  140.4545  134.1548  155.7185 LP  0  0  0  0  0  0  0  0  0  0  0  0  # atno 17395 bound_to 11000

$$$$
