AV-unprocessed.smi:251|AV-procd|sdf|1935|dock4
  -GOLD-   2262021 53D 1   1.00000     0.00000
 Structure written by MMmdl.
 50 54  0  0  0  0  0  0  0  0  1 V2000
  154.6036  134.0171  159.3932 O   0  0  0  0  0  0  0  0  0  0  0  0
  155.3603  135.2112  159.3985 C   0  0  0  0  0  0  0  0  0  0  0  0
  156.0446  135.4682  160.7671 C   0  0  0  0  0  0  0  0  0  0  0  0
  156.8191  136.8253  160.7492 C   0  0  0  0  0  0  0  0  0  0  0  0
  156.0077  137.9963  160.4436 N   0  0  0  0  0  0  0  0  0  0  0  0
  155.3702  138.2645  159.2539 C   0  0  0  0  0  0  0  0  0  0  0  0
  154.6981  139.3810  159.2217 N   0  0  0  0  0  0  0  0  0  0  0  0
  154.8562  139.9186  160.4944 C   0  0  0  0  0  0  0  0  0  0  0  0
  154.3947  141.1015  161.1468 C   0  0  0  0  0  0  0  0  0  0  0  0
  153.6163  142.0510  160.5640 N   0  0  0  0  0  0  0  0  0  0  0  0
  152.8897  143.0379  161.3618 C   0  0  0  0  0  0  0  0  0  0  0  0
  151.9826  143.7496  160.3880 C   0  0  1  0  0  0  0  0  0  0  0  0
  152.5206  144.4294  159.1448 C   0  0  0  0  0  0  0  0  0  0  0  0
  152.0218  143.0006  159.0920 C   0  0  2  0  0  0  0  0  0  0  0  0
  150.7763  142.6424  158.2920 C   0  0  0  0  0  0  0  0  0  0  0  0
  151.0588  142.6660  156.9900 F   0  0  0  0  0  0  0  0  0  0  0  0
  150.3496  141.4232  158.6222 F   0  0  0  0  0  0  0  0  0  0  0  0
  149.7907  143.5089  158.5280 F   0  0  0  0  0  0  0  0  0  0  0  0
  152.9907  141.8482  159.2606 C   0  0  0  0  0  0  0  0  0  0  0  0
  154.7788  141.2863  162.4378 N   0  0  0  0  0  0  0  0  0  0  0  0
  155.5434  140.3830  163.0566 C   0  0  0  0  0  0  0  0  0  0  0  0
  156.0379  139.2421  162.5768 N   0  0  0  0  0  0  0  0  0  0  0  0
  155.6725  139.0508  161.2775 C   0  0  0  0  0  0  0  0  0  0  0  0
  154.9423  135.4367  161.8563 C   0  0  0  0  0  0  0  0  0  0  0  0
  155.5202  135.3995  163.2819 C   0  0  0  0  0  0  0  0  0  0  0  0
  156.3623  134.2636  163.4267 O   0  0  0  0  0  0  0  0  0  0  0  0
  157.4832  134.2917  162.5521 C   0  0  0  0  0  0  0  0  0  0  0  0
  157.0143  134.3018  161.0845 C   0  0  0  0  0  0  0  0  0  0  0  0
  155.1992  133.2836  159.3938 H   0  0  0  0  0  0  0  0  0  0  0  0
  156.0953  135.1662  158.5948 H   0  0  0  0  0  0  0  0  0  0  0  0
  154.6850  136.0296  159.1463 H   0  0  0  0  0  0  0  0  0  0  0  0
  157.2993  137.0126  161.7085 H   0  0  0  0  0  0  0  0  0  0  0  0
  157.6359  136.7832  160.0280 H   0  0  0  0  0  0  0  0  0  0  0  0
  155.4262  137.6065  158.3993 H   0  0  0  0  0  0  0  0  0  0  0  0
  152.2911  142.5471  162.1301 H   0  0  0  0  0  0  0  0  0  0  0  0
  153.5678  143.7480  161.8359 H   0  0  0  0  0  0  0  0  0  0  0  0
  151.0250  144.0959  160.7712 H   0  0  0  0  0  0  0  0  0  0  0  0
  151.9067  145.2067  158.6950 H   0  0  0  0  0  0  0  0  0  0  0  0
  153.5943  144.5940  159.0787 H   0  0  0  0  0  0  0  0  0  0  0  0
  153.7285  141.8665  158.4584 H   0  0  0  0  0  0  0  0  0  0  0  0
  152.4630  140.8943  159.2381 H   0  0  0  0  0  0  0  0  0  0  0  0
  155.7969  140.6080  164.0819 H   0  0  0  0  0  0  0  0  0  0  0  0
  154.2531  136.2734  161.7483 H   0  0  0  0  0  0  0  0  0  0  0  0
  154.3305  134.5430  161.7254 H   0  0  0  0  0  0  0  0  0  0  0  0
  156.0707  136.3102  163.5189 H   0  0  0  0  0  0  0  0  0  0  0  0
  154.7105  135.3262  164.0079 H   0  0  0  0  0  0  0  0  0  0  0  0
  158.1154  135.1504  162.7788 H   0  0  0  0  0  0  0  0  0  0  0  0
  158.0890  133.4051  162.7394 H   0  0  0  0  0  0  0  0  0  0  0  0
  156.5179  133.3516  160.8822 H   0  0  0  0  0  0  0  0  0  0  0  0
  157.8820  134.3341  160.4247 H   0  0  0  0  0  0  0  0  0  0  0  0
  1  2  1  0  0  0  0
  1 29  1  0  0  0  0
  2  3  1  0  0  0  0
  2 30  1  0  0  0  0
  2 31  1  0  0  0  0
  3 28  1  0  0  0  0
  3  4  1  0  0  0  0
  3 24  1  0  0  0  0
  4  5  1  0  0  0  0
  4 32  1  0  0  0  0
  4 33  1  0  0  0  0
  5 23  1  0  0  0  0
  5  6  1  0  0  0  0
  6  7  2  0  0  0  0
  6 34  1  0  0  0  0
  7  8  1  0  0  0  0
  8 23  2  0  0  0  0
  8  9  1  0  0  0  0
  9 10  1  0  0  0  0
  9 20  2  0  0  0  0
 10 19  1  0  0  0  0
 10 11  1  0  0  0  0
 11 12  1  0  0  0  0
 11 35  1  0  0  0  0
 11 36  1  0  0  0  0
 12 14  1  0  0  0  0
 12 13  1  0  0  0  0
 12 37  1  0  0  0  0
 13 14  1  0  0  0  0
 13 38  1  0  0  0  0
 13 39  1  0  0  0  0
 14 15  1  0  0  0  0
 14 19  1  0  0  0  0
 15 16  1  0  0  0  0
 15 17  1  0  0  0  0
 15 18  1  0  0  0  0
 19 40  1  0  0  0  0
 19 41  1  0  0  0  0
 20 21  1  0  0  0  0
 21 22  2  0  0  0  0
 21 42  1  0  0  0  0
 22 23  1  0  0  0  0
 24 25  1  0  0  0  0
 24 43  1  0  0  0  0
 24 44  1  0  0  0  0
 25 26  1  0  0  0  0
 25 45  1  0  0  0  0
 25 46  1  0  0  0  0
 26 27  1  0  0  0  0
 27 28  1  0  0  0  0
 27 47  1  0  0  0  0
 27 48  1  0  0  0  0
 28 49  1  0  0  0  0
 28 50  1  0  0  0  0
M  END
> <s_m_source_file>
AV-unprocessed.smi

> <i_m_source_file_index>
251

> <i_lp_mmshare_version>
43012

> <i_f3d_flags>
0

> <s_epik_input>
W0NIMl0xW0NIMl1PW0NIMl1bQ0gyXUMxKFtDSDJdW09IXSlbQ0gyXW4oW2NIXW4yKWMoYzIzKW5bY0hdbmMzTihbQ0gyXTQpW0NIMl1bQ0BIXShbQ0gyXTUpW0NAQF00NUMoRikoRilG

> <s_epik_cmdline>
J2VwaWtfcHl0aG9uJywgJy1waCcsICc3LjAnLCAnLXRuJywgJzgnLCAnLW1hJywgJzIwMCcsICctbWV0YWxfYmluZGluZycsICctaW1hZScsICc8aW5maWxlLm1hZT4nLCAnLW9tYWUnLCAnPG91dGZpbGUubWFlPic=

> <r_lp_tautomer_probability>
1

> <r_epik_Ionization_Penalty>
0.00226625

> <r_epik_Ionization_Penalty_Charging>
0

> <r_epik_Ionization_Penalty_Neutral>
0.00226625

> <r_epik_State_Penalty>
0.00138204

> <r_epik_Charging_Adjusted_Penalty>
0.00138204

> <i_epik_Tot_Q>
0

> <i_epik_Tot_abs_Q>
0

> <r_epik_Metal_State_Penalty>
-0

> <b_epik_Metal_Only>
0

> <s_lp_Force_Field>
OPLS_2005

> <r_lp_Energy>
66.9276

> <b_lp_Chiralities_Consistent>
1

> <s_lp_Variant>
AV-unprocessed.smi:251-2

> <Gold.Version>
5.8.1

> <Gold.Id.Protein>
6NUR|6NUR_protein|mol2

> <Gold.PLP.Fitness>
48.1507

> <Gold.PLP.PLP>
-42.8294

> <Gold.PLP.part.hbond>
-3.0000

> <Gold.PLP.part.metal>
0.0000

> <Gold.PLP.part.buried>
-3.6112

> <Gold.PLP.part.nonpolar>
-36.7884

> <Gold.PLP.part.repulsive>
0.0000

> <Gold.PLP.ligand.clash>
0.0000

> <Gold.PLP.ligand.torsion>
1.2252

> <Gold.PLP.Chemscore.Hbond>
2.0000

> <Gold.PLP.Chemscore.CHOScore>
0.0000

> <Gold.PLP.Chemscore.Metal>
0.0000

> <Gold.Chemscore.Hbonds>
donor molecule, donor type, donor heavy atom, donor atom, acceptor molecule, acceptor atom, score
      P1  H  6896  6908       L1     1  0.98
      P1  H  7997  8009       L1     7  1.00

> <Gold.PLP.Chemscore.Internal.Correction>
1.7717

> <Gold.Rescore>
     Score         DG    S(hbond)    S(metal)    S(lipo)     H(rot)  DE(clash)    DE(int)     intcor
     13.26     -16.57       1.69        0.00      95.57       2.23       1.30       2.01       ----

> <Gold.Chemscore.Fitness>
13.2579

> <Gold.Chemscore.DG>
-16.5704

> <Gold.Chemscore.ZeroCoef>
-5.4800

> <Gold.Chemscore.Hbond>
1.6853

> <Gold.Chemscore.Metal>
0.0000

> <Gold.Chemscore.Lipo>
95.5680

> <Gold.Chemscore.Internal_Hbond>
0.0000

> <Gold.Chemscore.DEClash>
1.2996

> <Gold.Chemscore.DEInternal>
2.0129

> <Gold.Chemscore.Rot>
2.2344

> <Gold.Chemscore.Internal.Correction>
   9.000000E+99

> <Gold.Chemscore.Hbonds>
donor molecule, donor type, donor heavy atom, donor atom, acceptor molecule, acceptor atom, score
      P1  H  6896  6908       L1     1  0.88
      P1  H  7997  8009       L1     7  0.24

> <Gold.Chemscore.Hbond.Weighted>
-5.6290

> <Gold.Chemscore.Metal.Weighted>
-0.0000

> <Gold.Chemscore.Lipo.Weighted>
-11.1815

> <Gold.Chemscore.Internal_Hbond.Weighted>
0.0000

> <Gold.Chemscore.DEClash.Weighted>
1.2996

> <Gold.Chemscore.DEInternal.Weighted>
2.0129

> <Gold.Chemscore.Rot.Weighted>
5.7200

> <Gold.Chemscore.Internal.Correction.Weighted>
   9.000000E+99

> <Gold.Protein.RotatedTorsions>
[ 6907 6896 6895 6894 ] final  -26.21 input  -60.11 | X-H torsion
[ 7974 7965 7964 7962 ] final   30.81 input  175.53 | X-H torsion
[ 8008 7997 7996 7995 ] final  115.37 input   59.86 | X-H torsion
[ 10167 10162 10161 10158 ] final   -8.23 input  -65.29 | X-H torsion
[ 10718 10713 10712 10709 ] final  -81.52 input   66.30 | X-H torsion
[ 10763 10752 10751 10750 ] final   83.42 input  -60.55 | X-H torsion
[ 11005 11000 10999 10996 ] final  -97.84 input  -57.11 | X-H torsion

> <Gold.Protein.ActiveResidues>
 VAL166  LYS551  ARG553  GLY616  TRP617  ASP618  TYR619  PRO620  LYS621  CYS622 
 ASP623  PHE694  ASN695  SER759  ASP760  ASP761  ALA762  ILE779  LEU786  VAL792 
 PHE793  MET794  SER795  GLU796  ALA797  LYS798  CYS799  TRP800  GLU811  SER814 

> <Gold.Protein.RotatedAtoms>
  151.1642  135.0287  159.8723 H   0  0  0  0  0  0  0  0  0  0  0  0  # atno 6907 bound_to 6896
  152.5451  134.1244  159.8423 H   0  0  0  0  0  0  0  0  0  0  0  0  # atno 6908 bound_to 6896
  151.1343  133.4969  159.2631 H   0  0  0  0  0  0  0  0  0  0  0  0  # atno 6909 bound_to 6896
  146.1589  139.6739  142.9047 H   0  0  0  0  0  0  0  0  0  0  0  0  # atno 7974 bound_to 7965
  156.2377  140.2940  156.0358 H   0  0  0  0  0  0  0  0  0  0  0  0  # atno 8008 bound_to 7997
  155.2043  140.0410  157.2940 H   0  0  0  0  0  0  0  0  0  0  0  0  # atno 8009 bound_to 7997
  154.6110  140.2451  155.7677 H   0  0  0  0  0  0  0  0  0  0  0  0  # atno 8010 bound_to 7997
  140.7053  143.5992  150.8815 H   0  0  0  0  0  0  0  0  0  0  0  0  # atno 10167 bound_to 10162
  156.0049  130.4606  150.3965 H   0  0  0  0  0  0  0  0  0  0  0  0  # atno 10718 bound_to 10713
  153.1289  135.4692  154.9317 H   0  0  0  0  0  0  0  0  0  0  0  0  # atno 10763 bound_to 10752
  154.7646  135.3141  154.8314 H   0  0  0  0  0  0  0  0  0  0  0  0  # atno 10764 bound_to 10752
  153.8861  135.6889  153.4817 H   0  0  0  0  0  0  0  0  0  0  0  0  # atno 10765 bound_to 10752
  141.1365  133.8201  157.0760 H   0  0  0  0  0  0  0  0  0  0  0  0  # atno 11005 bound_to 11000
  145.4639  141.0434  143.2736 LP  0  0  0  0  0  0  0  0  0  0  0  0  # atno 17320 bound_to 7965
  144.8000  139.6159  143.7076 LP  0  0  0  0  0  0  0  0  0  0  0  0  # atno 17321 bound_to 7965
  139.9716  143.6050  152.2971 LP  0  0  0  0  0  0  0  0  0  0  0  0  # atno 17342 bound_to 10162
  139.6639  144.7662  151.1910 LP  0  0  0  0  0  0  0  0  0  0  0  0  # atno 17343 bound_to 10162
  157.2037  131.0444  151.2637 LP  0  0  0  0  0  0  0  0  0  0  0  0  # atno 17370 bound_to 10713
  157.3952  130.7303  149.6726 LP  0  0  0  0  0  0  0  0  0  0  0  0  # atno 17371 bound_to 10713
  140.0481  134.9820  157.1086 LP  0  0  0  0  0  0  0  0  0  0  0  0  # atno 17394 bound_to 11000
  140.4032  134.2061  155.7163 LP  0  0  0  0  0  0  0  0  0  0  0  0  # atno 17395 bound_to 11000

$$$$
