#       Name:                AV-unprocessed.smi:1769
#       Creating user name   scv26
#       Creation time:       Fri Mar 27 08:39:07 2020


#       File generated by GOLD software.
#

@<TRIPOS>MOLECULE
AV-unprocessed.smi:1769
    46    47     1
SMALL
NO_CHARGES


@<TRIPOS>ATOM
      1 ****        -5.7170  -0.0822   2.1495 C.3            1 S1                 0.0000
      2 ****        -4.2395   0.3130   2.2024 C.2            1 S1                 0.0000
      3 ****        -3.6310   0.1361   3.2579 O.2            1 S1                 0.0000
      4 ****        -3.6537   0.8359   1.0982 N.am           1 S1                 0.0000
      5 ****        -4.2988   0.9912  -0.2119 C.3            1 S1                 0.0000
      6 ****        -3.6895  -0.0347  -1.1840 C.3            1 S1                 0.0000
      7 ****        -2.1593   0.1262  -1.2663 C.3            1 S1                 0.0000
      8 ****        -1.5058   0.1458   0.1363 C.3            1 S1                 0.0000
      9 ****        -0.0052   0.4525   0.0436 C.2            1 S1                 0.0000
     10 ****         0.3825   1.5147  -0.4443 O.2            1 S1                 0.0000
     11 ****         0.8293  -0.4875   0.5138 N.am           1 S1                 0.0000
     12 ****         2.2840  -0.3930   0.5065 C.3            1 S1                 0.0000
     13 ****         2.8665  -0.7802  -0.8621 C.3            1 S1                 0.0000
     14 ****         4.3798  -0.6968  -0.8803 C.ar           1 S1                 0.0000
     15 ****         5.0328   0.5002  -1.2392 C.ar           1 S1                 0.0000
     16 ****         6.4406   0.5313  -1.2362 C.ar           1 S1                 0.0000
     17 ****         7.1368  -0.6385  -0.8717 C.ar           1 S1                 0.0000
     18 ****         6.5219  -1.7900  -0.5255 N.ar           1 S1                 0.0000
     19 ****         5.1716  -1.8119  -0.5322 C.ar           1 S1                 0.0000
     20 ****        -2.2253   1.1720   1.0411 C.3            1 S1                 0.0000
     21 ****        -5.8922  -0.8234   1.3690 H              1 S1                 0.0000
     22 ****        -6.3431   0.7900   1.9588 H              1 S1                 0.0000
     23 ****        -6.0328  -0.5177   3.0983 H              1 S1                 0.0000
     24 ****        -5.3815   0.8789  -0.1833 H              1 S1                 0.0000
     25 ****        -4.1221   2.0029  -0.5800 H              1 S1                 0.0000
     26 ****        -3.9346  -1.0435  -0.8492 H              1 S1                 0.0000
     27 ****        -4.1298   0.0790  -2.1749 H              1 S1                 0.0000
     28 ****        -1.7363  -0.6780  -1.8696 H              1 S1                 0.0000
     29 ****        -1.9354   1.0550  -1.7936 H              1 S1                 0.0000
     30 ****        -1.6288  -0.8433   0.5819 H              1 S1                 0.0000
     31 ****         0.4279  -1.3292   0.9010 H              1 S1                 0.0000
     32 ****         2.5955   0.6156   0.7841 H              1 S1                 0.0000
     33 ****         2.6707  -1.0600   1.2776 H              1 S1                 0.0000
     34 ****         2.5630  -1.7943  -1.1256 H              1 S1                 0.0000
     35 ****         2.4697  -0.1281  -1.6415 H              1 S1                 0.0000
     36 ****         4.4667   1.3795  -1.5101 H              1 S1                 0.0000
     37 ****         6.9744   1.4304  -1.5059 H              1 S1                 0.0000
     38 ****         8.2166  -0.6493  -0.8573 H              1 S1                 0.0000
     39 ****         4.7100  -2.7464  -0.2483 H              1 S1                 0.0000
     40 ****        -2.1140   2.1818   0.6421 H              1 S1                 0.0000
     41 ****        -1.7629   1.1948   2.0294 H              1 S1                 0.0000
     42 ****        -4.1033  -0.2553   4.0478 LP             1 S1                 0.0000
     43 ****        -2.6646   0.3838   3.3255 LP             1 S1                 0.0000
     44 ****        -0.2817   2.1817  -0.7821 LP             1 S1                 0.0000
     45 ****         1.3614   1.7103  -0.5026 LP             1 S1                 0.0000
     46 ****         7.0497  -2.6007  -0.2722 LP             1 S1                 0.0000
@<TRIPOS>BOND
    1    1    2 1     
    2    1   21 1     
    3    1   22 1     
    4    1   23 1     
    5    2    3 2     
    6    2    4 am    
    7    4   20 1     
    8    4    5 1     
    9    5    6 1     
   10    5   24 1     
   11    5   25 1     
   12    6    7 1     
   13    6   26 1     
   14    6   27 1     
   15    7    8 1     
   16    7   28 1     
   17    7   29 1     
   18    8    9 1     
   19    8   20 1     
   20    8   30 1     
   21    9   10 2     
   22    9   11 am    
   23   11   12 1     
   24   11   31 1     
   25   12   13 1     
   26   12   32 1     
   27   12   33 1     
   28   13   14 1     
   29   13   34 1     
   30   13   35 1     
   31   14   19 ar    
   32   14   15 ar    
   33   15   16 ar    
   34   15   36 1     
   35   16   17 ar    
   36   16   37 1     
   37   17   18 ar    
   38   17   38 1     
   39   18   19 ar    
   40   19   39 1     
   41   20   40 1     
   42   20   41 1     
   43    3   42 1     
   44    3   43 1     
   45   10   44 1     
   46   10   45 1     
   47   18   46 1     
@<TRIPOS>SUBSTRUCTURE
      1 S1             1
@<TRIPOS>SET
LONE_PAIRS      STATIC     ATOMS    <user>   **** ""
5 42 43 44 45 46
DONOR_HYDROGENS      STATIC     ATOMS    <user>   **** ""
1 31
ATOM$BLUE        STATIC     ATOMS    COLORGROUP SYSTEM
5 42 43 44 45 46
ATOM$RED        STATIC     ATOMS    COLORGROUP SYSTEM
1 31
