AV-unprocessed.smi:296|AV-procd|sdf|2258|dock5
  -GOLD-   2262022143D 1   1.00000     0.00000
 Structure written by MMmdl.
 36 37  0  0  0  0  0  0  0  0  1 V2000
  145.4808  141.2187  159.4052 N   0  0  0  0  0  0  0  0  0  0  0  0
  145.8018  141.2752  158.2947 C   0  0  0  0  0  0  0  0  0  0  0  0
  146.2048  141.3464  156.9004 C   0  0  0  0  0  0  0  0  0  0  0  0
  145.2893  141.2905  155.8898 N   0  0  0  0  0  0  0  0  0  0  0  0
  146.1166  141.3932  154.8569 C   0  0  0  0  0  0  0  0  0  0  0  0
  147.4045  141.5010  155.2006 N   0  0  0  0  0  0  0  0  0  0  0  0
  148.5915  141.6401  154.3771 C   0  0  0  0  0  0  0  0  0  0  0  0
  149.8622  141.4357  155.2021 C   0  0  0  0  0  0  0  0  0  0  0  0
  150.6292  140.5135  154.9278 O   0  0  0  0  0  0  0  0  0  0  0  0
  150.0644  142.2985  156.2107 N   0  0  0  0  0  0  0  0  0  0  0  0
  151.1906  142.2779  157.1399 C   0  0  0  0  0  0  0  0  0  0  0  0
  151.2123  143.5280  158.0392 C   0  0  0  0  0  0  0  0  0  0  0  0
  151.9115  143.3098  159.3722 C   0  0  0  0  0  0  0  0  0  0  0  0
  151.8101  144.1955  160.3824 C   0  0  0  0  0  0  0  0  0  0  0  0
  152.4529  144.0107  161.7452 C   0  0  0  0  0  0  0  0  0  0  0  0
  152.9246  142.5653  161.9756 C   0  0  0  0  0  0  0  0  0  0  0  0
  153.6413  142.0151  160.7368 C   0  0  0  0  0  0  0  0  0  0  0  0
  152.7194  142.0231  159.5041 C   0  0  0  0  0  0  0  0  0  0  0  0
  147.4842  141.4711  156.5537 N   0  0  0  0  0  0  0  0  0  0  0  0
  145.7789  141.3931  153.8307 H   0  0  0  0  0  0  0  0  0  0  0  0
  148.5570  140.9187  153.5591 H   0  0  0  0  0  0  0  0  0  0  0  0
  148.5920  142.6349  153.9294 H   0  0  0  0  0  0  0  0  0  0  0  0
  149.3765  143.0247  156.3505 H   0  0  0  0  0  0  0  0  0  0  0  0
  151.1952  141.3672  157.7404 H   0  0  0  0  0  0  0  0  0  0  0  0
  152.1042  142.2486  156.5459 H   0  0  0  0  0  0  0  0  0  0  0  0
  151.7105  144.3468  157.5191 H   0  0  0  0  0  0  0  0  0  0  0  0
  150.1889  143.8629  158.2151 H   0  0  0  0  0  0  0  0  0  0  0  0
  151.2411  145.1034  160.2461 H   0  0  0  0  0  0  0  0  0  0  0  0
  153.2948  144.6998  161.8179 H   0  0  0  0  0  0  0  0  0  0  0  0
  151.7407  144.2959  162.5198 H   0  0  0  0  0  0  0  0  0  0  0  0
  153.5794  142.5206  162.8463 H   0  0  0  0  0  0  0  0  0  0  0  0
  152.0649  141.9323  162.2008 H   0  0  0  0  0  0  0  0  0  0  0  0
  154.5235  142.6241  160.5352 H   0  0  0  0  0  0  0  0  0  0  0  0
  154.0015  141.0033  160.9250 H   0  0  0  0  0  0  0  0  0  0  0  0
  152.0240  141.1861  159.5622 H   0  0  0  0  0  0  0  0  0  0  0  0
  153.3166  141.8729  158.6042 H   0  0  0  0  0  0  0  0  0  0  0  0
  1  2  3  0  0  0  0
  2  3  1  0  0  0  0
  3 19  2  0  0  0  0
  3  4  1  0  0  0  0
  4  5  2  0  0  0  0
  5  6  1  0  0  0  0
  5 20  1  0  0  0  0
  6  7  1  0  0  0  0
  6 19  1  0  0  0  0
  7  8  1  0  0  0  0
  7 21  1  0  0  0  0
  7 22  1  0  0  0  0
  8  9  2  0  0  0  0
  8 10  1  0  0  0  0
 10 11  1  0  0  0  0
 10 23  1  0  0  0  0
 11 12  1  0  0  0  0
 11 24  1  0  0  0  0
 11 25  1  0  0  0  0
 12 13  1  0  0  0  0
 12 26  1  0  0  0  0
 12 27  1  0  0  0  0
 13 18  1  0  0  0  0
 13 14  2  0  0  0  0
 14 15  1  0  0  0  0
 14 28  1  0  0  0  0
 15 16  1  0  0  0  0
 15 29  1  0  0  0  0
 15 30  1  0  0  0  0
 16 17  1  0  0  0  0
 16 31  1  0  0  0  0
 16 32  1  0  0  0  0
 17 18  1  0  0  0  0
 17 33  1  0  0  0  0
 17 34  1  0  0  0  0
 18 35  1  0  0  0  0
 18 36  1  0  0  0  0
M  END
> <s_m_source_file>
AV-unprocessed.smi

> <i_m_source_file_index>
296

> <i_lp_mmshare_version>
43012

> <i_f3d_flags>
0

> <s_epik_input>
TiNDYzFuW2NIXW4objEpW0NIMl1DKD1PKVtOSF1bQ0gyXVtDSDJdQzI9W0NIXVtDSDJdW0NIMl1bQ0gyXVtDSDJdMg==

> <s_epik_cmdline>
J2VwaWtfcHl0aG9uJywgJy1waCcsICc3LjAnLCAnLXRuJywgJzgnLCAnLW1hJywgJzIwMCcsICctbWV0YWxfYmluZGluZycsICctaW1hZScsICc8aW5maWxlLm1hZT4nLCAnLW9tYWUnLCAnPG91dGZpbGUubWFlPic=

> <r_lp_tautomer_probability>
1

> <r_epik_Ionization_Penalty>
6.69355e-08

> <r_epik_Ionization_Penalty_Charging>
0

> <r_epik_Ionization_Penalty_Neutral>
6.69355e-08

> <r_epik_State_Penalty>
-0

> <r_epik_Charging_Adjusted_Penalty>
0

> <i_epik_Tot_Q>
0

> <i_epik_Tot_abs_Q>
0

> <r_epik_Metal_State_Penalty>
-0

> <b_epik_Metal_Only>
0

> <s_lp_Force_Field>
OPLS_2005

> <r_lp_Energy>
11.6781

> <b_lp_Chiralities_Consistent>
1

> <s_lp_Variant>
AV-unprocessed.smi:296-1

> <Gold.Version>
5.8.1

> <Gold.Id.Protein>
6NUR|6NUR_protein|mol2

> <Gold.PLP.Fitness>
51.3183

> <Gold.PLP.PLP>
-41.6978

> <Gold.PLP.part.hbond>
-3.0000

> <Gold.PLP.part.metal>
0.0000

> <Gold.PLP.part.buried>
-5.8015

> <Gold.PLP.part.nonpolar>
-32.8936

> <Gold.PLP.part.repulsive>
0.3486

> <Gold.PLP.ligand.clash>
0.0000

> <Gold.PLP.ligand.torsion>
0.4527

> <Gold.PLP.Chemscore.Hbond>
2.8160

> <Gold.PLP.Chemscore.CHOScore>
0.6783

> <Gold.PLP.Chemscore.Metal>
0.0000

> <Gold.Chemscore.Hbonds>
donor molecule, donor type, donor heavy atom, donor atom, acceptor molecule, acceptor atom, score
      L1  H    10    23       P1  8028  0.82
      P1  H  6934  6946       L1     1  0.82
      P1  H  7989  7998       L1     9  1.00
      L1  C     5    20       P1 10175  0.72

> <Gold.PLP.Chemscore.Internal.Correction>
0.0430

> <Gold.Rescore>
     Score         DG    S(hbond)    S(metal)    S(lipo)     H(rot)  DE(clash)    DE(int)     intcor
     16.22     -18.15       2.46        0.00      95.64       2.63       0.00       1.92       ----

> <Gold.Chemscore.Fitness>
16.2241

> <Gold.Chemscore.DG>
-18.1493

> <Gold.Chemscore.ZeroCoef>
-5.4800

> <Gold.Chemscore.Hbond>
2.4567

> <Gold.Chemscore.Metal>
0.0000

> <Gold.Chemscore.Lipo>
95.6395

> <Gold.Chemscore.Internal_Hbond>
0.0000

> <Gold.Chemscore.DEClash>
0.0038

> <Gold.Chemscore.DEInternal>
1.9214

> <Gold.Chemscore.Rot>
2.6273

> <Gold.Chemscore.Internal.Correction>
   9.000000E+99

> <Gold.Chemscore.Hbonds>
donor molecule, donor type, donor heavy atom, donor atom, acceptor molecule, acceptor atom, score
      L1  H    10    23       P1  8028  0.81
      P1  H  6934  6946       L1     1  0.75
      P1  H  7989  7998       L1     9  0.78

> <Gold.Chemscore.Hbond.Weighted>
-8.2053

> <Gold.Chemscore.Metal.Weighted>
-0.0000

> <Gold.Chemscore.Lipo.Weighted>
-11.1898

> <Gold.Chemscore.Internal_Hbond.Weighted>
0.0000

> <Gold.Chemscore.DEClash.Weighted>
0.0038

> <Gold.Chemscore.DEInternal.Weighted>
1.9214

> <Gold.Chemscore.Rot.Weighted>
6.7259

> <Gold.Chemscore.Internal.Correction.Weighted>
   9.000000E+99

> <Gold.Protein.RotatedTorsions>
[ 6907 6896 6895 6894 ] final   78.88 input  -60.11 | X-H torsion
[ 7974 7965 7964 7962 ] final -156.38 input  175.53 | X-H torsion
[ 8008 7997 7996 7995 ] final   21.63 input   59.86 | X-H torsion
[ 10167 10162 10161 10158 ] final   33.60 input  -65.29 | X-H torsion
[ 10718 10713 10712 10709 ] final  -17.74 input   66.30 | X-H torsion
[ 10763 10752 10751 10750 ] final -125.00 input  -60.55 | X-H torsion
[ 11005 11000 10999 10996 ] final  157.78 input  -57.11 | X-H torsion

> <Gold.Protein.ActiveResidues>
 VAL166  LYS551  ARG553  GLY616  TRP617  ASP618  TYR619  PRO620  LYS621  CYS622 
 ASP623  PHE694  ASN695  SER759  ASP760  ASP761  ALA762  ILE779  LEU786  VAL792 
 PHE793  MET794  SER795  GLU796  ALA797  LYS798  CYS799  TRP800  GLU811  SER814 

> <Gold.Protein.RotatedAtoms>
  152.5177  134.3596  159.9279 H   0  0  0  0  0  0  0  0  0  0  0  0  # atno 6907 bound_to 6896
  151.3548  133.3905  159.2691 H   0  0  0  0  0  0  0  0  0  0  0  0  # atno 6908 bound_to 6896
  150.9698  134.9092  159.7839 H   0  0  0  0  0  0  0  0  0  0  0  0  # atno 6909 bound_to 6896
  144.7596  140.4117  143.5987 H   0  0  0  0  0  0  0  0  0  0  0  0  # atno 7974 bound_to 7965
  154.9534  140.3068  155.5064 H   0  0  0  0  0  0  0  0  0  0  0  0  # atno 8008 bound_to 7997
  156.2985  140.2314  156.4552 H   0  0  0  0  0  0  0  0  0  0  0  0  # atno 8009 bound_to 7997
  154.8033  140.0433  157.1277 H   0  0  0  0  0  0  0  0  0  0  0  0  # atno 8010 bound_to 7997
  140.4392  144.1212  150.6171 H   0  0  0  0  0  0  0  0  0  0  0  0  # atno 10167 bound_to 10162
  156.5693  130.4745  149.6370 H   0  0  0  0  0  0  0  0  0  0  0  0  # atno 10718 bound_to 10713
  154.8730  135.4044  154.3197 H   0  0  0  0  0  0  0  0  0  0  0  0  # atno 10763 bound_to 10752
  153.4027  135.7018  153.6420 H   0  0  0  0  0  0  0  0  0  0  0  0  # atno 10764 bound_to 10752
  153.5155  135.3698  155.2578 H   0  0  0  0  0  0  0  0  0  0  0  0  # atno 10765 bound_to 10752
  140.1802  134.8481  157.2794 H   0  0  0  0  0  0  0  0  0  0  0  0  # atno 11005 bound_to 11000
  145.6665  139.1591  143.2779 LP  0  0  0  0  0  0  0  0  0  0  0  0  # atno 17320 bound_to 7965
  146.1644  140.6740  142.9262 LP  0  0  0  0  0  0  0  0  0  0  0  0  # atno 17321 bound_to 7965
  140.4338  143.2556  151.9561 LP  0  0  0  0  0  0  0  0  0  0  0  0  # atno 17342 bound_to 10162
  139.4788  144.5719  151.8074 LP  0  0  0  0  0  0  0  0  0  0  0  0  # atno 17343 bound_to 10162
  156.2729  130.7027  151.1829 LP  0  0  0  0  0  0  0  0  0  0  0  0  # atno 17370 bound_to 10713
  157.7351  131.0575  150.5485 LP  0  0  0  0  0  0  0  0  0  0  0  0  # atno 17371 bound_to 10713
  140.2276  134.3948  155.7536 LP  0  0  0  0  0  0  0  0  0  0  0  0  # atno 17394 bound_to 11000
  141.2222  133.7198  156.8589 LP  0  0  0  0  0  0  0  0  0  0  0  0  # atno 17395 bound_to 11000

$$$$
