#       Name:                AV-unprocessed.smi:36
#       Creating user name   scv26
#       Creation time:       Thu Mar 26 16:06:44 2020


#       File generated by GOLD software.
#

@<TRIPOS>MOLECULE
AV-unprocessed.smi:36
    73    76     1
SMALL
NO_CHARGES


@<TRIPOS>ATOM
      1 ****        -6.3717   5.1567  -0.2219 C.3            1 S1                 0.0000
      2 ****        -5.6193   3.8185  -0.1320 C.3            1 S1                 0.0000
      3 ****        -6.2207   2.9543   0.9892 C.3            1 S1                 0.0000
      4 ****        -5.7201   3.0705  -1.4717 C.3            1 S1                 0.0000
      5 ****        -3.7789   4.1500   0.2589 Si             1 S1                 0.0000
      6 ****        -2.9570   5.1780  -1.1111 C.3            1 S1                 0.0000
      7 ****        -3.5824   5.0328   1.9301 C.3            1 S1                 0.0000
      8 ****        -2.9904   2.6561   0.3466 O.3            1 S1                 0.0000
      9 ****        -1.6417   2.5099   0.7386 C.3            1 S1                 0.0000
     10 ****        -1.2459   1.0302   0.6647 C.3            1 S1                 0.0000
     11 ****         0.1303   0.8856   1.0061 O.3            1 S1                 0.0000
     12 ****         0.3343  -0.3122   1.6957 C.3            1 S1                 0.0000
     13 ****         1.3191  -1.1284   0.9281 N.pl3          1 S1                 0.0000
     14 ****         1.4210  -1.2938  -0.4362 C.2            1 S1                 0.0000
     15 ****         2.3969  -2.0665  -0.8329 N.2            1 S1                 0.0000
     16 ****         3.0108  -2.4665   0.3477 C.ar           1 S1                 0.0000
     17 ****         4.1226  -3.2965   0.6467 C.ar           1 S1                 0.0000
     18 ****         4.8266  -3.8762  -0.3538 N.am           1 S1                 0.0000
     19 ****         5.9903  -4.7388  -0.2495 C.2            1 S1                 0.0000
     20 ****         6.4192  -5.1322   0.8356 O.2            1 S1                 0.0000
     21 ****         6.5899  -5.1959  -1.5474 C.ar           1 S1                 0.0000
     22 ****         7.2507  -6.4430  -1.6206 C.ar           1 S1                 0.0000
     23 ****         7.8365  -6.8697  -2.8283 C.ar           1 S1                 0.0000
     24 ****         7.7736  -6.0498  -3.9709 C.ar           1 S1                 0.0000
     25 ****         7.1259  -4.8018  -3.9045 C.ar           1 S1                 0.0000
     26 ****         6.5395  -4.3740  -2.6974 C.ar           1 S1                 0.0000
     27 ****         4.4414  -3.4665   1.9572 N.ar           1 S1                 0.0000
     28 ****         3.7206  -2.8658   2.9090 C.ar           1 S1                 0.0000
     29 ****         2.6626  -2.0633   2.7730 N.ar           1 S1                 0.0000
     30 ****         2.3387  -1.8870   1.4595 C.ar           1 S1                 0.0000
     31 ****        -1.0118  -1.0332   1.7691 C.3            1 S1                 0.0000
     32 ****        -1.9742   0.1300   1.6660 C.3            1 S1                 0.0000
     33 ****        -3.2343  -0.2975   1.1910 O.3            1 S1                 0.0000
     34 ****        -7.4281   5.0029  -0.4441 H              1 S1                 0.0000
     35 ****        -5.9604   5.7918  -1.0068 H              1 S1                 0.0000
     36 ****        -6.3112   5.7107   0.7152 H              1 S1                 0.0000
     37 ****        -6.1711   3.4615   1.9530 H              1 S1                 0.0000
     38 ****        -5.6888   2.0075   1.0876 H              1 S1                 0.0000
     39 ****        -7.2688   2.7248   0.7940 H              1 S1                 0.0000
     40 ****        -6.7572   2.8455  -1.7229 H              1 S1                 0.0000
     41 ****        -5.1766   2.1256  -1.4398 H              1 S1                 0.0000
     42 ****        -5.3057   3.6608  -2.2892 H              1 S1                 0.0000
     43 ****        -3.4449   6.1446  -1.2345 H              1 S1                 0.0000
     44 ****        -2.9966   4.6678  -2.0732 H              1 S1                 0.0000
     45 ****        -1.9076   5.3715  -0.8903 H              1 S1                 0.0000
     46 ****        -4.0984   5.9927   1.9392 H              1 S1                 0.0000
     47 ****        -2.5348   5.2279   2.1582 H              1 S1                 0.0000
     48 ****        -3.9869   4.4379   2.7483 H              1 S1                 0.0000
     49 ****        -1.0093   3.1012   0.0756 H              1 S1                 0.0000
     50 ****        -1.5053   2.8954   1.7495 H              1 S1                 0.0000
     51 ****        -1.3773   0.6502  -0.3503 H              1 S1                 0.0000
     52 ****         0.7878  -0.1178   2.6681 H              1 S1                 0.0000
     53 ****         0.7455  -0.8176  -1.1321 H              1 S1                 0.0000
     54 ****         4.5224  -3.6573  -1.2910 H              1 S1                 0.0000
     55 ****         7.3105  -7.0825  -0.7514 H              1 S1                 0.0000
     56 ****         8.3367  -7.8257  -2.8771 H              1 S1                 0.0000
     57 ****         8.2250  -6.3763  -4.8962 H              1 S1                 0.0000
     58 ****         7.0821  -4.1696  -4.7794 H              1 S1                 0.0000
     59 ****         6.0574  -3.4076  -2.6657 H              1 S1                 0.0000
     60 ****         4.0378  -3.0550   3.9240 H              1 S1                 0.0000
     61 ****        -1.1209  -1.7049   0.9151 H              1 S1                 0.0000
     62 ****        -1.1049  -1.6078   2.6909 H              1 S1                 0.0000
     63 ****        -2.0784   0.6243   2.6330 H              1 S1                 0.0000
     64 ****        -3.7765   0.4650   1.0552 H              1 S1                 0.0000
     65 ****         0.4090   1.6516   1.5854 LP             1 S1                 0.0000
     66 ****         0.6793   0.8829   0.1703 LP             1 S1                 0.0000
     67 ****         2.6448  -2.3131  -1.7697 LP             1 S1                 0.0000
     68 ****         5.9634  -4.8583   1.6825 LP             1 S1                 0.0000
     69 ****         7.2234  -5.7256   0.8700 LP             1 S1                 0.0000
     70 ****         5.2183  -4.0432   2.2101 LP             1 S1                 0.0000
     71 ****         2.1704  -1.6449   3.5363 LP             1 S1                 0.0000
     72 ****        -3.6621  -0.9006   1.8643 LP             1 S1                 0.0000
     73 ****        -3.1207  -0.7892   0.3277 LP             1 S1                 0.0000
@<TRIPOS>BOND
    1    1    2 1     
    2    1   34 1     
    3    1   35 1     
    4    1   36 1     
    5    2    3 1     
    6    2    4 1     
    7    2    5 1     
    8    3   37 1     
    9    3   38 1     
   10    3   39 1     
   11    4   40 1     
   12    4   41 1     
   13    4   42 1     
   14    5    6 1     
   15    5    7 1     
   16    5    8 1     
   17    6   43 1     
   18    6   44 1     
   19    6   45 1     
   20    7   46 1     
   21    7   47 1     
   22    7   48 1     
   23    8    9 1     
   24    9   10 1     
   25    9   49 1     
   26    9   50 1     
   27   10   32 1     
   28   10   11 1     
   29   10   51 1     
   30   11   12 1     
   31   12   13 1     
   32   12   31 1     
   33   12   52 1     
   34   13   30 1     
   35   13   14 1     
   36   14   15 2     
   37   14   53 1     
   38   15   16 1     
   39   16   30 ar    
   40   16   17 ar    
   41   17   18 1     
   42   17   27 ar    
   43   18   19 am    
   44   18   54 1     
   45   19   20 2     
   46   19   21 1     
   47   21   26 ar    
   48   21   22 ar    
   49   22   23 ar    
   50   22   55 1     
   51   23   24 ar    
   52   23   56 1     
   53   24   25 ar    
   54   24   57 1     
   55   25   26 ar    
   56   25   58 1     
   57   26   59 1     
   58   27   28 ar    
   59   28   29 ar    
   60   28   60 1     
   61   29   30 ar    
   62   31   32 1     
   63   31   61 1     
   64   31   62 1     
   65   32   33 1     
   66   32   63 1     
   67   33   64 1     
   68   11   65 1     
   69   11   66 1     
   70   15   67 1     
   71   20   68 1     
   72   20   69 1     
   73   27   70 1     
   74   29   71 1     
   75   33   72 1     
   76   33   73 1     
@<TRIPOS>SUBSTRUCTURE
      1 S1             1
@<TRIPOS>SET
LONE_PAIRS      STATIC     ATOMS    <user>   **** ""
9 65 66 67 68 69 70 71 72 73
DONOR_HYDROGENS      STATIC     ATOMS    <user>   **** ""
2 54 64
ATOM$BLUE        STATIC     ATOMS    COLORGROUP SYSTEM
9 65 66 67 68 69 70 71 72 73
ATOM$RED        STATIC     ATOMS    COLORGROUP SYSTEM
2 54 64
