AV-unprocessed.smi:2396|AV-procd|sdf|9492|dock1
  -GOLD-   2272013123D 1   1.00000     0.00000
 Structure written by MMmdl.
 32 32  0  0  0  0  0  0  0  0  1 V2000
  146.7856  142.4444  154.3831 C   0  0  0  0  0  0  0  0  0  0  0  0
  147.2109  140.9782  154.2286 C   0  0  0  0  0  0  0  0  0  0  0  0
  147.9708  140.5157  155.3839 N   0  0  0  0  0  0  0  0  0  0  0  0
  149.2746  140.7532  155.5944 C   0  0  0  0  0  0  0  0  0  0  0  0
  149.9765  141.3980  154.8141 O   0  0  0  0  0  0  0  0  0  0  0  0
  149.8695  140.1672  156.8797 C   0  0  0  0  0  0  0  0  0  0  0  0
  150.7478  141.1081  157.5547 N   0  0  0  0  0  0  0  0  0  0  0  0
  150.8353  142.4713  157.3880 C   0  0  0  0  0  0  0  0  0  0  0  0
  151.8089  142.9333  158.2284 C   0  0  0  0  0  0  0  0  0  0  0  0
  152.2701  144.3616  158.3761 C   0  0  0  0  0  0  0  0  0  0  0  0
  151.2693  145.2149  159.1703 C   0  0  0  0  0  0  0  0  0  0  0  0
  151.9354  146.2288  159.8929 O   0  0  0  0  0  0  0  0  0  0  0  0
  152.2678  141.7515  158.8951 C   0  0  0  0  0  0  0  0  0  0  0  0
  153.3491  141.5778  159.9365 C   0  0  0  0  0  0  0  0  0  0  0  0
  153.4808  140.2835  160.2263 F   0  0  0  0  0  0  0  0  0  0  0  0
  154.5258  142.0410  159.5208 F   0  0  0  0  0  0  0  0  0  0  0  0
  153.0138  142.2335  161.0481 F   0  0  0  0  0  0  0  0  0  0  0  0
  151.6247  140.6678  158.4782 N   0  0  0  0  0  0  0  0  0  0  0  0
  146.1932  142.7674  153.5269 H   0  0  0  0  0  0  0  0  0  0  0  0
  147.6508  143.1046  154.4536 H   0  0  0  0  0  0  0  0  0  0  0  0
  146.1802  142.5869  155.2787 H   0  0  0  0  0  0  0  0  0  0  0  0
  146.3267  140.3481  154.1288 H   0  0  0  0  0  0  0  0  0  0  0  0
  147.7915  140.8449  153.3145 H   0  0  0  0  0  0  0  0  0  0  0  0
  147.4692  139.9738  156.0727 H   0  0  0  0  0  0  0  0  0  0  0  0
  149.0745  139.8846  157.5713 H   0  0  0  0  0  0  0  0  0  0  0  0
  150.4245  139.2595  156.6384 H   0  0  0  0  0  0  0  0  0  0  0  0
  150.2079  142.9968  156.6829 H   0  0  0  0  0  0  0  0  0  0  0  0
  153.2231  144.3827  158.9057 H   0  0  0  0  0  0  0  0  0  0  0  0
  152.4788  144.8265  157.4130 H   0  0  0  0  0  0  0  0  0  0  0  0
  150.5208  145.6571  158.5118 H   0  0  0  0  0  0  0  0  0  0  0  0
  150.7370  144.5890  159.8870 H   0  0  0  0  0  0  0  0  0  0  0  0
  151.8321  146.0577  160.8165 H   0  0  0  0  0  0  0  0  0  0  0  0
  1  2  1  0  0  0  0
  1 19  1  0  0  0  0
  1 20  1  0  0  0  0
  1 21  1  0  0  0  0
  2  3  1  0  0  0  0
  2 22  1  0  0  0  0
  2 23  1  0  0  0  0
  3  4  1  0  0  0  0
  3 24  1  0  0  0  0
  4  5  2  0  0  0  0
  4  6  1  0  0  0  0
  6  7  1  0  0  0  0
  6 25  1  0  0  0  0
  6 26  1  0  0  0  0
  7 18  1  0  0  0  0
  7  8  1  0  0  0  0
  8  9  2  0  0  0  0
  8 27  1  0  0  0  0
  9 10  1  0  0  0  0
  9 13  1  0  0  0  0
 10 11  1  0  0  0  0
 10 28  1  0  0  0  0
 10 29  1  0  0  0  0
 11 12  1  0  0  0  0
 11 30  1  0  0  0  0
 11 31  1  0  0  0  0
 12 32  1  0  0  0  0
 13 14  1  0  0  0  0
 13 18  2  0  0  0  0
 14 15  1  0  0  0  0
 14 16  1  0  0  0  0
 14 17  1  0  0  0  0
M  END
> <s_m_source_file>
AV-unprocessed.smi

> <i_m_source_file_index>
2396

> <i_lp_mmshare_version>
43012

> <i_f3d_flags>
0

> <s_epik_input>
W0NIM11bQ0gyXVtOSF1DKD1PKVtDSDJdbjFbY0hdYyhjKG4xKUMoRikoRilGKVtDSDJdW0NIMl1bT0hd

> <s_epik_cmdline>
J2VwaWtfcHl0aG9uJywgJy1waCcsICc3LjAnLCAnLXRuJywgJzgnLCAnLW1hJywgJzIwMCcsICctbWV0YWxfYmluZGluZycsICctaW1hZScsICc8aW5maWxlLm1hZT4nLCAnLW9tYWUnLCAnPG91dGZpbGUubWFlPic=

> <r_lp_tautomer_probability>
1

> <r_epik_Ionization_Penalty>
2.37964e-07

> <r_epik_Ionization_Penalty_Charging>
0

> <r_epik_Ionization_Penalty_Neutral>
2.37964e-07

> <r_epik_State_Penalty>
-0

> <r_epik_Charging_Adjusted_Penalty>
0

> <i_epik_Tot_Q>
0

> <i_epik_Tot_abs_Q>
0

> <r_epik_Metal_State_Penalty>
-0

> <b_epik_Metal_Only>
0

> <s_lp_Force_Field>
OPLS_2005

> <r_lp_Energy>
5.98536

> <b_lp_Chiralities_Consistent>
1

> <s_lp_Variant>
AV-unprocessed.smi:2396-1

> <Gold.Version>
5.8.1

> <Gold.Id.Protein>
6NUR|6NUR_protein|mol2

> <Gold.PLP.Fitness>
41.3677

> <Gold.PLP.PLP>
-38.7461

> <Gold.PLP.part.hbond>
-2.5601

> <Gold.PLP.part.metal>
0.0000

> <Gold.PLP.part.buried>
-3.9601

> <Gold.PLP.part.nonpolar>
-31.7803

> <Gold.PLP.part.repulsive>
0.1642

> <Gold.PLP.ligand.clash>
0.0000

> <Gold.PLP.ligand.torsion>
1.0290

> <Gold.PLP.Chemscore.Hbond>
0.5120

> <Gold.PLP.Chemscore.CHOScore>
1.0000

> <Gold.PLP.Chemscore.Metal>
0.0000

> <Gold.Chemscore.Hbonds>
donor molecule, donor type, donor heavy atom, donor atom, acceptor molecule, acceptor atom, score
      P1  H  7989  7998       L1     5  0.32
      L1  C     8    27       P1  8028  1.00

> <Gold.PLP.Chemscore.Internal.Correction>
0.1436

> <Gold.Rescore>
     Score         DG    S(hbond)    S(metal)    S(lipo)     H(rot)  DE(clash)    DE(int)     intcor
      6.48      -8.40       0.55        0.00      71.91       2.86       0.21       1.70       ----

> <Gold.Chemscore.Fitness>
6.4815

> <Gold.Chemscore.DG>
-8.3956

> <Gold.Chemscore.ZeroCoef>
-5.4800

> <Gold.Chemscore.Hbond>
0.5479

> <Gold.Chemscore.Metal>
0.0000

> <Gold.Chemscore.Lipo>
71.9094

> <Gold.Chemscore.Internal_Hbond>
0.0000

> <Gold.Chemscore.DEClash>
0.2131

> <Gold.Chemscore.DEInternal>
1.7009

> <Gold.Chemscore.Rot>
2.8625

> <Gold.Chemscore.Internal.Correction>
   9.000000E+99

> <Gold.Chemscore.Hbonds>
donor molecule, donor type, donor heavy atom, donor atom, acceptor molecule, acceptor atom, score
      P1  H  7989  7998       L1     5  0.32

> <Gold.Chemscore.Hbond.Weighted>
-1.8301

> <Gold.Chemscore.Metal.Weighted>
-0.0000

> <Gold.Chemscore.Lipo.Weighted>
-8.4134

> <Gold.Chemscore.Internal_Hbond.Weighted>
0.0000

> <Gold.Chemscore.DEClash.Weighted>
0.2131

> <Gold.Chemscore.DEInternal.Weighted>
1.7009

> <Gold.Chemscore.Rot.Weighted>
7.3279

> <Gold.Chemscore.Internal.Correction.Weighted>
   9.000000E+99

> <Gold.Protein.RotatedTorsions>
[ 6907 6896 6895 6894 ] final  -39.01 input  -60.11 | X-H torsion
[ 7974 7965 7964 7962 ] final  -55.42 input  175.53 | X-H torsion
[ 8008 7997 7996 7995 ] final  -13.20 input   59.86 | X-H torsion
[ 10167 10162 10161 10158 ] final  -92.10 input  -65.29 | X-H torsion
[ 10718 10713 10712 10709 ] final  116.34 input   66.30 | X-H torsion
[ 10763 10752 10751 10750 ] final   64.06 input  -60.55 | X-H torsion
[ 11005 11000 10999 10996 ] final  -76.31 input  -57.11 | X-H torsion

> <Gold.Protein.ActiveResidues>
 VAL166  LYS551  ARG553  GLY616  TRP617  ASP618  TYR619  PRO620  LYS621  CYS622 
 ASP623  PHE694  ASN695  SER759  ASP760  ASP761  ALA762  ILE779  LEU786  VAL792 
 PHE793  MET794  SER795  GLU796  ALA797  LYS798  CYS799  TRP800  GLU811  SER814 

> <Gold.Protein.RotatedAtoms>
  150.9954  134.9279  159.7923 H   0  0  0  0  0  0  0  0  0  0  0  0  # atno 6907 bound_to 6896
  152.5263  134.3225  159.9163 H   0  0  0  0  0  0  0  0  0  0  0  0  # atno 6908 bound_to 6896
  151.3231  133.3990  159.2690 H   0  0  0  0  0  0  0  0  0  0  0  0  # atno 6909 bound_to 6896
  145.8744  140.8192  142.9871 H   0  0  0  0  0  0  0  0  0  0  0  0  # atno 7974 bound_to 7965
  154.5313  140.2256  155.8800 H   0  0  0  0  0  0  0  0  0  0  0  0  # atno 8008 bound_to 7997
  156.1766  140.3110  155.9034 H   0  0  0  0  0  0  0  0  0  0  0  0  # atno 8009 bound_to 7997
  155.3446  140.0452  157.3036 H   0  0  0  0  0  0  0  0  0  0  0  0  # atno 8010 bound_to 7997
  140.3382  143.2957  151.9865 H   0  0  0  0  0  0  0  0  0  0  0  0  # atno 10167 bound_to 10162
  157.6166  131.1024  150.7459 H   0  0  0  0  0  0  0  0  0  0  0  0  # atno 10718 bound_to 10713
  153.0041  135.5406  154.6451 H   0  0  0  0  0  0  0  0  0  0  0  0  # atno 10763 bound_to 10752
  154.5696  135.2840  155.0842 H   0  0  0  0  0  0  0  0  0  0  0  0  # atno 10764 bound_to 10752
  154.2013  135.6483  153.5140 H   0  0  0  0  0  0  0  0  0  0  0  0  # atno 10765 bound_to 10752
  141.1653  133.6979  156.7649 H   0  0  0  0  0  0  0  0  0  0  0  0  # atno 11005 bound_to 11000
  144.6726  140.1288  143.7445 LP  0  0  0  0  0  0  0  0  0  0  0  0  # atno 17320 bound_to 7965
  145.9098  139.2480  143.1444 LP  0  0  0  0  0  0  0  0  0  0  0  0  # atno 17321 bound_to 7965
  139.4845  144.6179  151.7312 LP  0  0  0  0  0  0  0  0  0  0  0  0  # atno 17342 bound_to 10162
  140.5334  144.0695  150.6061 LP  0  0  0  0  0  0  0  0  0  0  0  0  # atno 17343 bound_to 10162
  156.7825  130.4864  149.5398 LP  0  0  0  0  0  0  0  0  0  0  0  0  # atno 17370 bound_to 10713
  156.1291  130.6165  151.0307 LP  0  0  0  0  0  0  0  0  0  0  0  0  # atno 17371 bound_to 10713
  140.2506  134.8543  157.3664 LP  0  0  0  0  0  0  0  0  0  0  0  0  # atno 17394 bound_to 11000
  140.1706  134.4613  155.7834 LP  0  0  0  0  0  0  0  0  0  0  0  0  # atno 17395 bound_to 11000

$$$$
