AV-unprocessed.smi:35|AV-procd|sdf|259|dock10
  -GOLD-   2262016 23D 1   1.00000     0.00000
 Structure written by MMmdl.
 29 30  0  0  0  0  0  0  0  0  1 V2000
  149.4073  134.6061  158.0340 O   0  0  0  0  0  0  0  0  0  0  0  0
  148.7047  135.1656  157.1949 C   0  0  0  0  0  0  0  0  0  0  0  0
  147.7915  136.1500  157.5825 N   0  0  0  0  0  0  0  0  0  0  0  0
  146.9442  136.8525  156.7235 C   0  0  0  0  0  0  0  0  0  0  0  0
  146.1848  137.7108  157.1713 O   0  0  0  0  0  0  0  0  0  0  0  0
  147.0123  136.5400  155.3474 N   0  0  0  0  0  0  0  0  0  0  0  0
  146.1011  137.2897  154.3931 C   0  0  2  0  0  0  0  0  0  0  0  0
  145.5303  136.3922  153.4849 O   0  0  0  0  0  0  0  0  0  0  0  0
  146.0939  136.5772  152.1890 C   0  0  1  0  0  0  0  0  0  0  0  0
  145.1131  136.0736  151.1199 C   0  0  0  0  0  0  0  0  0  0  0  0
  145.4732  136.5884  149.8559 O   0  0  0  0  0  0  0  0  0  0  0  0
  146.3125  138.0892  152.1627 C   0  0  2  0  0  0  0  0  0  0  0  0
  147.1893  138.5085  151.1332 O   0  0  0  0  0  0  0  0  0  0  0  0
  146.8393  138.3705  153.5663 C   0  0  2  0  0  0  0  0  0  0  0  0
  148.2545  138.2714  153.6340 O   0  0  0  0  0  0  0  0  0  0  0  0
  147.9085  135.5696  154.9146 C   0  0  0  0  0  0  0  0  0  0  0  0
  148.7247  134.8983  155.7610 C   0  0  0  0  0  0  0  0  0  0  0  0
  149.9304  133.5531  154.9482 Br  0  0  0  0  0  0  0  0  0  0  0  0
  147.7434  136.3732  158.5659 H   0  0  0  0  0  0  0  0  0  0  0  0
  145.2905  137.6902  155.0051 H   0  0  0  0  0  0  0  0  0  0  0  0
  147.0557  136.0660  152.1166 H   0  0  0  0  0  0  0  0  0  0  0  0
  145.0792  134.9842  151.0920 H   0  0  0  0  0  0  0  0  0  0  0  0
  144.1045  136.4242  151.3403 H   0  0  0  0  0  0  0  0  0  0  0  0
  144.8928  137.3041  149.6464 H   0  0  0  0  0  0  0  0  0  0  0  0
  145.3527  138.5929  152.0351 H   0  0  0  0  0  0  0  0  0  0  0  0
  147.7084  139.2293  151.4557 H   0  0  0  0  0  0  0  0  0  0  0  0
  146.5458  139.3614  153.9141 H   0  0  0  0  0  0  0  0  0  0  0  0
  148.5207  137.4927  153.1693 H   0  0  0  0  0  0  0  0  0  0  0  0
  147.9752  135.3247  153.8660 H   0  0  0  0  0  0  0  0  0  0  0  0
  1  2  2  0  0  0  0
  2 17  1  0  0  0  0
  2  3  1  0  0  0  0
  3 19  1  0  0  0  0
  3  4  1  0  0  0  0
  4  5  2  0  0  0  0
  4  6  1  0  0  0  0
  6  7  1  0  0  0  0
  6 16  1  0  0  0  0
  7 14  1  0  0  0  0
  7  8  1  0  0  0  0
  7 20  1  0  0  0  0
  8  9  1  0  0  0  0
  9 10  1  0  0  0  0
  9 12  1  0  0  0  0
  9 21  1  0  0  0  0
 10 11  1  0  0  0  0
 10 22  1  0  0  0  0
 10 23  1  0  0  0  0
 11 24  1  0  0  0  0
 12 13  1  0  0  0  0
 12 14  1  0  0  0  0
 12 25  1  0  0  0  0
 13 26  1  0  0  0  0
 14 15  1  0  0  0  0
 14 27  1  0  0  0  0
 15 28  1  0  0  0  0
 16 17  2  0  0  0  0
 16 29  1  0  0  0  0
 17 18  1  0  0  0  0
M  END
> <s_m_source_file>
AV-unprocessed.smi

> <i_m_source_file_index>
35

> <i_lp_mmshare_version>
43012

> <i_f3d_flags>
0

> <s_epik_input>
Tz1jMVtuSF1jKD1PKW4oW2NIXWMxQnIpW0NAQEhdMk9bQ0BASF0oW0NIMl1bT0hdKVtDQEBIXShbT0hdKVtDQEhdMltPSF0=

> <s_epik_cmdline>
J2VwaWtfcHl0aG9uJywgJy1waCcsICc3LjAnLCAnLXRuJywgJzgnLCAnLW1hJywgJzIwMCcsICctbWV0YWxfYmluZGluZycsICctaW1hZScsICc8aW5maWxlLm1hZT4nLCAnLW9tYWUnLCAnPG91dGZpbGUubWFlPic=

> <r_lp_tautomer_probability>
0.999537

> <r_epik_Ionization_Penalty>
0.10812

> <r_epik_Ionization_Penalty_Charging>
0.108119

> <r_epik_Ionization_Penalty_Neutral>
4.93006e-07

> <r_epik_State_Penalty>
0.0979238

> <r_epik_Charging_Adjusted_Penalty>
0.206043

> <i_epik_Tot_Q>
0

> <i_epik_Tot_abs_Q>
0

> <r_epik_Metal_State_Penalty>
3.07911

> <b_epik_Metal_Only>
0

> <s_epik_Chemistry_Notes>
This compound contains an acetal/aminal-like group ( X-CH(R)-Y where X, Y are N, S, or O) that may be acid/base labile, releasing an aldehyde.

> <s_lp_Force_Field>
OPLS_2005

> <r_lp_Energy>
37.6264

> <b_lp_Chiralities_Consistent>
1

> <s_lp_Variant>
AV-unprocessed.smi:35-13

> <Gold.Version>
5.8.1

> <Gold.Id.Protein>
6NUR|6NUR_protein|mol2

> <Gold.PLP.Fitness>
35.6067

> <Gold.PLP.PLP>
-19.1882

> <Gold.PLP.part.hbond>
-7.2626

> <Gold.PLP.part.metal>
0.0000

> <Gold.PLP.part.buried>
-0.2866

> <Gold.PLP.part.nonpolar>
-11.7529

> <Gold.PLP.part.repulsive>
0.1062

> <Gold.PLP.ligand.clash>
0.0000

> <Gold.PLP.ligand.torsion>
0.4856

> <Gold.PLP.Chemscore.Hbond>
4.7670

> <Gold.PLP.Chemscore.CHOScore>
1.0000

> <Gold.PLP.Chemscore.Metal>
0.0000

> <Gold.Chemscore.Hbonds>
donor molecule, donor type, donor heavy atom, donor atom, acceptor molecule, acceptor atom, score
      L1  H    11    24       P1 10171  1.00
      L1  H    13    26       P1  7957  0.72
      L1  H    15    28       P1  7948  1.00
      P1  H  6896  6907       L1     1  1.00
      P1  H  7954  7966       L1    13  1.00
      L1  C    16    29       P1  7948  1.00

> <Gold.PLP.Chemscore.Internal.Correction>
0.0886

> <Gold.Rescore>
     Score         DG    S(hbond)    S(metal)    S(lipo)     H(rot)  DE(clash)    DE(int)     intcor
     11.50     -13.92       4.12        0.00      34.77       3.67       0.99       1.43       ----

> <Gold.Chemscore.Fitness>
11.4990

> <Gold.Chemscore.DG>
-13.9195

> <Gold.Chemscore.ZeroCoef>
-5.4800

> <Gold.Chemscore.Hbond>
4.1220

> <Gold.Chemscore.Metal>
0.0000

> <Gold.Chemscore.Lipo>
34.7652

> <Gold.Chemscore.Internal_Hbond>
0.0000

> <Gold.Chemscore.DEClash>
0.9878

> <Gold.Chemscore.DEInternal>
1.4327

> <Gold.Chemscore.Rot>
3.6701

> <Gold.Chemscore.Internal.Correction>
   9.000000E+99

> <Gold.Chemscore.Hbonds>
donor molecule, donor type, donor heavy atom, donor atom, acceptor molecule, acceptor atom, score
      L1  H    11    24       P1 10171  0.99
      L1  H    13    26       P1  7957  0.62
      L1  H    15    28       P1  7948  1.00
      P1  H  6896  6907       L1     1  0.99
      P1  H  7954  7966       L1    13  0.34

> <Gold.Chemscore.Hbond.Weighted>
-13.7675

> <Gold.Chemscore.Metal.Weighted>
-0.0000

> <Gold.Chemscore.Lipo.Weighted>
-4.0675

> <Gold.Chemscore.Internal_Hbond.Weighted>
0.0000

> <Gold.Chemscore.DEClash.Weighted>
0.9878

> <Gold.Chemscore.DEInternal.Weighted>
1.4327

> <Gold.Chemscore.Rot.Weighted>
9.3955

> <Gold.Chemscore.Internal.Correction.Weighted>
   9.000000E+99

> <Gold.Protein.RotatedTorsions>
[ 6907 6896 6895 6894 ] final -100.71 input  -60.11 | X-H torsion
[ 7974 7965 7964 7962 ] final   85.52 input  175.53 | X-H torsion
[ 8008 7997 7996 7995 ] final -104.94 input   59.86 | X-H torsion
[ 10167 10162 10161 10158 ] final -172.35 input  -65.29 | X-H torsion
[ 10718 10713 10712 10709 ] final   71.67 input   66.30 | X-H torsion
[ 10763 10752 10751 10750 ] final  -55.31 input  -60.55 | X-H torsion
[ 11005 11000 10999 10996 ] final  137.42 input  -57.11 | X-H torsion

> <Gold.Protein.ActiveResidues>
 VAL166  LYS551  ARG553  GLY616  TRP617  ASP618  TYR619  PRO620  LYS621  CYS622 
 ASP623  PHE694  ASN695  SER759  ASP760  ASP761  ALA762  ILE779  LEU786  VAL792 
 PHE793  MET794  SER795  GLU796  ALA797  LYS798  CYS799  TRP800  GLU811  SER814 

> <Gold.Protein.RotatedAtoms>
  150.7126  134.0845  159.3909 H   0  0  0  0  0  0  0  0  0  0  0  0  # atno 6907 bound_to 6896
  151.8829  135.0444  160.0500 H   0  0  0  0  0  0  0  0  0  0  0  0  # atno 6908 bound_to 6896
  152.2553  133.5215  159.5386 H   0  0  0  0  0  0  0  0  0  0  0  0  # atno 6909 bound_to 6896
  145.5844  139.2329  143.2334 H   0  0  0  0  0  0  0  0  0  0  0  0  # atno 7974 bound_to 7965
  154.8925  140.0415  157.1847 H   0  0  0  0  0  0  0  0  0  0  0  0  # atno 8008 bound_to 7997
  154.8526  140.2931  155.5568 H   0  0  0  0  0  0  0  0  0  0  0  0  # atno 8009 bound_to 7997
  156.2996  140.2462  156.3487 H   0  0  0  0  0  0  0  0  0  0  0  0  # atno 8010 bound_to 7997
  139.5749  144.1555  152.1437 H   0  0  0  0  0  0  0  0  0  0  0  0  # atno 10167 bound_to 10162
  157.6463  130.9540  150.0822 H   0  0  0  0  0  0  0  0  0  0  0  0  # atno 10718 bound_to 10713
  154.1887  135.6431  153.5054 H   0  0  0  0  0  0  0  0  0  0  0  0  # atno 10763 bound_to 10752
  153.0040  135.5423  154.6437 H   0  0  0  0  0  0  0  0  0  0  0  0  # atno 10764 bound_to 10752
  154.5821  135.2926  155.0695 H   0  0  0  0  0  0  0  0  0  0  0  0  # atno 10765 bound_to 10752
  140.0113  134.9437  157.0283 H   0  0  0  0  0  0  0  0  0  0  0  0  # atno 11005 bound_to 11000
  146.1692  140.6671  142.9241 LP  0  0  0  0  0  0  0  0  0  0  0  0  # atno 17320 bound_to 7965
  144.7379  140.4860  143.6890 LP  0  0  0  0  0  0  0  0  0  0  0  0  # atno 17321 bound_to 7965
  140.1095  144.5469  150.6934 LP  0  0  0  0  0  0  0  0  0  0  0  0  # atno 17342 bound_to 10162
  140.7032  143.2449  151.4802 LP  0  0  0  0  0  0  0  0  0  0  0  0  # atno 17343 bound_to 10162
  156.1795  130.3649  149.9055 LP  0  0  0  0  0  0  0  0  0  0  0  0  # atno 17370 bound_to 10713
  156.7011  130.8933  151.3599 LP  0  0  0  0  0  0  0  0  0  0  0  0  # atno 17371 bound_to 10713
  140.4549  134.1544  155.7185 LP  0  0  0  0  0  0  0  0  0  0  0  0  # atno 17394 bound_to 11000
  141.1713  133.8603  157.1562 LP  0  0  0  0  0  0  0  0  0  0  0  0  # atno 17395 bound_to 11000

$$$$
