AV-unprocessed.smi:652|AV-procd|sdf|3195|dock3
  -GOLD-   22720 0123D 1   1.00000     0.00000
 Structure written by MMmdl.
 48 49  0  0  0  0  0  0  0  0  2 V2000
  144.9632  133.8520  152.6733 C   0  0  0  0  0  0  0  0  0  0  0  0
  145.8384  134.3451  151.5101 C   0  0  0  0  0  0  0  0  0  0  0  0
  147.0637  133.4448  151.3042 C   0  0  0  0  0  0  0  0  0  0  0  0
  146.2778  135.7181  151.7447 N   0  0  0  0  0  0  0  0  0  0  0  0
  145.4732  136.7537  152.0315 C   0  0  0  0  0  0  0  0  0  0  0  0
  144.2503  136.6508  152.1334 O   0  0  0  0  0  0  0  0  0  0  0  0
  146.1599  138.1097  152.2253 C   0  0  0  0  0  0  0  0  0  0  0  0
  147.1019  138.1388  153.4470 C   0  0  0  0  0  0  0  0  0  0  0  0
  147.3517  139.5149  153.9452 N   0  3  2  0  0  0  0  0  0  0  0  0
  147.3324  140.5169  152.8530 C   0  0  0  0  0  0  0  0  0  0  0  0
  147.5552  141.9306  153.4131 C   0  0  0  0  0  0  0  0  0  0  0  0
  148.7801  141.9657  154.1337 O   0  0  0  0  0  0  0  0  0  0  0  0
  148.7730  141.0853  155.2531 C   0  0  2  0  0  0  0  0  0  0  0  0
  150.0961  141.2616  156.0114 C   0  0  0  0  0  0  0  0  0  0  0  0
  150.1304  142.5204  156.7400 N   0  0  0  0  0  0  0  0  0  0  0  0
  151.1105  142.7506  157.7133 C   0  0  0  0  0  0  0  0  0  0  0  0
  151.6556  144.0302  157.9678 C   0  0  0  0  0  0  0  0  0  0  0  0
  152.6307  144.1326  158.9753 C   0  0  0  0  0  0  0  0  0  0  0  0
  152.9880  142.9519  159.6513 C   0  0  0  0  0  0  0  0  0  0  0  0
  152.4334  141.7530  159.3642 N   0  0  0  0  0  0  0  0  0  0  0  0
  151.5055  141.6565  158.4052 N   0  0  0  0  0  0  0  0  0  0  0  0
  148.5982  139.6420  154.7409 C   0  0  0  0  0  0  0  0  0  0  0  0
  144.6262  132.8295  152.5016 H   0  0  0  0  0  0  0  0  0  0  0  0
  144.0744  134.4724  152.7932 H   0  0  0  0  0  0  0  0  0  0  0  0
  145.5101  133.8670  153.6165 H   0  0  0  0  0  0  0  0  0  0  0  0
  145.2471  134.3139  150.5931 H   0  0  0  0  0  0  0  0  0  0  0  0
  146.7633  132.4191  151.0883 H   0  0  0  0  0  0  0  0  0  0  0  0
  147.6972  133.4257  152.1916 H   0  0  0  0  0  0  0  0  0  0  0  0
  147.6710  133.7917  150.4674 H   0  0  0  0  0  0  0  0  0  0  0  0
  147.2698  135.8929  151.6757 H   0  0  0  0  0  0  0  0  0  0  0  0
  146.7267  138.3457  151.3231 H   0  0  0  0  0  0  0  0  0  0  0  0
  145.3821  138.8677  152.3181 H   0  0  0  0  0  0  0  0  0  0  0  0
  146.7078  137.5213  154.2561 H   0  0  0  0  0  0  0  0  0  0  0  0
  148.0585  137.6990  153.1587 H   0  0  0  0  0  0  0  0  0  0  0  0
  148.1090  140.2787  152.1243 H   0  0  0  0  0  0  0  0  0  0  0  0
  146.3770  140.4778  152.3283 H   0  0  0  0  0  0  0  0  0  0  0  0
  147.6034  142.6540  152.5992 H   0  0  0  0  0  0  0  0  0  0  0  0
  146.7281  142.2310  154.0585 H   0  0  0  0  0  0  0  0  0  0  0  0
  147.9434  141.3376  155.9169 H   0  0  0  0  0  0  0  0  0  0  0  0
  150.2146  140.4476  156.7275 H   0  0  0  0  0  0  0  0  0  0  0  0
  150.9368  141.2098  155.3180 H   0  0  0  0  0  0  0  0  0  0  0  0
  149.6390  143.3145  156.3549 H   0  0  0  0  0  0  0  0  0  0  0  0
  151.3506  144.9090  157.4200 H   0  0  0  0  0  0  0  0  0  0  0  0
  153.0877  145.0795  159.2209 H   0  0  0  0  0  0  0  0  0  0  0  0
  153.7306  142.9678  160.4350 H   0  0  0  0  0  0  0  0  0  0  0  0
  148.5719  138.9630  155.5927 H   0  0  0  0  0  0  0  0  0  0  0  0
  149.4537  139.3535  154.1277 H   0  0  0  0  0  0  0  0  0  0  0  0
  146.5836  139.7487  154.5582 H   0  0  0  0  0  0  0  0  0  0  0  0
  1  2  1  0  0  0  0
  1 23  1  0  0  0  0
  1 24  1  0  0  0  0
  1 25  1  0  0  0  0
  2  3  1  0  0  0  0
  2  4  1  0  0  0  0
  2 26  1  0  0  0  0
  3 27  1  0  0  0  0
  3 28  1  0  0  0  0
  3 29  1  0  0  0  0
  4  5  1  0  0  0  0
  4 30  1  0  0  0  0
  5  6  2  0  0  0  0
  5  7  1  0  0  0  0
  7  8  1  0  0  0  0
  7 31  1  0  0  0  0
  7 32  1  0  0  0  0
  8  9  1  0  0  0  0
  8 33  1  0  0  0  0
  8 34  1  0  0  0  0
  9 22  1  0  0  0  0
  9 10  1  0  0  0  0
  9 48  1  0  0  0  0
 10 11  1  0  0  0  0
 10 35  1  0  0  0  0
 10 36  1  0  0  0  0
 11 12  1  0  0  0  0
 11 37  1  0  0  0  0
 11 38  1  0  0  0  0
 12 13  1  0  0  0  0
 13 14  1  0  0  0  0
 13 22  1  0  0  0  0
 13 39  1  0  0  0  0
 14 15  1  0  0  0  0
 14 40  1  0  0  0  0
 14 41  1  0  0  0  0
 15 16  1  0  0  0  0
 15 42  1  0  0  0  0
 16 21  1  0  0  0  0
 16 17  2  0  0  0  0
 17 18  1  0  0  0  0
 17 43  1  0  0  0  0
 18 19  2  0  0  0  0
 18 44  1  0  0  0  0
 19 20  1  0  0  0  0
 19 45  1  0  0  0  0
 20 21  2  0  0  0  0
 22 46  1  0  0  0  0
 22 47  1  0  0  0  0
M  CHG  1   9   1
M  END
> <s_m_source_file>
AV-unprocessed.smi

> <i_m_source_file_index>
652

> <i_lp_mmshare_version>
43012

> <i_f3d_flags>
0

> <s_epik_input>
W0NIM11bQ0hdKFtDSDNdKVtOSF1DKD1PKVtDSDJdW0NIMl1OMVtDSDJdW0NIMl1PW0NASF0oW0NIMl0xKVtDSDJdW05IXWMyW2NIXVtjSF1bY0hdbm4y

> <s_epik_cmdline>
J2VwaWtfcHl0aG9uJywgJy1waCcsICc3LjAnLCAnLXRuJywgJzgnLCAnLW1hJywgJzIwMCcsICctbWV0YWxfYmluZGluZycsICctaW1hZScsICc8aW5maWxlLm1hZT4nLCAnLW9tYWUnLCAnPG91dGZpbGUubWFlPic=

> <r_lp_tautomer_probability>
0.999978

> <r_epik_Ionization_Penalty>
0.433079

> <r_epik_Ionization_Penalty_Charging>
0.413784

> <r_epik_Ionization_Penalty_Neutral>
0.0192945

> <r_epik_State_Penalty>
0.425138

> <r_epik_Charging_Adjusted_Penalty>
0.838922

> <i_epik_Tot_Q>
1

> <i_epik_Tot_abs_Q>
1

> <r_epik_Metal_State_Penalty>
0.422073

> <b_epik_Metal_Only>
0

> <s_lp_Force_Field>
OPLS_2005

> <r_lp_Energy>
22.402

> <b_lp_Chiralities_Consistent>
1

> <s_lp_Variant>
AV-unprocessed.smi:652-4

> <Gold.Version>
5.8.1

> <Gold.Id.Protein>
6NUR|6NUR_protein|mol2

> <Gold.PLP.Fitness>
45.7074

> <Gold.PLP.PLP>
-40.2362

> <Gold.PLP.part.hbond>
-3.0000

> <Gold.PLP.part.metal>
0.0000

> <Gold.PLP.part.buried>
-6.2839

> <Gold.PLP.part.nonpolar>
-32.2006

> <Gold.PLP.part.repulsive>
0.6074

> <Gold.PLP.ligand.clash>
0.0000

> <Gold.PLP.ligand.torsion>
0.8269

> <Gold.PLP.Chemscore.Hbond>
2.2717

> <Gold.PLP.Chemscore.CHOScore>
0.0000

> <Gold.PLP.Chemscore.Metal>
0.0000

> <Gold.Chemscore.Hbonds>
donor molecule, donor type, donor heavy atom, donor atom, acceptor molecule, acceptor atom, score
      L1  H     4    30       P1  7948  1.00
      L1  H    15    42       P1  8028  1.00
      P1  H  8011  8017       L1    12  0.15

> <Gold.PLP.Chemscore.Internal.Correction>
0.3098

> <Gold.Rescore>
     Score         DG    S(hbond)    S(metal)    S(lipo)     H(rot)  DE(clash)    DE(int)     intcor
     16.16     -18.18       2.08        0.00      98.54       2.26       0.85       1.17       ----

> <Gold.Chemscore.Fitness>
16.1633

> <Gold.Chemscore.DG>
-18.1817

> <Gold.Chemscore.ZeroCoef>
-5.4800

> <Gold.Chemscore.Hbond>
2.0830

> <Gold.Chemscore.Metal>
0.0000

> <Gold.Chemscore.Lipo>
98.5353

> <Gold.Chemscore.Internal_Hbond>
0.0000

> <Gold.Chemscore.DEClash>
0.8523

> <Gold.Chemscore.DEInternal>
1.1661

> <Gold.Chemscore.Rot>
2.2594

> <Gold.Chemscore.Internal.Correction>
   9.000000E+99

> <Gold.Chemscore.Hbonds>
donor molecule, donor type, donor heavy atom, donor atom, acceptor molecule, acceptor atom, score
      L1  H     4    30       P1  7948  1.00
      L1  H    15    42       P1  8028  1.00
      P1  H  8011  8017       L1    12  0.01

> <Gold.Chemscore.Hbond.Weighted>
-6.9572

> <Gold.Chemscore.Metal.Weighted>
-0.0000

> <Gold.Chemscore.Lipo.Weighted>
-11.5286

> <Gold.Chemscore.Internal_Hbond.Weighted>
0.0000

> <Gold.Chemscore.DEClash.Weighted>
0.8523

> <Gold.Chemscore.DEInternal.Weighted>
1.1661

> <Gold.Chemscore.Rot.Weighted>
5.7841

> <Gold.Chemscore.Internal.Correction.Weighted>
   9.000000E+99

> <Gold.Protein.RotatedTorsions>
[ 6907 6896 6895 6894 ] final    8.62 input  -60.11 | X-H torsion
[ 7974 7965 7964 7962 ] final   70.63 input  175.53 | X-H torsion
[ 8008 7997 7996 7995 ] final  176.24 input   59.86 | X-H torsion
[ 10167 10162 10161 10158 ] final  -59.31 input  -65.29 | X-H torsion
[ 10718 10713 10712 10709 ] final  -58.42 input   66.30 | X-H torsion
[ 10763 10752 10751 10750 ] final -140.44 input  -60.55 | X-H torsion
[ 11005 11000 10999 10996 ] final  -73.09 input  -57.11 | X-H torsion

> <Gold.Protein.ActiveResidues>
 VAL166  LYS551  ARG553  GLY616  TRP617  ASP618  TYR619  PRO620  LYS621  CYS622 
 ASP623  PHE694  ASN695  SER759  ASP760  ASP761  ALA762  ILE779  LEU786  VAL792 
 PHE793  MET794  SER795  GLU796  ALA797  LYS798  CYS799  TRP800  GLU811  SER814 

> <Gold.Protein.RotatedAtoms>
  151.7090  135.0916  160.0264 H   0  0  0  0  0  0  0  0  0  0  0  0  # atno 6907 bound_to 6896
  152.3673  133.6369  159.6069 H   0  0  0  0  0  0  0  0  0  0  0  0  # atno 6908 bound_to 6896
  150.7647  133.9243  159.3449 H   0  0  0  0  0  0  0  0  0  0  0  0  # atno 6909 bound_to 6896
  145.7758  139.2864  143.1294 H   0  0  0  0  0  0  0  0  0  0  0  0  # atno 7974 bound_to 7965
  156.0786  140.1388  156.9741 H   0  0  0  0  0  0  0  0  0  0  0  0  # atno 8008 bound_to 7997
  154.4572  140.0957  156.6840 H   0  0  0  0  0  0  0  0  0  0  0  0  # atno 8009 bound_to 7997
  155.5113  140.3454  155.4391 H   0  0  0  0  0  0  0  0  0  0  0  0  # atno 8010 bound_to 7997
  140.6143  143.2397  151.5635 H   0  0  0  0  0  0  0  0  0  0  0  0  # atno 10167 bound_to 10162
  156.1137  130.4172  150.0575 H   0  0  0  0  0  0  0  0  0  0  0  0  # atno 10718 bound_to 10713
  154.8578  135.3553  154.5708 H   0  0  0  0  0  0  0  0  0  0  0  0  # atno 10763 bound_to 10752
  153.6321  135.7002  153.5276 H   0  0  0  0  0  0  0  0  0  0  0  0  # atno 10764 bound_to 10752
  153.3041  135.4198  155.1238 H   0  0  0  0  0  0  0  0  0  0  0  0  # atno 10765 bound_to 10752
  141.1618  133.6867  156.7159 H   0  0  0  0  0  0  0  0  0  0  0  0  # atno 11005 bound_to 11000
  146.0124  140.8423  142.9964 LP  0  0  0  0  0  0  0  0  0  0  0  0  # atno 17320 bound_to 7965
  144.6805  140.2509  143.7331 LP  0  0  0  0  0  0  0  0  0  0  0  0  # atno 17321 bound_to 7965
  139.5386  144.2711  152.1304 LP  0  0  0  0  0  0  0  0  0  0  0  0  # atno 17342 bound_to 10162
  140.1917  144.4745  150.6476 LP  0  0  0  0  0  0  0  0  0  0  0  0  # atno 17343 bound_to 10162
  156.8531  130.9466  151.3624 LP  0  0  0  0  0  0  0  0  0  0  0  0  # atno 17370 bound_to 10713
  157.6319  130.8736  149.9289 LP  0  0  0  0  0  0  0  0  0  0  0  0  # atno 17371 bound_to 10713
  140.2852  134.8284  157.3969 LP  0  0  0  0  0  0  0  0  0  0  0  0  # atno 17394 bound_to 11000
  140.1396  134.4989  155.8041 LP  0  0  0  0  0  0  0  0  0  0  0  0  # atno 17395 bound_to 11000

$$$$
