AV-unprocessed.smi:2389|AV-procd|sdf|9472|dock3
  -GOLD-   2272013103D 1   1.00000     0.00000
 Structure written by MMmdl.
 34 35  0  0  0  0  0  0  0  0  1 V2000
  152.0278  140.9092  164.7009 C   0  0  0  0  0  0  0  0  0  0  0  0
  151.9566  142.0656  163.7008 C   0  0  0  0  0  0  0  0  0  0  0  0
  151.7436  141.5318  162.3971 O   0  0  0  0  0  0  0  0  0  0  0  0
  151.8193  142.3867  161.3165 C   0  0  0  0  0  0  0  0  0  0  0  0
  152.3763  143.6658  161.5038 C   0  0  0  0  0  0  0  0  0  0  0  0
  152.4469  144.5351  160.4006 C   0  0  0  0  0  0  0  0  0  0  0  0
  151.9597  144.0945  159.1554 C   0  0  0  0  0  0  0  0  0  0  0  0
  151.4156  142.7958  159.0439 C   0  0  0  0  0  0  0  0  0  0  0  0
  150.9510  142.4435  157.7487 N   0  0  0  0  0  0  0  0  0  0  0  0
  150.3313  141.3119  157.3687 C   0  0  0  0  0  0  0  0  0  0  0  0
  150.0544  140.3680  158.1099 O   0  0  0  0  0  0  0  0  0  0  0  0
  150.0467  141.3309  156.0589 N   0  0  0  0  0  0  0  0  0  0  0  0
  149.3795  140.2569  155.3347 C   0  0  0  0  0  0  0  0  0  0  0  0
  148.0349  140.6251  154.7371 C   0  0  0  0  0  0  0  0  0  0  0  0
  147.6476  140.1777  153.3462 C   0  0  0  0  0  0  0  0  0  0  0  0
  147.9515  141.6315  153.6133 C   0  0  0  0  0  0  0  0  0  0  0  0
  151.3532  141.9669  160.1148 N   0  0  0  0  0  0  0  0  0  0  0  0
  152.1862  141.2800  165.7137 H   0  0  0  0  0  0  0  0  0  0  0  0
  152.8490  140.2340  164.4601 H   0  0  0  0  0  0  0  0  0  0  0  0
  151.1042  140.3298  164.6967 H   0  0  0  0  0  0  0  0  0  0  0  0
  151.1415  142.7377  163.9742 H   0  0  0  0  0  0  0  0  0  0  0  0
  152.8880  142.6334  163.7337 H   0  0  0  0  0  0  0  0  0  0  0  0
  152.7399  143.9736  162.4731 H   0  0  0  0  0  0  0  0  0  0  0  0
  152.8670  145.5243  160.5072 H   0  0  0  0  0  0  0  0  0  0  0  0
  152.0060  144.7500  158.2979 H   0  0  0  0  0  0  0  0  0  0  0  0
  151.1138  143.1301  157.0273 H   0  0  0  0  0  0  0  0  0  0  0  0
  150.3102  142.1456  155.5241 H   0  0  0  0  0  0  0  0  0  0  0  0
  150.0383  139.9516  154.5216 H   0  0  0  0  0  0  0  0  0  0  0  0
  149.2684  139.3843  155.9809 H   0  0  0  0  0  0  0  0  0  0  0  0
  147.2302  140.6773  155.4683 H   0  0  0  0  0  0  0  0  0  0  0  0
  148.3778  139.6081  152.7747 H   0  0  0  0  0  0  0  0  0  0  0  0
  146.6085  139.9011  153.1804 H   0  0  0  0  0  0  0  0  0  0  0  0
  147.1148  142.3268  153.6226 H   0  0  0  0  0  0  0  0  0  0  0  0
  148.8842  142.0290  153.2174 H   0  0  0  0  0  0  0  0  0  0  0  0
  1  2  1  0  0  0  0
  1 18  1  0  0  0  0
  1 19  1  0  0  0  0
  1 20  1  0  0  0  0
  2  3  1  0  0  0  0
  2 21  1  0  0  0  0
  2 22  1  0  0  0  0
  3  4  1  0  0  0  0
  4 17  1  0  0  0  0
  4  5  2  0  0  0  0
  5  6  1  0  0  0  0
  5 23  1  0  0  0  0
  6  7  2  0  0  0  0
  6 24  1  0  0  0  0
  7  8  1  0  0  0  0
  7 25  1  0  0  0  0
  8  9  1  0  0  0  0
  8 17  2  0  0  0  0
  9 10  1  0  0  0  0
  9 26  1  0  0  0  0
 10 11  2  0  0  0  0
 10 12  1  0  0  0  0
 12 13  1  0  0  0  0
 12 27  1  0  0  0  0
 13 14  1  0  0  0  0
 13 28  1  0  0  0  0
 13 29  1  0  0  0  0
 14 16  1  0  0  0  0
 14 15  1  0  0  0  0
 14 30  1  0  0  0  0
 15 16  1  0  0  0  0
 15 31  1  0  0  0  0
 15 32  1  0  0  0  0
 16 33  1  0  0  0  0
 16 34  1  0  0  0  0
M  END
> <s_m_source_file>
AV-unprocessed.smi

> <i_m_source_file_index>
2389

> <i_lp_mmshare_version>
43012

> <i_f3d_flags>
0

> <s_epik_input>
W0NIM11bQ0gyXU9jMVtjSF1bY0hdW2NIXWMobjEpW05IXUMoPU8pW05IXVtDSDJdW0NIXTJbQ0gyXVtDSDJdMg==

> <s_epik_cmdline>
J2VwaWtfcHl0aG9uJywgJy1waCcsICc3LjAnLCAnLXRuJywgJzgnLCAnLW1hJywgJzIwMCcsICctbWV0YWxfYmluZGluZycsICctaW1hZScsICc8aW5maWxlLm1hZT4nLCAnLW9tYWUnLCAnPG91dGZpbGUubWFlPic=

> <r_lp_tautomer_probability>
1

> <r_epik_Ionization_Penalty>
4.07356e-05

> <r_epik_Ionization_Penalty_Charging>
0

> <r_epik_Ionization_Penalty_Neutral>
4.07356e-05

> <r_epik_State_Penalty>
-0

> <r_epik_Charging_Adjusted_Penalty>
0

> <i_epik_Tot_Q>
0

> <i_epik_Tot_abs_Q>
0

> <r_epik_Metal_State_Penalty>
-0

> <b_epik_Metal_Only>
0

> <s_lp_Force_Field>
OPLS_2005

> <r_lp_Energy>
13.6513

> <b_lp_Chiralities_Consistent>
1

> <s_lp_Variant>
AV-unprocessed.smi:2389-1

> <Gold.Version>
5.8.1

> <Gold.Id.Protein>
6NUR|6NUR_protein|mol2

> <Gold.PLP.Fitness>
45.7674

> <Gold.PLP.PLP>
-40.1913

> <Gold.PLP.part.hbond>
-2.0000

> <Gold.PLP.part.metal>
0.0000

> <Gold.PLP.part.buried>
-5.2250

> <Gold.PLP.part.nonpolar>
-32.1442

> <Gold.PLP.part.repulsive>
0.2243

> <Gold.PLP.ligand.clash>
0.0000

> <Gold.PLP.ligand.torsion>
0.4964

> <Gold.PLP.Chemscore.Hbond>
2.0000

> <Gold.PLP.Chemscore.CHOScore>
0.0000

> <Gold.PLP.Chemscore.Metal>
0.0000

> <Gold.Chemscore.Hbonds>
donor molecule, donor type, donor heavy atom, donor atom, acceptor molecule, acceptor atom, score
      P1  H  6933  6945       L1     3  0.25

> <Gold.PLP.Chemscore.Internal.Correction>
0.5690

> <Gold.Rescore>
     Score         DG    S(hbond)    S(metal)    S(lipo)     H(rot)  DE(clash)    DE(int)     intcor
     16.00     -17.81       1.96        0.00      84.97       1.62       0.03       1.79       ----

> <Gold.Chemscore.Fitness>
15.9969

> <Gold.Chemscore.DG>
-17.8138

> <Gold.Chemscore.ZeroCoef>
-5.4800

> <Gold.Chemscore.Hbond>
1.9600

> <Gold.Chemscore.Metal>
0.0000

> <Gold.Chemscore.Lipo>
84.9729

> <Gold.Chemscore.Internal_Hbond>
0.0000

> <Gold.Chemscore.DEClash>
0.0272

> <Gold.Chemscore.DEInternal>
1.7897

> <Gold.Chemscore.Rot>
1.6228

> <Gold.Chemscore.Internal.Correction>
   9.000000E+99

> <Gold.Chemscore.Hbond.Weighted>
-6.5465

> <Gold.Chemscore.Metal.Weighted>
-0.0000

> <Gold.Chemscore.Lipo.Weighted>
-9.9418

> <Gold.Chemscore.Internal_Hbond.Weighted>
0.0000

> <Gold.Chemscore.DEClash.Weighted>
0.0272

> <Gold.Chemscore.DEInternal.Weighted>
1.7897

> <Gold.Chemscore.Rot.Weighted>
4.1545

> <Gold.Chemscore.Internal.Correction.Weighted>
   9.000000E+99

> <Gold.Protein.RotatedTorsions>
[ 6907 6896 6895 6894 ] final  -51.10 input  -60.11 | X-H torsion
[ 7974 7965 7964 7962 ] final    9.85 input  175.53 | X-H torsion
[ 8008 7997 7996 7995 ] final  -47.08 input   59.86 | X-H torsion
[ 10167 10162 10161 10158 ] final -171.03 input  -65.29 | X-H torsion
[ 10718 10713 10712 10709 ] final   -0.91 input   66.30 | X-H torsion
[ 10763 10752 10751 10750 ] final -125.49 input  -60.55 | X-H torsion
[ 11005 11000 10999 10996 ] final  101.71 input  -57.11 | X-H torsion

> <Gold.Protein.ActiveResidues>
 VAL166  LYS551  ARG553  GLY616  TRP617  ASP618  TYR619  PRO620  LYS621  CYS622 
 ASP623  PHE694  ASN695  SER759  ASP760  ASP761  ALA762  ILE779  LEU786  VAL792 
 PHE793  MET794  SER795  GLU796  ALA797  LYS798  CYS799  TRP800  GLU811  SER814 

> <Gold.Protein.RotatedAtoms>
  150.8644  134.8003  159.7106 H   0  0  0  0  0  0  0  0  0  0  0  0  # atno 6907 bound_to 6896
  152.4670  134.5048  159.9745 H   0  0  0  0  0  0  0  0  0  0  0  0  # atno 6908 bound_to 6896
  151.5147  133.3440  159.2926 H   0  0  0  0  0  0  0  0  0  0  0  0  # atno 6909 bound_to 6896
  146.2397  139.9722  142.8445 H   0  0  0  0  0  0  0  0  0  0  0  0  # atno 7974 bound_to 7965
  154.4013  140.1355  156.4117 H   0  0  0  0  0  0  0  0  0  0  0  0  # atno 8008 bound_to 7997
  155.7727  140.3483  155.5235 H   0  0  0  0  0  0  0  0  0  0  0  0  # atno 8009 bound_to 7997
  155.8751  140.0978  157.1514 H   0  0  0  0  0  0  0  0  0  0  0  0  # atno 8010 bound_to 7997
  139.5826  144.1389  152.1535 H   0  0  0  0  0  0  0  0  0  0  0  0  # atno 10167 bound_to 10162
  156.8134  130.5432  149.5706 H   0  0  0  0  0  0  0  0  0  0  0  0  # atno 10718 bound_to 10713
  154.8736  135.4027  154.3277 H   0  0  0  0  0  0  0  0  0  0  0  0  # atno 10763 bound_to 10752
  153.4096  135.7020  153.6374 H   0  0  0  0  0  0  0  0  0  0  0  0  # atno 10764 bound_to 10752
  153.5082  135.3713  155.2544 H   0  0  0  0  0  0  0  0  0  0  0  0  # atno 10765 bound_to 10752
  139.8774  134.9194  156.4948 H   0  0  0  0  0  0  0  0  0  0  0  0  # atno 11005 bound_to 11000
  145.1670  140.9702  143.4344 LP  0  0  0  0  0  0  0  0  0  0  0  0  # atno 17320 bound_to 7965
  145.0063  139.3551  143.6142 LP  0  0  0  0  0  0  0  0  0  0  0  0  # atno 17321 bound_to 7965
  140.0945  144.5592  150.7031 LP  0  0  0  0  0  0  0  0  0  0  0  0  # atno 17342 bound_to 10162
  140.7103  143.2499  151.4603 LP  0  0  0  0  0  0  0  0  0  0  0  0  # atno 17343 bound_to 10162
  156.1031  130.5984  150.9926 LP  0  0  0  0  0  0  0  0  0  0  0  0  # atno 17370 bound_to 10713
  157.6494  131.0899  150.8083 LP  0  0  0  0  0  0  0  0  0  0  0  0  # atno 17371 bound_to 10713
  140.8632  133.8044  155.9287 LP  0  0  0  0  0  0  0  0  0  0  0  0  # atno 17394 bound_to 11000
  140.9028  134.2357  157.5032 LP  0  0  0  0  0  0  0  0  0  0  0  0  # atno 17395 bound_to 11000

$$$$
