AV-unprocessed.smi:12|AV-procd|sdf|63|dock8
  -GOLD-   2262015183D 1   1.00000     0.00000
 Structure written by MMmdl.
 41 44  0  0  0  0  0  0  0  0  1 V2000
  144.7255  142.8875  158.2735 C   0  0  0  0  0  0  0  0  0  0  0  0
  145.4694  142.0168  157.2768 C   0  0  0  0  0  0  0  0  0  0  0  0
  146.6885  142.3630  156.8004 C   0  0  0  0  0  0  0  0  0  0  0  0
  147.3173  141.5416  155.9069 N   0  0  0  0  0  0  0  0  0  0  0  0
  146.6837  140.3546  155.4802 C   0  0  0  0  0  0  0  0  0  0  0  0
  145.5200  139.9544  155.8893 N   0  0  0  0  0  0  0  0  0  0  0  0
  144.8329  140.7548  156.8223 C   0  0  0  0  0  0  0  0  0  0  0  0
  143.7297  140.4124  157.2453 O   0  0  0  0  0  0  0  0  0  0  0  0
  147.4828  139.7280  154.5732 O   0  0  0  0  0  0  0  0  0  0  0  0
  148.6737  140.4982  154.3609 C   0  0  2  0  0  0  0  0  0  0  0  0
  149.9103  139.7480  154.8480 C   0  0  1  0  0  0  0  0  0  0  0  0
  150.6998  139.3208  153.7562 O   0  0  0  0  0  0  0  0  0  0  0  0
  150.6493  140.7871  155.6969 C   0  0  2  0  0  0  0  0  0  0  0  0
  151.5091  140.1941  156.8200 C   0  0  0  0  0  0  0  0  0  0  0  0
  151.7906  141.2022  157.7772 O   0  0  0  0  0  0  0  0  0  0  0  0
  152.6831  140.9727  158.7595 C   0  0  0  0  0  0  0  0  0  0  0  0
  153.4792  140.0317  158.7518 O   0  0  0  0  0  0  0  0  0  0  0  0
  152.6039  141.9763  159.8601 C   0  0  0  0  0  0  0  0  0  0  0  0
  153.1564  141.6640  161.1245 C   0  0  0  0  0  0  0  0  0  0  0  0
  153.0925  142.5900  162.1838 C   0  0  0  0  0  0  0  0  0  0  0  0
  152.4762  143.8403  161.9917 C   0  0  0  0  0  0  0  0  0  0  0  0
  151.9254  144.1643  160.7381 C   0  0  0  0  0  0  0  0  0  0  0  0
  151.9877  143.2392  159.6777 C   0  0  0  0  0  0  0  0  0  0  0  0
  149.6038  141.5681  156.2527 O   0  0  0  0  0  0  0  0  0  0  0  0
  148.6237  141.7338  155.2798 C   0  0  2  0  0  0  0  0  0  0  0  0
  145.3007  143.7784  158.5279 H   0  0  0  0  0  0  0  0  0  0  0  0
  144.5340  142.3358  159.1943 H   0  0  0  0  0  0  0  0  0  0  0  0
  143.7696  143.2102  157.8597 H   0  0  0  0  0  0  0  0  0  0  0  0
  147.1729  143.2747  157.1188 H   0  0  0  0  0  0  0  0  0  0  0  0
  148.7517  140.8299  153.3243 H   0  0  0  0  0  0  0  0  0  0  0  0
  149.6185  138.8928  155.4598 H   0  0  0  0  0  0  0  0  0  0  0  0
  150.1604  139.3170  152.9799 H   0  0  0  0  0  0  0  0  0  0  0  0
  151.2493  141.4445  155.0643 H   0  0  0  0  0  0  0  0  0  0  0  0
  150.9706  139.3785  157.3047 H   0  0  0  0  0  0  0  0  0  0  0  0
  152.4355  139.7821  156.4173 H   0  0  0  0  0  0  0  0  0  0  0  0
  153.6337  140.7099  161.2963 H   0  0  0  0  0  0  0  0  0  0  0  0
  153.5166  142.3396  163.1452 H   0  0  0  0  0  0  0  0  0  0  0  0
  152.4263  144.5498  162.8046 H   0  0  0  0  0  0  0  0  0  0  0  0
  151.4533  145.1241  160.5887 H   0  0  0  0  0  0  0  0  0  0  0  0
  151.5545  143.5203  158.7288 H   0  0  0  0  0  0  0  0  0  0  0  0
  148.6035  142.7040  154.7821 H   0  0  0  0  0  0  0  0  0  0  0  0
  1  2  1  0  0  0  0
  1 26  1  0  0  0  0
  1 27  1  0  0  0  0
  1 28  1  0  0  0  0
  2  7  1  0  0  0  0
  2  3  2  0  0  0  0
  3  4  1  0  0  0  0
  3 29  1  0  0  0  0
  4 25  1  0  0  0  0
  4  5  1  0  0  0  0
  5  6  2  0  0  0  0
  5  9  1  0  0  0  0
  6  7  1  0  0  0  0
  7  8  2  0  0  0  0
  9 10  1  0  0  0  0
 10 25  1  0  0  0  0
 10 11  1  0  0  0  0
 10 30  1  0  0  0  0
 11 12  1  0  0  0  0
 11 13  1  0  0  0  0
 11 31  1  0  0  0  0
 12 32  1  0  0  0  0
 13 14  1  0  0  0  0
 13 24  1  0  0  0  0
 13 33  1  0  0  0  0
 14 15  1  0  0  0  0
 14 34  1  0  0  0  0
 14 35  1  0  0  0  0
 15 16  1  0  0  0  0
 16 17  2  0  0  0  0
 16 18  1  0  0  0  0
 18 23  1  0  0  0  0
 18 19  2  0  0  0  0
 19 20  1  0  0  0  0
 19 36  1  0  0  0  0
 20 21  2  0  0  0  0
 20 37  1  0  0  0  0
 21 22  1  0  0  0  0
 21 38  1  0  0  0  0
 22 23  2  0  0  0  0
 22 39  1  0  0  0  0
 23 40  1  0  0  0  0
 24 25  1  0  0  0  0
 25 41  1  0  0  0  0
M  END
> <s_m_source_file>
AV-unprocessed.smi

> <i_m_source_file_index>
12

> <i_lp_mmshare_version>
43012

> <i_f3d_flags>
0

> <s_epik_input>
W0NIM11jKFtjSF0xKWMoPU8pbmMobjEyKU9bQ0BIXTNbQ0BASF0yT1tDQEBIXShbQ0BASF0zW09IXSlbQ0gyXU9DKD1PKWM0W2NIXVtjSF1bY0hdW2NIXVtjSF00

> <s_epik_cmdline>
J2VwaWtfcHl0aG9uJywgJy1waCcsICc3LjAnLCAnLXRuJywgJzgnLCAnLW1hJywgJzIwMCcsICctbWV0YWxfYmluZGluZycsICctaW1hZScsICc8aW5maWxlLm1hZT4nLCAnLW9tYWUnLCAnPG91dGZpbGUubWFlPic=

> <r_lp_tautomer_probability>
0.933681

> <r_epik_Ionization_Penalty>
0.00399549

> <r_epik_Ionization_Penalty_Charging>
3.09373e-09

> <r_epik_Ionization_Penalty_Neutral>
0.00399549

> <r_epik_State_Penalty>
0.00284953

> <r_epik_Charging_Adjusted_Penalty>
0.00284953

> <i_epik_Tot_Q>
0

> <i_epik_Tot_abs_Q>
0

> <r_epik_Metal_State_Penalty>
-0

> <b_epik_Metal_Only>
0

> <s_epik_Chemistry_Notes>
This compound has an ester and may undergo hydrolysis at high or low pH. This compound contains an acetal/aminal-like group ( X-CH(R)-Y where X, Y are N, S, or O) that may be acid/base labile, releasing an aldehyde.

> <s_lp_Force_Field>
OPLS_2005

> <r_lp_Energy>
41.0284

> <b_lp_Chiralities_Consistent>
1

> <s_lp_Variant>
AV-unprocessed.smi:12-3

> <Gold.Version>
5.8.1

> <Gold.Id.Protein>
6NUR|6NUR_protein|mol2

> <Gold.PLP.Fitness>
47.9739

> <Gold.PLP.PLP>
-39.9383

> <Gold.PLP.part.hbond>
-3.0000

> <Gold.PLP.part.metal>
0.0000

> <Gold.PLP.part.buried>
-1.3169

> <Gold.PLP.part.nonpolar>
-35.2380

> <Gold.PLP.part.repulsive>
0.2501

> <Gold.PLP.ligand.clash>
0.0000

> <Gold.PLP.ligand.torsion>
0.4965

> <Gold.PLP.Chemscore.Hbond>
3.0000

> <Gold.PLP.Chemscore.CHOScore>
0.0044

> <Gold.PLP.Chemscore.Metal>
0.0000

> <Gold.Chemscore.Hbonds>
donor molecule, donor type, donor heavy atom, donor atom, acceptor molecule, acceptor atom, score
      L1  H    12    32       P1  7957  1.00
      P1  H  7989  7998       L1    12  0.90
      P1  H  7997  8010       L1    17  1.00

> <Gold.PLP.Chemscore.Internal.Correction>
0.0153

> <Gold.Rescore>
     Score         DG    S(hbond)    S(metal)    S(lipo)     H(rot)  DE(clash)    DE(int)     intcor
     15.80     -17.44       1.90        0.00      95.59       2.18       1.20       0.45       ----

> <Gold.Chemscore.Fitness>
15.7959

> <Gold.Chemscore.DG>
-17.4441

> <Gold.Chemscore.ZeroCoef>
-5.4800

> <Gold.Chemscore.Hbond>
1.9044

> <Gold.Chemscore.Metal>
0.0000

> <Gold.Chemscore.Lipo>
95.5912

> <Gold.Chemscore.Internal_Hbond>
0.0000

> <Gold.Chemscore.DEClash>
1.2030

> <Gold.Chemscore.DEInternal>
0.4452

> <Gold.Chemscore.Rot>
2.1800

> <Gold.Chemscore.Internal.Correction>
   9.000000E+99

> <Gold.Chemscore.Hbonds>
donor molecule, donor type, donor heavy atom, donor atom, acceptor molecule, acceptor atom, score
      L1  H    12    32       P1  7957  0.84
      P1  H  7989  7998       L1    12  0.04
      P1  H  7997  8010       L1    17  0.77

> <Gold.Chemscore.Hbond.Weighted>
-6.3607

> <Gold.Chemscore.Metal.Weighted>
-0.0000

> <Gold.Chemscore.Lipo.Weighted>
-11.1842

> <Gold.Chemscore.Internal_Hbond.Weighted>
0.0000

> <Gold.Chemscore.DEClash.Weighted>
1.2030

> <Gold.Chemscore.DEInternal.Weighted>
0.4452

> <Gold.Chemscore.Rot.Weighted>
5.5807

> <Gold.Chemscore.Internal.Correction.Weighted>
   9.000000E+99

> <Gold.Protein.RotatedTorsions>
[ 6907 6896 6895 6894 ] final   68.02 input  -60.11 | X-H torsion
[ 7974 7965 7964 7962 ] final   36.67 input  175.53 | X-H torsion
[ 8008 7997 7996 7995 ] final   26.23 input   59.86 | X-H torsion
[ 10167 10162 10161 10158 ] final  -59.80 input  -65.29 | X-H torsion
[ 10718 10713 10712 10709 ] final  141.74 input   66.30 | X-H torsion
[ 10763 10752 10751 10750 ] final   51.12 input  -60.55 | X-H torsion
[ 11005 11000 10999 10996 ] final   60.12 input  -57.11 | X-H torsion

> <Gold.Protein.ActiveResidues>
 VAL166  LYS551  ARG553  GLY616  TRP617  ASP618  TYR619  PRO620  LYS621  CYS622 
 ASP623  PHE694  ASN695  SER759  ASP760  ASP761  ALA762  ILE779  LEU786  VAL792 
 PHE793  MET794  SER795  GLU796  ALA797  LYS798  CYS799  TRP800  GLU811  SER814 

> <Gold.Protein.RotatedAtoms>
  152.4592  134.5223  159.9785 H   0  0  0  0  0  0  0  0  0  0  0  0  # atno 6907 bound_to 6896
  151.5276  133.3449  159.2920 H   0  0  0  0  0  0  0  0  0  0  0  0  # atno 6908 bound_to 6896
  150.8548  134.7913  159.7099 H   0  0  0  0  0  0  0  0  0  0  0  0  # atno 6909 bound_to 6896
  146.1194  139.5989  142.9300 H   0  0  0  0  0  0  0  0  0  0  0  0  # atno 7974 bound_to 7965
  155.0241  140.3151  155.4782 H   0  0  0  0  0  0  0  0  0  0  0  0  # atno 8008 bound_to 7997
  156.2886  140.2192  156.5302 H   0  0  0  0  0  0  0  0  0  0  0  0  # atno 8009 bound_to 7997
  154.7427  140.0472  157.0813 H   0  0  0  0  0  0  0  0  0  0  0  0  # atno 8010 bound_to 7997
  140.6112  143.2388  151.5704 H   0  0  0  0  0  0  0  0  0  0  0  0  # atno 10167 bound_to 10162
  157.3886  131.1001  151.0669 H   0  0  0  0  0  0  0  0  0  0  0  0  # atno 10718 bound_to 10713
  152.9785  135.5856  154.4364 H   0  0  0  0  0  0  0  0  0  0  0  0  # atno 10763 bound_to 10752
  154.3971  135.2768  155.2121 H   0  0  0  0  0  0  0  0  0  0  0  0  # atno 10764 bound_to 10752
  154.3968  135.6112  153.5929 H   0  0  0  0  0  0  0  0  0  0  0  0  # atno 10765 bound_to 10752
  140.0254  134.6090  155.9580 H   0  0  0  0  0  0  0  0  0  0  0  0  # atno 11005 bound_to 11000
  145.5498  141.0414  143.2285 LP  0  0  0  0  0  0  0  0  0  0  0  0  # atno 17320 bound_to 7965
  144.7583  139.7019  143.7245 LP  0  0  0  0  0  0  0  0  0  0  0  0  # atno 17321 bound_to 7965
  139.5363  144.2772  152.1258 LP  0  0  0  0  0  0  0  0  0  0  0  0  # atno 17342 bound_to 10162
  140.1972  144.4693  150.6449 LP  0  0  0  0  0  0  0  0  0  0  0  0  # atno 17343 bound_to 10162
  157.1711  130.6268  149.5641 LP  0  0  0  0  0  0  0  0  0  0  0  0  # atno 17370 bound_to 10713
  155.9792  130.4785  150.6704 LP  0  0  0  0  0  0  0  0  0  0  0  0  # atno 17371 bound_to 10713
  141.1799  133.6545  156.4979 LP  0  0  0  0  0  0  0  0  0  0  0  0  # atno 17394 bound_to 11000
  140.4315  134.7097  157.4944 LP  0  0  0  0  0  0  0  0  0  0  0  0  # atno 17395 bound_to 11000

$$$$
