AV-unprocessed.smi:2909|AV-procd|sdf|11172|dock5
  -GOLD-   2272016 63D 1   1.00000     0.00000
 Structure written by MMmdl.
 44 45  0  0  0  0  0  0  0  0  1 V2000
  147.2947  133.7972  161.9130 C   0  0  0  0  0  0  0  0  0  0  0  0
  147.4757  135.0889  161.1907 C   0  0  0  0  0  0  0  0  0  0  0  0
  147.8337  135.3593  159.9003 C   0  0  0  0  0  0  0  0  0  0  0  0
  147.8402  136.7841  159.8263 C   0  0  0  0  0  0  0  0  0  0  0  0
  148.1720  137.6471  158.6358 C   0  0  0  0  0  0  0  0  0  0  0  0
  149.6591  137.5577  158.2775 C   0  0  0  0  0  0  0  0  0  0  0  0
  150.2645  136.4974  158.4327 O   0  0  0  0  0  0  0  0  0  0  0  0
  150.2424  138.6795  157.8247 N   0  0  0  0  0  0  0  0  0  0  0  0
  151.6473  138.8228  157.4501 C   0  0  2  0  0  0  0  0  0  0  0  0
  152.5503  138.9164  158.6929 C   0  0  0  0  0  0  0  0  0  0  0  0
  152.3292  140.2222  159.4761 C   0  0  0  0  0  0  0  0  0  0  0  0
  152.5184  141.4848  158.5987 C   0  0  2  0  0  0  0  0  0  0  0  0
  152.2646  142.7997  159.3937 C   0  0  0  0  0  0  0  0  0  0  0  0
  152.5145  144.0642  158.5486 C   0  0  0  0  0  0  0  0  0  0  0  0
  153.1063  142.8901  160.6816 C   0  0  0  0  0  0  0  0  0  0  0  0
  151.6181  141.3758  157.3426 C   0  0  0  0  0  0  0  0  0  0  0  0
  151.8365  140.0654  156.5653 C   0  0  0  0  0  0  0  0  0  0  0  0
  147.5044  137.3502  160.9774 N   0  0  0  0  0  0  0  0  0  0  0  0
  147.2884  136.3078  161.8009 N   0  0  0  0  0  0  0  0  0  0  0  0
  147.0156  136.4416  162.7644 H   0  0  0  0  0  0  0  0  0  0  0  0
  147.0030  133.0044  161.2237 H   0  0  0  0  0  0  0  0  0  0  0  0
  146.5209  133.8792  162.6767 H   0  0  0  0  0  0  0  0  0  0  0  0
  148.2217  133.4961  162.4011 H   0  0  0  0  0  0  0  0  0  0  0  0
  148.0640  134.6461  159.1226 H   0  0  0  0  0  0  0  0  0  0  0  0
  147.5874  137.3366  157.7692 H   0  0  0  0  0  0  0  0  0  0  0  0
  147.9061  138.6872  158.8306 H   0  0  0  0  0  0  0  0  0  0  0  0
  149.6648  139.5023  157.7304 H   0  0  0  0  0  0  0  0  0  0  0  0
  151.9399  137.9476  156.8672 H   0  0  0  0  0  0  0  0  0  0  0  0
  152.3877  138.0582  159.3460 H   0  0  0  0  0  0  0  0  0  0  0  0
  153.5938  138.8622  158.3800 H   0  0  0  0  0  0  0  0  0  0  0  0
  151.3299  140.2234  159.9135 H   0  0  0  0  0  0  0  0  0  0  0  0
  153.0287  140.2262  160.3109 H   0  0  0  0  0  0  0  0  0  0  0  0
  153.5556  141.4963  158.2599 H   0  0  0  0  0  0  0  0  0  0  0  0
  151.2159  142.8159  159.6940 H   0  0  0  0  0  0  0  0  0  0  0  0
  153.5196  144.0664  158.1256 H   0  0  0  0  0  0  0  0  0  0  0  0
  152.4084  144.9675  159.1503 H   0  0  0  0  0  0  0  0  0  0  0  0
  151.8022  144.1565  157.7297 H   0  0  0  0  0  0  0  0  0  0  0  0
  154.1697  142.7762  160.4694 H   0  0  0  0  0  0  0  0  0  0  0  0
  152.8227  142.1313  161.4098 H   0  0  0  0  0  0  0  0  0  0  0  0
  152.9698  143.8534  161.1740 H   0  0  0  0  0  0  0  0  0  0  0  0
  150.5699  141.4611  157.6320 H   0  0  0  0  0  0  0  0  0  0  0  0
  151.8142  142.1996  156.6576 H   0  0  0  0  0  0  0  0  0  0  0  0
  152.8464  140.0606  156.1530 H   0  0  0  0  0  0  0  0  0  0  0  0
  151.1614  140.0233  155.7096 H   0  0  0  0  0  0  0  0  0  0  0  0
  1  2  1  0  0  0  0
  1 21  1  0  0  0  0
  1 22  1  0  0  0  0
  1 23  1  0  0  0  0
  2 19  1  0  0  0  0
  2  3  2  0  0  0  0
  3  4  1  0  0  0  0
  3 24  1  0  0  0  0
  4  5  1  0  0  0  0
  4 18  2  0  0  0  0
  5  6  1  0  0  0  0
  5 25  1  0  0  0  0
  5 26  1  0  0  0  0
  6  7  2  0  0  0  0
  6  8  1  0  0  0  0
  8  9  1  0  0  0  0
  8 27  1  0  0  0  0
  9 17  1  0  0  0  0
  9 10  1  0  0  0  0
  9 28  1  0  0  0  0
 10 11  1  0  0  0  0
 10 29  1  0  0  0  0
 10 30  1  0  0  0  0
 11 12  1  0  0  0  0
 11 31  1  0  0  0  0
 11 32  1  0  0  0  0
 12 13  1  0  0  0  0
 12 16  1  0  0  0  0
 12 33  1  0  0  0  0
 13 14  1  0  0  0  0
 13 15  1  0  0  0  0
 13 34  1  0  0  0  0
 14 35  1  0  0  0  0
 14 36  1  0  0  0  0
 14 37  1  0  0  0  0
 15 38  1  0  0  0  0
 15 39  1  0  0  0  0
 15 40  1  0  0  0  0
 16 17  1  0  0  0  0
 16 41  1  0  0  0  0
 16 42  1  0  0  0  0
 17 43  1  0  0  0  0
 17 44  1  0  0  0  0
 18 19  1  0  0  0  0
 19 20  1  0  0  0  0
M  END
> <s_m_source_file>
AV-unprocessed.smi

> <i_m_source_file_index>
2909

> <i_lp_mmshare_version>
43012

> <i_f3d_flags>
0

> <s_epik_input>
W0NIM11jMVtjSF1jKG5bbkhdMSlbQ0gyXUMoPU8pW05IXVtDQEBIXTJbQ0gyXVtDSDJdW0NAQEhdKFtDSF0oW0NIM10pW0NIM10pW0NIMl1bQ0gyXTI=

> <s_epik_cmdline>
J2VwaWtfcHl0aG9uJywgJy1waCcsICc3LjAnLCAnLXRuJywgJzgnLCAnLW1hJywgJzIwMCcsICctbWV0YWxfYmluZGluZycsICctaW1hZScsICc8aW5maWxlLm1hZT4nLCAnLW9tYWUnLCAnPG91dGZpbGUubWFlPic=

> <r_lp_tautomer_probability>
0.5

> <r_epik_Ionization_Penalty>
9.34828e-05

> <r_epik_Ionization_Penalty_Charging>
0

> <r_epik_Ionization_Penalty_Neutral>
9.34828e-05

> <r_epik_State_Penalty>
0.41068

> <r_epik_Charging_Adjusted_Penalty>
0.41068

> <i_epik_Tot_Q>
0

> <i_epik_Tot_abs_Q>
0

> <r_epik_Metal_State_Penalty>
0.4107

> <b_epik_Metal_Only>
0

> <s_lp_Force_Field>
OPLS_2005

> <r_lp_Energy>
10.758

> <b_lp_Chiralities_Consistent>
1

> <s_lp_Variant>
AV-unprocessed.smi:2909-2

> <Gold.Version>
5.8.1

> <Gold.Id.Protein>
6NUR|6NUR_protein|mol2

> <Gold.PLP.Fitness>
44.1946

> <Gold.PLP.PLP>
-37.4006

> <Gold.PLP.part.hbond>
-3.0000

> <Gold.PLP.part.metal>
0.0000

> <Gold.PLP.part.buried>
-5.0049

> <Gold.PLP.part.nonpolar>
-29.0857

> <Gold.PLP.part.repulsive>
0.2279

> <Gold.PLP.ligand.clash>
0.0000

> <Gold.PLP.ligand.torsion>
0.6713

> <Gold.PLP.Chemscore.Hbond>
2.7040

> <Gold.PLP.Chemscore.CHOScore>
0.0000

> <Gold.PLP.Chemscore.Metal>
0.0000

> <Gold.Chemscore.Hbonds>
donor molecule, donor type, donor heavy atom, donor atom, acceptor molecule, acceptor atom, score
      P1  H  6896  6909       L1     7  0.58
      P1  H  6931  6943       L1    18  0.78
      P1  H  6934  6947       L1    18  0.98

> <Gold.PLP.Chemscore.Internal.Correction>
0.0246

> <Gold.Rescore>
     Score         DG    S(hbond)    S(metal)    S(lipo)     H(rot)  DE(clash)    DE(int)     intcor
     19.57     -20.35       2.18        0.00      97.78       1.50       0.00       0.78       ----

> <Gold.Chemscore.Fitness>
19.5685

> <Gold.Chemscore.DG>
-20.3464

> <Gold.Chemscore.ZeroCoef>
-5.4800

> <Gold.Chemscore.Hbond>
2.1762

> <Gold.Chemscore.Metal>
0.0000

> <Gold.Chemscore.Lipo>
97.7828

> <Gold.Chemscore.Internal_Hbond>
0.0000

> <Gold.Chemscore.DEClash>
0.0000

> <Gold.Chemscore.DEInternal>
0.7779

> <Gold.Chemscore.Rot>
1.5011

> <Gold.Chemscore.Internal.Correction>
   9.000000E+99

> <Gold.Chemscore.Hbonds>
donor molecule, donor type, donor heavy atom, donor atom, acceptor molecule, acceptor atom, score
      P1  H  6896  6909       L1     7  0.57
      P1  H  6931  6943       L1    18  0.20
      P1  H  6934  6947       L1    18  0.87

> <Gold.Chemscore.Hbond.Weighted>
-7.2687

> <Gold.Chemscore.Metal.Weighted>
-0.0000

> <Gold.Chemscore.Lipo.Weighted>
-11.4406

> <Gold.Chemscore.Internal_Hbond.Weighted>
0.0000

> <Gold.Chemscore.DEClash.Weighted>
0.0000

> <Gold.Chemscore.DEInternal.Weighted>
0.7779

> <Gold.Chemscore.Rot.Weighted>
3.8429

> <Gold.Chemscore.Internal.Correction.Weighted>
   9.000000E+99

> <Gold.Protein.RotatedTorsions>
[ 6907 6896 6895 6894 ] final   60.27 input  -60.11 | X-H torsion
[ 7974 7965 7964 7962 ] final  -23.23 input  175.53 | X-H torsion
[ 8008 7997 7996 7995 ] final   23.83 input   59.86 | X-H torsion
[ 10167 10162 10161 10158 ] final  -50.82 input  -65.29 | X-H torsion
[ 10718 10713 10712 10709 ] final -179.12 input   66.30 | X-H torsion
[ 10763 10752 10751 10750 ] final  -26.77 input  -60.55 | X-H torsion
[ 11005 11000 10999 10996 ] final   21.61 input  -57.11 | X-H torsion

> <Gold.Protein.ActiveResidues>
 VAL166  LYS551  ARG553  GLY616  TRP617  ASP618  TYR619  PRO620  LYS621  CYS622 
 ASP623  PHE694  ASN695  SER759  ASP760  ASP761  ALA762  ILE779  LEU786  VAL792 
 PHE793  MET794  SER795  GLU796  ALA797  LYS798  CYS799  TRP800  GLU811  SER814 

> <Gold.Protein.RotatedAtoms>
  152.3988  134.6321  160.0077 H   0  0  0  0  0  0  0  0  0  0  0  0  # atno 6907 bound_to 6896
  151.6532  133.3314  159.3165 H   0  0  0  0  0  0  0  0  0  0  0  0  # atno 6908 bound_to 6896
  150.7891  134.6944  159.6559 H   0  0  0  0  0  0  0  0  0  0  0  0  # atno 6909 bound_to 6896
  146.1628  140.4588  142.8564 H   0  0  0  0  0  0  0  0  0  0  0  0  # atno 7974 bound_to 7965
  154.9869  140.3109  155.4922 H   0  0  0  0  0  0  0  0  0  0  0  0  # atno 8008 bound_to 7997
  156.2945  140.2256  156.4912 H   0  0  0  0  0  0  0  0  0  0  0  0  # atno 8009 bound_to 7997
  154.7738  140.0450  157.1061 H   0  0  0  0  0  0  0  0  0  0  0  0  # atno 8010 bound_to 7997
  140.6619  143.2643  151.4414 H   0  0  0  0  0  0  0  0  0  0  0  0  # atno 10167 bound_to 10162
  156.8544  130.9730  151.3089 H   0  0  0  0  0  0  0  0  0  0  0  0  # atno 10718 bound_to 10713
  153.7213  135.6944  153.5012 H   0  0  0  0  0  0  0  0  0  0  0  0  # atno 10763 bound_to 10752
  153.2202  135.4372  155.0479 H   0  0  0  0  0  0  0  0  0  0  0  0  # atno 10764 bound_to 10752
  154.8283  135.3458  154.6746 H   0  0  0  0  0  0  0  0  0  0  0  0  # atno 10765 bound_to 10752
  140.3897  134.1832  155.7662 H   0  0  0  0  0  0  0  0  0  0  0  0  # atno 11005 bound_to 11000
  144.8051  140.6285  143.6452 LP  0  0  0  0  0  0  0  0  0  0  0  0  # atno 17320 bound_to 7965
  145.4543  139.1520  143.3901 LP  0  0  0  0  0  0  0  0  0  0  0  0  # atno 17321 bound_to 7965
  139.5855  144.1614  152.2023 LP  0  0  0  0  0  0  0  0  0  0  0  0  # atno 17342 bound_to 10162
  140.0952  144.5586  150.7027 LP  0  0  0  0  0  0  0  0  0  0  0  0  # atno 17343 bound_to 10162
  157.6285  130.8710  149.9232 LP  0  0  0  0  0  0  0  0  0  0  0  0  # atno 17370 bound_to 10713
  156.0810  130.3673  150.0580 LP  0  0  0  0  0  0  0  0  0  0  0  0  # atno 17371 bound_to 10713
  141.1895  133.8237  157.0954 LP  0  0  0  0  0  0  0  0  0  0  0  0  # atno 17394 bound_to 11000
  140.0416  134.9851  157.0972 LP  0  0  0  0  0  0  0  0  0  0  0  0  # atno 17395 bound_to 11000

$$$$
