AV-unprocessed.smi:3046|AV-procd|sdf|11614|dock2
  -GOLD-   2272016593D 1   1.00000     0.00000
 Structure written by MMmdl.
 38 38  0  0  0  0  0  0  0  0  2 V2000
  144.3862  143.8594  155.5315 C   0  0  0  0  0  0  0  0  0  0  0  0
  145.1259  142.8040  155.9039 C   0  0  0  0  0  0  0  0  0  0  0  0
  145.9941  142.7606  157.1459 C   0  0  0  0  0  0  0  0  0  0  0  0
  147.4032  142.6025  156.8071 N   0  0  0  0  0  0  0  0  0  0  0  0
  148.2092  141.6395  157.2812 C   0  0  0  0  0  0  0  0  0  0  0  0
  147.8333  140.7704  158.0688 O   0  0  0  0  0  0  0  0  0  0  0  0
  149.6677  141.6721  156.8020 C   0  0  1  0  0  0  0  0  0  0  0  0
  149.7300  141.3506  155.3011 C   0  0  0  0  0  0  0  0  0  0  0  0
  150.3017  142.9888  157.0556 N   0  3  0  0  0  0  0  0  0  0  0  0
  150.9263  143.1706  158.3873 C   0  0  2  0  0  0  0  0  0  0  0  0
  151.9778  144.2895  158.3055 C   0  0  0  0  0  0  0  0  0  0  0  0
  151.5245  141.8416  158.9028 C   0  0  0  0  0  0  0  0  0  0  0  0
  152.2128  141.9892  160.1723 N   0  0  0  0  0  0  0  0  0  0  0  0
  153.5123  141.6539  160.4914 C   0  0  0  0  0  0  0  0  0  0  0  0
  153.7018  141.9716  161.8057 C   0  0  0  0  0  0  0  0  0  0  0  0
  152.4428  142.4951  162.2127 C   0  0  0  0  0  0  0  0  0  0  0  0
  151.5526  142.5009  161.2334 N   0  0  0  0  0  0  0  0  0  0  0  0
  144.3652  144.7662  156.1183 H   0  0  0  0  0  0  0  0  0  0  0  0
  143.7905  143.8292  154.6309 H   0  0  0  0  0  0  0  0  0  0  0  0
  145.1240  141.9172  155.2867 H   0  0  0  0  0  0  0  0  0  0  0  0
  145.8403  143.6731  157.7240 H   0  0  0  0  0  0  0  0  0  0  0  0
  145.6922  141.9288  157.7834 H   0  0  0  0  0  0  0  0  0  0  0  0
  147.7943  143.2811  156.1693 H   0  0  0  0  0  0  0  0  0  0  0  0
  150.2271  140.9008  157.3319 H   0  0  0  0  0  0  0  0  0  0  0  0
  149.2817  140.3803  155.0827 H   0  0  0  0  0  0  0  0  0  0  0  0
  150.7624  141.3167  154.9516 H   0  0  0  0  0  0  0  0  0  0  0  0
  149.2040  142.1003  154.7078 H   0  0  0  0  0  0  0  0  0  0  0  0
  151.0100  143.1514  156.3546 H   0  0  0  0  0  0  0  0  0  0  0  0
  150.1583  143.5059  159.0854 H   0  0  0  0  0  0  0  0  0  0  0  0
  152.4048  144.5120  159.2837 H   0  0  0  0  0  0  0  0  0  0  0  0
  151.5365  145.2136  157.9304 H   0  0  0  0  0  0  0  0  0  0  0  0
  152.7967  144.0171  157.6388 H   0  0  0  0  0  0  0  0  0  0  0  0
  150.7499  141.0859  159.0333 H   0  0  0  0  0  0  0  0  0  0  0  0
  152.2293  141.4389  158.1738 H   0  0  0  0  0  0  0  0  0  0  0  0
  154.1875  141.2253  159.7655 H   0  0  0  0  0  0  0  0  0  0  0  0
  154.6021  141.8472  162.3890 H   0  0  0  0  0  0  0  0  0  0  0  0
  152.1510  142.8673  163.1837 H   0  0  0  0  0  0  0  0  0  0  0  0
  149.5801  143.6878  156.9479 H   0  0  0  0  0  0  0  0  0  0  0  0
  1  2  2  0  0  0  0
  1 18  1  0  0  0  0
  1 19  1  0  0  0  0
  2  3  1  0  0  0  0
  2 20  1  0  0  0  0
  3  4  1  0  0  0  0
  3 21  1  0  0  0  0
  3 22  1  0  0  0  0
  4  5  1  0  0  0  0
  4 23  1  0  0  0  0
  5  6  2  0  0  0  0
  5  7  1  0  0  0  0
  7  8  1  0  0  0  0
  7  9  1  0  0  0  0
  7 24  1  0  0  0  0
  8 25  1  0  0  0  0
  8 26  1  0  0  0  0
  8 27  1  0  0  0  0
  9 10  1  0  0  0  0
  9 28  1  0  0  0  0
  9 38  1  0  0  0  0
 10 11  1  0  0  0  0
 10 12  1  0  0  0  0
 10 29  1  0  0  0  0
 11 30  1  0  0  0  0
 11 31  1  0  0  0  0
 11 32  1  0  0  0  0
 12 13  1  0  0  0  0
 12 33  1  0  0  0  0
 12 34  1  0  0  0  0
 13 17  1  0  0  0  0
 13 14  1  0  0  0  0
 14 15  2  0  0  0  0
 14 35  1  0  0  0  0
 15 16  1  0  0  0  0
 15 36  1  0  0  0  0
 16 17  2  0  0  0  0
 16 37  1  0  0  0  0
M  CHG  1   9   1
M  END
> <s_m_source_file>
AV-unprocessed.smi

> <i_m_source_file_index>
3046

> <i_lp_mmshare_version>
43012

> <i_f3d_flags>
0

> <s_epik_input>
W0NIMl09W0NIXVtDSDJdW05IXUMoPU8pW0NASF0oW0NIM10pW05IXVtDQEhdKFtDSDNdKVtDSDJdbjFbY0hdW2NIXVtjSF1uMQ==

> <s_epik_cmdline>
J2VwaWtfcHl0aG9uJywgJy1waCcsICc3LjAnLCAnLXRuJywgJzgnLCAnLW1hJywgJzIwMCcsICctbWV0YWxfYmluZGluZycsICctaW1hZScsICc8aW5maWxlLm1hZT4nLCAnLW9tYWUnLCAnPG91dGZpbGUubWFlPic=

> <r_lp_tautomer_probability>
1

> <r_epik_Ionization_Penalty>
0.132961

> <r_epik_Ionization_Penalty_Charging>
0.132956

> <r_epik_Ionization_Penalty_Neutral>
5.00268e-06

> <r_epik_State_Penalty>
0.122332

> <r_epik_Charging_Adjusted_Penalty>
0.255288

> <i_epik_Tot_Q>
1

> <i_epik_Tot_abs_Q>
1

> <r_epik_Metal_State_Penalty>
0.122338

> <b_epik_Metal_Only>
0

> <s_lp_Force_Field>
OPLS_2005

> <r_lp_Energy>
6.33671

> <b_lp_Chiralities_Consistent>
1

> <s_lp_Variant>
AV-unprocessed.smi:3046-2

> <Gold.Version>
5.8.1

> <Gold.Id.Protein>
6NUR|6NUR_protein|mol2

> <Gold.PLP.Fitness>
46.4296

> <Gold.PLP.PLP>
-37.9130

> <Gold.PLP.part.hbond>
-3.9970

> <Gold.PLP.part.metal>
0.0000

> <Gold.PLP.part.buried>
-4.4537

> <Gold.PLP.part.nonpolar>
-30.1843

> <Gold.PLP.part.repulsive>
0.1363

> <Gold.PLP.ligand.clash>
0.0000

> <Gold.PLP.ligand.torsion>
0.7380

> <Gold.PLP.Chemscore.Hbond>
3.2861

> <Gold.PLP.Chemscore.CHOScore>
0.0000

> <Gold.PLP.Chemscore.Metal>
0.0000

> <Gold.Chemscore.Hbonds>
donor molecule, donor type, donor heavy atom, donor atom, acceptor molecule, acceptor atom, score
      L1  H     4    23       P1  8028  0.80
      L1  H     9    38       P1  8028  1.60
      P1  H  6933  6945       L1    17  0.41

> <Gold.PLP.Chemscore.Internal.Correction>
0.1345

> <Gold.Rescore>
     Score         DG    S(hbond)    S(metal)    S(lipo)     H(rot)  DE(clash)    DE(int)     intcor
     14.99     -15.72       1.67        0.00      89.32       2.26       0.01       0.72       ----

> <Gold.Chemscore.Fitness>
14.9901

> <Gold.Chemscore.DG>
-15.7169

> <Gold.Chemscore.ZeroCoef>
-5.4800

> <Gold.Chemscore.Hbond>
1.6703

> <Gold.Chemscore.Metal>
0.0000

> <Gold.Chemscore.Lipo>
89.3190

> <Gold.Chemscore.Internal_Hbond>
0.0000

> <Gold.Chemscore.DEClash>
0.0077

> <Gold.Chemscore.DEInternal>
0.7190

> <Gold.Chemscore.Rot>
2.2626

> <Gold.Chemscore.Internal.Correction>
   9.000000E+99

> <Gold.Chemscore.Hbonds>
donor molecule, donor type, donor heavy atom, donor atom, acceptor molecule, acceptor atom, score
      L1  H     4    23       P1  8028  0.12
      L1  H     9    38       P1  8028  0.74
      P1  H  6933  6945       L1    17  0.09

> <Gold.Chemscore.Hbond.Weighted>
-5.5787

> <Gold.Chemscore.Metal.Weighted>
-0.0000

> <Gold.Chemscore.Lipo.Weighted>
-10.4503

> <Gold.Chemscore.Internal_Hbond.Weighted>
0.0000

> <Gold.Chemscore.DEClash.Weighted>
0.0077

> <Gold.Chemscore.DEInternal.Weighted>
0.7190

> <Gold.Chemscore.Rot.Weighted>
5.7922

> <Gold.Chemscore.Internal.Correction.Weighted>
   9.000000E+99

> <Gold.Protein.RotatedTorsions>
[ 6907 6896 6895 6894 ] final -142.46 input  -60.11 | X-H torsion
[ 7974 7965 7964 7962 ] final -161.78 input  175.53 | X-H torsion
[ 8008 7997 7996 7995 ] final -112.17 input   59.86 | X-H torsion
[ 10167 10162 10161 10158 ] final  -37.05 input  -65.29 | X-H torsion
[ 10718 10713 10712 10709 ] final -176.05 input   66.30 | X-H torsion
[ 10763 10752 10751 10750 ] final  129.51 input  -60.55 | X-H torsion
[ 11005 11000 10999 10996 ] final -171.02 input  -57.11 | X-H torsion

> <Gold.Protein.ActiveResidues>
 VAL166  LYS551  ARG553  GLY616  TRP617  ASP618  TYR619  PRO620  LYS621  CYS622 
 ASP623  PHE694  ASN695  SER759  ASP760  ASP761  ALA762  ILE779  LEU786  VAL792 
 PHE793  MET794  SER795  GLU796  ALA797  LYS798  CYS799  TRP800  GLU811  SER814 

> <Gold.Protein.RotatedAtoms>
  151.0874  133.5342  159.2616 H   0  0  0  0  0  0  0  0  0  0  0  0  # atno 6907 bound_to 6896
  151.2222  135.0522  159.8964 H   0  0  0  0  0  0  0  0  0  0  0  0  # atno 6908 bound_to 6896
  152.5430  134.0675  159.8233 H   0  0  0  0  0  0  0  0  0  0  0  0  # atno 6909 bound_to 6896
  144.7379  140.3348  143.6146 H   0  0  0  0  0  0  0  0  0  0  0  0  # atno 7974 bound_to 7965
  155.0010  140.0394  157.2360 H   0  0  0  0  0  0  0  0  0  0  0  0  # atno 8008 bound_to 7997
  154.7543  140.2773  155.6243 H   0  0  0  0  0  0  0  0  0  0  0  0  # atno 8009 bound_to 7997
  156.2891  140.2641  156.2305 H   0  0  0  0  0  0  0  0  0  0  0  0  # atno 8010 bound_to 7997
  140.7128  143.3367  151.2447 H   0  0  0  0  0  0  0  0  0  0  0  0  # atno 10167 bound_to 10162
  156.8089  130.9579  151.3116 H   0  0  0  0  0  0  0  0  0  0  0  0  # atno 10718 bound_to 10713
  153.7429  135.3221  155.3307 H   0  0  0  0  0  0  0  0  0  0  0  0  # atno 10763 bound_to 10752
  154.8289  135.4549  154.1009 H   0  0  0  0  0  0  0  0  0  0  0  0  # atno 10764 bound_to 10752
  153.2189  135.6945  153.8106 H   0  0  0  0  0  0  0  0  0  0  0  0  # atno 10765 bound_to 10752
  140.5129  134.5784  157.5024 H   0  0  0  0  0  0  0  0  0  0  0  0  # atno 11005 bound_to 11000
  145.7435  139.1771  143.2362 LP  0  0  0  0  0  0  0  0  0  0  0  0  # atno 17320 bound_to 7965
  146.1116  140.7421  142.9500 LP  0  0  0  0  0  0  0  0  0  0  0  0  # atno 17321 bound_to 7965
  139.6864  143.9766  152.2836 LP  0  0  0  0  0  0  0  0  0  0  0  0  # atno 17342 bound_to 10162
  139.9413  144.6680  150.8263 LP  0  0  0  0  0  0  0  0  0  0  0  0  # atno 17343 bound_to 10162
  157.6516  130.8889  149.9644 LP  0  0  0  0  0  0  0  0  0  0  0  0  # atno 17370 bound_to 10713
  156.1056  130.3653  150.0140 LP  0  0  0  0  0  0  0  0  0  0  0  0  # atno 17371 bound_to 10713
  139.9648  134.7391  156.0160 LP  0  0  0  0  0  0  0  0  0  0  0  0  # atno 17394 bound_to 11000
  141.1376  133.6572  156.3637 LP  0  0  0  0  0  0  0  0  0  0  0  0  # atno 17395 bound_to 11000

$$$$
