#       Name:                AV-unprocessed.smi:2503
#       Creating user name   scv26
#       Creation time:       Fri Mar 27 13:47:39 2020


#       File generated by GOLD software.
#

@<TRIPOS>MOLECULE
AV-unprocessed.smi:2503
    41    42     1
SMALL
NO_CHARGES


@<TRIPOS>ATOM
      1 ****        -1.7135  -3.5210   0.9663 C.3            1 S1                 0.0000
      2 ****        -0.8965  -2.3039   0.5074 C.3            1 S1                 0.0000
      3 ****        -1.3528  -1.7892  -0.8659 C.3            1 S1                 0.0000
      4 ****         0.5825  -2.5832   0.5264 C.2            1 S1                 0.0000
      5 ****         1.1388  -3.6040  -0.1217 N.2            1 S1                 0.0000
      6 ****         2.5022  -3.4862   0.1176 C.2            1 S1                 0.0000
      7 ****         2.7312  -2.3798   0.8971 C.2            1 S1                 0.0000
      8 ****         1.4933  -1.7980   1.1445 N.pl3          1 S1                 0.0000
      9 ****         1.2812  -0.5821   1.9175 C.3            1 S1                 0.0000
     10 ****         0.9418   0.6066   1.0128 C.2            1 S1                 0.0000
     11 ****         1.7206   0.9119   0.1070 O.2            1 S1                 0.0000
     12 ****        -0.2267   1.2282   1.2943 N.am           1 S1                 0.0000
     13 ****        -0.8639   2.2493   0.6743 C.2            1 S1                 0.0000
     14 ****        -1.9299   2.6769   1.1144 O.2            1 S1                 0.0000
     15 ****        -0.2854   2.7508  -0.4325 N.am           1 S1                 0.0000
     16 ****        -0.7987   3.8133  -1.2346 C.3            1 S1                 0.0000
     17 ****        -0.6241   3.7079  -2.7341 C.3            1 S1                 0.0000
     18 ****         0.2013   4.6928  -1.9531 C.3            1 S1                 0.0000
     19 ****        -1.4169  -3.8365   1.9669 H              1 S1                 0.0000
     20 ****        -1.5776  -4.3698   0.2951 H              1 S1                 0.0000
     21 ****        -2.7786  -3.2901   0.9958 H              1 S1                 0.0000
     22 ****        -1.1116  -1.5153   1.2260 H              1 S1                 0.0000
     23 ****        -0.8129  -0.8835  -1.1447 H              1 S1                 0.0000
     24 ****        -2.4163  -1.5500  -0.8621 H              1 S1                 0.0000
     25 ****        -1.1807  -2.5319  -1.6455 H              1 S1                 0.0000
     26 ****         3.2061  -4.1976  -0.2881 H              1 S1                 0.0000
     27 ****         3.6513  -1.9625   1.2792 H              1 S1                 0.0000
     28 ****         0.4995  -0.7606   2.6573 H              1 S1                 0.0000
     29 ****         2.1905  -0.3523   2.4740 H              1 S1                 0.0000
     30 ****        -0.7153   0.8616   2.0981 H              1 S1                 0.0000
     31 ****         0.5892   2.3410  -0.7296 H              1 S1                 0.0000
     32 ****        -1.7059   4.3081  -0.8902 H              1 S1                 0.0000
     33 ****        -0.1180   2.8277  -3.1266 H              1 S1                 0.0000
     34 ****        -1.4204   4.1045  -3.3606 H              1 S1                 0.0000
     35 ****        -0.0432   5.7478  -2.0576 H              1 S1                 0.0000
     36 ****         1.2593   4.4708  -1.8261 H              1 S1                 0.0000
     37 ****         0.6753  -4.3048  -0.6640 LP             1 S1                 0.0000
     38 ****         2.5602   0.3860  -0.0289 LP             1 S1                 0.0000
     39 ****         1.5126   1.6853  -0.4917 LP             1 S1                 0.0000
     40 ****        -2.3312   2.2700   1.9351 LP             1 S1                 0.0000
     41 ****        -2.3953   3.4313   0.6516 LP             1 S1                 0.0000
@<TRIPOS>BOND
    1    1    2 1     
    2    1   19 1     
    3    1   20 1     
    4    1   21 1     
    5    2    3 1     
    6    2    4 1     
    7    2   22 1     
    8    3   23 1     
    9    3   24 1     
   10    3   25 1     
   11    4    8 1     
   12    4    5 2     
   13    5    6 1     
   14    6    7 2     
   15    6   26 1     
   16    7    8 1     
   17    7   27 1     
   18    8    9 1     
   19    9   10 1     
   20    9   28 1     
   21    9   29 1     
   22   10   11 2     
   23   10   12 1     
   24   12   13 1     
   25   12   30 1     
   26   13   14 2     
   27   13   15 1     
   28   15   16 1     
   29   15   31 1     
   30   16   18 1     
   31   16   17 1     
   32   16   32 1     
   33   17   18 1     
   34   17   33 1     
   35   17   34 1     
   36   18   35 1     
   37   18   36 1     
   38    5   37 1     
   39   11   38 1     
   40   11   39 1     
   41   14   40 1     
   42   14   41 1     
@<TRIPOS>SUBSTRUCTURE
      1 S1             1
@<TRIPOS>SET
LONE_PAIRS      STATIC     ATOMS    <user>   **** ""
5 37 38 39 40 41
DONOR_HYDROGENS      STATIC     ATOMS    <user>   **** ""
2 30 31
ATOM$BLUE        STATIC     ATOMS    COLORGROUP SYSTEM
5 37 38 39 40 41
ATOM$RED        STATIC     ATOMS    COLORGROUP SYSTEM
2 30 31
