#       Name:                AV-unprocessed.smi:2199
#       Creating user name   scv26
#       Creation time:       Fri Mar 27 12:14:03 2020


#       File generated by GOLD software.
#

@<TRIPOS>MOLECULE
AV-unprocessed.smi:2199
    32    33     1
SMALL
NO_CHARGES


@<TRIPOS>ATOM
      1 ****        -0.9912   1.6528   1.8850 O.2            1 S1                 0.0000
      2 ****        -0.4100   0.6437   1.4862 C.2            1 S1                 0.0000
      3 ****         1.1194   0.6292   1.3845 C.3            1 S1                 0.0000
      4 ****         1.5765   0.7746  -0.0044 N.am           1 S1                 0.0000
      5 ****         1.9547  -0.3427  -0.7360 C.2            1 S1                 0.0000
      6 ****         2.3786  -0.2849  -2.0208 C.2            1 S1                 0.0000
      7 ****         2.4582   0.9953  -2.7156 C.2            1 S1                 0.0000
      8 ****         2.8283   1.1498  -3.8772 O.2            1 S1                 0.0000
      9 ****         2.0690   2.0954  -1.9470 N.am           1 S1                 0.0000
     10 ****         1.6319   2.0434  -0.6226 C.2            1 S1                 0.0000
     11 ****         1.3119   3.0770  -0.0374 O.2            1 S1                 0.0000
     12 ****        -1.0432  -0.4806   1.1190 N.am           1 S1                 0.0000
     13 ****        -2.4565  -0.6766   1.1288 C.3            1 S1                 0.0000
     14 ****        -2.9698  -2.0676   1.4315 C.3            1 S1                 0.0000
     15 ****        -3.0557  -1.5280   0.0304 C.3            1 S1                 0.0000
     16 ****         2.1064   3.0038  -2.3861 H              1 S1                 0.0000
     17 ****         1.5352   1.4230   2.0081 H              1 S1                 0.0000
     18 ****         1.4968  -0.2982   1.8189 H              1 S1                 0.0000
     19 ****         1.9084  -1.3138  -0.2635 H              1 S1                 0.0000
     20 ****         2.6596  -1.1911  -2.5379 H              1 S1                 0.0000
     21 ****        -0.4800  -1.2572   0.8043 H              1 S1                 0.0000
     22 ****        -3.0737   0.1472   1.4847 H              1 S1                 0.0000
     23 ****        -2.2385  -2.8508   1.6231 H              1 S1                 0.0000
     24 ****        -3.8955  -2.1467   1.9979 H              1 S1                 0.0000
     25 ****        -4.0394  -1.2473  -0.3407 H              1 S1                 0.0000
     26 ****        -2.3814  -1.9495  -0.7128 H              1 S1                 0.0000
     27 ****        -0.4656   2.4635   2.1428 LP             1 S1                 0.0000
     28 ****        -1.9890   1.6618   1.9512 LP             1 S1                 0.0000
     29 ****         3.1053   0.3590  -4.4231 LP             1 S1                 0.0000
     30 ****         2.8525   2.0662  -4.2766 LP             1 S1                 0.0000
     31 ****         0.9984   3.0379   0.9114 LP             1 S1                 0.0000
     32 ****         1.3653   3.9564  -0.5105 LP             1 S1                 0.0000
@<TRIPOS>BOND
    1    1    2 2     
    2    2    3 1     
    3    2   12 am    
    4    3    4 1     
    5    3   17 1     
    6    3   18 1     
    7    4   10 1     
    8    4    5 1     
    9    5    6 2     
   10    5   19 1     
   11    6    7 1     
   12    6   20 1     
   13    7    8 2     
   14    7    9 1     
   15    9   16 1     
   16    9   10 1     
   17   10   11 2     
   18   12   13 1     
   19   12   21 1     
   20   13   15 1     
   21   13   14 1     
   22   13   22 1     
   23   14   15 1     
   24   14   23 1     
   25   14   24 1     
   26   15   25 1     
   27   15   26 1     
   28    1   27 1     
   29    1   28 1     
   30    8   29 1     
   31    8   30 1     
   32   11   31 1     
   33   11   32 1     
@<TRIPOS>SUBSTRUCTURE
      1 S1             1
@<TRIPOS>SET
LONE_PAIRS      STATIC     ATOMS    <user>   **** ""
6 27 28 29 30 31 32
DONOR_HYDROGENS      STATIC     ATOMS    <user>   **** ""
2 16 21
ATOM$BLUE        STATIC     ATOMS    COLORGROUP SYSTEM
6 27 28 29 30 31 32
ATOM$RED        STATIC     ATOMS    COLORGROUP SYSTEM
2 16 21
