#       Name:                AV-unprocessed.smi:928
#       Creating user name   scv26
#       Creation time:       Fri Mar 27 02:10:10 2020


#       File generated by GOLD software.
#

@<TRIPOS>MOLECULE
AV-unprocessed.smi:928
    48    49     1
SMALL
NO_CHARGES


@<TRIPOS>ATOM
      1 ****        -5.0007   2.1235  -0.4951 C.3            1 S1                 0.0000
      2 ****        -3.5470   2.0613  -0.9759 C.3            1 S1                 0.0000
      3 ****        -3.1586   0.7203  -1.5051 C.2            1 S1                 0.0000
      4 ****        -2.9771   0.3585  -2.8172 C.2            1 S1                 0.0000
      5 ****        -2.6075  -0.9770  -2.9900 N.2            1 S1                 0.0000
      6 ****        -2.5112  -1.6334  -1.8318 C.2            1 S1                 0.0000
      7 ****        -2.0869  -3.0632  -1.7304 C.3            1 S1                 0.0000
      8 ****        -0.5601  -3.2688  -1.7471 C.3            1 S1                 0.0000
      9 ****         0.1057  -2.6019  -0.6313 N.am           1 S1                 0.0000
     10 ****         0.7176  -1.4107  -0.6905 C.2            1 S1                 0.0000
     11 ****         0.8124  -0.7307  -1.7119 O.2            1 S1                 0.0000
     12 ****         1.2019  -1.0459   0.5041 N.am           1 S1                 0.0000
     13 ****         1.8891   0.2103   0.7963 C.3            1 S1                 0.0000
     14 ****         1.3905   0.6937   2.1747 C.3            1 S1                 0.0000
     15 ****         2.1722   1.9088   2.6917 C.3            1 S1                 0.0000
     16 ****         3.6739   1.6044   2.7484 C.3            1 S1                 0.0000
     17 ****         4.1901   1.1973   1.3630 C.3            1 S1                 0.0000
     18 ****         3.4227  -0.0117   0.7932 C.3            1 S1                 0.0000
     19 ****         3.8761  -0.1979  -0.5329 O.3            1 S1                 0.0000
     20 ****        -2.8711  -0.6259  -0.4329 S.3            1 S1                 0.0000
     21 ****        -5.2439   3.1183  -0.1213 H              1 S1                 0.0000
     22 ****        -5.1811   1.4123   0.3115 H              1 S1                 0.0000
     23 ****        -5.6927   1.8937  -1.3056 H              1 S1                 0.0000
     24 ****        -3.3919   2.8156  -1.7481 H              1 S1                 0.0000
     25 ****        -2.8828   2.3309  -0.1545 H              1 S1                 0.0000
     26 ****        -3.0868   0.9868  -3.6888 H              1 S1                 0.0000
     27 ****        -2.5057  -3.4823  -0.8150 H              1 S1                 0.0000
     28 ****        -2.5387  -3.6169  -2.5541 H              1 S1                 0.0000
     29 ****        -0.3381  -4.3338  -1.6790 H              1 S1                 0.0000
     30 ****        -0.1479  -2.9339  -2.7005 H              1 S1                 0.0000
     31 ****         0.0847  -3.0786   0.2583 H              1 S1                 0.0000
     32 ****         1.0690  -1.6774   1.2804 H              1 S1                 0.0000
     33 ****         1.6313   0.9747   0.0600 H              1 S1                 0.0000
     34 ****         0.3286   0.9374   2.1204 H              1 S1                 0.0000
     35 ****         1.4814  -0.1143   2.9026 H              1 S1                 0.0000
     36 ****         1.9924   2.7665   2.0420 H              1 S1                 0.0000
     37 ****         1.8111   2.1880   3.6819 H              1 S1                 0.0000
     38 ****         4.2184   2.4788   3.1060 H              1 S1                 0.0000
     39 ****         3.8642   0.8041   3.4648 H              1 S1                 0.0000
     40 ****         4.0923   2.0479   0.6864 H              1 S1                 0.0000
     41 ****         5.2555   0.9708   1.4191 H              1 S1                 0.0000
     42 ****         3.6700  -0.8995   1.3773 H              1 S1                 0.0000
     43 ****         3.3772  -0.8989  -0.9244 H              1 S1                 0.0000
     44 ****        -2.4343  -1.3949  -3.8818 LP             1 S1                 0.0000
     45 ****         0.4181  -1.0597  -2.5699 LP             1 S1                 0.0000
     46 ****         1.2838   0.1508  -1.6837 LP             1 S1                 0.0000
     47 ****         4.8471  -0.4372  -0.5270 LP             1 S1                 0.0000
     48 ****         3.7434   0.6438  -1.0562 LP             1 S1                 0.0000
@<TRIPOS>BOND
    1    1    2 1     
    2    1   21 1     
    3    1   22 1     
    4    1   23 1     
    5    2    3 1     
    6    2   24 1     
    7    2   25 1     
    8    3   20 1     
    9    3    4 2     
   10    4    5 1     
   11    4   26 1     
   12    5    6 2     
   13    6    7 1     
   14    6   20 1     
   15    7    8 1     
   16    7   27 1     
   17    7   28 1     
   18    8    9 1     
   19    8   29 1     
   20    8   30 1     
   21    9   10 am    
   22    9   31 1     
   23   10   11 2     
   24   10   12 am    
   25   12   13 1     
   26   12   32 1     
   27   13   18 1     
   28   13   14 1     
   29   13   33 1     
   30   14   15 1     
   31   14   34 1     
   32   14   35 1     
   33   15   16 1     
   34   15   36 1     
   35   15   37 1     
   36   16   17 1     
   37   16   38 1     
   38   16   39 1     
   39   17   18 1     
   40   17   40 1     
   41   17   41 1     
   42   18   19 1     
   43   18   42 1     
   44   19   43 1     
   45    5   44 1     
   46   11   45 1     
   47   11   46 1     
   48   19   47 1     
   49   19   48 1     
@<TRIPOS>SUBSTRUCTURE
      1 S1             1
@<TRIPOS>SET
LONE_PAIRS      STATIC     ATOMS    <user>   **** ""
5 44 45 46 47 48
DONOR_HYDROGENS      STATIC     ATOMS    <user>   **** ""
3 31 32 43
ATOM$BLUE        STATIC     ATOMS    COLORGROUP SYSTEM
5 44 45 46 47 48
ATOM$RED        STATIC     ATOMS    COLORGROUP SYSTEM
3 31 32 43
