#       Name:                AV-unprocessed.smi:1011
#       Creating user name   scv26
#       Creation time:       Fri Mar 27 02:36:59 2020


#       File generated by GOLD software.
#

@<TRIPOS>MOLECULE
AV-unprocessed.smi:1011
    48    50     1
SMALL
NO_CHARGES


@<TRIPOS>ATOM
      1 ****        -4.3709   6.1797   1.0020 C.3            1 S1                 0.0000
      2 ****        -3.9908   4.8837   0.3461 C.2            1 S1                 0.0000
      3 ****        -3.9463   4.5901  -1.0465 C.2            1 S1                 0.0000
      4 ****        -3.5675   3.3480  -1.2986 N.2            1 S1                 0.0000
      5 ****        -3.3567   2.8062  -0.0806 N.pl3          1 S1                 0.0000
      6 ****        -2.9195   1.4282   0.0274 C.3            1 S1                 0.0000
      7 ****        -1.4223   1.2895  -0.2796 C.3            1 S1                 0.0000
      8 ****        -1.0261  -0.1047  -0.1715 N.3            1 S1                 0.0000
      9 ****         0.3995  -0.2327  -0.4367 C.3            1 S1                 0.0000
     10 ****         0.9039  -1.6484  -0.4257 C.2            1 S1                 0.0000
     11 ****         0.1028  -2.7165  -0.3835 N.2            1 S1                 0.0000
     12 ****         0.9955  -3.7702  -0.3965 C.ar           1 S1                 0.0000
     13 ****         0.7706  -5.1650  -0.3686 C.ar           1 S1                 0.0000
     14 ****         1.8573  -6.0641  -0.3887 C.ar           1 S1                 0.0000
     15 ****         1.5651  -7.7642  -0.3550 Cl             1 S1                 0.0000
     16 ****         3.1815  -5.5810  -0.4357 C.ar           1 S1                 0.0000
     17 ****         3.4277  -4.1947  -0.4637 C.ar           1 S1                 0.0000
     18 ****         2.3389  -3.3027  -0.4457 C.ar           1 S1                 0.0000
     19 ****         2.2329  -1.9160  -0.4656 N.pl3          1 S1                 0.0000
     20 ****         3.3364  -0.9701  -0.5132 C.3            1 S1                 0.0000
     21 ****         3.8351  -0.6181   0.8949 C.3            1 S1                 0.0000
     22 ****         4.8995   0.3031   0.8060 O.3            1 S1                 0.0000
     23 ****        -3.6047   3.7104   0.9302 C.2            1 S1                 0.0000
     24 ****        -5.0438   6.7663   0.3763 H              1 S1                 0.0000
     25 ****        -3.4965   6.7989   1.2023 H              1 S1                 0.0000
     26 ****        -4.8775   6.0187   1.9539 H              1 S1                 0.0000
     27 ****        -4.1767   5.2405  -1.8774 H              1 S1                 0.0000
     28 ****        -3.1375   1.0733   1.0358 H              1 S1                 0.0000
     29 ****        -3.5116   0.8209  -0.6591 H              1 S1                 0.0000
     30 ****        -1.2093   1.6522  -1.2863 H              1 S1                 0.0000
     31 ****        -0.8410   1.8946   0.4176 H              1 S1                 0.0000
     32 ****        -1.2230  -0.4363   0.7619 H              1 S1                 0.0000
     33 ****         0.6228   0.1979  -1.4135 H              1 S1                 0.0000
     34 ****         0.9501   0.3433   0.3078 H              1 S1                 0.0000
     35 ****        -0.2406  -5.5424  -0.3319 H              1 S1                 0.0000
     36 ****         4.0095  -6.2744  -0.4504 H              1 S1                 0.0000
     37 ****         4.4407  -3.8223  -0.4996 H              1 S1                 0.0000
     38 ****         4.1436  -1.4093  -1.1007 H              1 S1                 0.0000
     39 ****         3.0218  -0.0732  -1.0478 H              1 S1                 0.0000
     40 ****         3.0353  -0.1797   1.4924 H              1 S1                 0.0000
     41 ****         4.1807  -1.5115   1.4163 H              1 S1                 0.0000
     42 ****         5.1952   0.5059   1.6805 H              1 S1                 0.0000
     43 ****        -3.4855   3.4474   1.9709 H              1 S1                 0.0000
     44 ****        -3.4612   2.9092  -2.1909 LP             1 S1                 0.0000
     45 ****        -1.5372  -0.6470  -0.8383 LP             1 S1                 0.0000
     46 ****        -0.8962  -2.7459  -0.3506 LP             1 S1                 0.0000
     47 ****         4.5859   1.1381   0.3540 LP             1 S1                 0.0000
     48 ****         5.6500  -0.0984   0.2809 LP             1 S1                 0.0000
@<TRIPOS>BOND
    1    1    2 1     
    2    1   24 1     
    3    1   25 1     
    4    1   26 1     
    5    2   23 2     
    6    2    3 1     
    7    3    4 2     
    8    3   27 1     
    9    4    5 1     
   10    5    6 1     
   11    5   23 1     
   12    6    7 1     
   13    6   28 1     
   14    6   29 1     
   15    7    8 1     
   16    7   30 1     
   17    7   31 1     
   18    8    9 1     
   19    8   32 1     
   20    9   10 1     
   21    9   33 1     
   22    9   34 1     
   23   10   19 1     
   24   10   11 2     
   25   11   12 1     
   26   12   18 ar    
   27   12   13 ar    
   28   13   14 ar    
   29   13   35 1     
   30   14   15 1     
   31   14   16 ar    
   32   16   17 ar    
   33   16   36 1     
   34   17   18 ar    
   35   17   37 1     
   36   18   19 1     
   37   19   20 1     
   38   20   21 1     
   39   20   38 1     
   40   20   39 1     
   41   21   22 1     
   42   21   40 1     
   43   21   41 1     
   44   22   42 1     
   45   23   43 1     
   46    4   44 1     
   47    8   45 1     
   48   11   46 1     
   49   22   47 1     
   50   22   48 1     
@<TRIPOS>SUBSTRUCTURE
      1 S1             1
@<TRIPOS>SET
LONE_PAIRS      STATIC     ATOMS    <user>   **** ""
5 44 45 46 47 48
DONOR_HYDROGENS      STATIC     ATOMS    <user>   **** ""
2 32 42
ATOM$BLUE        STATIC     ATOMS    COLORGROUP SYSTEM
5 44 45 46 47 48
ATOM$RED        STATIC     ATOMS    COLORGROUP SYSTEM
2 32 42
