#       Name:                AV-unprocessed.smi:1394
#       Creating user name   scv26
#       Creation time:       Fri Mar 27 05:29:04 2020


#       File generated by GOLD software.
#

@<TRIPOS>MOLECULE
AV-unprocessed.smi:1394
    45    46     1
SMALL
NO_CHARGES


@<TRIPOS>ATOM
      1 ****        -2.0912  -1.2209   1.9901 C.3            1 S1                 0.0000
      2 ****        -2.3643  -1.9930   0.6879 C.3            1 S1                 0.0000
      3 ****        -1.7173  -3.3934   0.7142 C.3            1 S1                 0.0000
      4 ****        -2.0499  -4.1937  -0.5554 C.3            1 S1                 0.0000
      5 ****        -1.6438  -3.4277  -1.8232 C.3            1 S1                 0.0000
      6 ****        -2.2809  -2.0272  -1.8573 C.3            1 S1                 0.0000
      7 ****        -1.9612  -1.2098  -0.5893 C.3            1 S1                 0.0000
      8 ****        -0.5435  -0.8428  -0.5867 N.am           1 S1                 0.0000
      9 ****        -0.0347   0.3611  -0.2829 C.2            1 S1                 0.0000
     10 ****        -0.7269   1.3251   0.0468 O.2            1 S1                 0.0000
     11 ****         1.4946   0.4709  -0.3638 C.3            1 S1                 0.0000
     12 ****         2.0251   1.7357   0.1729 N.am           1 S1                 0.0000
     13 ****         2.3888   1.7402   1.5312 C.2            1 S1                 0.0000
     14 ****         2.8805   2.8349   2.1264 C.2            1 S1                 0.0000
     15 ****         3.0344   4.0306   1.3344 C.2            1 S1                 0.0000
     16 ****         2.6872   4.0589   0.0268 C.2            1 S1                 0.0000
     17 ****         2.8514   5.3140  -0.8272 C.3            1 S1                 0.0000
     18 ****         3.6342   5.0689  -1.8786 F              1 S1                 0.0000
     19 ****         1.6675   5.7310  -1.2771 F              1 S1                 0.0000
     20 ****         3.4008   6.3143  -0.1364 F              1 S1                 0.0000
     21 ****         2.1405   2.8472  -0.6180 C.2            1 S1                 0.0000
     22 ****         1.8016   2.8265  -1.8024 O.2            1 S1                 0.0000
     23 ****        -1.0234  -1.0904   2.1668 H              1 S1                 0.0000
     24 ****        -2.5028  -1.7493   2.8503 H              1 S1                 0.0000
     25 ****        -2.5491  -0.2317   1.9627 H              1 S1                 0.0000
     26 ****        -3.4445  -2.1405   0.6392 H              1 S1                 0.0000
     27 ****        -0.6352  -3.3024   0.8162 H              1 S1                 0.0000
     28 ****        -2.0607  -3.9455   1.5897 H              1 S1                 0.0000
     29 ****        -1.5457  -5.1602  -0.5284 H              1 S1                 0.0000
     30 ****        -3.1197  -4.4042  -0.5838 H              1 S1                 0.0000
     31 ****        -0.5574  -3.3421  -1.8667 H              1 S1                 0.0000
     32 ****        -1.9419  -3.9917  -2.7075 H              1 S1                 0.0000
     33 ****        -1.9518  -1.4889  -2.7469 H              1 S1                 0.0000
     34 ****        -3.3626  -2.1313  -1.9512 H              1 S1                 0.0000
     35 ****        -2.5633  -0.3005  -0.6349 H              1 S1                 0.0000
     36 ****         0.1063  -1.5714  -0.8442 H              1 S1                 0.0000
     37 ****         1.9315  -0.3721   0.1741 H              1 S1                 0.0000
     38 ****         1.8007   0.3313  -1.4020 H              1 S1                 0.0000
     39 ****         2.2363   0.8065   2.0531 H              1 S1                 0.0000
     40 ****         3.1524   2.8227   3.1716 H              1 S1                 0.0000
     41 ****         3.4366   4.9121   1.8108 H              1 S1                 0.0000
     42 ****        -1.7212   1.2323   0.0984 LP             1 S1                 0.0000
     43 ****        -0.2945   2.2005   0.2628 LP             1 S1                 0.0000
     44 ****         1.4343   1.9870  -2.2028 LP             1 S1                 0.0000
     45 ****         1.8939   3.6492  -2.3634 LP             1 S1                 0.0000
@<TRIPOS>BOND
    1    1    2 1     
    2    1   23 1     
    3    1   24 1     
    4    1   25 1     
    5    2    7 1     
    6    2    3 1     
    7    2   26 1     
    8    3    4 1     
    9    3   27 1     
   10    3   28 1     
   11    4    5 1     
   12    4   29 1     
   13    4   30 1     
   14    5    6 1     
   15    5   31 1     
   16    5   32 1     
   17    6    7 1     
   18    6   33 1     
   19    6   34 1     
   20    7    8 1     
   21    7   35 1     
   22    8    9 am    
   23    8   36 1     
   24    9   10 2     
   25    9   11 1     
   26   11   12 1     
   27   11   37 1     
   28   11   38 1     
   29   12   21 am    
   30   12   13 1     
   31   13   14 2     
   32   13   39 1     
   33   14   15 1     
   34   14   40 1     
   35   15   16 2     
   36   15   41 1     
   37   16   17 1     
   38   16   21 1     
   39   17   18 1     
   40   17   19 1     
   41   17   20 1     
   42   21   22 2     
   43   10   42 1     
   44   10   43 1     
   45   22   44 1     
   46   22   45 1     
@<TRIPOS>SUBSTRUCTURE
      1 S1             1
@<TRIPOS>SET
LONE_PAIRS      STATIC     ATOMS    <user>   **** ""
4 42 43 44 45
DONOR_HYDROGENS      STATIC     ATOMS    <user>   **** ""
1 36
ATOM$BLUE        STATIC     ATOMS    COLORGROUP SYSTEM
4 42 43 44 45
ATOM$RED        STATIC     ATOMS    COLORGROUP SYSTEM
1 36
