AV-unprocessed.smi:233|AV-procd|sdf|1783|dock9
  -GOLD-   2262020333D 1   1.00000     0.00000
 Structure written by MMmdl.
 59 62  0  0  0  0  0  0  0  0  1 V2000
  153.5315  142.5694  160.7058 C   0  0  0  0  0  0  0  0  0  0  0  0
  152.7265  142.6726  159.4147 C   0  0  0  0  0  0  0  0  0  0  0  0
  152.3656  143.7728  158.9981 O   0  0  0  0  0  0  0  0  0  0  0  0
  152.4553  141.5153  158.7923 N   0  0  0  0  0  0  0  0  0  0  0  0
  151.6985  141.3786  157.5513 C   0  0  2  0  0  0  0  0  0  0  0  0
  150.1940  141.3083  157.8734 C   0  0  0  0  0  0  0  0  0  0  0  0
  149.3528  141.0923  156.6054 C   0  0  0  0  0  0  0  0  0  0  0  0
  149.8084  139.8298  155.8453 C   0  0  1  0  0  0  0  0  0  0  0  0
  148.9798  139.5638  154.6635 N   0  0  0  0  0  0  0  0  0  0  0  0
  148.2579  140.6613  154.0206 C   0  0  0  0  0  0  0  0  0  0  0  0
  148.3843  138.3433  154.6313 C   0  0  0  0  0  0  0  0  0  0  0  0
  148.6969  137.4166  155.5770 N   0  0  0  0  0  0  0  0  0  0  0  0
  148.1271  136.2084  155.5535 C   0  0  0  0  0  0  0  0  0  0  0  0
  147.2342  135.7241  154.6887 N   0  0  0  0  0  0  0  0  0  0  0  0
  146.9129  136.6488  153.7393 C   0  0  0  0  0  0  0  0  0  0  0  0
  147.4315  137.9710  153.6408 C   0  0  0  0  0  0  0  0  0  0  0  0
  146.8483  138.6271  152.5627 N   0  0  0  0  0  0  0  0  0  0  0  0
  146.0358  137.7425  152.0522 C   0  0  0  0  0  0  0  0  0  0  0  0
  146.0328  136.5172  152.6796 N   0  0  0  0  0  0  0  0  0  0  0  0
  145.2139  135.3859  152.3562 C   0  0  0  0  0  0  0  0  0  0  0  0
  145.8316  134.0960  151.8117 C   0  0  0  0  0  0  0  0  0  0  0  0
  144.5552  133.8452  150.9771 C   0  0  0  0  0  0  0  0  0  0  0  0
  144.7883  133.3343  149.5458 C   0  0  0  0  0  0  0  0  0  0  0  0
  143.7242  133.7028  148.6921 O   0  0  0  0  0  0  0  0  0  0  0  0
  143.4857  132.9688  151.6597 C   0  0  0  0  0  0  0  0  0  0  0  0
  142.4187  132.6774  150.7799 O   0  0  0  0  0  0  0  0  0  0  0  0
  144.3356  135.3694  151.1028 C   0  0  0  0  0  0  0  0  0  0  0  0
  151.3102  139.9148  155.5054 C   0  0  0  0  0  0  0  0  0  0  0  0
  152.1523  140.1254  156.7741 C   0  0  0  0  0  0  0  0  0  0  0  0
  153.0579  141.8724  161.3978 H   0  0  0  0  0  0  0  0  0  0  0  0
  153.6032  143.5407  161.1964 H   0  0  0  0  0  0  0  0  0  0  0  0
  154.5418  142.2169  160.4961 H   0  0  0  0  0  0  0  0  0  0  0  0
  152.7975  140.6625  159.2108 H   0  0  0  0  0  0  0  0  0  0  0  0
  151.8694  142.2597  156.9295 H   0  0  0  0  0  0  0  0  0  0  0  0
  150.0031  140.4933  158.5733 H   0  0  0  0  0  0  0  0  0  0  0  0
  149.8753  142.2243  158.3720 H   0  0  0  0  0  0  0  0  0  0  0  0
  148.3003  141.0080  156.8782 H   0  0  0  0  0  0  0  0  0  0  0  0
  149.4383  141.9704  155.9644 H   0  0  0  0  0  0  0  0  0  0  0  0
  149.6995  138.9954  156.5375 H   0  0  0  0  0  0  0  0  0  0  0  0
  147.8415  140.3426  153.0641 H   0  0  0  0  0  0  0  0  0  0  0  0
  148.9170  141.5041  153.8185 H   0  0  0  0  0  0  0  0  0  0  0  0
  147.4390  141.0116  154.6494 H   0  0  0  0  0  0  0  0  0  0  0  0
  148.4308  135.5327  156.3392 H   0  0  0  0  0  0  0  0  0  0  0  0
  145.4160  137.9623  151.1951 H   0  0  0  0  0  0  0  0  0  0  0  0
  144.6187  135.1814  153.2476 H   0  0  0  0  0  0  0  0  0  0  0  0
  146.7142  134.2862  151.1981 H   0  0  0  0  0  0  0  0  0  0  0  0
  146.0436  133.3446  152.5729 H   0  0  0  0  0  0  0  0  0  0  0  0
  145.7065  133.7509  149.1305 H   0  0  0  0  0  0  0  0  0  0  0  0
  144.9065  132.2510  149.5183 H   0  0  0  0  0  0  0  0  0  0  0  0
  142.9273  133.7266  149.1997 H   0  0  0  0  0  0  0  0  0  0  0  0
  143.9076  132.0208  151.9937 H   0  0  0  0  0  0  0  0  0  0  0  0
  143.0843  133.4504  152.5516 H   0  0  0  0  0  0  0  0  0  0  0  0
  142.1265  133.4846  150.3848 H   0  0  0  0  0  0  0  0  0  0  0  0
  143.3013  135.6708  151.2714 H   0  0  0  0  0  0  0  0  0  0  0  0
  144.7755  135.9294  150.2755 H   0  0  0  0  0  0  0  0  0  0  0  0
  151.6308  139.0032  155.0003 H   0  0  0  0  0  0  0  0  0  0  0  0
  151.5030  140.7378  154.8171 H   0  0  0  0  0  0  0  0  0  0  0  0
  153.2049  140.2114  156.5020 H   0  0  0  0  0  0  0  0  0  0  0  0
  152.0700  139.2446  157.4124 H   0  0  0  0  0  0  0  0  0  0  0  0
  1  2  1  0  0  0  0
  1 30  1  0  0  0  0
  1 31  1  0  0  0  0
  1 32  1  0  0  0  0
  2  3  2  0  0  0  0
  2  4  1  0  0  0  0
  4  5  1  0  0  0  0
  4 33  1  0  0  0  0
  5 29  1  0  0  0  0
  5  6  1  0  0  0  0
  5 34  1  0  0  0  0
  6  7  1  0  0  0  0
  6 35  1  0  0  0  0
  6 36  1  0  0  0  0
  7  8  1  0  0  0  0
  7 37  1  0  0  0  0
  7 38  1  0  0  0  0
  8  9  1  0  0  0  0
  8 28  1  0  0  0  0
  8 39  1  0  0  0  0
  9 10  1  0  0  0  0
  9 11  1  0  0  0  0
 10 40  1  0  0  0  0
 10 41  1  0  0  0  0
 10 42  1  0  0  0  0
 11 16  1  0  0  0  0
 11 12  2  0  0  0  0
 12 13  1  0  0  0  0
 13 14  2  0  0  0  0
 13 43  1  0  0  0  0
 14 15  1  0  0  0  0
 15 19  1  0  0  0  0
 15 16  2  0  0  0  0
 16 17  1  0  0  0  0
 17 18  2  0  0  0  0
 18 19  1  0  0  0  0
 18 44  1  0  0  0  0
 19 20  1  0  0  0  0
 20 27  1  0  0  0  0
 20 21  1  0  0  0  0
 20 45  1  0  0  0  0
 21 22  1  0  0  0  0
 21 46  1  0  0  0  0
 21 47  1  0  0  0  0
 22 23  1  0  0  0  0
 22 25  1  0  0  0  0
 22 27  1  0  0  0  0
 23 24  1  0  0  0  0
 23 48  1  0  0  0  0
 23 49  1  0  0  0  0
 24 50  1  0  0  0  0
 25 26  1  0  0  0  0
 25 51  1  0  0  0  0
 25 52  1  0  0  0  0
 26 53  1  0  0  0  0
 27 54  1  0  0  0  0
 27 55  1  0  0  0  0
 28 29  1  0  0  0  0
 28 56  1  0  0  0  0
 28 57  1  0  0  0  0
 29 58  1  0  0  0  0
 29 59  1  0  0  0  0
M  END
> <s_m_source_file>
AV-unprocessed.smi

> <i_m_source_file_index>
233

> <i_lp_mmshare_version>
43012

> <i_f3d_flags>
0

> <s_epik_input>
W0NIM11DKD1PKVtOSF1bQ0BASF0xW0NIMl1bQ0gyXVtDQEhdKFtDSDJdW0NIMl0xKU4oW0NIM10pYyhuW2NIXW4yKWMoYzIzKW5bY0hdbjNbQ0hdKFtDSDJdNClbQ0gyXUM0KFtDSDJdW09IXSlbQ0gyXVtPSF0=

> <s_epik_cmdline>
J2VwaWtfcHl0aG9uJywgJy1waCcsICc3LjAnLCAnLXRuJywgJzgnLCAnLW1hJywgJzIwMCcsICctbWV0YWxfYmluZGluZycsICctaW1hZScsICc8aW5maWxlLm1hZT4nLCAnLW9tYWUnLCAnPG91dGZpbGUubWFlPic=

> <r_lp_tautomer_probability>
1

> <r_epik_Ionization_Penalty>
0.0029036

> <r_epik_Ionization_Penalty_Charging>
0

> <r_epik_Ionization_Penalty_Neutral>
0.0029036

> <r_epik_State_Penalty>
0.00183591

> <r_epik_Charging_Adjusted_Penalty>
0.00183591

> <i_epik_Tot_Q>
0

> <i_epik_Tot_abs_Q>
0

> <r_epik_Metal_State_Penalty>
-0

> <b_epik_Metal_Only>
0

> <s_lp_Force_Field>
OPLS_2005

> <r_lp_Energy>
37.3152

> <b_lp_Chiralities_Consistent>
1

> <s_lp_Variant>
AV-unprocessed.smi:233-1

> <Gold.Version>
5.8.1

> <Gold.Id.Protein>
6NUR|6NUR_protein|mol2

> <Gold.PLP.Fitness>
48.6406

> <Gold.PLP.PLP>
-41.0348

> <Gold.PLP.part.hbond>
-3.8445

> <Gold.PLP.part.metal>
0.0000

> <Gold.PLP.part.buried>
-2.8510

> <Gold.PLP.part.nonpolar>
-35.8699

> <Gold.PLP.part.repulsive>
0.5501

> <Gold.PLP.ligand.clash>
0.0000

> <Gold.PLP.ligand.torsion>
1.4428

> <Gold.PLP.Chemscore.Hbond>
2.0000

> <Gold.PLP.Chemscore.CHOScore>
1.0000

> <Gold.PLP.Chemscore.Metal>
0.0000

> <Gold.Chemscore.Hbonds>
donor molecule, donor type, donor heavy atom, donor atom, acceptor molecule, acceptor atom, score
      L1  H    24    50       P1 10186  0.91
      L1  H    26    53       P1 10186  1.00
      L1  C    18    44       P1 10171  1.00

> <Gold.PLP.Chemscore.Internal.Correction>
1.4915

> <Gold.Rescore>
     Score         DG    S(hbond)    S(metal)    S(lipo)     H(rot)  DE(clash)    DE(int)     intcor
      9.78     -12.75       1.90        0.00      85.91       3.57       0.22       2.75       ----

> <Gold.Chemscore.Fitness>
9.7801

> <Gold.Chemscore.DG>
-12.7451

> <Gold.Chemscore.ZeroCoef>
-5.4800

> <Gold.Chemscore.Hbond>
1.9035

> <Gold.Chemscore.Metal>
0.0000

> <Gold.Chemscore.Lipo>
85.9080

> <Gold.Chemscore.Internal_Hbond>
0.0000

> <Gold.Chemscore.DEClash>
0.2182

> <Gold.Chemscore.DEInternal>
2.7468

> <Gold.Chemscore.Rot>
3.5719

> <Gold.Chemscore.Internal.Correction>
   9.000000E+99

> <Gold.Chemscore.Hbonds>
donor molecule, donor type, donor heavy atom, donor atom, acceptor molecule, acceptor atom, score
      L1  H    24    50       P1 10186  0.83
      L1  H    26    53       P1 10186  0.95

> <Gold.Chemscore.Hbond.Weighted>
-6.3578

> <Gold.Chemscore.Metal.Weighted>
-0.0000

> <Gold.Chemscore.Lipo.Weighted>
-10.0512

> <Gold.Chemscore.Internal_Hbond.Weighted>
0.0000

> <Gold.Chemscore.DEClash.Weighted>
0.2182

> <Gold.Chemscore.DEInternal.Weighted>
2.7468

> <Gold.Chemscore.Rot.Weighted>
9.1440

> <Gold.Chemscore.Internal.Correction.Weighted>
   9.000000E+99

> <Gold.Protein.RotatedTorsions>
[ 6907 6896 6895 6894 ] final   -5.80 input  -60.11 | X-H torsion
[ 7974 7965 7964 7962 ] final  -73.87 input  175.53 | X-H torsion
[ 8008 7997 7996 7995 ] final   61.92 input   59.86 | X-H torsion
[ 10167 10162 10161 10158 ] final  -75.24 input  -65.29 | X-H torsion
[ 10718 10713 10712 10709 ] final   34.78 input   66.30 | X-H torsion
[ 10763 10752 10751 10750 ] final  -11.08 input  -60.55 | X-H torsion
[ 11005 11000 10999 10996 ] final  159.58 input  -57.11 | X-H torsion

> <Gold.Protein.ActiveResidues>
 VAL166  LYS551  ARG553  GLY616  TRP617  ASP618  TYR619  PRO620  LYS621  CYS622 
 ASP623  PHE694  ASN695  SER759  ASP760  ASP761  ALA762  ILE779  LEU786  VAL792 
 PHE793  MET794  SER795  GLU796  ALA797  LYS798  CYS799  TRP800  GLU811  SER814 

> <Gold.Protein.RotatedAtoms>
  151.4758  135.1049  159.9763 H   0  0  0  0  0  0  0  0  0  0  0  0  # atno 6907 bound_to 6896
  152.4799  133.8224  159.7071 H   0  0  0  0  0  0  0  0  0  0  0  0  # atno 6908 bound_to 6896
  150.8863  133.7243  159.2944 H   0  0  0  0  0  0  0  0  0  0  0  0  # atno 6909 bound_to 6896
  145.6465  140.9295  143.1008 H   0  0  0  0  0  0  0  0  0  0  0  0  # atno 7974 bound_to 7965
  155.6061  140.3494  155.4608 H   0  0  0  0  0  0  0  0  0  0  0  0  # atno 8008 bound_to 7997
  156.0191  140.1249  157.0400 H   0  0  0  0  0  0  0  0  0  0  0  0  # atno 8009 bound_to 7997
  154.4308  140.1066  156.5924 H   0  0  0  0  0  0  0  0  0  0  0  0  # atno 8010 bound_to 7997
  140.4959  143.2370  151.7831 H   0  0  0  0  0  0  0  0  0  0  0  0  # atno 10167 bound_to 10162
  157.3146  130.7417  149.6746 H   0  0  0  0  0  0  0  0  0  0  0  0  # atno 10718 bound_to 10713
  153.4785  135.7017  153.5951 H   0  0  0  0  0  0  0  0  0  0  0  0  # atno 10763 bound_to 10752
  153.4175  135.3833  155.2090 H   0  0  0  0  0  0  0  0  0  0  0  0  # atno 10764 bound_to 10752
  154.8722  135.3919  154.4232 H   0  0  0  0  0  0  0  0  0  0  0  0  # atno 10765 bound_to 10752
  140.1975  134.8362  157.2981 H   0  0  0  0  0  0  0  0  0  0  0  0  # atno 11005 bound_to 11000
  144.7138  139.8271  143.7405 LP  0  0  0  0  0  0  0  0  0  0  0  0  # atno 17320 bound_to 7965
  146.1239  139.4261  143.0211 LP  0  0  0  0  0  0  0  0  0  0  0  0  # atno 17321 bound_to 7965
  139.4861  144.4587  151.9567 LP  0  0  0  0  0  0  0  0  0  0  0  0  # atno 17342 bound_to 10162
  140.3675  144.2897  150.5924 LP  0  0  0  0  0  0  0  0  0  0  0  0  # atno 17343 bound_to 10162
  155.9680  130.4241  150.4593 LP  0  0  0  0  0  0  0  0  0  0  0  0  # atno 17370 bound_to 10713
  157.2598  131.0564  151.2328 LP  0  0  0  0  0  0  0  0  0  0  0  0  # atno 17371 bound_to 10713
  140.2090  134.4161  155.7622 LP  0  0  0  0  0  0  0  0  0  0  0  0  # atno 17394 bound_to 11000
  141.2227  133.7109  156.8308 LP  0  0  0  0  0  0  0  0  0  0  0  0  # atno 17395 bound_to 11000

$$$$
