AV-unprocessed.smi:1535|AV-procd|sdf|6171|dock8
  -GOLD-   22720 6323D 1   1.00000     0.00000
 Structure written by MMmdl.
 46 47  0  0  0  0  0  0  0  0  1 V2000
  153.4357  142.5446  161.5429 C   0  0  0  0  0  0  0  0  0  0  0  0
  152.7557  142.2674  160.2137 C   0  0  0  0  0  0  0  0  0  0  0  0
  153.0959  141.0965  159.4994 C   0  0  0  0  0  0  0  0  0  0  0  0
  152.4876  140.8020  158.2595 C   0  0  0  0  0  0  0  0  0  0  0  0
  152.6663  139.7291  157.4032 N   0  0  0  0  0  0  0  0  0  0  0  0
  151.8185  140.0255  156.4223 C   0  0  0  0  0  0  0  0  0  0  0  0
  151.1112  141.1657  156.5415 N   0  0  0  0  0  0  0  0  0  0  0  0
  150.1301  141.6921  155.6089 C   0  0  0  0  0  0  0  0  0  0  0  0
  149.4091  140.5835  154.8182 C   0  0  1  0  0  0  0  0  0  0  0  0
  150.2913  140.0591  153.8441 O   0  0  0  0  0  0  0  0  0  0  0  0
  148.9579  139.4340  155.7433 C   0  0  0  0  0  0  0  0  0  0  0  0
  148.5239  138.2057  155.0669 N   0  0  0  0  0  0  0  0  0  0  0  0
  147.3908  138.4587  154.1807 C   0  0  0  0  0  0  0  0  0  0  0  0
  148.1742  137.1505  156.0210 C   0  0  0  0  0  0  0  0  0  0  0  0
  149.3480  136.5614  156.8290 C   0  0  2  0  0  0  0  0  0  0  0  0
  149.7506  137.4592  158.0078 C   0  0  0  0  0  0  0  0  0  0  0  0
  150.5037  136.3220  155.9501 C   0  0  0  0  0  0  0  0  0  0  0  0
  151.4123  136.1334  155.2591 N   0  0  0  0  0  0  0  0  0  0  0  0
  151.5205  141.7174  157.7505 C   0  0  0  0  0  0  0  0  0  0  0  0
  151.1730  142.8853  158.4522 C   0  0  0  0  0  0  0  0  0  0  0  0
  151.7927  143.1660  159.6880 C   0  0  0  0  0  0  0  0  0  0  0  0
  151.4139  144.4320  160.4359 C   0  0  0  0  0  0  0  0  0  0  0  0
  154.1082  141.7334  161.8232 H   0  0  0  0  0  0  0  0  0  0  0  0
  152.6963  142.6537  162.3365 H   0  0  0  0  0  0  0  0  0  0  0  0
  154.0223  143.4619  161.4867 H   0  0  0  0  0  0  0  0  0  0  0  0
  153.8299  140.4123  159.8985 H   0  0  0  0  0  0  0  0  0  0  0  0
  151.7059  139.3766  155.5660 H   0  0  0  0  0  0  0  0  0  0  0  0
  149.4108  142.2983  156.1619 H   0  0  0  0  0  0  0  0  0  0  0  0
  150.6452  142.3670  154.9241 H   0  0  0  0  0  0  0  0  0  0  0  0
  148.5592  141.0293  154.3042 H   0  0  0  0  0  0  0  0  0  0  0  0
  149.8145  139.9447  153.0366 H   0  0  0  0  0  0  0  0  0  0  0  0
  149.7852  139.2214  156.4181 H   0  0  0  0  0  0  0  0  0  0  0  0
  148.1470  139.7872  156.3822 H   0  0  0  0  0  0  0  0  0  0  0  0
  147.0652  137.5371  153.6967 H   0  0  0  0  0  0  0  0  0  0  0  0
  147.6489  139.1543  153.3839 H   0  0  0  0  0  0  0  0  0  0  0  0
  146.5422  138.8674  154.7310 H   0  0  0  0  0  0  0  0  0  0  0  0
  147.4152  137.5249  156.7097 H   0  0  0  0  0  0  0  0  0  0  0  0
  147.7034  136.3243  155.4859 H   0  0  0  0  0  0  0  0  0  0  0  0
  149.0853  135.5778  157.2146 H   0  0  0  0  0  0  0  0  0  0  0  0
  150.5872  137.0277  158.5578 H   0  0  0  0  0  0  0  0  0  0  0  0
  148.9265  137.5858  158.7102 H   0  0  0  0  0  0  0  0  0  0  0  0
  150.0532  138.4490  157.6647 H   0  0  0  0  0  0  0  0  0  0  0  0
  150.4372  143.5603  158.0409 H   0  0  0  0  0  0  0  0  0  0  0  0
  150.7112  145.0373  159.8625 H   0  0  0  0  0  0  0  0  0  0  0  0
  152.2969  145.0411  160.6304 H   0  0  0  0  0  0  0  0  0  0  0  0
  150.9452  144.1857  161.3887 H   0  0  0  0  0  0  0  0  0  0  0  0
  1  2  1  0  0  0  0
  1 23  1  0  0  0  0
  1 24  1  0  0  0  0
  1 25  1  0  0  0  0
  2 21  1  0  0  0  0
  2  3  2  0  0  0  0
  3  4  1  0  0  0  0
  3 26  1  0  0  0  0
  4 19  2  0  0  0  0
  4  5  1  0  0  0  0
  5  6  2  0  0  0  0
  6  7  1  0  0  0  0
  6 27  1  0  0  0  0
  7  8  1  0  0  0  0
  7 19  1  0  0  0  0
  8  9  1  0  0  0  0
  8 28  1  0  0  0  0
  8 29  1  0  0  0  0
  9 10  1  0  0  0  0
  9 11  1  0  0  0  0
  9 30  1  0  0  0  0
 10 31  1  0  0  0  0
 11 12  1  0  0  0  0
 11 32  1  0  0  0  0
 11 33  1  0  0  0  0
 12 13  1  0  0  0  0
 12 14  1  0  0  0  0
 13 34  1  0  0  0  0
 13 35  1  0  0  0  0
 13 36  1  0  0  0  0
 14 15  1  0  0  0  0
 14 37  1  0  0  0  0
 14 38  1  0  0  0  0
 15 16  1  0  0  0  0
 15 17  1  0  0  0  0
 15 39  1  0  0  0  0
 16 40  1  0  0  0  0
 16 41  1  0  0  0  0
 16 42  1  0  0  0  0
 17 18  3  0  0  0  0
 19 20  1  0  0  0  0
 20 21  2  0  0  0  0
 20 43  1  0  0  0  0
 21 22  1  0  0  0  0
 22 44  1  0  0  0  0
 22 45  1  0  0  0  0
 22 46  1  0  0  0  0
M  END
> <s_m_source_file>
AV-unprocessed.smi

> <i_m_source_file_index>
1535

> <i_lp_mmshare_version>
43012

> <i_f3d_flags>
0

> <s_epik_input>
W0NIM11jKFtjSF0xKWMoW0NIM10pW2NIXWMoYzEyKW4oW2NIXW4yKVtDSDJdW0NASF0oW09IXSlbQ0gyXU4oW0NIM10pW0NIMl1bQ0BIXShbQ0gzXSlDI04=

> <s_epik_cmdline>
J2VwaWtfcHl0aG9uJywgJy1waCcsICc3LjAnLCAnLXRuJywgJzgnLCAnLW1hJywgJzIwMCcsICctbWV0YWxfYmluZGluZycsICctaW1hZScsICc8aW5maWxlLm1hZT4nLCAnLW9tYWUnLCAnPG91dGZpbGUubWFlPic=

> <r_epik_Ionization_Penalty>
0.098511

> <r_epik_Ionization_Penalty_Charging>
0

> <r_epik_Ionization_Penalty_Neutral>
0.098511

> <r_epik_State_Penalty>
0.0881608

> <r_epik_Charging_Adjusted_Penalty>
0.0881608

> <i_epik_Tot_Q>
0

> <i_epik_Tot_abs_Q>
0

> <r_epik_Metal_State_Penalty>
0.0128087

> <b_epik_Metal_Only>
0

> <s_lp_Force_Field>
OPLS_2005

> <r_lp_Energy>
24.761

> <b_lp_Chiralities_Consistent>
1

> <s_lp_Variant>
AV-unprocessed.smi:1535-2

> <Gold.Version>
5.8.1

> <Gold.Id.Protein>
6NUR|6NUR_protein|mol2

> <Gold.PLP.Fitness>
49.2578

> <Gold.PLP.PLP>
-39.1414

> <Gold.PLP.part.hbond>
-3.8587

> <Gold.PLP.part.metal>
0.0000

> <Gold.PLP.part.buried>
-4.9839

> <Gold.PLP.part.nonpolar>
-29.3515

> <Gold.PLP.part.repulsive>
0.1981

> <Gold.PLP.ligand.clash>
0.1416

> <Gold.PLP.ligand.torsion>
0.7632

> <Gold.PLP.Chemscore.Hbond>
3.9120

> <Gold.PLP.Chemscore.CHOScore>
0.0000

> <Gold.PLP.Chemscore.Metal>
0.0000

> <Gold.Chemscore.Hbonds>
donor molecule, donor type, donor heavy atom, donor atom, acceptor molecule, acceptor atom, score
      L1  H    10    31       P1  7957  1.00
      P1  H  7989  7998       L1    10  0.91
      P1  H  7997  8010       L1     5  1.00
      P1  H 10752 10763       L1    18  1.00

> <Gold.PLP.Chemscore.Internal.Correction>
0.0484

> <Gold.Rescore>
     Score         DG    S(hbond)    S(metal)    S(lipo)     H(rot)  DE(clash)    DE(int)     intcor
     19.91     -21.96       3.44        0.00      97.68       2.51       0.09       1.95       ----

> <Gold.Chemscore.Fitness>
19.9102

> <Gold.Chemscore.DG>
-21.9559

> <Gold.Chemscore.ZeroCoef>
-5.4800

> <Gold.Chemscore.Hbond>
3.4361

> <Gold.Chemscore.Metal>
0.0000

> <Gold.Chemscore.Lipo>
97.6759

> <Gold.Chemscore.Internal_Hbond>
0.0000

> <Gold.Chemscore.DEClash>
0.0936

> <Gold.Chemscore.DEInternal>
1.9521

> <Gold.Chemscore.Rot>
2.5113

> <Gold.Chemscore.Internal.Correction>
   9.000000E+99

> <Gold.Chemscore.Hbonds>
donor molecule, donor type, donor heavy atom, donor atom, acceptor molecule, acceptor atom, score
      L1  H    10    31       P1  7957  0.97
      P1  H  7989  7998       L1    10  0.46
      P1  H  7997  8010       L1     5  0.11
      P1  H 10752 10763       L1    18  1.00

> <Gold.Chemscore.Hbond.Weighted>
-11.4767

> <Gold.Chemscore.Metal.Weighted>
-0.0000

> <Gold.Chemscore.Lipo.Weighted>
-11.4281

> <Gold.Chemscore.Internal_Hbond.Weighted>
0.0000

> <Gold.Chemscore.DEClash.Weighted>
0.0936

> <Gold.Chemscore.DEInternal.Weighted>
1.9521

> <Gold.Chemscore.Rot.Weighted>
6.4289

> <Gold.Chemscore.Internal.Correction.Weighted>
   9.000000E+99

> <Gold.Protein.RotatedTorsions>
[ 6907 6896 6895 6894 ] final   51.42 input  -60.11 | X-H torsion
[ 7974 7965 7964 7962 ] final  -85.89 input  175.53 | X-H torsion
[ 8008 7997 7996 7995 ] final   67.33 input   59.86 | X-H torsion
[ 10167 10162 10161 10158 ] final   29.34 input  -65.29 | X-H torsion
[ 10718 10713 10712 10709 ] final   65.30 input   66.30 | X-H torsion
[ 10763 10752 10751 10750 ] final   59.76 input  -60.55 | X-H torsion
[ 11005 11000 10999 10996 ] final   78.76 input  -57.11 | X-H torsion

> <Gold.Protein.ActiveResidues>
 VAL166  LYS551  ARG553  GLY616  TRP617  ASP618  TYR619  PRO620  LYS621  CYS622 
 ASP623  PHE694  ASN695  SER759  ASP760  ASP761  ALA762  ILE779  LEU786  VAL792 
 PHE793  MET794  SER795  GLU796  ALA797  LYS798  CYS799  TRP800  GLU811  SER814 

> <Gold.Protein.RotatedAtoms>
  152.3125  134.7480  160.0332 H   0  0  0  0  0  0  0  0  0  0  0  0  # atno 6907 bound_to 6896
  151.7956  133.3359  159.3520 H   0  0  0  0  0  0  0  0  0  0  0  0  # atno 6908 bound_to 6896
  150.7327  134.5732  159.5945 H   0  0  0  0  0  0  0  0  0  0  0  0  # atno 6909 bound_to 6896
  145.4872  140.9554  143.1832 H   0  0  0  0  0  0  0  0  0  0  0  0  # atno 7974 bound_to 7965
  155.6912  140.3496  155.4894 H   0  0  0  0  0  0  0  0  0  0  0  0  # atno 8008 bound_to 7997
  155.9523  140.1121  157.0989 H   0  0  0  0  0  0  0  0  0  0  0  0  # atno 8009 bound_to 7997
  154.4124  140.1192  156.5055 H   0  0  0  0  0  0  0  0  0  0  0  0  # atno 8010 bound_to 7997
  140.4775  144.0668  150.6255 H   0  0  0  0  0  0  0  0  0  0  0  0  # atno 10167 bound_to 10162
  157.6097  130.9207  149.9959 H   0  0  0  0  0  0  0  0  0  0  0  0  # atno 10718 bound_to 10713
  152.9903  135.5560  154.5765 H   0  0  0  0  0  0  0  0  0  0  0  0  # atno 10763 bound_to 10752
  154.5155  135.2804  155.1309 H   0  0  0  0  0  0  0  0  0  0  0  0  # atno 10764 bound_to 10752
  154.2684  135.6368  153.5353 H   0  0  0  0  0  0  0  0  0  0  0  0  # atno 10765 bound_to 10752
  139.9199  134.7789  156.1691 H   0  0  0  0  0  0  0  0  0  0  0  0  # atno 11005 bound_to 11000
  144.7854  139.6437  143.7136 LP  0  0  0  0  0  0  0  0  0  0  0  0  # atno 17320 bound_to 7965
  146.2305  139.5805  142.9558 LP  0  0  0  0  0  0  0  0  0  0  0  0  # atno 17321 bound_to 7965
  140.3900  143.2757  152.0071 LP  0  0  0  0  0  0  0  0  0  0  0  0  # atno 17342 bound_to 10162
  139.4828  144.6085  151.7478 LP  0  0  0  0  0  0  0  0  0  0  0  0  # atno 17343 bound_to 10162
  156.1195  130.3646  149.9912 LP  0  0  0  0  0  0  0  0  0  0  0  0  # atno 17370 bound_to 10713
  156.7995  130.9285  151.3646 LP  0  0  0  0  0  0  0  0  0  0  0  0  # atno 17371 bound_to 10713
  141.0711  133.6796  156.2143 LP  0  0  0  0  0  0  0  0  0  0  0  0  # atno 17394 bound_to 11000
  140.6505  134.5072  157.5577 LP  0  0  0  0  0  0  0  0  0  0  0  0  # atno 17395 bound_to 11000

$$$$
