AV-unprocessed.smi:155|AV-procd|sdf|1278|dock6
  -GOLD-   2262018543D 1   1.00000     0.00000
 Structure written by MMmdl.
 63 66  0  0  0  0  0  0  0  0  2 V2000
  143.8098  132.3442  149.7401 C   0  0  0  0  0  0  0  0  0  0  0  0
  144.9363  133.2975  149.8734 N   0  3  0  0  0  0  0  0  0  0  0  0
  146.1740  132.6129  150.3085 C   0  0  0  0  0  0  0  0  0  0  0  0
  144.6135  134.4691  150.7260 C   0  0  0  0  0  0  0  0  0  0  0  0
  145.7289  135.5355  150.7012 C   0  0  0  0  0  0  0  0  0  0  0  0
  145.4420  136.6474  151.6083 N   0  0  0  0  0  0  0  0  0  0  0  0
  145.2019  136.2024  152.9894 C   0  0  0  0  0  0  0  0  0  0  0  0
  146.4683  136.0625  153.8602 C   0  0  0  0  0  0  0  0  0  0  0  0
  146.8360  137.3719  154.5846 C   0  0  0  0  0  0  0  0  0  0  0  0
  147.2852  138.4283  153.6763 N   0  0  0  0  0  0  0  0  0  0  0  0
  148.0051  139.4531  154.2003 C   0  0  0  0  0  0  0  0  0  0  0  0
  147.6177  140.7363  153.9706 N   0  0  0  0  0  0  0  0  0  0  0  0
  148.3266  141.7546  154.4665 C   0  0  0  0  0  0  0  0  0  0  0  0
  149.4342  141.7169  155.2095 N   0  0  0  0  0  0  0  0  0  0  0  0
  149.8212  140.4327  155.4555 C   0  0  0  0  0  0  0  0  0  0  0  0
  149.1703  139.2535  154.9940 C   0  0  0  0  0  0  0  0  0  0  0  0
  149.8483  138.1296  155.4520 N   0  0  0  0  0  0  0  0  0  0  0  0
  150.8492  138.6164  156.1335 C   0  0  0  0  0  0  0  0  0  0  0  0
  150.9011  139.9906  156.2004 N   0  0  0  0  0  0  0  0  0  0  0  0
  151.9083  140.7890  156.8788 C   0  0  0  0  0  0  0  0  0  0  0  0
  151.4153  141.4262  158.1980 C   0  0  1  0  0  0  0  0  0  0  0  0
  151.6303  140.4522  159.1989 O   0  0  0  0  0  0  0  0  0  0  0  0
  152.1715  142.6993  158.6403 C   0  0  1  0  0  0  0  0  0  0  0  0
  151.9341  143.9531  157.7936 C   0  0  0  0  0  0  0  0  0  0  0  0
  152.1845  145.1036  158.7556 C   0  0  0  0  0  0  0  0  0  0  0  0
  152.1656  144.4412  160.1333 C   0  0  0  0  0  0  0  0  0  0  0  0
  151.6690  143.1325  159.8966 O   0  0  0  0  0  0  0  0  0  0  0  0
  146.4349  138.7650  152.5352 C   0  0  0  0  0  0  0  0  0  0  0  0
  146.4960  137.6573  151.4711 C   0  0  0  0  0  0  0  0  0  0  0  0
  143.5514  131.9075  150.7057 H   0  0  0  0  0  0  0  0  0  0  0  0
  144.0751  131.5319  149.0625 H   0  0  0  0  0  0  0  0  0  0  0  0
  142.9194  132.8243  149.3362 H   0  0  0  0  0  0  0  0  0  0  0  0
  146.0654  132.2138  151.3180 H   0  0  0  0  0  0  0  0  0  0  0  0
  147.0212  133.2996  150.3005 H   0  0  0  0  0  0  0  0  0  0  0  0
  146.4154  131.7870  149.6383 H   0  0  0  0  0  0  0  0  0  0  0  0
  143.6609  134.8926  150.4026 H   0  0  0  0  0  0  0  0  0  0  0  0
  144.4686  134.1342  151.7535 H   0  0  0  0  0  0  0  0  0  0  0  0
  146.7009  135.0928  150.9231 H   0  0  0  0  0  0  0  0  0  0  0  0
  145.8022  135.9416  149.6926 H   0  0  0  0  0  0  0  0  0  0  0  0
  144.5230  136.9114  153.4643 H   0  0  0  0  0  0  0  0  0  0  0  0
  144.6577  135.2596  152.9897 H   0  0  0  0  0  0  0  0  0  0  0  0
  146.2629  135.3155  154.6275 H   0  0  0  0  0  0  0  0  0  0  0  0
  147.3125  135.6709  153.2917 H   0  0  0  0  0  0  0  0  0  0  0  0
  145.9842  137.7320  155.1632 H   0  0  0  0  0  0  0  0  0  0  0  0
  147.6319  137.1555  155.2988 H   0  0  0  0  0  0  0  0  0  0  0  0
  147.9534  142.7409  154.2334 H   0  0  0  0  0  0  0  0  0  0  0  0
  151.5792  137.9810  156.6135 H   0  0  0  0  0  0  0  0  0  0  0  0
  152.7516  140.1263  157.0792 H   0  0  0  0  0  0  0  0  0  0  0  0
  152.2780  141.5586  156.2002 H   0  0  0  0  0  0  0  0  0  0  0  0
  150.3444  141.6244  158.1420 H   0  0  0  0  0  0  0  0  0  0  0  0
  150.9343  140.5220  159.8349 H   0  0  0  0  0  0  0  0  0  0  0  0
  153.2438  142.5074  158.7201 H   0  0  0  0  0  0  0  0  0  0  0  0
  152.5830  143.9995  156.9194 H   0  0  0  0  0  0  0  0  0  0  0  0
  150.8992  143.9890  157.4516 H   0  0  0  0  0  0  0  0  0  0  0  0
  153.1477  145.5805  158.5702 H   0  0  0  0  0  0  0  0  0  0  0  0
  151.4079  145.8638  158.6621 H   0  0  0  0  0  0  0  0  0  0  0  0
  153.1751  144.3745  160.5420 H   0  0  0  0  0  0  0  0  0  0  0  0
  151.5414  144.9767  160.8492 H   0  0  0  0  0  0  0  0  0  0  0  0
  145.4115  138.9467  152.8658 H   0  0  0  0  0  0  0  0  0  0  0  0
  146.7587  139.7001  152.0791 H   0  0  0  0  0  0  0  0  0  0  0  0
  147.4852  137.1958  151.4706 H   0  0  0  0  0  0  0  0  0  0  0  0
  146.3769  138.1132  150.4875 H   0  0  0  0  0  0  0  0  0  0  0  0
  145.1279  133.6588  148.9497 H   0  0  0  0  0  0  0  0  0  0  0  0
  1  2  1  0  0  0  0
  1 30  1  0  0  0  0
  1 31  1  0  0  0  0
  1 32  1  0  0  0  0
  2  3  1  0  0  0  0
  2  4  1  0  0  0  0
  2 63  1  0  0  0  0
  3 33  1  0  0  0  0
  3 34  1  0  0  0  0
  3 35  1  0  0  0  0
  4  5  1  0  0  0  0
  4 36  1  0  0  0  0
  4 37  1  0  0  0  0
  5  6  1  0  0  0  0
  5 38  1  0  0  0  0
  5 39  1  0  0  0  0
  6 29  1  0  0  0  0
  6  7  1  0  0  0  0
  7  8  1  0  0  0  0
  7 40  1  0  0  0  0
  7 41  1  0  0  0  0
  8  9  1  0  0  0  0
  8 42  1  0  0  0  0
  8 43  1  0  0  0  0
  9 10  1  0  0  0  0
  9 44  1  0  0  0  0
  9 45  1  0  0  0  0
 10 11  1  0  0  0  0
 10 28  1  0  0  0  0
 11 16  1  0  0  0  0
 11 12  2  0  0  0  0
 12 13  1  0  0  0  0
 13 14  2  0  0  0  0
 13 46  1  0  0  0  0
 14 15  1  0  0  0  0
 15 19  1  0  0  0  0
 15 16  2  0  0  0  0
 16 17  1  0  0  0  0
 17 18  2  0  0  0  0
 18 19  1  0  0  0  0
 18 47  1  0  0  0  0
 19 20  1  0  0  0  0
 20 21  1  0  0  0  0
 20 48  1  0  0  0  0
 20 49  1  0  0  0  0
 21 22  1  0  0  0  0
 21 23  1  0  0  0  0
 21 50  1  0  0  0  0
 22 51  1  0  0  0  0
 23 27  1  0  0  0  0
 23 24  1  0  0  0  0
 23 52  1  0  0  0  0
 24 25  1  0  0  0  0
 24 53  1  0  0  0  0
 24 54  1  0  0  0  0
 25 26  1  0  0  0  0
 25 55  1  0  0  0  0
 25 56  1  0  0  0  0
 26 27  1  0  0  0  0
 26 57  1  0  0  0  0
 26 58  1  0  0  0  0
 28 29  1  0  0  0  0
 28 59  1  0  0  0  0
 28 60  1  0  0  0  0
 29 61  1  0  0  0  0
 29 62  1  0  0  0  0
M  CHG  1   2   1
M  END
> <s_m_source_file>
AV-unprocessed.smi

> <i_m_source_file_index>
155

> <i_lp_mmshare_version>
43012

> <i_f3d_flags>
0

> <s_epik_input>
W0NIM11OKFtDSDNdKVtDSDJdW0NIMl1OMVtDSDJdW0NIMl1bQ0gyXU4oW0NIMl1bQ0gyXTEpYyhuW2NIXW4yKWMoYzIzKW5bY0hdbjNbQ0gyXVtDQEhdKFtPSF0pW0NAQEhdNFtDSDJdW0NIMl1bQ0gyXU80

> <s_epik_cmdline>
J2VwaWtfcHl0aG9uJywgJy1waCcsICc3LjAnLCAnLXRuJywgJzgnLCAnLW1hJywgJzIwMCcsICctbWV0YWxfYmluZGluZycsICctaW1hZScsICc8aW5maWxlLm1hZT4nLCAnLW9tYWUnLCAnPG91dGZpbGUubWFlPic=

> <r_lp_tautomer_probability>
1

> <r_epik_Ionization_Penalty>
0.0599493

> <r_epik_Ionization_Penalty_Charging>
0.00816363

> <r_epik_Ionization_Penalty_Neutral>
0.0517857

> <r_epik_State_Penalty>
0.460607

> <r_epik_Charging_Adjusted_Penalty>
0.468771

> <i_epik_Tot_Q>
1

> <i_epik_Tot_abs_Q>
1

> <r_epik_Metal_State_Penalty>
0.45965

> <b_epik_Metal_Only>
0

> <s_lp_Force_Field>
OPLS_2005

> <r_lp_Energy>
60.0635

> <b_lp_Chiralities_Consistent>
1

> <s_lp_Variant>
AV-unprocessed.smi:155-12

> <Gold.Version>
5.8.1

> <Gold.Id.Protein>
6NUR|6NUR_protein|mol2

> <Gold.PLP.Fitness>
51.0389

> <Gold.PLP.PLP>
-47.5140

> <Gold.PLP.part.hbond>
-1.0000

> <Gold.PLP.part.metal>
0.0000

> <Gold.PLP.part.buried>
-4.1607

> <Gold.PLP.part.nonpolar>
-44.1111

> <Gold.PLP.part.repulsive>
1.4079

> <Gold.PLP.ligand.clash>
0.0000

> <Gold.PLP.ligand.torsion>
1.1183

> <Gold.PLP.Chemscore.Hbond>
1.0000

> <Gold.PLP.Chemscore.CHOScore>
0.7983

> <Gold.PLP.Chemscore.Metal>
0.0000

> <Gold.Chemscore.Hbonds>
donor molecule, donor type, donor heavy atom, donor atom, acceptor molecule, acceptor atom, score
      L1  H     2    63       P1  7921  1.00
      L1  C    13    46       P1  8028  0.68

> <Gold.PLP.Chemscore.Internal.Correction>
0.3667

> <Gold.Rescore>
     Score         DG    S(hbond)    S(metal)    S(lipo)     H(rot)  DE(clash)    DE(int)     intcor
     13.95     -16.26       0.94        0.00     124.45       2.71       1.17       1.15       ----

> <Gold.Chemscore.Fitness>
13.9463

> <Gold.Chemscore.DG>
-16.2641

> <Gold.Chemscore.ZeroCoef>
-5.4800

> <Gold.Chemscore.Hbond>
0.9449

> <Gold.Chemscore.Metal>
0.0000

> <Gold.Chemscore.Lipo>
124.4505

> <Gold.Chemscore.Internal_Hbond>
0.0000

> <Gold.Chemscore.DEClash>
1.1653

> <Gold.Chemscore.DEInternal>
1.1526

> <Gold.Chemscore.Rot>
2.7080

> <Gold.Chemscore.Internal.Correction>
   9.000000E+99

> <Gold.Chemscore.Hbonds>
donor molecule, donor type, donor heavy atom, donor atom, acceptor molecule, acceptor atom, score
      L1  H     2    63       P1  7921  0.76

> <Gold.Chemscore.Hbond.Weighted>
-3.1560

> <Gold.Chemscore.Metal.Weighted>
-0.0000

> <Gold.Chemscore.Lipo.Weighted>
-14.5607

> <Gold.Chemscore.Internal_Hbond.Weighted>
0.0000

> <Gold.Chemscore.DEClash.Weighted>
1.1653

> <Gold.Chemscore.DEInternal.Weighted>
1.1526

> <Gold.Chemscore.Rot.Weighted>
6.9326

> <Gold.Chemscore.Internal.Correction.Weighted>
   9.000000E+99

> <Gold.Protein.RotatedTorsions>
[ 6907 6896 6895 6894 ] final  103.02 input  -60.11 | X-H torsion
[ 7974 7965 7964 7962 ] final -142.66 input  175.53 | X-H torsion
[ 8008 7997 7996 7995 ] final   31.40 input   59.86 | X-H torsion
[ 10167 10162 10161 10158 ] final   23.82 input  -65.29 | X-H torsion
[ 10718 10713 10712 10709 ] final  111.23 input   66.30 | X-H torsion
[ 10763 10752 10751 10750 ] final   61.47 input  -60.55 | X-H torsion
[ 11005 11000 10999 10996 ] final  -79.01 input  -57.11 | X-H torsion

> <Gold.Protein.ActiveResidues>
 VAL166  LYS551  ARG553  GLY616  TRP617  ASP618  TYR619  PRO620  LYS621  CYS622 
 ASP623  PHE694  ASN695  SER759  ASP760  ASP761  ALA762  ILE779  LEU786  VAL792 
 PHE793  MET794  SER795  GLU796  ALA797  LYS798  CYS799  TRP800  GLU811  SER814 

> <Gold.Protein.RotatedAtoms>
  152.5307  133.9888  159.7840 H   0  0  0  0  0  0  0  0  0  0  0  0  # atno 6907 bound_to 6896
  151.0128  133.5941  159.2687 H   0  0  0  0  0  0  0  0  0  0  0  0  # atno 6908 bound_to 6896
  151.3010  135.0775  159.9292 H   0  0  0  0  0  0  0  0  0  0  0  0  # atno 6909 bound_to 6896
  144.8427  140.5930  143.5442 H   0  0  0  0  0  0  0  0  0  0  0  0  # atno 7974 bound_to 7965
  155.1058  140.3234  155.4535 H   0  0  0  0  0  0  0  0  0  0  0  0  # atno 8008 bound_to 7997
  156.2704  140.2053  156.6131 H   0  0  0  0  0  0  0  0  0  0  0  0  # atno 8009 bound_to 7997
  154.6794  140.0528  157.0237 H   0  0  0  0  0  0  0  0  0  0  0  0  # atno 8010 bound_to 7997
  140.5238  143.9958  150.6430 H   0  0  0  0  0  0  0  0  0  0  0  0  # atno 10167 bound_to 10162
  157.6455  131.0947  150.6719 H   0  0  0  0  0  0  0  0  0  0  0  0  # atno 10718 bound_to 10713
  152.9951  135.5500  154.6038 H   0  0  0  0  0  0  0  0  0  0  0  0  # atno 10763 bound_to 10752
  154.5374  135.2817  155.1128 H   0  0  0  0  0  0  0  0  0  0  0  0  # atno 10764 bound_to 10752
  154.2420  135.6414  153.5263 H   0  0  0  0  0  0  0  0  0  0  0  0  # atno 10765 bound_to 10752
  141.1666  133.7087  156.8058 H   0  0  0  0  0  0  0  0  0  0  0  0  # atno 11005 bound_to 11000
  145.4661  139.1508  143.3839 LP  0  0  0  0  0  0  0  0  0  0  0  0  # atno 17320 bound_to 7965
  146.2717  140.4793  142.8812 LP  0  0  0  0  0  0  0  0  0  0  0  0  # atno 17321 bound_to 7965
  140.3314  143.3075  152.0683 LP  0  0  0  0  0  0  0  0  0  0  0  0  # atno 17342 bound_to 10162
  139.4932  144.6506  151.6683 LP  0  0  0  0  0  0  0  0  0  0  0  0  # atno 17343 bound_to 10162
  156.7036  130.4631  149.5566 LP  0  0  0  0  0  0  0  0  0  0  0  0  # atno 17370 bound_to 10713
  156.1778  130.6479  151.0915 LP  0  0  0  0  0  0  0  0  0  0  0  0  # atno 17371 bound_to 10713
  140.2223  134.8748  157.3390 LP  0  0  0  0  0  0  0  0  0  0  0  0  # atno 17394 bound_to 11000
  140.1975  134.4295  155.7681 LP  0  0  0  0  0  0  0  0  0  0  0  0  # atno 17395 bound_to 11000

$$$$
