AV-unprocessed.smi:452|AV-procd|sdf|2610|dock5
  -GOLD-   2262023 03D 1   1.00000     0.00000
 Structure written by MMmdl.
 43 44  0  0  0  0  0  0  0  0  1 V2000
  144.1034  136.3553  152.9417 C   0  0  0  0  0  0  0  0  0  0  0  0
  145.1086  137.1398  152.0843 C   0  0  0  0  0  0  0  0  0  0  0  0
  145.7654  136.2084  151.0511 C   0  0  0  0  0  0  0  0  0  0  0  0
  146.1428  137.8569  152.9768 C   0  0  0  0  0  0  0  0  0  0  0  0
  146.6364  139.2040  152.4112 C   0  0  0  0  0  0  0  0  0  0  0  0
  147.2801  140.0931  153.4804 C   0  0  0  0  0  0  0  0  0  0  0  0
  146.6592  141.0569  153.9295 O   0  0  0  0  0  0  0  0  0  0  0  0
  148.5245  139.7429  153.8572 N   0  0  0  0  0  0  0  0  0  0  0  0
  149.3613  140.3623  154.8229 C   0  0  0  0  0  0  0  0  0  0  0  0
  148.6817  141.1121  155.8082 C   0  0  0  0  0  0  0  0  0  0  0  0
  149.4198  141.7726  156.8086 C   0  0  0  0  0  0  0  0  0  0  0  0
  150.8236  141.6658  156.8059 C   0  0  0  0  0  0  0  0  0  0  0  0
  151.5753  142.3280  157.7871 N   0  0  0  0  0  0  0  0  0  0  0  0
  151.9810  141.4505  158.8776 C   0  0  0  0  0  0  0  0  0  0  0  0
  152.9041  142.2077  159.8486 C   0  0  0  0  0  0  0  0  0  0  0  0
  152.2494  143.3855  160.3120 O   0  0  0  0  0  0  0  0  0  0  0  0
  151.9250  144.2715  159.2443 C   0  0  0  0  0  0  0  0  0  0  0  0
  150.9720  143.5672  158.2625 C   0  0  0  0  0  0  0  0  0  0  0  0
  151.4202  140.8929  155.7851 C   0  0  0  0  0  0  0  0  0  0  0  0
  150.7135  140.2615  154.8243 N   0  0  0  0  0  0  0  0  0  0  0  0
  144.6012  135.5780  153.5225 H   0  0  0  0  0  0  0  0  0  0  0  0
  143.3468  135.8742  152.3212 H   0  0  0  0  0  0  0  0  0  0  0  0
  143.5834  137.0113  153.6404 H   0  0  0  0  0  0  0  0  0  0  0  0
  144.5454  137.8997  151.5406 H   0  0  0  0  0  0  0  0  0  0  0  0
  146.3782  135.4484  151.5367 H   0  0  0  0  0  0  0  0  0  0  0  0
  146.4004  136.7566  150.3561 H   0  0  0  0  0  0  0  0  0  0  0  0
  145.0115  135.6936  150.4546 H   0  0  0  0  0  0  0  0  0  0  0  0
  145.6921  138.0335  153.9547 H   0  0  0  0  0  0  0  0  0  0  0  0
  146.9927  137.1959  153.1537 H   0  0  0  0  0  0  0  0  0  0  0  0
  147.3557  139.0353  151.6095 H   0  0  0  0  0  0  0  0  0  0  0  0
  145.8015  139.7502  151.9712 H   0  0  0  0  0  0  0  0  0  0  0  0
  148.9126  138.9272  153.4069 H   0  0  0  0  0  0  0  0  0  0  0  0
  147.6039  141.1873  155.7995 H   0  0  0  0  0  0  0  0  0  0  0  0
  148.9123  142.3535  157.5649 H   0  0  0  0  0  0  0  0  0  0  0  0
  151.0989  141.0914  159.4096 H   0  0  0  0  0  0  0  0  0  0  0  0
  152.4961  140.5760  158.4782 H   0  0  0  0  0  0  0  0  0  0  0  0
  153.1494  141.5768  160.7030 H   0  0  0  0  0  0  0  0  0  0  0  0
  153.8463  142.4696  159.3642 H   0  0  0  0  0  0  0  0  0  0  0  0
  151.4520  145.1642  159.6537 H   0  0  0  0  0  0  0  0  0  0  0  0
  152.8354  144.5964  158.7379 H   0  0  0  0  0  0  0  0  0  0  0  0
  150.7556  144.2214  157.4173 H   0  0  0  0  0  0  0  0  0  0  0  0
  150.0245  143.3555  158.7596 H   0  0  0  0  0  0  0  0  0  0  0  0
  152.4931  140.7821  155.7285 H   0  0  0  0  0  0  0  0  0  0  0  0
  1  2  1  0  0  0  0
  1 21  1  0  0  0  0
  1 22  1  0  0  0  0
  1 23  1  0  0  0  0
  2  3  1  0  0  0  0
  2  4  1  0  0  0  0
  2 24  1  0  0  0  0
  3 25  1  0  0  0  0
  3 26  1  0  0  0  0
  3 27  1  0  0  0  0
  4  5  1  0  0  0  0
  4 28  1  0  0  0  0
  4 29  1  0  0  0  0
  5  6  1  0  0  0  0
  5 30  1  0  0  0  0
  5 31  1  0  0  0  0
  6  7  2  0  0  0  0
  6  8  1  0  0  0  0
  8  9  1  0  0  0  0
  8 32  1  0  0  0  0
  9 20  1  0  0  0  0
  9 10  2  0  0  0  0
 10 11  1  0  0  0  0
 10 33  1  0  0  0  0
 11 12  2  0  0  0  0
 11 34  1  0  0  0  0
 12 13  1  0  0  0  0
 12 19  1  0  0  0  0
 13 18  1  0  0  0  0
 13 14  1  0  0  0  0
 14 15  1  0  0  0  0
 14 35  1  0  0  0  0
 14 36  1  0  0  0  0
 15 16  1  0  0  0  0
 15 37  1  0  0  0  0
 15 38  1  0  0  0  0
 16 17  1  0  0  0  0
 17 18  1  0  0  0  0
 17 39  1  0  0  0  0
 17 40  1  0  0  0  0
 18 41  1  0  0  0  0
 18 42  1  0  0  0  0
 19 20  2  0  0  0  0
 19 43  1  0  0  0  0
M  END
> <s_m_source_file>
AV-unprocessed.smi

> <i_m_source_file_index>
452

> <i_lp_mmshare_version>
43012

> <i_f3d_flags>
0

> <s_epik_input>
W0NIM11bQ0hdKFtDSDNdKVtDSDJdW0NIMl1DKD1PKVtOSF1jMVtjSF1bY0hdYyhbY0hdbjEpTjJbQ0gyXVtDSDJdT1tDSDJdW0NIMl0y

> <s_epik_cmdline>
J2VwaWtfcHl0aG9uJywgJy1waCcsICc3LjAnLCAnLXRuJywgJzgnLCAnLW1hJywgJzIwMCcsICctbWV0YWxfYmluZGluZycsICctaW1hZScsICc8aW5maWxlLm1hZT4nLCAnLW9tYWUnLCAnPG91dGZpbGUubWFlPic=

> <r_lp_tautomer_probability>
1

> <r_epik_Ionization_Penalty>
0.0030116

> <r_epik_Ionization_Penalty_Charging>
0

> <r_epik_Ionization_Penalty_Neutral>
0.0030116

> <r_epik_State_Penalty>
0.00263935

> <r_epik_Charging_Adjusted_Penalty>
0.00263935

> <i_epik_Tot_Q>
0

> <i_epik_Tot_abs_Q>
0

> <r_epik_Metal_State_Penalty>
-0

> <b_epik_Metal_Only>
0

> <s_lp_Force_Field>
OPLS_2005

> <r_lp_Energy>
28.4973

> <b_lp_Chiralities_Consistent>
1

> <s_lp_Variant>
AV-unprocessed.smi:452-1

> <Gold.Version>
5.8.1

> <Gold.Id.Protein>
6NUR|6NUR_protein|mol2

> <Gold.PLP.Fitness>
37.3846

> <Gold.PLP.PLP>
-37.6967

> <Gold.PLP.part.hbond>
-2.0000

> <Gold.PLP.part.metal>
0.0000

> <Gold.PLP.part.buried>
-0.9984

> <Gold.PLP.part.nonpolar>
-33.9258

> <Gold.PLP.part.repulsive>
0.3934

> <Gold.PLP.ligand.clash>
0.0000

> <Gold.PLP.ligand.torsion>
1.4844

> <Gold.PLP.Chemscore.Hbond>
0.8500

> <Gold.PLP.Chemscore.CHOScore>
0.0000

> <Gold.PLP.Chemscore.Metal>
0.0000

> <Gold.Chemscore.Hbonds>
donor molecule, donor type, donor heavy atom, donor atom, acceptor molecule, acceptor atom, score
      P1  H  7989  7998       L1    20  0.80

> <Gold.PLP.Chemscore.Internal.Correction>
0.1067

> <Gold.Rescore>
     Score         DG    S(hbond)    S(metal)    S(lipo)     H(rot)  DE(clash)    DE(int)     intcor
     10.75     -13.45       0.15        0.00      95.22       1.43       0.20       2.51       ----

> <Gold.Chemscore.Fitness>
10.7490

> <Gold.Chemscore.DG>
-13.4541

> <Gold.Chemscore.ZeroCoef>
-5.4800

> <Gold.Chemscore.Hbond>
0.1505

> <Gold.Chemscore.Metal>
0.0000

> <Gold.Chemscore.Lipo>
95.2163

> <Gold.Chemscore.Internal_Hbond>
0.0000

> <Gold.Chemscore.DEClash>
0.1960

> <Gold.Chemscore.DEInternal>
2.5090

> <Gold.Chemscore.Rot>
1.4332

> <Gold.Chemscore.Internal.Correction>
   9.000000E+99

> <Gold.Chemscore.Hbonds>
donor molecule, donor type, donor heavy atom, donor atom, acceptor molecule, acceptor atom, score
      P1  H  7989  7998       L1    20  0.11

> <Gold.Chemscore.Hbond.Weighted>
-0.5027

> <Gold.Chemscore.Metal.Weighted>
-0.0000

> <Gold.Chemscore.Lipo.Weighted>
-11.1403

> <Gold.Chemscore.Internal_Hbond.Weighted>
0.0000

> <Gold.Chemscore.DEClash.Weighted>
0.1960

> <Gold.Chemscore.DEInternal.Weighted>
2.5090

> <Gold.Chemscore.Rot.Weighted>
3.6689

> <Gold.Chemscore.Internal.Correction.Weighted>
   9.000000E+99

> <Gold.Protein.RotatedTorsions>
[ 6907 6896 6895 6894 ] final  -45.81 input  -60.11 | X-H torsion
[ 7974 7965 7964 7962 ] final   30.00 input  175.53 | X-H torsion
[ 8008 7997 7996 7995 ] final -142.46 input   59.86 | X-H torsion
[ 10167 10162 10161 10158 ] final   95.21 input  -65.29 | X-H torsion
[ 10718 10713 10712 10709 ] final  -95.85 input   66.30 | X-H torsion
[ 10763 10752 10751 10750 ] final  112.57 input  -60.55 | X-H torsion
[ 11005 11000 10999 10996 ] final -107.69 input  -57.11 | X-H torsion

> <Gold.Protein.ActiveResidues>
 VAL166  LYS551  ARG553  GLY616  TRP617  ASP618  TYR619  PRO620  LYS621  CYS622 
 ASP623  PHE694  ASN695  SER759  ASP760  ASP761  ALA762  ILE779  LEU786  VAL792 
 PHE793  MET794  SER795  GLU796  ALA797  LYS798  CYS799  TRP800  GLU811  SER814 

> <Gold.Protein.RotatedAtoms>
  150.9179  134.8597  159.7469 H   0  0  0  0  0  0  0  0  0  0  0  0  # atno 6907 bound_to 6896
  152.4978  134.4261  159.9507 H   0  0  0  0  0  0  0  0  0  0  0  0  # atno 6908 bound_to 6896
  151.4298  133.3634  159.2802 H   0  0  0  0  0  0  0  0  0  0  0  0  # atno 6909 bound_to 6896
  146.1638  139.6847  142.9015 H   0  0  0  0  0  0  0  0  0  0  0  0  # atno 7974 bound_to 7965
  155.4945  140.0570  157.2948 H   0  0  0  0  0  0  0  0  0  0  0  0  # atno 8008 bound_to 7997
  154.4610  140.1996  156.0195 H   0  0  0  0  0  0  0  0  0  0  0  0  # atno 8009 bound_to 7997
  156.0890  140.3236  155.7795 H   0  0  0  0  0  0  0  0  0  0  0  0  # atno 8010 bound_to 7997
  139.8010  144.6813  150.9765 H   0  0  0  0  0  0  0  0  0  0  0  0  # atno 10167 bound_to 10162
  156.0051  130.5126  150.6138 H   0  0  0  0  0  0  0  0  0  0  0  0  # atno 10718 bound_to 10713
  153.4798  135.3682  155.2436 H   0  0  0  0  0  0  0  0  0  0  0  0  # atno 10763 bound_to 10752
  154.8755  135.3951  154.3713 H   0  0  0  0  0  0  0  0  0  0  0  0  # atno 10764 bound_to 10752
  153.4315  135.7082  153.6293 H   0  0  0  0  0  0  0  0  0  0  0  0  # atno 10765 bound_to 10752
  141.0941  133.9003  157.2006 H   0  0  0  0  0  0  0  0  0  0  0  0  # atno 11005 bound_to 11000
  145.4520  141.0429  143.2799 LP  0  0  0  0  0  0  0  0  0  0  0  0  # atno 17320 bound_to 7965
  144.8064  139.6044  143.7049 LP  0  0  0  0  0  0  0  0  0  0  0  0  # atno 17321 bound_to 7965
  140.7820  143.4281  151.0736 LP  0  0  0  0  0  0  0  0  0  0  0  0  # atno 17342 bound_to 10162
  139.7953  143.8160  152.3157 LP  0  0  0  0  0  0  0  0  0  0  0  0  # atno 17343 bound_to 10162
  157.3966  131.0803  151.1346 LP  0  0  0  0  0  0  0  0  0  0  0  0  # atno 17370 bound_to 10713
  157.2021  130.6399  149.5742 LP  0  0  0  0  0  0  0  0  0  0  0  0  # atno 17371 bound_to 10713
  139.9773  135.0109  156.9663 LP  0  0  0  0  0  0  0  0  0  0  0  0  # atno 17394 bound_to 11000
  140.5182  134.0933  155.7286 LP  0  0  0  0  0  0  0  0  0  0  0  0  # atno 17395 bound_to 11000

$$$$
