AV-unprocessed.smi:1501|AV-procd|sdf|6066|dock7
  -GOLD-   22720 6183D 1   1.00000     0.00000
 Structure written by MMmdl.
 48 49  0  0  0  0  0  0  0  0  2 V2000
  148.4170  140.5187  155.5755 C   0  0  0  0  0  0  0  0  0  0  0  0
  149.8566  140.6793  156.0308 C   0  0  0  0  0  0  0  0  0  0  0  0
  150.0611  141.5351  157.1228 N   0  0  0  0  0  0  0  0  0  0  0  0
  151.2604  141.7382  157.5788 C   0  0  0  0  0  0  0  0  0  0  0  0
  151.5049  142.5833  158.6647 N   0  0  0  0  0  0  0  0  0  0  0  0
  152.8458  142.6985  159.2431 C   0  0  0  0  0  0  0  0  0  0  0  0
  152.7882  143.2063  160.6935 C   0  0  0  0  0  0  0  0  0  0  0  0
  152.0846  144.4402  160.7433 O   0  0  0  0  0  0  0  0  0  0  0  0
  150.7442  144.2876  160.2969 C   0  0  0  0  0  0  0  0  0  0  0  0
  150.7351  143.8163  158.8332 C   0  0  0  0  0  0  0  0  0  0  0  0
  152.3771  141.1265  157.0307 N   0  5  0  0  0  0  0  0  0  0  0  0
  152.2526  140.2762  155.9722 C   0  0  0  0  0  0  0  0  0  0  0  0
  153.2241  139.7111  155.4712 O   0  0  0  0  0  0  0  0  0  0  0  0
  150.9014  140.0390  155.4349 C   0  0  0  0  0  0  0  0  0  0  0  0
  150.7377  139.1111  154.2332 C   0  0  0  0  0  0  0  0  0  0  0  0
  151.5552  137.8143  154.3877 C   0  0  0  0  0  0  0  0  0  0  0  0
  150.8284  136.7331  155.1934 C   0  0  0  0  0  0  0  0  0  0  0  0
  150.7886  136.7844  156.4233 O   0  0  0  0  0  0  0  0  0  0  0  0
  150.2627  135.7460  154.4824 N   0  0  0  0  0  0  0  0  0  0  0  0
  149.5386  134.6130  155.0501 C   0  0  0  0  0  0  0  0  0  0  0  0
  150.1080  133.2533  154.5922 C   0  0  0  0  0  0  0  0  0  0  0  0
  151.5937  133.1342  154.9618 C   0  0  0  0  0  0  0  0  0  0  0  0
  149.9003  133.0108  153.0873 C   0  0  0  0  0  0  0  0  0  0  0  0
  148.1478  139.4641  155.5145 H   0  0  0  0  0  0  0  0  0  0  0  0
  148.2766  140.9717  154.5940 H   0  0  0  0  0  0  0  0  0  0  0  0
  147.7275  141.0000  156.2702 H   0  0  0  0  0  0  0  0  0  0  0  0
  153.3746  141.7453  159.2247 H   0  0  0  0  0  0  0  0  0  0  0  0
  153.4277  143.3892  158.6320 H   0  0  0  0  0  0  0  0  0  0  0  0
  152.3079  142.4725  161.3425 H   0  0  0  0  0  0  0  0  0  0  0  0
  153.7971  143.3585  161.0772 H   0  0  0  0  0  0  0  0  0  0  0  0
  150.2129  143.5802  160.9359 H   0  0  0  0  0  0  0  0  0  0  0  0
  150.2294  145.2442  160.3854 H   0  0  0  0  0  0  0  0  0  0  0  0
  151.1581  144.5879  158.1890 H   0  0  0  0  0  0  0  0  0  0  0  0
  149.7023  143.6660  158.5158 H   0  0  0  0  0  0  0  0  0  0  0  0
  149.6823  138.8747  154.0988 H   0  0  0  0  0  0  0  0  0  0  0  0
  151.0284  139.6348  153.3209 H   0  0  0  0  0  0  0  0  0  0  0  0
  151.8036  137.4194  153.4013 H   0  0  0  0  0  0  0  0  0  0  0  0
  152.5016  138.0287  154.8848 H   0  0  0  0  0  0  0  0  0  0  0  0
  150.3416  135.7816  153.4763 H   0  0  0  0  0  0  0  0  0  0  0  0
  149.5897  134.6900  156.1366 H   0  0  0  0  0  0  0  0  0  0  0  0
  148.4814  134.6892  154.7897 H   0  0  0  0  0  0  0  0  0  0  0  0
  149.5798  132.4643  155.1294 H   0  0  0  0  0  0  0  0  0  0  0  0
  152.1902  133.8975  154.4607 H   0  0  0  0  0  0  0  0  0  0  0  0
  151.9930  132.1598  154.6788 H   0  0  0  0  0  0  0  0  0  0  0  0
  151.7415  133.2488  156.0360 H   0  0  0  0  0  0  0  0  0  0  0  0
  150.3895  133.7820  152.4915 H   0  0  0  0  0  0  0  0  0  0  0  0
  148.8422  133.0068  152.8243 H   0  0  0  0  0  0  0  0  0  0  0  0
  150.3114  132.0471  152.7852 H   0  0  0  0  0  0  0  0  0  0  0  0
  1  2  1  0  0  0  0
  1 24  1  0  0  0  0
  1 25  1  0  0  0  0
  1 26  1  0  0  0  0
  2 14  2  0  0  0  0
  2  3  1  0  0  0  0
  3  4  2  0  0  0  0
  4  5  1  0  0  0  0
  4 11  1  0  0  0  0
  5 10  1  0  0  0  0
  5  6  1  0  0  0  0
  6  7  1  0  0  0  0
  6 27  1  0  0  0  0
  6 28  1  0  0  0  0
  7  8  1  0  0  0  0
  7 29  1  0  0  0  0
  7 30  1  0  0  0  0
  8  9  1  0  0  0  0
  9 10  1  0  0  0  0
  9 31  1  0  0  0  0
  9 32  1  0  0  0  0
 10 33  1  0  0  0  0
 10 34  1  0  0  0  0
 11 12  1  0  0  0  0
 12 13  2  0  0  0  0
 12 14  1  0  0  0  0
 14 15  1  0  0  0  0
 15 16  1  0  0  0  0
 15 35  1  0  0  0  0
 15 36  1  0  0  0  0
 16 17  1  0  0  0  0
 16 37  1  0  0  0  0
 16 38  1  0  0  0  0
 17 18  2  0  0  0  0
 17 19  1  0  0  0  0
 19 20  1  0  0  0  0
 19 39  1  0  0  0  0
 20 21  1  0  0  0  0
 20 40  1  0  0  0  0
 20 41  1  0  0  0  0
 21 22  1  0  0  0  0
 21 23  1  0  0  0  0
 21 42  1  0  0  0  0
 22 43  1  0  0  0  0
 22 44  1  0  0  0  0
 22 45  1  0  0  0  0
 23 46  1  0  0  0  0
 23 47  1  0  0  0  0
 23 48  1  0  0  0  0
M  CHG  1  11  -1
M  END
> <s_m_source_file>
AV-unprocessed.smi

> <i_m_source_file_index>
1501

> <i_lp_mmshare_version>
43012

> <i_f3d_flags>
0

> <s_epik_input>
W0NIMl0xW0NIMl1PW0NIMl1bQ0gyXU4xYyhuYzJbQ0gzXSlbbkhdYyg9TyljMltDSDJdW0NIMl1DKD1PKVtOSF1bQ0gyXVtDSF0oW0NIM10pW0NIM10=

> <s_epik_cmdline>
J2VwaWtfcHl0aG9uJywgJy1waCcsICc3LjAnLCAnLXRuJywgJzgnLCAnLW1hJywgJzIwMCcsICctbWV0YWxfYmluZGluZycsICctaW1hZScsICc8aW5maWxlLm1hZT4nLCAnLW9tYWUnLCAnPG91dGZpbGUubWFlPic=

> <r_lp_tautomer_probability>
1

> <r_epik_Ionization_Penalty>
5.04715

> <r_epik_Ionization_Penalty_Charging>
9.89309e-08

> <r_epik_Ionization_Penalty_Neutral>
5.04715

> <r_epik_State_Penalty>
2.57778

> <r_epik_Charging_Adjusted_Penalty>
2.57778

> <i_epik_Tot_Q>
-1

> <i_epik_Tot_abs_Q>
1

> <r_epik_Metal_State_Penalty>
0.1232

> <b_epik_Metal_Only>
0

> <s_lp_Force_Field>
OPLS_2005

> <r_lp_Energy>
25.0321

> <b_lp_Chiralities_Consistent>
1

> <s_lp_Variant>
AV-unprocessed.smi:1501-3

> <Gold.Version>
5.8.1

> <Gold.Id.Protein>
6NUR|6NUR_protein|mol2

> <Gold.PLP.Fitness>
46.7213

> <Gold.PLP.PLP>
-42.6612

> <Gold.PLP.part.hbond>
-2.6235

> <Gold.PLP.part.metal>
0.0000

> <Gold.PLP.part.buried>
-2.4555

> <Gold.PLP.part.nonpolar>
-37.0463

> <Gold.PLP.part.repulsive>
0.2452

> <Gold.PLP.ligand.clash>
0.0345

> <Gold.PLP.ligand.torsion>
0.8821

> <Gold.PLP.Chemscore.Hbond>
1.8480

> <Gold.PLP.Chemscore.CHOScore>
0.0000

> <Gold.PLP.Chemscore.Metal>
0.0000

> <Gold.Chemscore.Hbonds>
donor molecule, donor type, donor heavy atom, donor atom, acceptor molecule, acceptor atom, score
      L1  H    19    39       P1  7948  0.03
      P1  H  7997  8010       L1    13  0.60

> <Gold.PLP.Chemscore.Internal.Correction>
0.3148

> <Gold.Rescore>
     Score         DG    S(hbond)    S(metal)    S(lipo)     H(rot)  DE(clash)    DE(int)     intcor
     14.11     -16.24       1.52        0.00      87.56       1.79       0.10       2.03       ----

> <Gold.Chemscore.Fitness>
14.1090

> <Gold.Chemscore.DG>
-16.2354

> <Gold.Chemscore.ZeroCoef>
-5.4800

> <Gold.Chemscore.Hbond>
1.5231

> <Gold.Chemscore.Metal>
0.0000

> <Gold.Chemscore.Lipo>
87.5564

> <Gold.Chemscore.Internal_Hbond>
0.0000

> <Gold.Chemscore.DEClash>
0.0971

> <Gold.Chemscore.DEInternal>
2.0292

> <Gold.Chemscore.Rot>
1.7875

> <Gold.Chemscore.Internal.Correction>
   9.000000E+99

> <Gold.Chemscore.Hbonds>
donor molecule, donor type, donor heavy atom, donor atom, acceptor molecule, acceptor atom, score
      P1  H  7997  8010       L1    13  0.50

> <Gold.Chemscore.Hbond.Weighted>
-5.0873

> <Gold.Chemscore.Metal.Weighted>
-0.0000

> <Gold.Chemscore.Lipo.Weighted>
-10.2441

> <Gold.Chemscore.Internal_Hbond.Weighted>
0.0000

> <Gold.Chemscore.DEClash.Weighted>
0.0971

> <Gold.Chemscore.DEInternal.Weighted>
2.0292

> <Gold.Chemscore.Rot.Weighted>
4.5760

> <Gold.Chemscore.Internal.Correction.Weighted>
   9.000000E+99

> <Gold.Protein.RotatedTorsions>
[ 6907 6896 6895 6894 ] final  -58.54 input  -60.11 | X-H torsion
[ 7974 7965 7964 7962 ] final   -2.55 input  175.53 | X-H torsion
[ 8008 7997 7996 7995 ] final   99.36 input   59.86 | X-H torsion
[ 10167 10162 10161 10158 ] final  122.92 input  -65.29 | X-H torsion
[ 10718 10713 10712 10709 ] final  172.13 input   66.30 | X-H torsion
[ 10763 10752 10751 10750 ] final -134.96 input  -60.55 | X-H torsion
[ 11005 11000 10999 10996 ] final  -15.06 input  -57.11 | X-H torsion

> <Gold.Protein.ActiveResidues>
 VAL166  LYS551  ARG553  GLY616  TRP617  ASP618  TYR619  PRO620  LYS621  CYS622 
 ASP623  PHE694  ASN695  SER759  ASP760  ASP761  ALA762  ILE779  LEU786  VAL792 
 PHE793  MET794  SER795  GLU796  ALA797  LYS798  CYS799  TRP800  GLU811  SER814 

> <Gold.Protein.RotatedAtoms>
  150.7999  134.7085  159.6589 H   0  0  0  0  0  0  0  0  0  0  0  0  # atno 6907 bound_to 6896
  152.4115  134.6113  160.0036 H   0  0  0  0  0  0  0  0  0  0  0  0  # atno 6908 bound_to 6896
  151.6355  133.3292  159.3154 H   0  0  0  0  0  0  0  0  0  0  0  0  # atno 6909 bound_to 6896
  146.2403  140.1588  142.8333 H   0  0  0  0  0  0  0  0  0  0  0  0  # atno 7974 bound_to 7965
  156.1097  140.3230  155.8055 H   0  0  0  0  0  0  0  0  0  0  0  0  # atno 8008 bound_to 7997
  155.4695  140.0545  157.2998 H   0  0  0  0  0  0  0  0  0  0  0  0  # atno 8009 bound_to 7997
  154.4751  140.2029  155.9912 H   0  0  0  0  0  0  0  0  0  0  0  0  # atno 8010 bound_to 7997
  139.5830  144.6994  151.3480 H   0  0  0  0  0  0  0  0  0  0  0  0  # atno 10167 bound_to 10162
  156.9834  131.0126  151.2875 H   0  0  0  0  0  0  0  0  0  0  0  0  # atno 10718 bound_to 10713
  154.8711  135.3718  154.4821 H   0  0  0  0  0  0  0  0  0  0  0  0  # atno 10763 bound_to 10752
  153.5474  135.7025  153.5612 H   0  0  0  0  0  0  0  0  0  0  0  0  # atno 10764 bound_to 10752
  153.3747  135.4012  155.1778 H   0  0  0  0  0  0  0  0  0  0  0  0  # atno 10765 bound_to 10752
  140.7928  133.8274  155.9396 H   0  0  0  0  0  0  0  0  0  0  0  0  # atno 11005 bound_to 11000
  145.0106  140.8711  143.5226 LP  0  0  0  0  0  0  0  0  0  0  0  0  # atno 17320 bound_to 7965
  145.1621  139.2452  143.5386 LP  0  0  0  0  0  0  0  0  0  0  0  0  # atno 17321 bound_to 7965
  140.7106  143.7401  150.7559 LP  0  0  0  0  0  0  0  0  0  0  0  0  # atno 17342 bound_to 10162
  140.0938  143.4852  152.2463 LP  0  0  0  0  0  0  0  0  0  0  0  0  # atno 17343 bound_to 10162
  157.5510  130.8182  149.8145 LP  0  0  0  0  0  0  0  0  0  0  0  0  # atno 17370 bound_to 10713
  156.0235  130.3787  150.1891 LP  0  0  0  0  0  0  0  0  0  0  0  0  # atno 17371 bound_to 10713
  140.9372  134.1947  157.4823 LP  0  0  0  0  0  0  0  0  0  0  0  0  # atno 17394 bound_to 11000
  139.8729  134.9857  156.5293 LP  0  0  0  0  0  0  0  0  0  0  0  0  # atno 17395 bound_to 11000

$$$$
