AV-unprocessed.smi:2997|AV-procd|sdf|11413|dock7
  -GOLD-   2272016333D 1   1.00000     0.00000
 Structure written by MMmdl.
 38 40  0  0  0  0  0  0  0  0  1 V2000
  150.8573  145.5534  159.9053 C   0  0  0  0  0  0  0  0  0  0  0  0
  151.7256  144.3393  160.1845 C   0  0  0  0  0  0  0  0  0  0  0  0
  152.1951  144.1182  161.4989 C   0  0  0  0  0  0  0  0  0  0  0  0
  153.0042  143.0009  161.8004 C   0  0  0  0  0  0  0  0  0  0  0  0
  153.5645  142.5944  162.9994 N   0  0  0  0  0  0  0  0  0  0  0  0
  154.2037  141.4869  162.6339 C   0  0  0  0  0  0  0  0  0  0  0  0
  154.1237  141.1274  161.3382 N   0  0  0  0  0  0  0  0  0  0  0  0
  154.7323  139.9695  160.7082 C   0  0  0  0  0  0  0  0  0  0  0  0
  154.2439  138.6422  161.3183 C   0  0  1  0  0  0  0  0  0  0  0  0
  154.4982  137.5804  160.4165 O   0  0  0  0  0  0  0  0  0  0  0  0
  154.9176  138.3504  162.6731 C   0  0  0  0  0  0  0  0  0  0  0  0
  154.6735  136.9980  163.1427 N   0  0  0  0  0  0  0  0  0  0  0  0
  154.0404  136.5926  164.2989 C   0  0  0  0  0  0  0  0  0  0  0  0
  154.0452  135.2272  164.3075 C   0  0  0  0  0  0  0  0  0  0  0  0
  154.7110  134.8842  163.0975 C   0  0  0  0  0  0  0  0  0  0  0  0
  155.0823  135.9461  162.4005 N   0  0  0  0  0  0  0  0  0  0  0  0
  153.3342  142.1044  160.7423 C   0  0  0  0  0  0  0  0  0  0  0  0
  152.8742  142.3140  159.4304 C   0  0  0  0  0  0  0  0  0  0  0  0
  152.0664  143.4352  159.1464 C   0  0  0  0  0  0  0  0  0  0  0  0
  151.5745  143.6539  157.7266 C   0  0  0  0  0  0  0  0  0  0  0  0
  150.6654  146.1234  160.8149 H   0  0  0  0  0  0  0  0  0  0  0  0
  149.8951  145.2493  159.4930 H   0  0  0  0  0  0  0  0  0  0  0  0
  151.3468  146.2165  159.1917 H   0  0  0  0  0  0  0  0  0  0  0  0
  151.9369  144.8072  162.2897 H   0  0  0  0  0  0  0  0  0  0  0  0
  154.7653  140.9033  163.3488 H   0  0  0  0  0  0  0  0  0  0  0  0
  154.5211  140.0008  159.6381 H   0  0  0  0  0  0  0  0  0  0  0  0
  155.8144  140.0564  160.8141 H   0  0  0  0  0  0  0  0  0  0  0  0
  153.1643  138.6982  161.4650 H   0  0  0  0  0  0  0  0  0  0  0  0
  154.7773  137.9460  159.5912 H   0  0  0  0  0  0  0  0  0  0  0  0
  155.9954  138.5036  162.6027 H   0  0  0  0  0  0  0  0  0  0  0  0
  154.5537  139.0451  163.4315 H   0  0  0  0  0  0  0  0  0  0  0  0
  153.6450  137.3012  165.0116 H   0  0  0  0  0  0  0  0  0  0  0  0
  153.6358  134.5731  165.0629 H   0  0  0  0  0  0  0  0  0  0  0  0
  154.9324  133.9018  162.7071 H   0  0  0  0  0  0  0  0  0  0  0  0
  153.1425  141.6173  158.6499 H   0  0  0  0  0  0  0  0  0  0  0  0
  151.9398  142.8765  157.0549 H   0  0  0  0  0  0  0  0  0  0  0  0
  151.9209  144.6146  157.3454 H   0  0  0  0  0  0  0  0  0  0  0  0
  150.4850  143.6399  157.6935 H   0  0  0  0  0  0  0  0  0  0  0  0
  1  2  1  0  0  0  0
  1 21  1  0  0  0  0
  1 22  1  0  0  0  0
  1 23  1  0  0  0  0
  2 19  1  0  0  0  0
  2  3  2  0  0  0  0
  3  4  1  0  0  0  0
  3 24  1  0  0  0  0
  4 17  2  0  0  0  0
  4  5  1  0  0  0  0
  5  6  2  0  0  0  0
  6  7  1  0  0  0  0
  6 25  1  0  0  0  0
  7  8  1  0  0  0  0
  7 17  1  0  0  0  0
  8  9  1  0  0  0  0
  8 26  1  0  0  0  0
  8 27  1  0  0  0  0
  9 10  1  0  0  0  0
  9 11  1  0  0  0  0
  9 28  1  0  0  0  0
 10 29  1  0  0  0  0
 11 12  1  0  0  0  0
 11 30  1  0  0  0  0
 11 31  1  0  0  0  0
 12 16  1  0  0  0  0
 12 13  1  0  0  0  0
 13 14  2  0  0  0  0
 13 32  1  0  0  0  0
 14 15  1  0  0  0  0
 14 33  1  0  0  0  0
 15 16  2  0  0  0  0
 15 34  1  0  0  0  0
 17 18  1  0  0  0  0
 18 19  2  0  0  0  0
 18 35  1  0  0  0  0
 19 20  1  0  0  0  0
 20 36  1  0  0  0  0
 20 37  1  0  0  0  0
 20 38  1  0  0  0  0
M  END
> <s_m_source_file>
AV-unprocessed.smi

> <i_m_source_file_index>
2997

> <i_lp_mmshare_version>
43012

> <i_f3d_flags>
0

> <s_epik_input>
W0NIM11jKFtjSF0xKWMoW0NIM10pW2NIXWMoYzEyKW4oW2NIXW4yKVtDSDJdW0NASF0oW09IXSlbQ0gyXW4zW2NIXVtjSF1bY0hdbjM=

> <s_epik_cmdline>
J2VwaWtfcHl0aG9uJywgJy1waCcsICc3LjAnLCAnLXRuJywgJzgnLCAnLW1hJywgJzIwMCcsICctbWV0YWxfYmluZGluZycsICctaW1hZScsICc8aW5maWxlLm1hZT4nLCAnLW9tYWUnLCAnPG91dGZpbGUubWFlPic=

> <r_lp_tautomer_probability>
1

> <r_epik_Ionization_Penalty>
0.102113

> <r_epik_Ionization_Penalty_Charging>
0

> <r_epik_Ionization_Penalty_Neutral>
0.102113

> <r_epik_State_Penalty>
0.0920694

> <r_epik_Charging_Adjusted_Penalty>
0.0920694

> <i_epik_Tot_Q>
0

> <i_epik_Tot_abs_Q>
0

> <r_epik_Metal_State_Penalty>
0.0784306

> <b_epik_Metal_Only>
0

> <s_lp_Force_Field>
OPLS_2005

> <r_lp_Energy>
7.68531

> <b_lp_Chiralities_Consistent>
1

> <s_lp_Variant>
AV-unprocessed.smi:2997-2

> <Gold.Version>
5.8.1

> <Gold.Id.Protein>
6NUR|6NUR_protein|mol2

> <Gold.PLP.Fitness>
51.4646

> <Gold.PLP.PLP>
-51.9152

> <Gold.PLP.part.hbond>
0.0000

> <Gold.PLP.part.metal>
0.0000

> <Gold.PLP.part.buried>
-3.3009

> <Gold.PLP.part.nonpolar>
-48.0150

> <Gold.PLP.part.repulsive>
0.0640

> <Gold.PLP.ligand.clash>
0.0000

> <Gold.PLP.ligand.torsion>
0.2341

> <Gold.PLP.Chemscore.Hbond>
0.0000

> <Gold.PLP.Chemscore.CHOScore>
0.0000

> <Gold.PLP.Chemscore.Metal>
0.0000

> <Gold.PLP.Chemscore.Internal.Correction>
0.0175

> <Gold.Rescore>
     Score         DG    S(hbond)    S(metal)    S(lipo)     H(rot)  DE(clash)    DE(int)     intcor
     14.20     -16.10       0.00        0.00     137.86       2.15       0.12       1.78       ----

> <Gold.Chemscore.Fitness>
14.1965

> <Gold.Chemscore.DG>
-16.0970

> <Gold.Chemscore.ZeroCoef>
-5.4800

> <Gold.Chemscore.Hbond>
0.0000

> <Gold.Chemscore.Metal>
0.0000

> <Gold.Chemscore.Lipo>
137.8607

> <Gold.Chemscore.Internal_Hbond>
0.0000

> <Gold.Chemscore.DEClash>
0.1162

> <Gold.Chemscore.DEInternal>
1.7842

> <Gold.Chemscore.Rot>
2.1534

> <Gold.Chemscore.Internal.Correction>
   9.000000E+99

> <Gold.Chemscore.Hbond.Weighted>
-0.0000

> <Gold.Chemscore.Metal.Weighted>
-0.0000

> <Gold.Chemscore.Lipo.Weighted>
-16.1297

> <Gold.Chemscore.Internal_Hbond.Weighted>
0.0000

> <Gold.Chemscore.DEClash.Weighted>
0.1162

> <Gold.Chemscore.DEInternal.Weighted>
1.7842

> <Gold.Chemscore.Rot.Weighted>
5.5127

> <Gold.Chemscore.Internal.Correction.Weighted>
   9.000000E+99

> <Gold.Protein.RotatedTorsions>
[ 6907 6896 6895 6894 ] final  -51.97 input  -60.11 | X-H torsion
[ 7974 7965 7964 7962 ] final  -75.45 input  175.53 | X-H torsion
[ 8008 7997 7996 7995 ] final   58.46 input   59.86 | X-H torsion
[ 10167 10162 10161 10158 ] final   16.37 input  -65.29 | X-H torsion
[ 10718 10713 10712 10709 ] final  -69.97 input   66.30 | X-H torsion
[ 10763 10752 10751 10750 ] final -125.56 input  -60.55 | X-H torsion
[ 11005 11000 10999 10996 ] final -169.43 input  -57.11 | X-H torsion

> <Gold.Protein.ActiveResidues>
 VAL166  LYS551  ARG553  GLY616  TRP617  ASP618  TYR619  PRO620  LYS621  CYS622 
 ASP623  PHE694  ASN695  SER759  ASP760  ASP761  ALA762  ILE779  LEU786  VAL792 
 PHE793  MET794  SER795  GLU796  ALA797  LYS798  CYS799  TRP800  GLU811  SER814 

> <Gold.Protein.RotatedAtoms>
  150.8561  134.7900  159.7046 H   0  0  0  0  0  0  0  0  0  0  0  0  # atno 6907 bound_to 6896
  152.4612  134.5176  159.9783 H   0  0  0  0  0  0  0  0  0  0  0  0  # atno 6908 bound_to 6896
  151.5288  133.3414  159.2950 H   0  0  0  0  0  0  0  0  0  0  0  0  # atno 6909 bound_to 6896
  145.6258  140.9351  143.1113 H   0  0  0  0  0  0  0  0  0  0  0  0  # atno 7974 bound_to 7965
  155.5503  140.3486  155.4467 H   0  0  0  0  0  0  0  0  0  0  0  0  # atno 8008 bound_to 7997
  156.0588  140.1335  156.9991 H   0  0  0  0  0  0  0  0  0  0  0  0  # atno 8009 bound_to 7997
  154.4469  140.0989  156.6470 H   0  0  0  0  0  0  0  0  0  0  0  0  # atno 8010 bound_to 7997
  140.5802  143.8995  150.6783 H   0  0  0  0  0  0  0  0  0  0  0  0  # atno 10167 bound_to 10162
  156.0430  130.4322  150.2226 H   0  0  0  0  0  0  0  0  0  0  0  0  # atno 10718 bound_to 10713
  154.8737  135.4025  154.3289 H   0  0  0  0  0  0  0  0  0  0  0  0  # atno 10763 bound_to 10752
  153.4105  135.7020  153.6368 H   0  0  0  0  0  0  0  0  0  0  0  0  # atno 10764 bound_to 10752
  153.5072  135.3715  155.2539 H   0  0  0  0  0  0  0  0  0  0  0  0  # atno 10765 bound_to 10752
  140.5309  134.5617  157.5074 H   0  0  0  0  0  0  0  0  0  0  0  0  # atno 11005 bound_to 11000
  144.7213  139.8022  143.7381 LP  0  0  0  0  0  0  0  0  0  0  0  0  # atno 17320 bound_to 7965
  146.1395  139.4449  143.0118 LP  0  0  0  0  0  0  0  0  0  0  0  0  # atno 17321 bound_to 7965
  140.2493  143.3605  152.1420 LP  0  0  0  0  0  0  0  0  0  0  0  0  # atno 17342 bound_to 10162
  139.5165  144.6979  151.5579 LP  0  0  0  0  0  0  0  0  0  0  0  0  # atno 17343 bound_to 10162
  157.0319  131.0010  151.3309 LP  0  0  0  0  0  0  0  0  0  0  0  0  # atno 17370 bound_to 10713
  157.5271  130.8035  149.7874 LP  0  0  0  0  0  0  0  0  0  0  0  0  # atno 17371 bound_to 10713
  139.9555  134.7543  156.0352 LP  0  0  0  0  0  0  0  0  0  0  0  0  # atno 17394 bound_to 11000
  141.1282  133.6593  156.3393 LP  0  0  0  0  0  0  0  0  0  0  0  0  # atno 17395 bound_to 11000

$$$$
