AV-unprocessed.smi:2808|AV-procd|sdf|10824|dock2
  -GOLD-   2272015263D 1   1.00000     0.00000
 Structure written by MMmdl.
 43 44  0  0  0  0  0  0  0  0  1 V2000
  144.1509  145.2359  153.8480 C   0  0  0  0  0  0  0  0  0  0  0  0
  144.9853  144.0785  154.3649 C   0  0  0  0  0  0  0  0  0  0  0  0
  145.8905  143.3822  153.4744 C   0  0  0  0  0  0  0  0  0  0  0  0
  146.6208  142.3613  153.9473 C   0  0  0  0  0  0  0  0  0  0  0  0
  146.5352  141.9435  155.2870 N   0  0  0  0  0  0  0  0  0  0  0  0
  147.3793  140.8070  155.6926 C   0  0  0  0  0  0  0  0  0  0  0  0
  148.8803  141.1218  155.6306 C   0  0  0  0  0  0  0  0  0  0  0  0
  149.4010  141.4857  154.5760 O   0  0  0  0  0  0  0  0  0  0  0  0
  149.5570  140.9877  156.7833 N   0  0  0  0  0  0  0  0  0  0  0  0
  150.9890  141.2159  157.0029 C   0  0  0  0  0  0  0  0  0  0  0  0
  151.7846  140.5168  155.9741 C   0  0  0  0  0  0  0  0  0  0  0  0
  152.4082  139.9681  155.1685 N   0  0  0  0  0  0  0  0  0  0  0  0
  151.2479  142.7324  156.8264 C   0  0  0  0  0  0  0  0  0  0  0  0
  150.9466  143.6178  158.0488 C   0  0  0  0  0  0  0  0  0  0  0  0
  152.1591  143.7594  158.9868 C   0  0  0  0  0  0  0  0  0  0  0  0
  152.4929  142.5051  159.8099 C   0  0  0  0  0  0  0  0  0  0  0  0
  152.6959  141.2222  158.9844 C   0  0  0  0  0  0  0  0  0  0  0  0
  151.3758  140.6836  158.4083 C   0  0  0  0  0  0  0  0  0  0  0  0
  145.7004  142.5515  156.1829 C   0  0  0  0  0  0  0  0  0  0  0  0
  145.6277  142.1779  157.3554 O   0  0  0  0  0  0  0  0  0  0  0  0
  144.9041  143.6703  155.6540 C   0  0  0  0  0  0  0  0  0  0  0  0
  144.0323  144.3045  156.5897 C   0  0  0  0  0  0  0  0  0  0  0  0
  143.3407  144.8343  157.3519 N   0  0  0  0  0  0  0  0  0  0  0  0
  144.3534  145.4290  152.7943 H   0  0  0  0  0  0  0  0  0  0  0  0
  144.3728  146.1454  154.4069 H   0  0  0  0  0  0  0  0  0  0  0  0
  143.0879  145.0165  153.9534 H   0  0  0  0  0  0  0  0  0  0  0  0
  145.9773  143.6749  152.4383 H   0  0  0  0  0  0  0  0  0  0  0  0
  147.3068  141.7981  153.3312 H   0  0  0  0  0  0  0  0  0  0  0  0
  147.1417  140.4937  156.7100 H   0  0  0  0  0  0  0  0  0  0  0  0
  147.1591  139.9391  155.0677 H   0  0  0  0  0  0  0  0  0  0  0  0
  149.0308  140.6890  157.5914 H   0  0  0  0  0  0  0  0  0  0  0  0
  152.2839  142.8960  156.5256 H   0  0  0  0  0  0  0  0  0  0  0  0
  150.6623  143.0922  155.9786 H   0  0  0  0  0  0  0  0  0  0  0  0
  150.6932  144.6149  157.6873 H   0  0  0  0  0  0  0  0  0  0  0  0
  150.0666  143.2653  158.5879 H   0  0  0  0  0  0  0  0  0  0  0  0
  153.0348  144.0599  158.4102 H   0  0  0  0  0  0  0  0  0  0  0  0
  151.9701  144.5805  159.6792 H   0  0  0  0  0  0  0  0  0  0  0  0
  153.4023  142.7025  160.3783 H   0  0  0  0  0  0  0  0  0  0  0  0
  151.7133  142.3402  160.5546 H   0  0  0  0  0  0  0  0  0  0  0  0
  153.4402  141.3672  158.2007 H   0  0  0  0  0  0  0  0  0  0  0  0
  153.1088  140.4636  159.6503 H   0  0  0  0  0  0  0  0  0  0  0  0
  150.5719  140.8709  159.1221 H   0  0  0  0  0  0  0  0  0  0  0  0
  151.4514  139.5968  158.3541 H   0  0  0  0  0  0  0  0  0  0  0  0
  1  2  1  0  0  0  0
  1 24  1  0  0  0  0
  1 25  1  0  0  0  0
  1 26  1  0  0  0  0
  2 21  2  0  0  0  0
  2  3  1  0  0  0  0
  3  4  2  0  0  0  0
  3 27  1  0  0  0  0
  4  5  1  0  0  0  0
  4 28  1  0  0  0  0
  5  6  1  0  0  0  0
  5 19  1  0  0  0  0
  6  7  1  0  0  0  0
  6 29  1  0  0  0  0
  6 30  1  0  0  0  0
  7  8  2  0  0  0  0
  7  9  1  0  0  0  0
  9 10  1  0  0  0  0
  9 31  1  0  0  0  0
 10 18  1  0  0  0  0
 10 11  1  0  0  0  0
 10 13  1  0  0  0  0
 11 12  3  0  0  0  0
 13 14  1  0  0  0  0
 13 32  1  0  0  0  0
 13 33  1  0  0  0  0
 14 15  1  0  0  0  0
 14 34  1  0  0  0  0
 14 35  1  0  0  0  0
 15 16  1  0  0  0  0
 15 36  1  0  0  0  0
 15 37  1  0  0  0  0
 16 17  1  0  0  0  0
 16 38  1  0  0  0  0
 16 39  1  0  0  0  0
 17 18  1  0  0  0  0
 17 40  1  0  0  0  0
 17 41  1  0  0  0  0
 18 42  1  0  0  0  0
 18 43  1  0  0  0  0
 19 20  2  0  0  0  0
 19 21  1  0  0  0  0
 21 22  1  0  0  0  0
 22 23  3  0  0  0  0
M  END
> <s_m_source_file>
AV-unprocessed.smi

> <i_m_source_file_index>
2808

> <i_lp_mmshare_version>
43012

> <i_f3d_flags>
0

> <s_epik_input>
W0NIM11jMVtjSF1bY0hdbihjKD1PKWMxQyNOKVtDSDJdQyg9TylbTkhdQzIoQyNOKVtDSDJdW0NIMl1bQ0gyXVtDSDJdW0NIMl1bQ0gyXTI=

> <s_epik_cmdline>
J2VwaWtfcHl0aG9uJywgJy1waCcsICc3LjAnLCAnLXRuJywgJzgnLCAnLW1hJywgJzIwMCcsICctbWV0YWxfYmluZGluZycsICctaW1hZScsICc8aW5maWxlLm1hZT4nLCAnLW9tYWUnLCAnPG91dGZpbGUubWFlPic=

> <r_lp_tautomer_probability>
1

> <r_epik_Ionization_Penalty>
4.51384e-07

> <r_epik_Ionization_Penalty_Charging>
2.41788e-10

> <r_epik_Ionization_Penalty_Neutral>
4.51142e-07

> <r_epik_State_Penalty>
-0

> <r_epik_Charging_Adjusted_Penalty>
2.41788e-10

> <i_epik_Tot_Q>
0

> <i_epik_Tot_abs_Q>
0

> <r_epik_Metal_State_Penalty>
-0

> <b_epik_Metal_Only>
0

> <s_lp_Force_Field>
OPLS_2005

> <r_lp_Energy>
25.2429

> <b_lp_Chiralities_Consistent>
1

> <s_lp_Variant>
AV-unprocessed.smi:2808-1

> <Gold.Version>
5.8.1

> <Gold.Id.Protein>
6NUR|6NUR_protein|mol2

> <Gold.PLP.Fitness>
47.1013

> <Gold.PLP.PLP>
-43.4698

> <Gold.PLP.part.hbond>
-2.7999

> <Gold.PLP.part.metal>
0.0000

> <Gold.PLP.part.buried>
-7.4254

> <Gold.PLP.part.nonpolar>
-33.3874

> <Gold.PLP.part.repulsive>
0.2795

> <Gold.PLP.ligand.clash>
0.0000

> <Gold.PLP.ligand.torsion>
0.1676

> <Gold.PLP.Chemscore.Hbond>
1.3169

> <Gold.PLP.Chemscore.CHOScore>
0.0000

> <Gold.PLP.Chemscore.Metal>
0.0000

> <Gold.Chemscore.Hbonds>
donor molecule, donor type, donor heavy atom, donor atom, acceptor molecule, acceptor atom, score
      P1  H  7989  7998       L1    12  0.64
      P1  H  7997  8009       L1    12  0.67

> <Gold.PLP.Chemscore.Internal.Correction>
0.0161

> <Gold.Rescore>
     Score         DG    S(hbond)    S(metal)    S(lipo)     H(rot)  DE(clash)    DE(int)     intcor
     14.58     -16.21       0.92        0.00      98.83       1.52       0.16       1.47       ----

> <Gold.Chemscore.Fitness>
14.5759

> <Gold.Chemscore.DG>
-16.2059

> <Gold.Chemscore.ZeroCoef>
-5.4800

> <Gold.Chemscore.Hbond>
0.9167

> <Gold.Chemscore.Metal>
0.0000

> <Gold.Chemscore.Lipo>
98.8332

> <Gold.Chemscore.Internal_Hbond>
0.0000

> <Gold.Chemscore.DEClash>
0.1602

> <Gold.Chemscore.DEInternal>
1.4698

> <Gold.Chemscore.Rot>
1.5232

> <Gold.Chemscore.Internal.Correction>
   9.000000E+99

> <Gold.Chemscore.Hbonds>
donor molecule, donor type, donor heavy atom, donor atom, acceptor molecule, acceptor atom, score
      P1  H  7989  7998       L1    12  0.15
      P1  H  7997  8009       L1    12  0.20
      P1  H  8011  8017       L1     8  0.03

> <Gold.Chemscore.Hbond.Weighted>
-3.0619

> <Gold.Chemscore.Metal.Weighted>
-0.0000

> <Gold.Chemscore.Lipo.Weighted>
-11.5635

> <Gold.Chemscore.Internal_Hbond.Weighted>
0.0000

> <Gold.Chemscore.DEClash.Weighted>
0.1602

> <Gold.Chemscore.DEInternal.Weighted>
1.4698

> <Gold.Chemscore.Rot.Weighted>
3.8995

> <Gold.Chemscore.Internal.Correction.Weighted>
   9.000000E+99

> <Gold.Protein.RotatedTorsions>
[ 6907 6896 6895 6894 ] final   76.67 input  -60.11 | X-H torsion
[ 7974 7965 7964 7962 ] final   -6.90 input  175.53 | X-H torsion
[ 8008 7997 7996 7995 ] final -139.52 input   59.86 | X-H torsion
[ 10167 10162 10161 10158 ] final  -36.51 input  -65.29 | X-H torsion
[ 10718 10713 10712 10709 ] final    5.91 input   66.30 | X-H torsion
[ 10763 10752 10751 10750 ] final -108.31 input  -60.55 | X-H torsion
[ 11005 11000 10999 10996 ] final   96.13 input  -57.11 | X-H torsion

> <Gold.Protein.ActiveResidues>
 VAL166  LYS551  ARG553  GLY616  TRP617  ASP618  TYR619  PRO620  LYS621  CYS622 
 ASP623  PHE694  ASN695  SER759  ASP760  ASP761  ALA762  ILE779  LEU786  VAL792 
 PHE793  MET794  SER795  GLU796  ALA797  LYS798  CYS799  TRP800  GLU811  SER814 

> <Gold.Protein.RotatedAtoms>
  152.5083  134.3934  159.9391 H   0  0  0  0  0  0  0  0  0  0  0  0  # atno 6907 bound_to 6896
  151.3895  133.3787  159.2727 H   0  0  0  0  0  0  0  0  0  0  0  0  # atno 6908 bound_to 6896
  150.9444  134.8870  159.7691 H   0  0  0  0  0  0  0  0  0  0  0  0  # atno 6909 bound_to 6896
  146.2320  140.2240  142.8338 H   0  0  0  0  0  0  0  0  0  0  0  0  # atno 7974 bound_to 7965
  155.4462  140.0535  157.3005 H   0  0  0  0  0  0  0  0  0  0  0  0  # atno 8008 bound_to 7997
  154.4797  140.2076  155.9750 H   0  0  0  0  0  0  0  0  0  0  0  0  # atno 8009 bound_to 7997
  156.1186  140.3192  155.8180 H   0  0  0  0  0  0  0  0  0  0  0  0  # atno 8010 bound_to 7997
  140.7141  143.3404  151.2370 H   0  0  0  0  0  0  0  0  0  0  0  0  # atno 10167 bound_to 10162
  156.9144  130.5768  149.5647 H   0  0  0  0  0  0  0  0  0  0  0  0  # atno 10718 bound_to 10713
  154.8128  135.4642  154.0562 H   0  0  0  0  0  0  0  0  0  0  0  0  # atno 10763 bound_to 10752
  153.1979  135.6864  153.8275 H   0  0  0  0  0  0  0  0  0  0  0  0  # atno 10764 bound_to 10752
  153.7770  135.3262  155.3337 H   0  0  0  0  0  0  0  0  0  0  0  0  # atno 10765 bound_to 10752
  139.8784  134.8935  156.4113 H   0  0  0  0  0  0  0  0  0  0  0  0  # atno 11005 bound_to 11000
  144.9610  140.8275  143.5514 LP  0  0  0  0  0  0  0  0  0  0  0  0  # atno 17320 bound_to 7965
  145.2210  139.2159  143.5093 LP  0  0  0  0  0  0  0  0  0  0  0  0  # atno 17321 bound_to 7965
  139.6910  143.9692  152.2859 LP  0  0  0  0  0  0  0  0  0  0  0  0  # atno 17342 bound_to 10162
  139.9354  144.6715  150.8320 LP  0  0  0  0  0  0  0  0  0  0  0  0  # atno 17343 bound_to 10162
  156.0521  130.5588  150.9011 LP  0  0  0  0  0  0  0  0  0  0  0  0  # atno 17370 bound_to 10713
  157.5947  131.0943  150.9060 LP  0  0  0  0  0  0  0  0  0  0  0  0  # atno 17371 bound_to 10713
  140.9199  133.7652  155.9893 LP  0  0  0  0  0  0  0  0  0  0  0  0  # atno 17394 bound_to 11000
  140.8452  134.3020  157.5298 LP  0  0  0  0  0  0  0  0  0  0  0  0  # atno 17395 bound_to 11000

$$$$
