AV-unprocessed.smi:3030|AV-procd|sdf|11538|dock3
  -GOLD-   2272016483D 1   1.00000     0.00000
 Structure written by MMmdl.
 52 53  0  0  0  0  0  0  0  0  1 V2000
  147.3289  131.2567  161.3536 C   0  0  0  0  0  0  0  0  0  0  0  0
  147.4920  132.3162  160.2582 C   0  0  0  0  0  0  0  0  0  0  0  0
  147.5087  133.6636  160.8091 N   0  0  0  0  0  0  0  0  0  0  0  0
  147.2532  133.8964  162.1565 C   0  0  0  0  0  0  0  0  0  0  0  0
  147.1949  135.1217  162.7127 C   0  0  0  0  0  0  0  0  0  0  0  0
  147.4065  136.3121  161.8646 C   0  0  0  0  0  0  0  0  0  0  0  0
  147.3607  137.4467  162.3403 O   0  0  0  0  0  0  0  0  0  0  0  0
  147.6743  136.0641  160.4229 C   0  0  0  0  0  0  0  0  0  0  0  0
  147.8839  137.2023  159.6270 N   0  0  0  0  0  0  0  0  0  0  0  0
  148.5009  137.3121  158.4363 C   0  0  0  0  0  0  0  0  0  0  0  0
  148.9931  136.3889  157.7884 O   0  0  0  0  0  0  0  0  0  0  0  0
  148.5101  138.5875  158.0243 N   0  0  0  0  0  0  0  0  0  0  0  0
  149.1022  139.0770  156.7807 C   0  0  1  0  0  0  0  0  0  0  0  0
  147.9780  139.5704  155.8470 C   0  0  0  0  0  0  0  0  0  0  0  0
  148.5300  140.1408  154.5291 C   0  0  1  0  0  0  0  0  0  0  0  0
  147.3994  140.6258  153.6102 C   0  0  0  0  0  0  0  0  0  0  0  0
  149.5400  141.2629  154.8215 C   0  0  0  0  0  0  0  0  0  0  0  0
  150.6740  140.7743  155.7351 C   0  0  0  0  0  0  0  0  0  0  0  0
  150.1365  140.2000  157.0675 C   0  0  2  0  0  0  0  0  0  0  0  0
  151.2651  139.7804  158.0572 C   0  0  0  0  0  0  0  0  0  0  0  0
  152.1598  140.9640  158.4639 C   0  0  0  0  0  0  0  0  0  0  0  0
  152.1196  138.5949  157.5715 C   0  0  0  0  0  0  0  0  0  0  0  0
  147.7084  134.7762  159.9942 C   0  0  0  0  0  0  0  0  0  0  0  0
  147.3174  130.2548  160.9244 H   0  0  0  0  0  0  0  0  0  0  0  0
  146.3957  131.3959  161.9002 H   0  0  0  0  0  0  0  0  0  0  0  0
  148.1487  131.3026  162.0711 H   0  0  0  0  0  0  0  0  0  0  0  0
  148.4148  132.1378  159.7048 H   0  0  0  0  0  0  0  0  0  0  0  0
  146.6809  132.2286  159.5345 H   0  0  0  0  0  0  0  0  0  0  0  0
  147.1071  133.0010  162.7434 H   0  0  0  0  0  0  0  0  0  0  0  0
  146.9962  135.2539  163.7662 H   0  0  0  0  0  0  0  0  0  0  0  0
  147.5044  138.0548  160.0128 H   0  0  0  0  0  0  0  0  0  0  0  0
  148.0797  139.2792  158.6204 H   0  0  0  0  0  0  0  0  0  0  0  0
  149.6177  138.2582  156.2764 H   0  0  0  0  0  0  0  0  0  0  0  0
  147.2945  138.7483  155.6293 H   0  0  0  0  0  0  0  0  0  0  0  0
  147.3869  140.3336  156.3556 H   0  0  0  0  0  0  0  0  0  0  0  0
  149.0562  139.3394  154.0083 H   0  0  0  0  0  0  0  0  0  0  0  0
  146.8274  141.4296  154.0748 H   0  0  0  0  0  0  0  0  0  0  0  0
  146.7073  139.8158  153.3790 H   0  0  0  0  0  0  0  0  0  0  0  0
  147.7942  141.0008  152.6655 H   0  0  0  0  0  0  0  0  0  0  0  0
  149.9607  141.6381  153.8879 H   0  0  0  0  0  0  0  0  0  0  0  0
  149.0319  142.1064  155.2912 H   0  0  0  0  0  0  0  0  0  0  0  0
  151.2531  140.0175  155.2055 H   0  0  0  0  0  0  0  0  0  0  0  0
  151.3513  141.6069  155.9210 H   0  0  0  0  0  0  0  0  0  0  0  0
  149.5873  141.0073  157.5553 H   0  0  0  0  0  0  0  0  0  0  0  0
  150.7869  139.4569  158.9819 H   0  0  0  0  0  0  0  0  0  0  0  0
  152.7780  141.3109  157.6360 H   0  0  0  0  0  0  0  0  0  0  0  0
  152.8335  140.6806  159.2731 H   0  0  0  0  0  0  0  0  0  0  0  0
  151.5652  141.8074  158.8159 H   0  0  0  0  0  0  0  0  0  0  0  0
  152.6730  138.8377  156.6647 H   0  0  0  0  0  0  0  0  0  0  0  0
  151.5118  137.7134  157.3696 H   0  0  0  0  0  0  0  0  0  0  0  0
  152.8499  138.3098  158.3292 H   0  0  0  0  0  0  0  0  0  0  0  0
  147.9116  134.5014  158.9718 H   0  0  0  0  0  0  0  0  0  0  0  0
  1  2  1  0  0  0  0
  1 24  1  0  0  0  0
  1 25  1  0  0  0  0
  1 26  1  0  0  0  0
  2  3  1  0  0  0  0
  2 27  1  0  0  0  0
  2 28  1  0  0  0  0
  3 23  1  0  0  0  0
  3  4  1  0  0  0  0
  4  5  2  0  0  0  0
  4 29  1  0  0  0  0
  5  6  1  0  0  0  0
  5 30  1  0  0  0  0
  6  7  2  0  0  0  0
  6  8  1  0  0  0  0
  8  9  1  0  0  0  0
  8 23  2  0  0  0  0
  9 10  1  0  0  0  0
  9 31  1  0  0  0  0
 10 11  2  0  0  0  0
 10 12  1  0  0  0  0
 12 13  1  0  0  0  0
 12 32  1  0  0  0  0
 13 19  1  0  0  0  0
 13 14  1  0  0  0  0
 13 33  1  0  0  0  0
 14 15  1  0  0  0  0
 14 34  1  0  0  0  0
 14 35  1  0  0  0  0
 15 16  1  0  0  0  0
 15 17  1  0  0  0  0
 15 36  1  0  0  0  0
 16 37  1  0  0  0  0
 16 38  1  0  0  0  0
 16 39  1  0  0  0  0
 17 18  1  0  0  0  0
 17 40  1  0  0  0  0
 17 41  1  0  0  0  0
 18 19  1  0  0  0  0
 18 42  1  0  0  0  0
 18 43  1  0  0  0  0
 19 20  1  0  0  0  0
 19 44  1  0  0  0  0
 20 21  1  0  0  0  0
 20 22  1  0  0  0  0
 20 45  1  0  0  0  0
 21 46  1  0  0  0  0
 21 47  1  0  0  0  0
 21 48  1  0  0  0  0
 22 49  1  0  0  0  0
 22 50  1  0  0  0  0
 22 51  1  0  0  0  0
 23 52  1  0  0  0  0
M  END
> <s_m_source_file>
AV-unprocessed.smi

> <i_m_source_file_index>
3030

> <i_lp_mmshare_version>
43012

> <i_f3d_flags>
0

> <s_epik_input>
W0NIM11bQ0gyXW4xW2NIXVtjSF1jKD1PKWMoW2NIXTEpW05IXUMoPU8pW05IXVtDQEBIXTJbQ0gyXVtDQEBIXShbQ0gzXSlbQ0gyXVtDSDJdW0NASF0yW0NIXShbQ0gzXSlbQ0gzXQ==

> <s_epik_cmdline>
J2VwaWtfcHl0aG9uJywgJy1waCcsICc3LjAnLCAnLXRuJywgJzgnLCAnLW1hJywgJzIwMCcsICctbWV0YWxfYmluZGluZycsICctaW1hZScsICc8aW5maWxlLm1hZT4nLCAnLW9tYWUnLCAnPG91dGZpbGUubWFlPic=

> <r_lp_tautomer_probability>
1

> <r_epik_Ionization_Penalty>
0.00147933

> <r_epik_Ionization_Penalty_Charging>
0.00145753

> <r_epik_Ionization_Penalty_Neutral>
2.17987e-05

> <r_epik_State_Penalty>
0.00097457

> <r_epik_Charging_Adjusted_Penalty>
0.0024321

> <i_epik_Tot_Q>
0

> <i_epik_Tot_abs_Q>
0

> <r_epik_Metal_State_Penalty>
-0

> <b_epik_Metal_Only>
0

> <s_lp_Force_Field>
OPLS_2005

> <r_lp_Energy>
9.50568

> <b_lp_Chiralities_Consistent>
1

> <s_lp_Variant>
AV-unprocessed.smi:3030-6

> <Gold.Version>
5.8.1

> <Gold.Id.Protein>
6NUR|6NUR_protein|mol2

> <Gold.PLP.Fitness>
43.1716

> <Gold.PLP.PLP>
-39.9604

> <Gold.PLP.part.hbond>
-2.0000

> <Gold.PLP.part.metal>
0.0000

> <Gold.PLP.part.buried>
-4.0143

> <Gold.PLP.part.nonpolar>
-34.6725

> <Gold.PLP.part.repulsive>
0.7289

> <Gold.PLP.ligand.clash>
0.0000

> <Gold.PLP.ligand.torsion>
0.1795

> <Gold.PLP.Chemscore.Hbond>
1.1670

> <Gold.PLP.Chemscore.CHOScore>
0.0000

> <Gold.PLP.Chemscore.Metal>
0.0000

> <Gold.Chemscore.Hbonds>
donor molecule, donor type, donor heavy atom, donor atom, acceptor molecule, acceptor atom, score
      P1  H  6931  6943       L1     7  0.70
      P1  H  6934  6947       L1     7  0.43

> <Gold.PLP.Chemscore.Internal.Correction>
0.0691

> <Gold.Rescore>
     Score         DG    S(hbond)    S(metal)    S(lipo)     H(rot)  DE(clash)    DE(int)     intcor
     15.92     -17.22       1.48        0.00      85.79       1.27       0.25       1.05       ----

> <Gold.Chemscore.Fitness>
15.9238

> <Gold.Chemscore.DG>
-17.2164

> <Gold.Chemscore.ZeroCoef>
-5.4800

> <Gold.Chemscore.Hbond>
1.4811

> <Gold.Chemscore.Metal>
0.0000

> <Gold.Chemscore.Lipo>
85.7855

> <Gold.Chemscore.Internal_Hbond>
0.0000

> <Gold.Chemscore.DEClash>
0.2471

> <Gold.Chemscore.DEInternal>
1.0456

> <Gold.Chemscore.Rot>
1.2685

> <Gold.Chemscore.Internal.Correction>
   9.000000E+99

> <Gold.Chemscore.Hbonds>
donor molecule, donor type, donor heavy atom, donor atom, acceptor molecule, acceptor atom, score
      P1  H  6931  6943       L1     7  0.42
      P1  H  6934  6947       L1     7  0.41

> <Gold.Chemscore.Hbond.Weighted>
-4.9470

> <Gold.Chemscore.Metal.Weighted>
-0.0000

> <Gold.Chemscore.Lipo.Weighted>
-10.0369

> <Gold.Chemscore.Internal_Hbond.Weighted>
0.0000

> <Gold.Chemscore.DEClash.Weighted>
0.2471

> <Gold.Chemscore.DEInternal.Weighted>
1.0456

> <Gold.Chemscore.Rot.Weighted>
3.2474

> <Gold.Chemscore.Internal.Correction.Weighted>
   9.000000E+99

> <Gold.Protein.RotatedTorsions>
[ 6907 6896 6895 6894 ] final -168.01 input  -60.11 | X-H torsion
[ 7974 7965 7964 7962 ] final -155.91 input  175.53 | X-H torsion
[ 8008 7997 7996 7995 ] final  159.69 input   59.86 | X-H torsion
[ 10167 10162 10161 10158 ] final    3.99 input  -65.29 | X-H torsion
[ 10718 10713 10712 10709 ] final  169.95 input   66.30 | X-H torsion
[ 10763 10752 10751 10750 ] final  155.28 input  -60.55 | X-H torsion
[ 11005 11000 10999 10996 ] final -141.48 input  -57.11 | X-H torsion

> <Gold.Protein.ActiveResidues>
 VAL166  LYS551  ARG553  GLY616  TRP617  ASP618  TYR619  PRO620  LYS621  CYS622 
 ASP623  PHE694  ASN695  SER759  ASP760  ASP761  ALA762  ILE779  LEU786  VAL792 
 PHE793  MET794  SER795  GLU796  ALA797  LYS798  CYS799  TRP800  GLU811  SER814 

> <Gold.Protein.RotatedAtoms>
  151.4687  133.3574  159.2819 H   0  0  0  0  0  0  0  0  0  0  0  0  # atno 6907 bound_to 6896
  150.8975  134.8387  159.7348 H   0  0  0  0  0  0  0  0  0  0  0  0  # atno 6908 bound_to 6896
  152.4860  134.4604  159.9655 H   0  0  0  0  0  0  0  0  0  0  0  0  # atno 6909 bound_to 6896
  144.7617  140.4183  143.5971 H   0  0  0  0  0  0  0  0  0  0  0  0  # atno 7974 bound_to 7965
  156.2222  140.1824  156.7449 H   0  0  0  0  0  0  0  0  0  0  0  0  # atno 8008 bound_to 7997
  154.5883  140.0655  156.9231 H   0  0  0  0  0  0  0  0  0  0  0  0  # atno 8009 bound_to 7997
  155.2380  140.3320  155.4298 H   0  0  0  0  0  0  0  0  0  0  0  0  # atno 8010 bound_to 7997
  140.6558  143.7431  150.7651 H   0  0  0  0  0  0  0  0  0  0  0  0  # atno 10167 bound_to 10162
  157.0152  131.0216  151.2791 H   0  0  0  0  0  0  0  0  0  0  0  0  # atno 10718 bound_to 10713
  154.1658  135.2807  155.3095 H   0  0  0  0  0  0  0  0  0  0  0  0  # atno 10763 bound_to 10752
  154.6113  135.5498  153.7479 H   0  0  0  0  0  0  0  0  0  0  0  0  # atno 10764 bound_to 10752
  153.0179  135.6416  154.1799 H   0  0  0  0  0  0  0  0  0  0  0  0  # atno 10765 bound_to 10752
  140.8320  134.2505  157.4852 H   0  0  0  0  0  0  0  0  0  0  0  0  # atno 11005 bound_to 11000
  145.6597  139.1579  143.2815 LP  0  0  0  0  0  0  0  0  0  0  0  0  # atno 17320 bound_to 7965
  146.1687  140.6679  142.9243 LP  0  0  0  0  0  0  0  0  0  0  0  0  # atno 17321 bound_to 7965
  140.1091  143.4716  152.2381 LP  0  0  0  0  0  0  0  0  0  0  0  0  # atno 17342 bound_to 10162
  139.5780  144.7497  151.3714 LP  0  0  0  0  0  0  0  0  0  0  0  0  # atno 17343 bound_to 10162
  157.5291  130.8047  149.7896 LP  0  0  0  0  0  0  0  0  0  0  0  0  # atno 17370 bound_to 10713
  156.0122  130.3828  150.2228 LP  0  0  0  0  0  0  0  0  0  0  0  0  # atno 17371 bound_to 10713
  139.8705  134.9591  156.4321 LP  0  0  0  0  0  0  0  0  0  0  0  0  # atno 17394 bound_to 11000
  140.8988  133.7795  155.9656 LP  0  0  0  0  0  0  0  0  0  0  0  0  # atno 17395 bound_to 11000

$$$$
