#       Name:                AV-unprocessed.smi:2316
#       Creating user name   scv26
#       Creation time:       Fri Mar 27 12:49:27 2020


#       File generated by GOLD software.
#

@<TRIPOS>MOLECULE
AV-unprocessed.smi:2316
    34    35     1
SMALL
NO_CHARGES


@<TRIPOS>ATOM
      1 ****         0.7628   2.7564   0.7363 O.2            1 S1                 0.0000
      2 ****         0.4333   1.5892   0.5377 C.2            1 S1                 0.0000
      3 ****         1.2906   0.5788   0.2933 N.am           1 S1                 0.0000
      4 ****         2.7095   0.6043   0.2168 C.ar           1 S1                 0.0000
      5 ****         3.5211   1.6110   0.7935 C.ar           1 S1                 0.0000
      6 ****         4.9203   1.5081   0.6598 C.ar           1 S1                 0.0000
      7 ****         5.5339   0.4935   0.0145 N.ar           1 S1                 0.0000
      8 ****         4.7575  -0.4713  -0.5223 C.ar           1 S1                 0.0000
      9 ****         3.3504  -0.4642  -0.4453 C.ar           1 S1                 0.0000
     10 ****         2.6301  -1.4673  -1.0033 F              1 S1                 0.0000
     11 ****        -0.8635   1.2276   0.5228 N.am           1 S1                 0.0000
     12 ****        -2.0478   2.0605   0.7459 C.3            1 S1                 0.0000
     13 ****        -2.2837   2.2761   2.2359 C.2            1 S1                 0.0000
     14 ****        -3.4894   2.1838   2.8226 C.2            1 S1                 0.0000
     15 ****        -4.7662   1.8669   2.0669 C.3            1 S1                 0.0000
     16 ****        -4.5922   2.0232   0.5460 C.3            1 S1                 0.0000
     17 ****        -3.2695   1.4107   0.0609 C.3            1 S1                 0.0000
     18 ****         0.8669  -0.3107   0.0724 H              1 S1                 0.0000
     19 ****         3.1073   2.4439   1.3400 H              1 S1                 0.0000
     20 ****         5.5653   2.2601   1.0897 H              1 S1                 0.0000
     21 ****         5.2730  -1.2746  -1.0278 H              1 S1                 0.0000
     22 ****        -1.0510   0.2579   0.3121 H              1 S1                 0.0000
     23 ****        -1.8964   3.0441   0.2981 H              1 S1                 0.0000
     24 ****        -1.4205   2.5158   2.8398 H              1 S1                 0.0000
     25 ****        -3.5786   2.3281   3.8894 H              1 S1                 0.0000
     26 ****        -5.0595   0.8455   2.3108 H              1 S1                 0.0000
     27 ****        -5.5648   2.5208   2.4181 H              1 S1                 0.0000
     28 ****        -5.4348   1.5658   0.0267 H              1 S1                 0.0000
     29 ****        -4.6095   3.0827   0.2869 H              1 S1                 0.0000
     30 ****        -3.1852   1.5083  -1.0220 H              1 S1                 0.0000
     31 ****        -3.2865   0.3401   0.2719 H              1 S1                 0.0000
     32 ****         1.7294   3.0123   0.7231 LP             1 S1                 0.0000
     33 ****         0.0642   3.4503   0.9111 LP             1 S1                 0.0000
     34 ****         6.5302   0.4579  -0.0632 LP             1 S1                 0.0000
@<TRIPOS>BOND
    1    1    2 2     
    2    2    3 am    
    3    2   11 am    
    4    3    4 1     
    5    3   18 1     
    6    4    9 ar    
    7    4    5 ar    
    8    5    6 ar    
    9    5   19 1     
   10    6    7 ar    
   11    6   20 1     
   12    7    8 ar    
   13    8    9 ar    
   14    8   21 1     
   15    9   10 1     
   16   11   12 1     
   17   11   22 1     
   18   12   17 1     
   19   12   13 1     
   20   12   23 1     
   21   13   14 2     
   22   13   24 1     
   23   14   15 1     
   24   14   25 1     
   25   15   16 1     
   26   15   26 1     
   27   15   27 1     
   28   16   17 1     
   29   16   28 1     
   30   16   29 1     
   31   17   30 1     
   32   17   31 1     
   33    1   32 1     
   34    1   33 1     
   35    7   34 1     
@<TRIPOS>SUBSTRUCTURE
      1 S1             1
@<TRIPOS>SET
LONE_PAIRS      STATIC     ATOMS    <user>   **** ""
3 32 33 34
DONOR_HYDROGENS      STATIC     ATOMS    <user>   **** ""
2 18 22
ATOM$BLUE        STATIC     ATOMS    COLORGROUP SYSTEM
3 32 33 34
ATOM$RED        STATIC     ATOMS    COLORGROUP SYSTEM
2 18 22
