#       Name:                AV-unprocessed.smi:699
#       Creating user name   scv26
#       Creation time:       Fri Mar 27 00:38:08 2020


#       File generated by GOLD software.
#

@<TRIPOS>MOLECULE
AV-unprocessed.smi:699
    39    40     1
SMALL
NO_CHARGES


@<TRIPOS>ATOM
      1 ****        -1.8783   0.2866  -2.9062 N.am           1 S1                 0.0000
      2 ****        -2.6135   0.0554  -1.8158 C.2            1 S1                 0.0000
      3 ****        -3.6654   0.6543  -1.5984 O.2            1 S1                 0.0000
      4 ****        -2.0878  -0.9981  -0.8282 C.3            1 S1                 0.0000
      5 ****        -3.0861  -2.1450  -0.5943 C.3            1 S1                 0.0000
      6 ****        -2.7989  -2.6256   0.8249 C.3            1 S1                 0.0000
      7 ****        -2.4751  -1.3464   1.5923 C.3            1 S1                 0.0000
      8 ****        -1.7919  -0.4118   0.5793 C.3            1 S1                 0.0000
      9 ****        -0.3562  -0.3272   0.8420 N.am           1 S1                 0.0000
     10 ****         0.4584   0.6373   0.3903 C.2            1 S1                 0.0000
     11 ****         0.0760   1.5731  -0.3116 O.2            1 S1                 0.0000
     12 ****         1.7257   0.4262   0.7868 N.am           1 S1                 0.0000
     13 ****         2.8838   1.2067   0.5211 C.ar           1 S1                 0.0000
     14 ****         4.1415   0.5908   0.6888 C.ar           1 S1                 0.0000
     15 ****         5.3062   1.3459   0.4456 C.ar           1 S1                 0.0000
     16 ****         5.2846   2.6406   0.0659 N.ar           1 S1                 0.0000
     17 ****         4.0807   3.2333  -0.0798 C.ar           1 S1                 0.0000
     18 ****         2.8567   2.5694   0.1374 C.ar           1 S1                 0.0000
     19 ****        -2.1801   0.9804  -3.5749 H              1 S1                 0.0000
     20 ****        -1.0183  -0.2213  -3.0530 H              1 S1                 0.0000
     21 ****        -1.1747  -1.4402  -1.2329 H              1 S1                 0.0000
     22 ****        -4.1179  -1.7938  -0.6536 H              1 S1                 0.0000
     23 ****        -2.9709  -2.9469  -1.3244 H              1 S1                 0.0000
     24 ****        -3.6335  -3.1763   1.2595 H              1 S1                 0.0000
     25 ****        -1.9289  -3.2836   0.8223 H              1 S1                 0.0000
     26 ****        -3.4069  -0.8894   1.9287 H              1 S1                 0.0000
     27 ****        -1.8737  -1.5384   2.4820 H              1 S1                 0.0000
     28 ****        -2.2191   0.5863   0.7011 H              1 S1                 0.0000
     29 ****         0.0439  -1.0604   1.4089 H              1 S1                 0.0000
     30 ****         1.8916  -0.4284   1.2977 H              1 S1                 0.0000
     31 ****         4.2181  -0.4430   0.9931 H              1 S1                 0.0000
     32 ****         6.2818   0.8972   0.5606 H              1 S1                 0.0000
     33 ****         4.0923   4.2726  -0.3731 H              1 S1                 0.0000
     34 ****         1.9357   3.1186   0.0181 H              1 S1                 0.0000
     35 ****        -3.9945   1.3391  -2.2487 LP             1 S1                 0.0000
     36 ****        -4.1916   0.4566  -0.7714 LP             1 S1                 0.0000
     37 ****        -0.8868   1.6413  -0.5729 LP             1 S1                 0.0000
     38 ****         0.7281   2.2654  -0.6206 LP             1 S1                 0.0000
     39 ****         6.1322   3.1441  -0.1019 LP             1 S1                 0.0000
@<TRIPOS>BOND
    1    1    2 am    
    2    1   19 1     
    3    1   20 1     
    4    2    3 2     
    5    2    4 1     
    6    4    8 1     
    7    4    5 1     
    8    4   21 1     
    9    5    6 1     
   10    5   22 1     
   11    5   23 1     
   12    6    7 1     
   13    6   24 1     
   14    6   25 1     
   15    7    8 1     
   16    7   26 1     
   17    7   27 1     
   18    8    9 1     
   19    8   28 1     
   20    9   10 am    
   21    9   29 1     
   22   10   11 2     
   23   10   12 am    
   24   12   13 1     
   25   12   30 1     
   26   13   18 ar    
   27   13   14 ar    
   28   14   15 ar    
   29   14   31 1     
   30   15   16 ar    
   31   15   32 1     
   32   16   17 ar    
   33   17   18 ar    
   34   17   33 1     
   35   18   34 1     
   36    3   35 1     
   37    3   36 1     
   38   11   37 1     
   39   11   38 1     
   40   16   39 1     
@<TRIPOS>SUBSTRUCTURE
      1 S1             1
@<TRIPOS>SET
LONE_PAIRS      STATIC     ATOMS    <user>   **** ""
5 35 36 37 38 39
DONOR_HYDROGENS      STATIC     ATOMS    <user>   **** ""
4 19 20 29 30
ATOM$BLUE        STATIC     ATOMS    COLORGROUP SYSTEM
5 35 36 37 38 39
ATOM$RED        STATIC     ATOMS    COLORGROUP SYSTEM
4 19 20 29 30
