#       Name:                AV-unprocessed.smi:317
#       Creating user name   scv26
#       Creation time:       Thu Mar 26 22:23:07 2020


#       File generated by GOLD software.
#

@<TRIPOS>MOLECULE
AV-unprocessed.smi:317
    45    46     1
SMALL
NO_CHARGES


@<TRIPOS>ATOM
      1 ****        -4.3056  -1.4655  -1.3465 C.3            1 S1                 0.0000
      2 ****        -3.7272  -0.4536  -0.3467 C.3            1 S1                 0.0000
      3 ****        -3.9302  -0.9228   1.1100 C.3            1 S1                 0.0000
      4 ****        -4.1878   0.1784   1.9547 O.3            1 S1                 0.0000
      5 ****        -2.3040  -0.2939  -0.6330 N.am           1 S1                 0.0000
      6 ****        -1.5929   0.8243  -0.4318 C.2            1 S1                 0.0000
      7 ****        -2.0691   1.8666   0.0176 O.2            1 S1                 0.0000
      8 ****        -0.3042   0.6434  -0.7646 N.am           1 S1                 0.0000
      9 ****         0.7662   1.5751  -0.6576 C.ar           1 S1                 0.0000
     10 ****         0.5648   2.9587  -0.8832 C.ar           1 S1                 0.0000
     11 ****         1.6649   3.8322  -0.8396 C.ar           1 S1                 0.0000
     12 ****         2.9351   3.2884  -0.5868 C.ar           1 S1                 0.0000
     13 ****         3.1455   1.9726  -0.3825 N.ar           1 S1                 0.0000
     14 ****         2.0922   1.1188  -0.4067 C.ar           1 S1                 0.0000
     15 ****         2.3710  -0.2467  -0.1675 N.3            1 S1                 0.0000
     16 ****         3.7440  -0.7390  -0.2075 C.3            1 S1                 0.0000
     17 ****         3.6920  -2.1085   0.4633 C.3            1 S1                 0.0000
     18 ****         2.6406  -1.8998   1.5489 C.3            1 S1                 0.0000
     19 ****         1.6538  -0.9127   0.9163 C.3            1 S1                 0.0000
     20 ****        -5.3776  -1.5970  -1.1963 H              1 S1                 0.0000
     21 ****        -3.8327  -2.4429  -1.2434 H              1 S1                 0.0000
     22 ****        -4.1594  -1.1301  -2.3738 H              1 S1                 0.0000
     23 ****        -4.2520   0.4900  -0.5114 H              1 S1                 0.0000
     24 ****        -4.7958  -1.5821   1.1816 H              1 S1                 0.0000
     25 ****        -3.0739  -1.4889   1.4786 H              1 S1                 0.0000
     26 ****        -4.3112  -0.1398   2.8357 H              1 S1                 0.0000
     27 ****        -1.8237  -1.1001  -1.0046 H              1 S1                 0.0000
     28 ****        -0.0371  -0.2952  -1.0229 H              1 S1                 0.0000
     29 ****        -0.4108   3.3596  -1.1126 H              1 S1                 0.0000
     30 ****         1.5388   4.8911  -1.0098 H              1 S1                 0.0000
     31 ****         3.8068   3.9248  -0.5538 H              1 S1                 0.0000
     32 ****         4.1142  -0.8025  -1.2311 H              1 S1                 0.0000
     33 ****         4.4080  -0.0837   0.3580 H              1 S1                 0.0000
     34 ****         3.3495  -2.8611  -0.2483 H              1 S1                 0.0000
     35 ****         4.6577  -2.4260   0.8574 H              1 S1                 0.0000
     36 ****         2.1652  -2.8283   1.8662 H              1 S1                 0.0000
     37 ****         3.1052  -1.4438   2.4242 H              1 S1                 0.0000
     38 ****         1.2728  -0.2043   1.6537 H              1 S1                 0.0000
     39 ****         0.8051  -1.4541   0.4975 H              1 S1                 0.0000
     40 ****        -5.0138   0.6517   1.6486 LP             1 S1                 0.0000
     41 ****        -3.4131   0.8102   1.9301 LP             1 S1                 0.0000
     42 ****        -3.0394   1.9113   0.2552 LP             1 S1                 0.0000
     43 ****        -1.4856   2.6686   0.1450 LP             1 S1                 0.0000
     44 ****         4.0697   1.6293  -0.2147 LP             1 S1                 0.0000
     45 ****         1.9670  -0.5221  -1.0399 LP             1 S1                 0.0000
@<TRIPOS>BOND
    1    1    2 1     
    2    1   20 1     
    3    1   21 1     
    4    1   22 1     
    5    2    3 1     
    6    2    5 1     
    7    2   23 1     
    8    3    4 1     
    9    3   24 1     
   10    3   25 1     
   11    4   26 1     
   12    5    6 am    
   13    5   27 1     
   14    6    7 2     
   15    6    8 am    
   16    8    9 1     
   17    8   28 1     
   18    9   14 ar    
   19    9   10 ar    
   20   10   11 ar    
   21   10   29 1     
   22   11   12 ar    
   23   11   30 1     
   24   12   13 ar    
   25   12   31 1     
   26   13   14 ar    
   27   14   15 1     
   28   15   19 1     
   29   15   16 1     
   30   16   17 1     
   31   16   32 1     
   32   16   33 1     
   33   17   18 1     
   34   17   34 1     
   35   17   35 1     
   36   18   19 1     
   37   18   36 1     
   38   18   37 1     
   39   19   38 1     
   40   19   39 1     
   41    4   40 1     
   42    4   41 1     
   43    7   42 1     
   44    7   43 1     
   45   13   44 1     
   46   15   45 1     
@<TRIPOS>SUBSTRUCTURE
      1 S1             1
@<TRIPOS>SET
LONE_PAIRS      STATIC     ATOMS    <user>   **** ""
6 40 41 42 43 44 45
DONOR_HYDROGENS      STATIC     ATOMS    <user>   **** ""
3 26 27 28
ATOM$BLUE        STATIC     ATOMS    COLORGROUP SYSTEM
6 40 41 42 43 44 45
ATOM$RED        STATIC     ATOMS    COLORGROUP SYSTEM
3 26 27 28
