#       Name:                AV-unprocessed.smi:1031
#       Creating user name   scv26
#       Creation time:       Fri Mar 27 02:45:57 2020


#       File generated by GOLD software.
#

@<TRIPOS>MOLECULE
AV-unprocessed.smi:1031
    38    39     1
SMALL
NO_CHARGES


@<TRIPOS>ATOM
      1 ****        -0.4502  -3.2201  -1.8925 C.3            1 S1                 0.0000
      2 ****         0.0882  -2.2972  -0.7909 C.3            1 S1                 0.0000
      3 ****         1.6283  -2.3629  -0.7062 C.3            1 S1                 0.0000
      4 ****         2.1623  -1.6262   0.4256 N.pl3          1 S1                 0.0000
      5 ****         2.7778  -0.3919   0.4318 C.2            1 S1                 0.0000
      6 ****         3.0942  -0.1024   1.7279 C.2            1 S1                 0.0000
      7 ****         2.6299  -1.2371   2.4503 C.2            1 S1                 0.0000
      8 ****         2.0765  -2.1494   1.6677 N.2            1 S1                 0.0000
      9 ****        -0.3609  -0.9312  -1.0580 N.am           1 S1                 0.0000
     10 ****        -0.8009  -0.0552  -0.1403 C.2            1 S1                 0.0000
     11 ****        -0.8879  -0.3184   1.0597 O.2            1 S1                 0.0000
     12 ****        -1.1918   1.3373  -0.6605 C.3            1 S1                 0.0000
     13 ****        -0.3086   2.4500  -0.0480 C.3            1 S1                 0.0000
     14 ****        -1.2455   3.3951   0.7156 C.3            1 S1                 0.0000
     15 ****        -2.5153   2.5878   0.9684 C.3            1 S1                 0.0000
     16 ****        -2.6370   1.7039  -0.2716 C.3            1 S1                 0.0000
     17 ****        -0.1635  -4.2562  -1.7109 H              1 S1                 0.0000
     18 ****        -0.0666  -2.9358  -2.8730 H              1 S1                 0.0000
     19 ****        -1.5393  -3.1844  -1.9372 H              1 S1                 0.0000
     20 ****        -0.3309  -2.6481   0.1539 H              1 S1                 0.0000
     21 ****         1.9545  -3.4002  -0.6162 H              1 S1                 0.0000
     22 ****         2.0800  -1.9750  -1.6204 H              1 S1                 0.0000
     23 ****         2.9300   0.1743  -0.4754 H              1 S1                 0.0000
     24 ****         3.5810   0.7853   2.1033 H              1 S1                 0.0000
     25 ****         2.6789  -1.4240   3.5130 H              1 S1                 0.0000
     26 ****        -0.3254  -0.6243  -2.0194 H              1 S1                 0.0000
     27 ****        -1.1004   1.3469  -1.7482 H              1 S1                 0.0000
     28 ****         0.4406   2.0453   0.6350 H              1 S1                 0.0000
     29 ****         0.2380   2.9915  -0.8208 H              1 S1                 0.0000
     30 ****        -0.8008   3.7706   1.6378 H              1 S1                 0.0000
     31 ****        -1.4826   4.2561   0.0894 H              1 S1                 0.0000
     32 ****        -2.3895   1.9675   1.8569 H              1 S1                 0.0000
     33 ****        -3.3910   3.2188   1.1225 H              1 S1                 0.0000
     34 ****        -3.0973   2.2716  -1.0812 H              1 S1                 0.0000
     35 ****        -3.2735   0.8363  -0.0898 H              1 S1                 0.0000
     36 ****         1.6830  -3.0288   1.9359 LP             1 S1                 0.0000
     37 ****        -0.6238  -1.2232   1.3936 LP             1 S1                 0.0000
     38 ****        -1.2227   0.3728   1.7002 LP             1 S1                 0.0000
@<TRIPOS>BOND
    1    1    2 1     
    2    1   17 1     
    3    1   18 1     
    4    1   19 1     
    5    2    3 1     
    6    2    9 1     
    7    2   20 1     
    8    3    4 1     
    9    3   21 1     
   10    3   22 1     
   11    4    8 1     
   12    4    5 1     
   13    5    6 2     
   14    5   23 1     
   15    6    7 1     
   16    6   24 1     
   17    7    8 2     
   18    7   25 1     
   19    9   10 am    
   20    9   26 1     
   21   10   11 2     
   22   10   12 1     
   23   12   16 1     
   24   12   13 1     
   25   12   27 1     
   26   13   14 1     
   27   13   28 1     
   28   13   29 1     
   29   14   15 1     
   30   14   30 1     
   31   14   31 1     
   32   15   16 1     
   33   15   32 1     
   34   15   33 1     
   35   16   34 1     
   36   16   35 1     
   37    8   36 1     
   38   11   37 1     
   39   11   38 1     
@<TRIPOS>SUBSTRUCTURE
      1 S1             1
@<TRIPOS>SET
LONE_PAIRS      STATIC     ATOMS    <user>   **** ""
3 36 37 38
DONOR_HYDROGENS      STATIC     ATOMS    <user>   **** ""
1 26
ATOM$BLUE        STATIC     ATOMS    COLORGROUP SYSTEM
3 36 37 38
ATOM$RED        STATIC     ATOMS    COLORGROUP SYSTEM
1 26
