#       Name:                AV-unprocessed.smi:3274
#       Creating user name   scv26
#       Creation time:       Fri Mar 27 18:43:46 2020


#       File generated by GOLD software.
#

@<TRIPOS>MOLECULE
AV-unprocessed.smi:3274
    45    46     1
SMALL
NO_CHARGES


@<TRIPOS>ATOM
      1 ****        -0.8250   1.2924  -2.2058 C.3            1 S1                 0.0000
      2 ****        -1.6314   1.7118  -0.9876 C.2            1 S1                 0.0000
      3 ****        -2.8629   2.2324  -1.1499 C.2            1 S1                 0.0000
      4 ****        -3.7223   2.7548  -0.0224 C.3            1 S1                 0.0000
      5 ****        -2.8704   3.0979   1.2015 C.3            1 S1                 0.0000
      6 ****        -1.9308   1.9392   1.5731 C.3            1 S1                 0.0000
      7 ****        -1.1637   2.2957   2.8614 C.3            1 S1                 0.0000
      8 ****        -0.9792   1.5445   0.4010 C.3            1 S1                 0.0000
      9 ****        -0.4167   0.1168   0.6337 C.3            1 S1                 0.0000
     10 ****         0.8242  -0.1429  -0.1290 N.4            1 S1                 1.0000
     11 ****         1.3351  -1.5303  -0.0656 C.3            1 S1                 0.0000
     12 ****         2.0278  -1.8053   1.2837 C.3            1 S1                 0.0000
     13 ****         2.2628  -1.7800  -1.2721 C.3            1 S1                 0.0000
     14 ****         2.7957  -3.1300  -1.3084 N.pl3          1 S1                 0.0000
     15 ****         2.2047  -4.2891  -1.6041 C.2            1 S1                 0.0000
     16 ****         3.0151  -5.3356  -1.5355 N.2            1 S1                 0.0000
     17 ****         4.1725  -4.7056  -1.1737 C.2            1 S1                 0.0000
     18 ****         4.0950  -3.3829  -1.0248 N.2            1 S1                 0.0000
     19 ****         0.1718   1.7329  -2.1748 H              1 S1                 0.0000
     20 ****        -1.3016   1.6242  -3.1289 H              1 S1                 0.0000
     21 ****        -0.7347   0.2078  -2.2604 H              1 S1                 0.0000
     22 ****        -3.2894   2.3119  -2.1395 H              1 S1                 0.0000
     23 ****        -4.2553   3.6435  -0.3613 H              1 S1                 0.0000
     24 ****        -4.4736   2.0036   0.2232 H              1 S1                 0.0000
     25 ****        -2.2820   3.9937   0.9961 H              1 S1                 0.0000
     26 ****        -3.5242   3.3442   2.0389 H              1 S1                 0.0000
     27 ****        -2.5663   1.0801   1.7950 H              1 S1                 0.0000
     28 ****        -0.4978   3.1445   2.7023 H              1 S1                 0.0000
     29 ****        -0.5612   1.4679   3.2315 H              1 S1                 0.0000
     30 ****        -1.8525   2.5665   3.6623 H              1 S1                 0.0000
     31 ****        -0.1448   2.2476   0.4145 H              1 S1                 0.0000
     32 ****        -0.1934  -0.0422   1.6863 H              1 S1                 0.0000
     33 ****        -1.1753  -0.6205   0.3673 H              1 S1                 0.0000
     34 ****         0.6194   0.0594  -1.0971 H              1 S1                 0.0000
     35 ****         0.4843  -2.2068  -0.1615 H              1 S1                 0.0000
     36 ****         2.3783  -2.8353   1.3507 H              1 S1                 0.0000
     37 ****         1.3526  -1.6519   2.1251 H              1 S1                 0.0000
     38 ****         2.8902  -1.1532   1.4252 H              1 S1                 0.0000
     39 ****         1.7217  -1.6088  -2.2038 H              1 S1                 0.0000
     40 ****         3.0947  -1.0733  -1.2621 H              1 S1                 0.0000
     41 ****         1.1610  -4.3701  -1.8708 H              1 S1                 0.0000
     42 ****         5.0993  -5.2374  -1.0154 H              1 S1                 0.0000
     43 ****         1.5476   0.4900   0.1816 H              1 S1                 0.0000
     44 ****         2.8326  -6.3049  -1.7006 LP             1 S1                 0.0000
     45 ****         4.8159  -2.7392  -0.7680 LP             1 S1                 0.0000
@<TRIPOS>BOND
    1    1    2 1     
    2    1   19 1     
    3    1   20 1     
    4    1   21 1     
    5    2    8 1     
    6    2    3 2     
    7    3    4 1     
    8    3   22 1     
    9    4    5 1     
   10    4   23 1     
   11    4   24 1     
   12    5    6 1     
   13    5   25 1     
   14    5   26 1     
   15    6    7 1     
   16    6    8 1     
   17    6   27 1     
   18    7   28 1     
   19    7   29 1     
   20    7   30 1     
   21    8    9 1     
   22    8   31 1     
   23    9   10 1     
   24    9   32 1     
   25    9   33 1     
   26   10   11 1     
   27   10   34 1     
   28   10   43 1     
   29   11   12 1     
   30   11   13 1     
   31   11   35 1     
   32   12   36 1     
   33   12   37 1     
   34   12   38 1     
   35   13   14 1     
   36   13   39 1     
   37   13   40 1     
   38   14   18 1     
   39   14   15 1     
   40   15   16 2     
   41   15   41 1     
   42   16   17 1     
   43   17   18 2     
   44   17   42 1     
   45   16   44 1     
   46   18   45 1     
@<TRIPOS>SUBSTRUCTURE
      1 S1             1
@<TRIPOS>SET
LONE_PAIRS      STATIC     ATOMS    <user>   **** ""
2 44 45
DONOR_HYDROGENS      STATIC     ATOMS    <user>   **** ""
2 34 43
ATOM$BLUE        STATIC     ATOMS    COLORGROUP SYSTEM
2 44 45
ATOM$RED        STATIC     ATOMS    COLORGROUP SYSTEM
2 34 43
