AV-unprocessed.smi:1904|AV-procd|sdf|7724|dock1
  -GOLD-   22720 9463D 1   1.00000     0.00000
 Structure written by MMmdl.
 50 51  0  0  0  0  0  0  0  0  2 V2000
  149.9086  145.1850  160.0446 C   0  0  0  0  0  0  0  0  0  0  0  0
  151.0677  144.2418  160.1963 C   0  0  0  0  0  0  0  0  0  0  0  0
  151.5073  143.9506  161.4089 N   0  0  0  0  0  0  0  0  0  0  0  0
  152.5382  143.1056  161.2079 N   0  0  0  0  0  0  0  0  0  0  0  0
  153.2592  142.5802  162.3509 C   0  0  0  0  0  0  0  0  0  0  0  0
  152.7567  142.8697  159.8645 C   0  0  0  0  0  0  0  0  0  0  0  0
  153.8545  141.9775  159.3814 C   0  0  0  0  0  0  0  0  0  0  0  0
  151.8165  143.5871  159.1736 C   0  0  0  0  0  0  0  0  0  0  0  0
  151.6145  143.6832  157.6825 C   0  0  0  0  0  0  0  0  0  0  0  0
  151.1741  142.3224  157.1443 C   0  0  0  0  0  0  0  0  0  0  0  0
  151.7682  141.3008  157.4893 O   0  0  0  0  0  0  0  0  0  0  0  0
  150.1478  142.3232  156.2797 N   0  0  0  0  0  0  0  0  0  0  0  0
  149.6282  141.1423  155.6022 C   0  0  0  0  0  0  0  0  0  0  0  0
  148.6685  141.5362  154.4628 C   0  0  0  0  0  0  0  0  0  0  0  0
  147.5020  142.3219  154.9389 N   0  3  2  0  0  0  0  0  0  0  0  0
  147.0031  141.8344  156.2510 C   0  0  0  0  0  0  0  0  0  0  0  0
  145.8865  142.7414  156.7988 C   0  0  0  0  0  0  0  0  0  0  0  0
  144.7221  142.8979  155.8043 C   0  0  2  0  0  0  0  0  0  0  0  0
  143.8411  141.6394  155.7139 C   0  0  0  0  0  0  0  0  0  0  0  0
  145.2746  143.3366  154.4363 C   0  0  0  0  0  0  0  0  0  0  0  0
  146.4046  142.4165  153.9395 C   0  0  0  0  0  0  0  0  0  0  0  0
  149.2647  144.8872  159.2173 H   0  0  0  0  0  0  0  0  0  0  0  0
  150.2568  146.1986  159.8457 H   0  0  0  0  0  0  0  0  0  0  0  0
  149.2934  145.2147  160.9446 H   0  0  0  0  0  0  0  0  0  0  0  0
  153.3580  141.4984  162.2590 H   0  0  0  0  0  0  0  0  0  0  0  0
  152.7293  142.8059  163.2774 H   0  0  0  0  0  0  0  0  0  0  0  0
  154.2526  143.0274  162.3930 H   0  0  0  0  0  0  0  0  0  0  0  0
  154.0020  142.0771  158.3063 H   0  0  0  0  0  0  0  0  0  0  0  0
  153.6258  140.9333  159.5946 H   0  0  0  0  0  0  0  0  0  0  0  0
  154.7989  142.2236  159.8671 H   0  0  0  0  0  0  0  0  0  0  0  0
  150.8565  144.4230  157.4245 H   0  0  0  0  0  0  0  0  0  0  0  0
  152.5266  144.0044  157.1777 H   0  0  0  0  0  0  0  0  0  0  0  0
  149.7161  143.2086  156.0562 H   0  0  0  0  0  0  0  0  0  0  0  0
  150.4499  140.5339  155.2205 H   0  0  0  0  0  0  0  0  0  0  0  0
  149.1179  140.5408  156.3535 H   0  0  0  0  0  0  0  0  0  0  0  0
  149.1968  142.0923  153.6865 H   0  0  0  0  0  0  0  0  0  0  0  0
  148.3056  140.6216  153.9912 H   0  0  0  0  0  0  0  0  0  0  0  0
  146.6484  140.8077  156.1499 H   0  0  0  0  0  0  0  0  0  0  0  0
  147.8228  141.8123  156.9702 H   0  0  0  0  0  0  0  0  0  0  0  0
  145.5218  142.3532  157.7505 H   0  0  0  0  0  0  0  0  0  0  0  0
  146.3059  143.7249  157.0153 H   0  0  0  0  0  0  0  0  0  0  0  0
  144.0788  143.6983  156.1725 H   0  0  0  0  0  0  0  0  0  0  0  0
  144.3934  140.7740  155.3495 H   0  0  0  0  0  0  0  0  0  0  0  0
  142.9998  141.8008  155.0391 H   0  0  0  0  0  0  0  0  0  0  0  0
  143.4296  141.3802  156.6900 H   0  0  0  0  0  0  0  0  0  0  0  0
  144.4714  143.3747  153.6998 H   0  0  0  0  0  0  0  0  0  0  0  0
  145.6582  144.3548  154.5166 H   0  0  0  0  0  0  0  0  0  0  0  0
  146.7819  142.8145  152.9984 H   0  0  0  0  0  0  0  0  0  0  0  0
  146.0185  141.4197  153.7226 H   0  0  0  0  0  0  0  0  0  0  0  0
  147.8374  143.2612  155.0986 H   0  0  0  0  0  0  0  0  0  0  0  0
  1  2  1  0  0  0  0
  1 22  1  0  0  0  0
  1 23  1  0  0  0  0
  1 24  1  0  0  0  0
  2  8  1  0  0  0  0
  2  3  2  0  0  0  0
  3  4  1  0  0  0  0
  4  5  1  0  0  0  0
  4  6  1  0  0  0  0
  5 25  1  0  0  0  0
  5 26  1  0  0  0  0
  5 27  1  0  0  0  0
  6  7  1  0  0  0  0
  6  8  2  0  0  0  0
  7 28  1  0  0  0  0
  7 29  1  0  0  0  0
  7 30  1  0  0  0  0
  8  9  1  0  0  0  0
  9 10  1  0  0  0  0
  9 31  1  0  0  0  0
  9 32  1  0  0  0  0
 10 11  2  0  0  0  0
 10 12  1  0  0  0  0
 12 13  1  0  0  0  0
 12 33  1  0  0  0  0
 13 14  1  0  0  0  0
 13 34  1  0  0  0  0
 13 35  1  0  0  0  0
 14 15  1  0  0  0  0
 14 36  1  0  0  0  0
 14 37  1  0  0  0  0
 15 21  1  0  0  0  0
 15 16  1  0  0  0  0
 15 50  1  0  0  0  0
 16 17  1  0  0  0  0
 16 38  1  0  0  0  0
 16 39  1  0  0  0  0
 17 18  1  0  0  0  0
 17 40  1  0  0  0  0
 17 41  1  0  0  0  0
 18 19  1  0  0  0  0
 18 20  1  0  0  0  0
 18 42  1  0  0  0  0
 19 43  1  0  0  0  0
 19 44  1  0  0  0  0
 19 45  1  0  0  0  0
 20 21  1  0  0  0  0
 20 46  1  0  0  0  0
 20 47  1  0  0  0  0
 21 48  1  0  0  0  0
 21 49  1  0  0  0  0
M  CHG  1  15   1
M  END
> <s_m_source_file>
AV-unprocessed.smi

> <i_m_source_file_index>
1904

> <i_lp_mmshare_version>
43012

> <i_f3d_flags>
0

> <s_epik_input>
W0NIM11jMW5uKFtDSDNdKWMoW0NIM10pYzFbQ0gyXUMoPU8pW05IXVtDSDJdW0NIMl1OMltDSDJdW0NIMl1bQ0hdKFtDSDNdKVtDSDJdW0NIMl0y

> <s_epik_cmdline>
J2VwaWtfcHl0aG9uJywgJy1waCcsICc3LjAnLCAnLXRuJywgJzgnLCAnLW1hJywgJzIwMCcsICctbWV0YWxfYmluZGluZycsICctaW1hZScsICc8aW5maWxlLm1hZT4nLCAnLW9tYWUnLCAnPG91dGZpbGUubWFlPic=

> <r_lp_tautomer_probability>
1

> <r_epik_Ionization_Penalty>
0.00374255

> <r_epik_Ionization_Penalty_Charging>
0.00158211

> <r_epik_Ionization_Penalty_Neutral>
0.00216044

> <r_epik_State_Penalty>
-0

> <r_epik_Charging_Adjusted_Penalty>
0.00158211

> <i_epik_Tot_Q>
1

> <i_epik_Tot_abs_Q>
1

> <r_epik_Metal_State_Penalty>
-0

> <b_epik_Metal_Only>
0

> <s_lp_Force_Field>
OPLS_2005

> <r_lp_Energy>
12.0105

> <b_lp_Chiralities_Consistent>
1

> <s_lp_Variant>
AV-unprocessed.smi:1904-2

> <Gold.Version>
5.8.1

> <Gold.Id.Protein>
6NUR|6NUR_protein|mol2

> <Gold.PLP.Fitness>
57.8069

> <Gold.PLP.PLP>
-49.6175

> <Gold.PLP.part.hbond>
-2.0000

> <Gold.PLP.part.metal>
0.0000

> <Gold.PLP.part.buried>
-7.8174

> <Gold.PLP.part.nonpolar>
-40.4213

> <Gold.PLP.part.repulsive>
0.4045

> <Gold.PLP.ligand.clash>
0.0000

> <Gold.PLP.ligand.torsion>
0.4344

> <Gold.PLP.Chemscore.Hbond>
3.0000

> <Gold.PLP.Chemscore.CHOScore>
0.0000

> <Gold.PLP.Chemscore.Metal>
0.0000

> <Gold.Chemscore.Hbonds>
donor molecule, donor type, donor heavy atom, donor atom, acceptor molecule, acceptor atom, score
      L1  H    12    33       P1  8028  1.00
      L1  H    15    50       P1  8028  2.00

> <Gold.PLP.Chemscore.Internal.Correction>
0.0581

> <Gold.Rescore>
     Score         DG    S(hbond)    S(metal)    S(lipo)     H(rot)  DE(clash)    DE(int)     intcor
     20.24     -20.88       1.88        0.00     113.42       1.61       0.19       0.45       ----

> <Gold.Chemscore.Fitness>
20.2358

> <Gold.Chemscore.DG>
-20.8820

> <Gold.Chemscore.ZeroCoef>
-5.4800

> <Gold.Chemscore.Hbond>
1.8757

> <Gold.Chemscore.Metal>
0.0000

> <Gold.Chemscore.Lipo>
113.4152

> <Gold.Chemscore.Internal_Hbond>
0.0000

> <Gold.Chemscore.DEClash>
0.1917

> <Gold.Chemscore.DEInternal>
0.4545

> <Gold.Chemscore.Rot>
1.6142

> <Gold.Chemscore.Internal.Correction>
   9.000000E+99

> <Gold.Chemscore.Hbonds>
donor molecule, donor type, donor heavy atom, donor atom, acceptor molecule, acceptor atom, score
      L1  H    12    33       P1  8028  1.00
      L1  H    15    50       P1  8028  0.65

> <Gold.Chemscore.Hbond.Weighted>
-6.2648

> <Gold.Chemscore.Metal.Weighted>
-0.0000

> <Gold.Chemscore.Lipo.Weighted>
-13.2696

> <Gold.Chemscore.Internal_Hbond.Weighted>
0.0000

> <Gold.Chemscore.DEClash.Weighted>
0.1917

> <Gold.Chemscore.DEInternal.Weighted>
0.4545

> <Gold.Chemscore.Rot.Weighted>
4.1324

> <Gold.Chemscore.Internal.Correction.Weighted>
   9.000000E+99

> <Gold.Protein.RotatedTorsions>
[ 6907 6896 6895 6894 ] final  113.12 input  -60.11 | X-H torsion
[ 7974 7965 7964 7962 ] final -106.82 input  175.53 | X-H torsion
[ 8008 7997 7996 7995 ] final  -12.98 input   59.86 | X-H torsion
[ 10167 10162 10161 10158 ] final   32.77 input  -65.29 | X-H torsion
[ 10718 10713 10712 10709 ] final   56.45 input   66.30 | X-H torsion
[ 10763 10752 10751 10750 ] final   50.34 input  -60.55 | X-H torsion
[ 11005 11000 10999 10996 ] final   38.24 input  -57.11 | X-H torsion

> <Gold.Protein.ActiveResidues>
 VAL166  LYS551  ARG553  GLY616  TRP617  ASP618  TYR619  PRO620  LYS621  CYS622 
 ASP623  PHE694  ASN695  SER759  ASP760  ASP761  ALA762  ILE779  LEU786  VAL792 
 PHE793  MET794  SER795  GLU796  ALA797  LYS798  CYS799  TRP800  GLU811  SER814 

> <Gold.Protein.RotatedAtoms>
  152.4879  133.8421  159.7157 H   0  0  0  0  0  0  0  0  0  0  0  0  # atno 6907 bound_to 6896
  150.8981  133.7145  159.2893 H   0  0  0  0  0  0  0  0  0  0  0  0  # atno 6908 bound_to 6896
  151.4595  135.1041  159.9773 H   0  0  0  0  0  0  0  0  0  0  0  0  # atno 6909 bound_to 6896
  145.2131  140.9104  143.3303 H   0  0  0  0  0  0  0  0  0  0  0  0  # atno 7974 bound_to 7965
  154.5331  140.2262  155.8769 H   0  0  0  0  0  0  0  0  0  0  0  0  # atno 8008 bound_to 7997
  156.1784  140.3106  155.9066 H   0  0  0  0  0  0  0  0  0  0  0  0  # atno 8009 bound_to 7997
  155.3410  140.0450  157.3035 H   0  0  0  0  0  0  0  0  0  0  0  0  # atno 8010 bound_to 7997
  140.4468  144.1107  150.6184 H   0  0  0  0  0  0  0  0  0  0  0  0  # atno 10167 bound_to 10162
  157.5432  130.8712  149.8852 H   0  0  0  0  0  0  0  0  0  0  0  0  # atno 10718 bound_to 10713
  152.9785  135.5882  154.4236 H   0  0  0  0  0  0  0  0  0  0  0  0  # atno 10763 bound_to 10752
  154.3858  135.2767  155.2186 H   0  0  0  0  0  0  0  0  0  0  0  0  # atno 10764 bound_to 10752
  154.4080  135.6088  153.5990 H   0  0  0  0  0  0  0  0  0  0  0  0  # atno 10765 bound_to 10752
  140.2146  134.3714  155.8033 H   0  0  0  0  0  0  0  0  0  0  0  0  # atno 11005 bound_to 11000
  144.9837  139.3758  143.6249 LP  0  0  0  0  0  0  0  0  0  0  0  0  # atno 17320 bound_to 7965
  146.3393  139.8989  142.8797 LP  0  0  0  0  0  0  0  0  0  0  0  0  # atno 17321 bound_to 7965
  140.4254  143.2592  151.9663 LP  0  0  0  0  0  0  0  0  0  0  0  0  # atno 17342 bound_to 10162
  139.4793  144.5793  151.7960 LP  0  0  0  0  0  0  0  0  0  0  0  0  # atno 17343 bound_to 10162
  156.0513  130.3717  150.1194 LP  0  0  0  0  0  0  0  0  0  0  0  0  # atno 17370 bound_to 10713
  156.9372  130.9733  151.3522 LP  0  0  0  0  0  0  0  0  0  0  0  0  # atno 17371 bound_to 10713
  141.2225  133.7161  156.8474 LP  0  0  0  0  0  0  0  0  0  0  0  0  # atno 17394 bound_to 11000
  140.1915  134.8962  157.3065 LP  0  0  0  0  0  0  0  0  0  0  0  0  # atno 17395 bound_to 11000

$$$$
