AV-unprocessed.smi:1492|AV-procd|sdf|6042|dock7
  -GOLD-   22720 6153D 1   1.00000     0.00000
 Structure written by MMmdl.
 53 54  0  0  0  0  0  0  0  0  2 V2000
  150.4451  132.6475  156.6218 C   0  0  0  0  0  0  0  0  0  0  0  0
  149.4465  132.7603  155.4534 C   0  0  0  0  0  0  0  0  0  0  0  0
  149.1795  134.1837  154.8582 C   0  0  1  0  0  0  0  0  0  0  0  0
  148.5410  135.0692  155.9572 C   0  0  0  0  0  0  0  0  0  0  0  0
  150.5356  134.8288  154.4257 C   0  0  0  0  0  0  0  0  0  0  0  0
  150.4250  136.2684  154.1984 N   0  0  0  0  0  0  0  0  0  0  0  0
  151.2331  137.2187  154.6920 C   0  0  0  0  0  0  0  0  0  0  0  0
  152.1067  137.0005  155.5287 O   0  0  0  0  0  0  0  0  0  0  0  0
  151.0507  138.6332  154.1348 C   0  0  0  0  0  0  0  0  0  0  0  0
  150.7954  139.7318  155.1684 C   0  0  0  0  0  0  0  0  0  0  0  0
  149.7019  140.5357  155.1467 C   0  0  0  0  0  0  0  0  0  0  0  0
  148.5914  140.4447  154.1157 C   0  0  0  0  0  0  0  0  0  0  0  0
  149.5273  141.5312  156.0919 N   0  0  0  0  0  0  0  0  0  0  0  0
  150.5133  141.6951  157.0507 C   0  0  0  0  0  0  0  0  0  0  0  0
  150.2371  142.8234  158.0197 C   0  0  0  0  0  0  0  0  0  0  0  0
  151.5964  140.9861  157.1466 N   0  0  0  0  0  0  0  0  0  0  0  0
  151.8162  139.9564  156.2186 C   0  0  0  0  0  0  0  0  0  0  0  0
  152.8394  139.2757  156.2745 O   0  0  0  0  0  0  0  0  0  0  0  0
  148.2654  134.0741  153.6546 N   0  3  0  0  0  0  0  0  0  0  0  0
  148.6135  133.0337  152.6434 C   0  0  0  0  0  0  0  0  0  0  0  0
  147.6980  133.1320  151.4104 C   0  0  0  0  0  0  0  0  0  0  0  0
  146.3368  133.0343  151.7998 O   0  0  0  0  0  0  0  0  0  0  0  0
  145.9702  134.0871  152.6778 C   0  0  0  0  0  0  0  0  0  0  0  0
  146.8070  133.9947  153.9622 C   0  0  0  0  0  0  0  0  0  0  0  0
  148.6927  142.0990  156.0479 H   0  0  0  0  0  0  0  0  0  0  0  0
  150.4972  131.6152  156.9682 H   0  0  0  0  0  0  0  0  0  0  0  0
  150.1460  133.2519  157.4772 H   0  0  0  0  0  0  0  0  0  0  0  0
  151.4578  132.9314  156.3445 H   0  0  0  0  0  0  0  0  0  0  0  0
  149.7670  132.0851  154.6589 H   0  0  0  0  0  0  0  0  0  0  0  0
  148.5192  132.3456  155.8454 H   0  0  0  0  0  0  0  0  0  0  0  0
  149.2059  135.1864  156.8123 H   0  0  0  0  0  0  0  0  0  0  0  0
  147.6082  134.6467  156.3306 H   0  0  0  0  0  0  0  0  0  0  0  0
  148.3308  136.0791  155.6072 H   0  0  0  0  0  0  0  0  0  0  0  0
  151.2851  134.6892  155.2041 H   0  0  0  0  0  0  0  0  0  0  0  0
  150.9709  134.3266  153.5627 H   0  0  0  0  0  0  0  0  0  0  0  0
  149.7137  136.5646  153.5461 H   0  0  0  0  0  0  0  0  0  0  0  0
  151.9374  138.8705  153.5477 H   0  0  0  0  0  0  0  0  0  0  0  0
  150.2321  138.6262  153.4133 H   0  0  0  0  0  0  0  0  0  0  0  0
  148.9960  140.5493  153.1085 H   0  0  0  0  0  0  0  0  0  0  0  0
  147.8437  141.2259  154.2584 H   0  0  0  0  0  0  0  0  0  0  0  0
  148.0854  139.4816  154.1870 H   0  0  0  0  0  0  0  0  0  0  0  0
  151.0579  142.9385  158.7288 H   0  0  0  0  0  0  0  0  0  0  0  0
  149.3246  142.6257  158.5828 H   0  0  0  0  0  0  0  0  0  0  0  0
  150.1177  143.7648  157.4826 H   0  0  0  0  0  0  0  0  0  0  0  0
  149.6308  133.1487  152.2765 H   0  0  0  0  0  0  0  0  0  0  0  0
  148.5340  132.0399  153.0849 H   0  0  0  0  0  0  0  0  0  0  0  0
  147.8678  134.0662  150.8746 H   0  0  0  0  0  0  0  0  0  0  0  0
  147.9227  132.3248  150.7131 H   0  0  0  0  0  0  0  0  0  0  0  0
  146.1044  135.0537  152.1927 H   0  0  0  0  0  0  0  0  0  0  0  0
  144.9099  133.9946  152.9135 H   0  0  0  0  0  0  0  0  0  0  0  0
  146.5760  133.0549  154.4634 H   0  0  0  0  0  0  0  0  0  0  0  0
  146.4891  134.7980  154.6235 H   0  0  0  0  0  0  0  0  0  0  0  0
  148.3866  134.9519  153.1699 H   0  0  0  0  0  0  0  0  0  0  0  0
  1  2  1  0  0  0  0
  1 26  1  0  0  0  0
  1 27  1  0  0  0  0
  1 28  1  0  0  0  0
  2  3  1  0  0  0  0
  2 29  1  0  0  0  0
  2 30  1  0  0  0  0
  3  4  1  0  0  0  0
  3  5  1  0  0  0  0
  3 19  1  0  0  0  0
  4 31  1  0  0  0  0
  4 32  1  0  0  0  0
  4 33  1  0  0  0  0
  5  6  1  0  0  0  0
  5 34  1  0  0  0  0
  5 35  1  0  0  0  0
  6  7  1  0  0  0  0
  6 36  1  0  0  0  0
  7  8  2  0  0  0  0
  7  9  1  0  0  0  0
  9 37  1  0  0  0  0
  9 38  1  0  0  0  0
  9 10  1  0  0  0  0
 10 17  1  0  0  0  0
 10 11  2  0  0  0  0
 11 12  1  0  0  0  0
 11 13  1  0  0  0  0
 12 39  1  0  0  0  0
 12 40  1  0  0  0  0
 12 41  1  0  0  0  0
 13 25  1  0  0  0  0
 13 14  1  0  0  0  0
 14 15  1  0  0  0  0
 14 16  2  0  0  0  0
 15 42  1  0  0  0  0
 15 43  1  0  0  0  0
 15 44  1  0  0  0  0
 16 17  1  0  0  0  0
 17 18  2  0  0  0  0
 19 24  1  0  0  0  0
 19 20  1  0  0  0  0
 19 53  1  0  0  0  0
 20 21  1  0  0  0  0
 20 45  1  0  0  0  0
 20 46  1  0  0  0  0
 21 22  1  0  0  0  0
 21 47  1  0  0  0  0
 21 48  1  0  0  0  0
 22 23  1  0  0  0  0
 23 24  1  0  0  0  0
 23 49  1  0  0  0  0
 23 50  1  0  0  0  0
 24 51  1  0  0  0  0
 24 52  1  0  0  0  0
M  CHG  1  19   1
M  END
> <s_m_source_file>
AV-unprocessed.smi

> <i_m_source_file_index>
1492

> <i_lp_mmshare_version>
43012

> <i_f3d_flags>
0

> <s_epik_input>
W0NIMl0xW0NIMl1PW0NIMl1bQ0gyXU4xW0NAQF0oW0NIM10pKFtDSDJdW0NIM10pW0NIMl1bTkhdQyg9TylbQ0gyXWMyYyhbQ0gzXSluYyhbQ0gzXSlbbkhdYzI9Tw==

> <s_epik_cmdline>
J2VwaWtfcHl0aG9uJywgJy1waCcsICc3LjAnLCAnLXRuJywgJzgnLCAnLW1hJywgJzIwMCcsICctbWV0YWxfYmluZGluZycsICctaW1hZScsICc8aW5maWxlLm1hZT4nLCAnLW9tYWUnLCAnPG91dGZpbGUubWFlPic=

> <r_lp_tautomer_probability>
0.156392

> <r_epik_Ionization_Penalty>
0.523233

> <r_epik_Ionization_Penalty_Charging>
0.523147

> <r_epik_Ionization_Penalty_Neutral>
8.52784e-05

> <r_epik_State_Penalty>
1.66677

> <r_epik_Charging_Adjusted_Penalty>
2.18991

> <i_epik_Tot_Q>
1

> <i_epik_Tot_abs_Q>
1

> <r_epik_Metal_State_Penalty>
1.84524

> <b_epik_Metal_Only>
0

> <s_lp_Force_Field>
OPLS_2005

> <r_lp_Energy>
37.6543

> <b_lp_Chiralities_Consistent>
1

> <s_lp_Variant>
AV-unprocessed.smi:1492-7

> <Gold.Version>
5.8.1

> <Gold.Id.Protein>
6NUR|6NUR_protein|mol2

> <Gold.PLP.Fitness>
49.7886

> <Gold.PLP.PLP>
-36.6553

> <Gold.PLP.part.hbond>
-5.2910

> <Gold.PLP.part.metal>
0.0000

> <Gold.PLP.part.buried>
-3.4003

> <Gold.PLP.part.nonpolar>
-28.9614

> <Gold.PLP.part.repulsive>
0.2916

> <Gold.PLP.ligand.clash>
0.0000

> <Gold.PLP.ligand.torsion>
0.7189

> <Gold.PLP.Chemscore.Hbond>
4.7680

> <Gold.PLP.Chemscore.CHOScore>
0.0000

> <Gold.PLP.Chemscore.Metal>
0.0000

> <Gold.Chemscore.Hbonds>
donor molecule, donor type, donor heavy atom, donor atom, acceptor molecule, acceptor atom, score
      L1  H     6    36       P1  7948  0.86
      L1  H    19    53       P1  7948  2.00
      P1  H  7997  8010       L1    18  1.00
      P1  H 10752 10763       L1     8  0.96

> <Gold.PLP.Chemscore.Internal.Correction>
0.2671

> <Gold.Rescore>
     Score         DG    S(hbond)    S(metal)    S(lipo)     H(rot)  DE(clash)    DE(int)     intcor
     16.86     -19.32       3.28        0.00      72.59       2.19       0.01       2.45       ----

> <Gold.Chemscore.Fitness>
16.8597

> <Gold.Chemscore.DG>
-19.3190

> <Gold.Chemscore.ZeroCoef>
-5.4800

> <Gold.Chemscore.Hbond>
3.2811

> <Gold.Chemscore.Metal>
0.0000

> <Gold.Chemscore.Lipo>
72.5898

> <Gold.Chemscore.Internal_Hbond>
0.0000

> <Gold.Chemscore.DEClash>
0.0135

> <Gold.Chemscore.DEInternal>
2.4458

> <Gold.Chemscore.Rot>
2.1926

> <Gold.Chemscore.Internal.Correction>
   9.000000E+99

> <Gold.Chemscore.Hbonds>
donor molecule, donor type, donor heavy atom, donor atom, acceptor molecule, acceptor atom, score
      L1  H     6    36       P1  7948  0.38
      L1  H    19    53       P1  7948  0.82
      P1  H  7997  8010       L1    18  0.94
      P1  H 10752 10763       L1     8  0.37

> <Gold.Chemscore.Hbond.Weighted>
-10.9590

> <Gold.Chemscore.Metal.Weighted>
-0.0000

> <Gold.Chemscore.Lipo.Weighted>
-8.4930

> <Gold.Chemscore.Internal_Hbond.Weighted>
0.0000

> <Gold.Chemscore.DEClash.Weighted>
0.0135

> <Gold.Chemscore.DEInternal.Weighted>
2.4458

> <Gold.Chemscore.Rot.Weighted>
5.6129

> <Gold.Chemscore.Internal.Correction.Weighted>
   9.000000E+99

> <Gold.Protein.RotatedTorsions>
[ 6907 6896 6895 6894 ] final    9.24 input  -60.11 | X-H torsion
[ 7974 7965 7964 7962 ] final   36.84 input  175.53 | X-H torsion
[ 8008 7997 7996 7995 ] final   82.73 input   59.86 | X-H torsion
[ 10167 10162 10161 10158 ] final  179.33 input  -65.29 | X-H torsion
[ 10718 10713 10712 10709 ] final   19.69 input   66.30 | X-H torsion
[ 10763 10752 10751 10750 ] final   72.40 input  -60.55 | X-H torsion
[ 11005 11000 10999 10996 ] final   97.45 input  -57.11 | X-H torsion

> <Gold.Protein.ActiveResidues>
 VAL166  LYS551  ARG553  GLY616  TRP617  ASP618  TYR619  PRO620  LYS621  CYS622 
 ASP623  PHE694  ASN695  SER759  ASP760  ASP761  ALA762  ILE779  LEU786  VAL792 
 PHE793  MET794  SER795  GLU796  ALA797  LYS798  CYS799  TRP800  GLU811  SER814 

> <Gold.Protein.RotatedAtoms>
  151.7189  135.0898  160.0280 H   0  0  0  0  0  0  0  0  0  0  0  0  # atno 6907 bound_to 6896
  152.3614  133.6298  159.6026 H   0  0  0  0  0  0  0  0  0  0  0  0  # atno 6908 bound_to 6896
  150.7607  133.9333  159.3475 H   0  0  0  0  0  0  0  0  0  0  0  0  # atno 6909 bound_to 6896
  146.1182  139.5968  142.9307 H   0  0  0  0  0  0  0  0  0  0  0  0  # atno 7974 bound_to 7965
  155.9145  140.3425  155.6124 H   0  0  0  0  0  0  0  0  0  0  0  0  # atno 8008 bound_to 7997
  155.7348  140.0800  157.2291 H   0  0  0  0  0  0  0  0  0  0  0  0  # atno 8009 bound_to 7997
  154.4060  140.1581  156.2537 H   0  0  0  0  0  0  0  0  0  0  0  0  # atno 8010 bound_to 7997
  139.5332  144.2574  152.0735 H   0  0  0  0  0  0  0  0  0  0  0  0  # atno 10167 bound_to 10162
  157.1140  130.6521  149.5905 H   0  0  0  0  0  0  0  0  0  0  0  0  # atno 10718 bound_to 10713
  153.0456  135.5101  154.7738 H   0  0  0  0  0  0  0  0  0  0  0  0  # atno 10763 bound_to 10752
  154.6640  135.2943  154.9832 H   0  0  0  0  0  0  0  0  0  0  0  0  # atno 10764 bound_to 10752
  154.0673  135.6682  153.4872 H   0  0  0  0  0  0  0  0  0  0  0  0  # atno 10765 bound_to 10752
  139.8776  134.9001  156.4310 H   0  0  0  0  0  0  0  0  0  0  0  0  # atno 11005 bound_to 11000
  145.5523  141.0412  143.2272 LP  0  0  0  0  0  0  0  0  0  0  0  0  # atno 17320 bound_to 7965
  144.7572  139.7045  143.7249 LP  0  0  0  0  0  0  0  0  0  0  0  0  # atno 17321 bound_to 7965
  140.2041  144.4629  150.6417 LP  0  0  0  0  0  0  0  0  0  0  0  0  # atno 17342 bound_to 10162
  140.6522  143.2228  151.6050 LP  0  0  0  0  0  0  0  0  0  0  0  0  # atno 17343 bound_to 10162
  155.9844  130.4868  150.6979 LP  0  0  0  0  0  0  0  0  0  0  0  0  # atno 17370 bound_to 10713
  157.4534  131.0875  151.0822 LP  0  0  0  0  0  0  0  0  0  0  0  0  # atno 17371 bound_to 10713
  140.9067  133.7741  155.9743 LP  0  0  0  0  0  0  0  0  0  0  0  0  # atno 17394 bound_to 11000
  140.8591  134.2862  157.5242 LP  0  0  0  0  0  0  0  0  0  0  0  0  # atno 17395 bound_to 11000

$$$$
