AV-unprocessed.smi:2822|AV-procd|sdf|10863|dock10
  -GOLD-   2272015303D 1   1.00000     0.00000
 Structure written by MMmdl.
 41 43  0  0  0  0  0  0  0  0  3 V2000
  150.1473  138.9493  154.1010 Cl  0  0  0  0  0  0  0  0  0  0  0  0
  148.8806  140.1255  154.0519 C   0  0  0  0  0  0  0  0  0  0  0  0
  149.0940  141.3945  154.6289 C   0  0  0  0  0  0  0  0  0  0  0  0
  148.1155  142.3239  154.5976 N   0  3  0  0  0  0  0  0  0  0  0  0
  146.9128  142.0973  154.0283 C   0  0  0  0  0  0  0  0  0  0  0  0
  146.6396  140.8483  153.4341 C   0  0  0  0  0  0  0  0  0  0  0  0
  147.6348  139.8392  153.4413 C   0  0  0  0  0  0  0  0  0  0  0  0
  147.4287  138.5756  152.8677 N   0  0  0  0  0  0  0  0  0  0  0  0
  146.1158  138.1467  152.4057 C   0  0  0  0  0  0  0  0  0  0  0  0
  145.7513  136.7403  152.9117 C   0  0  1  0  0  0  0  0  0  0  0  0
  144.7484  135.9998  152.0035 C   0  0  0  0  0  0  0  0  0  0  0  0
  144.4891  134.6326  152.5188 N   0  3  1  0  0  0  0  0  0  0  0  0
  143.5027  133.8649  151.7140 C   0  0  0  0  0  0  0  0  0  0  0  0
  144.1000  133.3588  150.3864 C   0  0  0  0  0  0  0  0  0  0  0  0
  145.3854  132.5557  150.6281 C   0  0  0  0  0  0  0  0  0  0  0  0
  146.3850  133.3780  151.4540 C   0  0  0  0  0  0  0  0  0  0  0  0
  145.7436  133.8702  152.7700 C   0  0  1  0  0  0  0  0  0  0  0  0
  146.7128  134.7042  153.6310 C   0  0  0  0  0  0  0  0  0  0  0  0
  146.9447  135.9742  153.0337 O   0  0  0  0  0  0  0  0  0  0  0  0
  150.0135  141.6918  155.1119 H   0  0  0  0  0  0  0  0  0  0  0  0
  146.2088  142.9161  154.0650 H   0  0  0  0  0  0  0  0  0  0  0  0
  145.6714  140.6854  152.9849 H   0  0  0  0  0  0  0  0  0  0  0  0
  148.2036  137.9313  152.7926 H   0  0  0  0  0  0  0  0  0  0  0  0
  145.3662  138.8623  152.7452 H   0  0  0  0  0  0  0  0  0  0  0  0
  146.0993  138.1553  151.3152 H   0  0  0  0  0  0  0  0  0  0  0  0
  145.3110  136.8532  153.9042 H   0  0  0  0  0  0  0  0  0  0  0  0
  143.8103  136.5539  151.9591 H   0  0  0  0  0  0  0  0  0  0  0  0
  145.1295  135.9462  150.9841 H   0  0  0  0  0  0  0  0  0  0  0  0
  143.1674  133.0130  152.3072 H   0  0  0  0  0  0  0  0  0  0  0  0
  142.6184  134.4753  151.5274 H   0  0  0  0  0  0  0  0  0  0  0  0
  143.3694  132.7383  149.8666 H   0  0  0  0  0  0  0  0  0  0  0  0
  144.3099  134.1976  149.7224 H   0  0  0  0  0  0  0  0  0  0  0  0
  145.1461  131.6317  151.1562 H   0  0  0  0  0  0  0  0  0  0  0  0
  145.8322  132.2643  149.6772 H   0  0  0  0  0  0  0  0  0  0  0  0
  147.2628  132.7695  151.6740 H   0  0  0  0  0  0  0  0  0  0  0  0
  146.7425  134.2226  150.8639 H   0  0  0  0  0  0  0  0  0  0  0  0
  145.4709  132.9871  153.3500 H   0  0  0  0  0  0  0  0  0  0  0  0
  146.3114  134.8398  154.6367 H   0  0  0  0  0  0  0  0  0  0  0  0
  147.6649  134.1852  153.7442 H   0  0  0  0  0  0  0  0  0  0  0  0
  144.0620  134.7679  153.4242 H   0  0  0  0  0  0  0  0  0  0  0  0
  148.2927  143.2346  155.0223 H   0  0  0  0  0  0  0  0  0  0  0  0
  1  2  1  0  0  0  0
  2  7  1  0  0  0  0
  2  3  2  0  0  0  0
  3  4  1  0  0  0  0
  3 20  1  0  0  0  0
  4  5  2  0  0  0  0
  4 41  1  0  0  0  0
  5  6  1  0  0  0  0
  5 21  1  0  0  0  0
  6  7  2  0  0  0  0
  6 22  1  0  0  0  0
  7  8  1  0  0  0  0
  8  9  1  0  0  0  0
  8 23  1  0  0  0  0
  9 10  1  0  0  0  0
  9 24  1  0  0  0  0
  9 25  1  0  0  0  0
 10 19  1  0  0  0  0
 10 11  1  0  0  0  0
 10 26  1  0  0  0  0
 11 12  1  0  0  0  0
 11 27  1  0  0  0  0
 11 28  1  0  0  0  0
 12 17  1  0  0  0  0
 12 13  1  0  0  0  0
 12 40  1  0  0  0  0
 13 14  1  0  0  0  0
 13 29  1  0  0  0  0
 13 30  1  0  0  0  0
 14 15  1  0  0  0  0
 14 31  1  0  0  0  0
 14 32  1  0  0  0  0
 15 16  1  0  0  0  0
 15 33  1  0  0  0  0
 15 34  1  0  0  0  0
 16 17  1  0  0  0  0
 16 35  1  0  0  0  0
 16 36  1  0  0  0  0
 17 18  1  0  0  0  0
 17 37  1  0  0  0  0
 18 19  1  0  0  0  0
 18 38  1  0  0  0  0
 18 39  1  0  0  0  0
M  CHG  1   4   1
M  CHG  1  12   1
M  END
> <s_m_source_file>
AV-unprocessed.smi

> <i_m_source_file_index>
2822

> <i_lp_mmshare_version>
43012

> <i_f3d_flags>
0

> <s_epik_input>
Q2xjMVtjSF1uW2NIXVtjSF1jMVtOSF1bQ0gyXVtDQEhdKFtDSDJdMilPW0NIMl1bQ0BASF0oTjIzKVtDSDJdW0NIMl1bQ0gyXVtDSDJdMw==

> <s_epik_cmdline>
J2VwaWtfcHl0aG9uJywgJy1waCcsICc3LjAnLCAnLXRuJywgJzgnLCAnLW1hJywgJzIwMCcsICctbWV0YWxfYmluZGluZycsICctaW1hZScsICc8aW5maWxlLm1hZT4nLCAnLW9tYWUnLCAnPG91dGZpbGUubWFlPic=

> <r_lp_tautomer_probability>
1

> <r_epik_Ionization_Penalty>
0.254999

> <r_epik_Ionization_Penalty_Charging>
0.254956

> <r_epik_Ionization_Penalty_Neutral>
4.33524e-05

> <r_epik_State_Penalty>
0.230978

> <r_epik_Charging_Adjusted_Penalty>
0.485934

> <i_epik_Tot_Q>
2

> <i_epik_Tot_abs_Q>
2

> <r_epik_Metal_State_Penalty>
3.47007

> <b_epik_Metal_Only>
0

> <s_lp_Force_Field>
OPLS_2005

> <r_lp_Energy>
41.3986

> <b_lp_Chiralities_Consistent>
1

> <s_lp_Variant>
AV-unprocessed.smi:2822-4

> <Gold.Version>
5.8.1

> <Gold.Id.Protein>
6NUR|6NUR_protein|mol2

> <Gold.PLP.Fitness>
39.0196

> <Gold.PLP.PLP>
-31.1348

> <Gold.PLP.part.hbond>
-2.7588

> <Gold.PLP.part.metal>
0.0000

> <Gold.PLP.part.buried>
-3.0949

> <Gold.PLP.part.nonpolar>
-31.2820

> <Gold.PLP.part.repulsive>
5.4264

> <Gold.PLP.ligand.clash>
0.0000

> <Gold.PLP.ligand.torsion>
0.4026

> <Gold.PLP.Chemscore.Hbond>
2.8960

> <Gold.PLP.Chemscore.CHOScore>
0.0000

> <Gold.PLP.Chemscore.Metal>
0.0000

> <Gold.Chemscore.Hbonds>
donor molecule, donor type, donor heavy atom, donor atom, acceptor molecule, acceptor atom, score
      L1  H     4    41       P1  8028  2.00
      L1  H     8    23       P1  7948  0.86

> <Gold.PLP.Chemscore.Internal.Correction>
0.0019

> <Gold.Rescore>
     Score         DG    S(hbond)    S(metal)    S(lipo)     H(rot)  DE(clash)    DE(int)     intcor
     16.88     -19.41       1.79        0.00      94.17       1.20       2.19       0.34       ----

> <Gold.Chemscore.Fitness>
16.8777

> <Gold.Chemscore.DG>
-19.4116

> <Gold.Chemscore.ZeroCoef>
-5.4800

> <Gold.Chemscore.Hbond>
1.7892

> <Gold.Chemscore.Metal>
0.0000

> <Gold.Chemscore.Lipo>
94.1701

> <Gold.Chemscore.Internal_Hbond>
0.0000

> <Gold.Chemscore.DEClash>
2.1892

> <Gold.Chemscore.DEInternal>
0.3447

> <Gold.Chemscore.Rot>
1.1962

> <Gold.Chemscore.Internal.Correction>
   9.000000E+99

> <Gold.Chemscore.Hbonds>
donor molecule, donor type, donor heavy atom, donor atom, acceptor molecule, acceptor atom, score
      L1  H     4    41       P1  8028  0.98
      L1  H     8    23       P1  7948  0.79

> <Gold.Chemscore.Hbond.Weighted>
-5.9760

> <Gold.Chemscore.Metal.Weighted>
-0.0000

> <Gold.Chemscore.Lipo.Weighted>
-11.0179

> <Gold.Chemscore.Internal_Hbond.Weighted>
0.0000

> <Gold.Chemscore.DEClash.Weighted>
2.1892

> <Gold.Chemscore.DEInternal.Weighted>
0.3447

> <Gold.Chemscore.Rot.Weighted>
3.0623

> <Gold.Chemscore.Internal.Correction.Weighted>
   9.000000E+99

> <Gold.Protein.RotatedTorsions>
[ 6907 6896 6895 6894 ] final   10.69 input  -60.11 | X-H torsion
[ 7974 7965 7964 7962 ] final   91.32 input  175.53 | X-H torsion
[ 8008 7997 7996 7995 ] final  167.14 input   59.86 | X-H torsion
[ 10167 10162 10161 10158 ] final   93.92 input  -65.29 | X-H torsion
[ 10718 10713 10712 10709 ] final   62.63 input   66.30 | X-H torsion
[ 10763 10752 10751 10750 ] final   -5.93 input  -60.55 | X-H torsion
[ 11005 11000 10999 10996 ] final  161.01 input  -57.11 | X-H torsion

> <Gold.Protein.ActiveResidues>
 VAL166  LYS551  ARG553  GLY616  TRP617  ASP618  TYR619  PRO620  LYS621  CYS622 
 ASP623  PHE694  ASN695  SER759  ASP760  ASP761  ALA762  ILE779  LEU786  VAL792 
 PHE793  MET794  SER795  GLU796  ALA797  LYS798  CYS799  TRP800  GLU811  SER814 

> <Gold.Protein.RotatedAtoms>
  151.7422  135.0851  160.0317 H   0  0  0  0  0  0  0  0  0  0  0  0  # atno 6907 bound_to 6896
  152.3472  133.6131  159.5927 H   0  0  0  0  0  0  0  0  0  0  0  0  # atno 6908 bound_to 6896
  150.7516  133.9547  159.3538 H   0  0  0  0  0  0  0  0  0  0  0  0  # atno 6909 bound_to 6896
  145.5072  139.2276  143.2745 H   0  0  0  0  0  0  0  0  0  0  0  0  # atno 7974 bound_to 7965
  156.1659  140.1624  156.8533 H   0  0  0  0  0  0  0  0  0  0  0  0  # atno 8008 bound_to 7997
  154.5207  140.0779  156.8200 H   0  0  0  0  0  0  0  0  0  0  0  0  # atno 8009 bound_to 7997
  155.3613  140.3395  155.4243 H   0  0  0  0  0  0  0  0  0  0  0  0  # atno 8010 bound_to 7997
  139.8133  144.6763  150.9612 H   0  0  0  0  0  0  0  0  0  0  0  0  # atno 10167 bound_to 10162
  157.5914  130.9061  149.9612 H   0  0  0  0  0  0  0  0  0  0  0  0  # atno 10718 bound_to 10713
  153.4053  135.7006  153.6397 H   0  0  0  0  0  0  0  0  0  0  0  0  # atno 10763 bound_to 10752
  153.4914  135.3672  155.2494 H   0  0  0  0  0  0  0  0  0  0  0  0  # atno 10764 bound_to 10752
  154.8713  135.4090  154.3395 H   0  0  0  0  0  0  0  0  0  0  0  0  # atno 10765 bound_to 10752
  140.2115  134.8263  157.3126 H   0  0  0  0  0  0  0  0  0  0  0  0  # atno 11005 bound_to 11000
  146.2189  140.5876  142.9026 LP  0  0  0  0  0  0  0  0  0  0  0  0  # atno 17320 bound_to 7965
  144.7747  140.5714  143.6646 LP  0  0  0  0  0  0  0  0  0  0  0  0  # atno 17321 bound_to 7965
  140.7817  143.4163  151.0912 LP  0  0  0  0  0  0  0  0  0  0  0  0  # atno 17342 bound_to 10162
  139.7828  143.8330  152.3140 LP  0  0  0  0  0  0  0  0  0  0  0  0  # atno 17343 bound_to 10162
  156.0970  130.3658  150.0289 LP  0  0  0  0  0  0  0  0  0  0  0  0  # atno 17370 bound_to 10713
  156.8410  130.9426  151.3632 LP  0  0  0  0  0  0  0  0  0  0  0  0  # atno 17371 bound_to 10713
  140.1945  134.4330  155.7697 LP  0  0  0  0  0  0  0  0  0  0  0  0  # atno 17394 bound_to 11000
  141.2226  133.7043  156.8082 LP  0  0  0  0  0  0  0  0  0  0  0  0  # atno 17395 bound_to 11000

$$$$
