AV-unprocessed.smi:2213|AV-procd|sdf|8956|dock7
  -GOLD-   2272012173D 1   1.00000     0.00000
 Structure written by MMmdl.
 38 39  0  0  0  0  0  0  0  0  1 V2000
  152.3493  143.3491  159.7020 C   0  0  0  0  0  0  0  0  0  0  0  0
  152.0472  141.9375  159.2310 C   0  0  0  0  0  0  0  0  0  0  0  0
  151.0137  141.8207  158.2971 N   0  0  0  0  0  0  0  0  0  0  0  0
  150.6816  140.6559  157.8451 C   0  0  0  0  0  0  0  0  0  0  0  0
  151.3356  139.4869  158.2670 N   0  0  0  0  0  0  0  0  0  0  0  0
  150.8565  138.2240  157.6809 C   0  0  0  0  0  0  0  0  0  0  0  0
  150.3560  137.2311  158.7542 C   0  0  2  0  0  0  0  0  0  0  0  0
  150.4886  135.8999  158.2974 O   0  0  0  0  0  0  0  0  0  0  0  0
  148.8818  137.4504  159.1352 C   0  0  0  0  0  0  0  0  0  0  0  0
  148.6862  137.1283  160.5067 O   0  0  0  0  0  0  0  0  0  0  0  0
  148.2314  135.8675  160.8309 C   0  0  0  0  0  0  0  0  0  0  0  0
  148.2215  134.7734  159.9285 C   0  0  0  0  0  0  0  0  0  0  0  0
  147.7373  133.5147  160.3356 C   0  0  0  0  0  0  0  0  0  0  0  0
  147.7310  132.1938  159.2257 Cl  0  0  0  0  0  0  0  0  0  0  0  0
  147.2587  133.3325  161.6462 C   0  0  0  0  0  0  0  0  0  0  0  0
  147.2658  134.4108  162.5495 C   0  0  0  0  0  0  0  0  0  0  0  0
  147.7497  135.6702  162.1445 C   0  0  0  0  0  0  0  0  0  0  0  0
  147.7494  136.9774  163.2740 Cl  0  0  0  0  0  0  0  0  0  0  0  0
  152.3639  139.5126  159.1636 C   0  0  0  0  0  0  0  0  0  0  0  0
  152.9443  138.4824  159.5114 O   0  0  0  0  0  0  0  0  0  0  0  0
  152.7251  140.8443  159.6758 C   0  0  0  0  0  0  0  0  0  0  0  0
  153.8585  140.9105  160.6919 C   0  0  0  0  0  0  0  0  0  0  0  0
  152.1864  143.4354  160.7765 H   0  0  0  0  0  0  0  0  0  0  0  0
  151.7068  144.0788  159.2075 H   0  0  0  0  0  0  0  0  0  0  0  0
  153.3841  143.6129  159.4825 H   0  0  0  0  0  0  0  0  0  0  0  0
  149.8845  140.5111  157.1137 H   0  0  0  0  0  0  0  0  0  0  0  0
  150.0384  138.4533  156.9951 H   0  0  0  0  0  0  0  0  0  0  0  0
  151.6112  137.7526  157.0474 H   0  0  0  0  0  0  0  0  0  0  0  0
  150.9509  137.3226  159.6637 H   0  0  0  0  0  0  0  0  0  0  0  0
  149.6551  135.6139  157.9561 H   0  0  0  0  0  0  0  0  0  0  0  0
  148.5824  138.4785  158.9233 H   0  0  0  0  0  0  0  0  0  0  0  0
  148.2612  136.7918  158.5254 H   0  0  0  0  0  0  0  0  0  0  0  0
  148.5817  134.8748  158.9161 H   0  0  0  0  0  0  0  0  0  0  0  0
  146.8869  132.3682  161.9599 H   0  0  0  0  0  0  0  0  0  0  0  0
  146.8990  134.2706  163.5557 H   0  0  0  0  0  0  0  0  0  0  0  0
  154.7782  140.5212  160.2546 H   0  0  0  0  0  0  0  0  0  0  0  0
  153.6162  140.3054  161.5662 H   0  0  0  0  0  0  0  0  0  0  0  0
  154.0645  141.9209  161.0410 H   0  0  0  0  0  0  0  0  0  0  0  0
  1  2  1  0  0  0  0
  1 23  1  0  0  0  0
  1 24  1  0  0  0  0
  1 25  1  0  0  0  0
  2 21  2  0  0  0  0
  2  3  1  0  0  0  0
  3  4  2  0  0  0  0
  4  5  1  0  0  0  0
  4 26  1  0  0  0  0
  5  6  1  0  0  0  0
  5 19  1  0  0  0  0
  6  7  1  0  0  0  0
  6 27  1  0  0  0  0
  6 28  1  0  0  0  0
  7  8  1  0  0  0  0
  7  9  1  0  0  0  0
  7 29  1  0  0  0  0
  8 30  1  0  0  0  0
  9 10  1  0  0  0  0
  9 31  1  0  0  0  0
  9 32  1  0  0  0  0
 10 11  1  0  0  0  0
 11 17  1  0  0  0  0
 11 12  2  0  0  0  0
 12 13  1  0  0  0  0
 12 33  1  0  0  0  0
 13 14  1  0  0  0  0
 13 15  2  0  0  0  0
 15 16  1  0  0  0  0
 15 34  1  0  0  0  0
 16 17  2  0  0  0  0
 16 35  1  0  0  0  0
 17 18  1  0  0  0  0
 19 20  2  0  0  0  0
 19 21  1  0  0  0  0
 21 22  1  0  0  0  0
 22 36  1  0  0  0  0
 22 37  1  0  0  0  0
 22 38  1  0  0  0  0
M  END
> <s_m_source_file>
AV-unprocessed.smi

> <i_m_source_file_index>
2213

> <i_lp_mmshare_version>
43012

> <i_f3d_flags>
0

> <s_epik_input>
W0NIM11jMW5bY0hdbihjKD1PKWMxW0NIM10pW0NIMl1bQ0BIXShbT0hdKVtDSDJdT2MyW2NIXWMoQ2wpW2NIXVtjSF1jMkNs

> <s_epik_cmdline>
J2VwaWtfcHl0aG9uJywgJy1waCcsICc3LjAnLCAnLXRuJywgJzgnLCAnLW1hJywgJzIwMCcsICctbWV0YWxfYmluZGluZycsICctaW1hZScsICc8aW5maWxlLm1hZT4nLCAnLW9tYWUnLCAnPG91dGZpbGUubWFlPic=

> <r_lp_tautomer_probability>
1

> <r_epik_Ionization_Penalty>
3.50205e-05

> <r_epik_Ionization_Penalty_Charging>
7.87908e-08

> <r_epik_Ionization_Penalty_Neutral>
3.49418e-05

> <r_epik_State_Penalty>
-0

> <r_epik_Charging_Adjusted_Penalty>
7.87908e-08

> <i_epik_Tot_Q>
0

> <i_epik_Tot_abs_Q>
0

> <r_epik_Metal_State_Penalty>
-0

> <b_epik_Metal_Only>
0

> <s_lp_Force_Field>
OPLS_2005

> <r_lp_Energy>
24.8727

> <b_lp_Chiralities_Consistent>
1

> <s_lp_Variant>
AV-unprocessed.smi:2213-1

> <Gold.Version>
5.8.1

> <Gold.Id.Protein>
6NUR|6NUR_protein|mol2

> <Gold.PLP.Fitness>
46.1492

> <Gold.PLP.PLP>
-43.6240

> <Gold.PLP.part.hbond>
-2.9958

> <Gold.PLP.part.metal>
0.0000

> <Gold.PLP.part.buried>
-3.7875

> <Gold.PLP.part.nonpolar>
-37.3075

> <Gold.PLP.part.repulsive>
0.0234

> <Gold.PLP.ligand.clash>
0.0000

> <Gold.PLP.ligand.torsion>
1.1339

> <Gold.PLP.Chemscore.Hbond>
1.5851

> <Gold.PLP.Chemscore.CHOScore>
0.0000

> <Gold.PLP.Chemscore.Metal>
0.0000

> <Gold.Chemscore.Hbonds>
donor molecule, donor type, donor heavy atom, donor atom, acceptor molecule, acceptor atom, score
      P1  H  6896  6909       L1     8  0.75
      P1  H  6931  6943       L1    10  0.72

> <Gold.PLP.Chemscore.Internal.Correction>
0.0377

> <Gold.Rescore>
     Score         DG    S(hbond)    S(metal)    S(lipo)     H(rot)  DE(clash)    DE(int)     intcor
     16.16     -17.53       1.60        0.00     109.53       2.38       0.34       1.03       ----

> <Gold.Chemscore.Fitness>
16.1600

> <Gold.Chemscore.DG>
-17.5292

> <Gold.Chemscore.ZeroCoef>
-5.4800

> <Gold.Chemscore.Hbond>
1.5969

> <Gold.Chemscore.Metal>
0.0000

> <Gold.Chemscore.Lipo>
109.5298

> <Gold.Chemscore.Internal_Hbond>
0.0000

> <Gold.Chemscore.DEClash>
0.3411

> <Gold.Chemscore.DEInternal>
1.0281

> <Gold.Chemscore.Rot>
2.3826

> <Gold.Chemscore.Internal.Correction>
   9.000000E+99

> <Gold.Chemscore.Hbonds>
donor molecule, donor type, donor heavy atom, donor atom, acceptor molecule, acceptor atom, score
      P1  H  6896  6909       L1     8  0.22
      P1  H  6931  6943       L1    10  0.68

> <Gold.Chemscore.Hbond.Weighted>
-5.3338

> <Gold.Chemscore.Metal.Weighted>
-0.0000

> <Gold.Chemscore.Lipo.Weighted>
-12.8150

> <Gold.Chemscore.Internal_Hbond.Weighted>
0.0000

> <Gold.Chemscore.DEClash.Weighted>
0.3411

> <Gold.Chemscore.DEInternal.Weighted>
1.0281

> <Gold.Chemscore.Rot.Weighted>
6.0996

> <Gold.Chemscore.Internal.Correction.Weighted>
   9.000000E+99

> <Gold.Protein.RotatedTorsions>
[ 6907 6896 6895 6894 ] final   60.50 input  -60.11 | X-H torsion
[ 7974 7965 7964 7962 ] final   59.38 input  175.53 | X-H torsion
[ 8008 7997 7996 7995 ] final   91.35 input   59.86 | X-H torsion
[ 10167 10162 10161 10158 ] final  129.87 input  -65.29 | X-H torsion
[ 10718 10713 10712 10709 ] final -103.73 input   66.30 | X-H torsion
[ 10763 10752 10751 10750 ] final  -96.31 input  -60.55 | X-H torsion
[ 11005 11000 10999 10996 ] final -150.42 input  -57.11 | X-H torsion

> <Gold.Protein.ActiveResidues>
 VAL166  LYS551  ARG553  GLY616  TRP617  ASP618  TYR619  PRO620  LYS621  CYS622 
 ASP623  PHE694  ASN695  SER759  ASP760  ASP761  ALA762  ILE779  LEU786  VAL792 
 PHE793  MET794  SER795  GLU796  ALA797  LYS798  CYS799  TRP800  GLU811  SER814 

> <Gold.Protein.RotatedAtoms>
  152.4008  134.6289  160.0070 H   0  0  0  0  0  0  0  0  0  0  0  0  # atno 6907 bound_to 6896
  151.6495  133.3316  159.3156 H   0  0  0  0  0  0  0  0  0  0  0  0  # atno 6908 bound_to 6896
  150.7909  134.6974  159.6575 H   0  0  0  0  0  0  0  0  0  0  0  0  # atno 6909 bound_to 6896
  145.9078  139.3631  143.0553 H   0  0  0  0  0  0  0  0  0  0  0  0  # atno 7974 bound_to 7965
  156.0227  140.3338  155.7056 H   0  0  0  0  0  0  0  0  0  0  0  0  # atno 8008 bound_to 7997
  155.5998  140.0654  157.2753 H   0  0  0  0  0  0  0  0  0  0  0  0  # atno 8009 bound_to 7997
  154.4322  140.1812  156.1149 H   0  0  0  0  0  0  0  0  0  0  0  0  # atno 8010 bound_to 7997
  139.5457  144.6771  151.4482 H   0  0  0  0  0  0  0  0  0  0  0  0  # atno 10167 bound_to 10162
  156.0276  130.5481  150.7295 H   0  0  0  0  0  0  0  0  0  0  0  0  # atno 10718 bound_to 10713
  154.7228  135.5088  153.8839 H   0  0  0  0  0  0  0  0  0  0  0  0  # atno 10763 bound_to 10752
  153.0878  135.6650  153.9924 H   0  0  0  0  0  0  0  0  0  0  0  0  # atno 10764 bound_to 10752
  153.9743  135.3035  155.3404 H   0  0  0  0  0  0  0  0  0  0  0  0  # atno 10765 bound_to 10752
  140.7404  134.3521  157.5148 H   0  0  0  0  0  0  0  0  0  0  0  0  # atno 11005 bound_to 11000
  145.8709  140.9420  143.0651 LP  0  0  0  0  0  0  0  0  0  0  0  0  # atno 17320 bound_to 7965
  144.6741  140.0654  143.7475 LP  0  0  0  0  0  0  0  0  0  0  0  0  # atno 17321 bound_to 7965
  140.6704  143.8307  150.6992 LP  0  0  0  0  0  0  0  0  0  0  0  0  # atno 17342 bound_to 10162
  140.1729  143.4179  152.1988 LP  0  0  0  0  0  0  0  0  0  0  0  0  # atno 17343 bound_to 10162
  157.4891  131.0909  151.0448 LP  0  0  0  0  0  0  0  0  0  0  0  0  # atno 17370 bound_to 10713
  157.0860  130.5922  149.5430 LP  0  0  0  0  0  0  0  0  0  0  0  0  # atno 17371 bound_to 10713
  139.8807  134.9077  156.2951 LP  0  0  0  0  0  0  0  0  0  0  0  0  # atno 17394 bound_to 11000
  140.9842  133.7249  156.0716 LP  0  0  0  0  0  0  0  0  0  0  0  0  # atno 17395 bound_to 11000

$$$$
