#       Name:                AV-unprocessed.smi:1658
#       Creating user name   scv26
#       Creation time:       Fri Mar 27 07:35:27 2020


#       File generated by GOLD software.
#

@<TRIPOS>MOLECULE
AV-unprocessed.smi:1658
    54    55     1
SMALL
NO_CHARGES


@<TRIPOS>ATOM
      1 ****        -6.6975   4.4477  -0.7351 C.3            1 S1                 0.0000
      2 ****        -6.8465   3.0939  -1.1490 O.3            1 S1                 0.0000
      3 ****        -5.7392   2.2714  -1.1112 C.ar           1 S1                 0.0000
      4 ****        -5.8850   0.9265  -1.5051 C.ar           1 S1                 0.0000
      5 ****        -4.7594   0.0825  -1.4647 C.ar           1 S1                 0.0000
      6 ****        -3.5209   0.6066  -1.0430 C.ar           1 S1                 0.0000
      7 ****        -2.4072  -0.2739  -0.9873 N.am           1 S1                 0.0000
      8 ****        -1.0991   0.0336  -0.9793 C.2            1 S1                 0.0000
      9 ****        -0.6329   1.1665  -1.0972 O.2            1 S1                 0.0000
     10 ****        -0.3450  -1.0662  -0.8390 N.am           1 S1                 0.0000
     11 ****         1.1174  -1.1024  -0.7979 C.3            1 S1                 0.0000
     12 ****         1.7215  -1.1147   0.6417 C.3            1 S1                 0.0000
     13 ****         1.3317   0.1703   1.4133 C.3            1 S1                 0.0000
     14 ****         1.1123  -2.3249   1.3992 C.3            1 S1                 0.0000
     15 ****         3.2226  -1.2457   0.5327 N.4            1 S1                 1.0000
     16 ****         3.9296  -0.0579  -0.0289 C.3            1 S1                 0.0000
     17 ****         5.4150  -0.3693  -0.2691 C.3            1 S1                 0.0000
     18 ****         6.0180  -0.7575   0.9561 O.3            1 S1                 0.0000
     19 ****         5.4289  -1.9404   1.4749 C.3            1 S1                 0.0000
     20 ****         3.9347  -1.7075   1.7598 C.3            1 S1                 0.0000
     21 ****        -3.4787   1.9688  -0.6579 C.ar           1 S1                 0.0000
     22 ****        -4.5554   2.7829  -0.6919 N.ar           1 S1                 0.0000
     23 ****        -7.6576   4.9569  -0.8158 H              1 S1                 0.0000
     24 ****        -5.9854   4.9817  -1.3658 H              1 S1                 0.0000
     25 ****        -6.3752   4.5144   0.3051 H              1 S1                 0.0000
     26 ****        -6.8434   0.5486  -1.8294 H              1 S1                 0.0000
     27 ****        -4.8488  -0.9536  -1.7575 H              1 S1                 0.0000
     28 ****        -2.6342  -1.2576  -0.9832 H              1 S1                 0.0000
     29 ****        -0.8200  -1.9532  -0.7549 H              1 S1                 0.0000
     30 ****         1.4298  -2.0025  -1.3288 H              1 S1                 0.0000
     31 ****         1.4945  -0.2697  -1.3897 H              1 S1                 0.0000
     32 ****         0.2604   0.2067   1.6121 H              1 S1                 0.0000
     33 ****         1.5781   1.0742   0.8558 H              1 S1                 0.0000
     34 ****         1.8294   0.2298   2.3810 H              1 S1                 0.0000
     35 ****         0.0225  -2.3044   1.3984 H              1 S1                 0.0000
     36 ****         1.3957  -2.3380   2.4517 H              1 S1                 0.0000
     37 ****         1.4183  -3.2717   0.9529 H              1 S1                 0.0000
     38 ****         3.4962   0.2629  -0.9732 H              1 S1                 0.0000
     39 ****         3.8541   0.7849   0.6588 H              1 S1                 0.0000
     40 ****         5.5363  -1.1523  -1.0194 H              1 S1                 0.0000
     41 ****         5.9274   0.5158  -0.6468 H              1 S1                 0.0000
     42 ****         5.5669  -2.7660   0.7747 H              1 S1                 0.0000
     43 ****         5.9457  -2.2159   2.3944 H              1 S1                 0.0000
     44 ****         3.8197  -0.9733   2.5576 H              1 S1                 0.0000
     45 ****         3.5358  -2.6517   2.1262 H              1 S1                 0.0000
     46 ****        -2.5763   2.4305  -0.2886 H              1 S1                 0.0000
     47 ****         3.3649  -1.9867  -0.1390 H              1 S1                 0.0000
     48 ****        -7.1726   3.1077  -2.0942 LP             1 S1                 0.0000
     49 ****        -7.5426   2.6801  -0.5622 LP             1 S1                 0.0000
     50 ****        -1.2445   1.9496  -1.2103 LP             1 S1                 0.0000
     51 ****         0.3575   1.3039  -1.0798 LP             1 S1                 0.0000
     52 ****         5.9054  -0.0197   1.6217 LP             1 S1                 0.0000
     53 ****         6.9923  -0.9208   0.8012 LP             1 S1                 0.0000
     54 ****        -4.4815   3.7408  -0.4143 LP             1 S1                 0.0000
@<TRIPOS>BOND
    1    1    2 1     
    2    1   23 1     
    3    1   24 1     
    4    1   25 1     
    5    2    3 1     
    6    3   22 ar    
    7    3    4 ar    
    8    4    5 ar    
    9    4   26 1     
   10    5    6 ar    
   11    5   27 1     
   12    6    7 1     
   13    6   21 ar    
   14    7    8 am    
   15    7   28 1     
   16    8    9 2     
   17    8   10 am    
   18   10   11 1     
   19   10   29 1     
   20   11   12 1     
   21   11   30 1     
   22   11   31 1     
   23   12   13 1     
   24   12   14 1     
   25   12   15 1     
   26   13   32 1     
   27   13   33 1     
   28   13   34 1     
   29   14   35 1     
   30   14   36 1     
   31   14   37 1     
   32   15   20 1     
   33   15   16 1     
   34   15   47 1     
   35   16   17 1     
   36   16   38 1     
   37   16   39 1     
   38   17   18 1     
   39   17   40 1     
   40   17   41 1     
   41   18   19 1     
   42   19   20 1     
   43   19   42 1     
   44   19   43 1     
   45   20   44 1     
   46   20   45 1     
   47   21   22 ar    
   48   21   46 1     
   49    2   48 1     
   50    2   49 1     
   51    9   50 1     
   52    9   51 1     
   53   18   52 1     
   54   18   53 1     
   55   22   54 1     
@<TRIPOS>SUBSTRUCTURE
      1 S1             1
@<TRIPOS>SET
LONE_PAIRS      STATIC     ATOMS    <user>   **** ""
7 48 49 50 51 52 53 54
DONOR_HYDROGENS      STATIC     ATOMS    <user>   **** ""
3 28 29 47
ATOM$BLUE        STATIC     ATOMS    COLORGROUP SYSTEM
7 48 49 50 51 52 53 54
ATOM$RED        STATIC     ATOMS    COLORGROUP SYSTEM
3 28 29 47
