AV-unprocessed.smi:104|AV-procd|sdf|1001|dock8
  -GOLD-   2262017593D 1   1.00000     0.00000
 Structure written by MMmdl.
 47 49  0  0  0  0  0  0  0  0  1 V2000
  147.0306  134.7770  162.1251 C   0  0  0  0  0  0  0  0  0  0  0  0
  147.5617  135.7922  161.1220 C   0  0  0  0  0  0  0  0  0  0  0  0
  147.4650  137.0030  161.3213 O   0  0  0  0  0  0  0  0  0  0  0  0
  148.1144  135.2060  160.0454 O   0  0  0  0  0  0  0  0  0  0  0  0
  148.7208  135.9857  159.0202 C   0  0  0  0  0  0  0  0  0  0  0  0
  147.7889  136.2330  157.8142 C   0  0  2  0  0  0  0  0  0  0  0  0
  147.5494  135.0344  157.0910 O   0  0  0  0  0  0  0  0  0  0  0  0
  147.2236  135.3337  155.7732 C   0  0  1  0  0  0  0  0  0  0  0  0
  145.7165  135.3443  155.6378 N   0  0  0  0  0  0  0  0  0  0  0  0
  144.7951  134.9545  156.5875 C   0  0  0  0  0  0  0  0  0  0  0  0
  145.2997  134.2805  158.2968 Br  0  0  0  0  0  0  0  0  0  0  0  0
  143.5331  135.0592  156.2845 N   0  0  0  0  0  0  0  0  0  0  0  0
  143.5703  135.5936  155.0062 C   0  0  0  0  0  0  0  0  0  0  0  0
  142.5690  135.9691  154.0753 C   0  0  0  0  0  0  0  0  0  0  0  0
  141.2574  135.8455  154.3225 N   0  0  0  0  0  0  0  0  0  0  0  0
  142.9514  136.4769  152.8816 N   0  0  0  0  0  0  0  0  0  0  0  0
  144.2525  136.6124  152.6129 C   0  0  0  0  0  0  0  0  0  0  0  0
  145.2991  136.3062  153.3828 N   0  0  0  0  0  0  0  0  0  0  0  0
  144.9213  135.7896  154.5898 C   0  0  0  0  0  0  0  0  0  0  0  0
  147.9322  136.6569  155.4216 C   0  0  1  0  0  0  0  0  0  0  0  0
  147.1635  137.5119  154.5830 O   0  0  0  0  0  0  0  0  0  0  0  0
  147.7376  138.5667  153.9820 C   0  0  0  0  0  0  0  0  0  0  0  0
  146.7725  139.3053  153.0653 C   0  0  0  0  0  0  0  0  0  0  0  0
  148.9077  138.9263  154.1119 O   0  0  0  0  0  0  0  0  0  0  0  0
  148.2080  137.3026  156.7811 C   0  0  2  0  0  0  0  0  0  0  0  0
  149.5825  137.6618  156.8725 O   0  0  0  0  0  0  0  0  0  0  0  0
  150.0199  138.4443  157.8744 C   0  0  0  0  0  0  0  0  0  0  0  0
  151.4762  138.8526  157.6962 C   0  0  0  0  0  0  0  0  0  0  0  0
  149.3598  138.8210  158.8427 O   0  0  0  0  0  0  0  0  0  0  0  0
  147.6971  133.9166  162.1902 H   0  0  0  0  0  0  0  0  0  0  0  0
  146.0438  134.4290  161.8197 H   0  0  0  0  0  0  0  0  0  0  0  0
  146.9485  135.2254  163.1155 H   0  0  0  0  0  0  0  0  0  0  0  0
  149.0775  136.9349  159.4226 H   0  0  0  0  0  0  0  0  0  0  0  0
  149.6074  135.4508  158.6793 H   0  0  0  0  0  0  0  0  0  0  0  0
  146.8278  136.5317  158.2294 H   0  0  0  0  0  0  0  0  0  0  0  0
  147.5480  134.5276  155.1182 H   0  0  0  0  0  0  0  0  0  0  0  0
  140.9449  135.4698  155.2064 H   0  0  0  0  0  0  0  0  0  0  0  0
  140.5840  136.1267  153.6247 H   0  0  0  0  0  0  0  0  0  0  0  0
  144.4896  137.0245  151.6430 H   0  0  0  0  0  0  0  0  0  0  0  0
  148.8833  136.4034  154.9500 H   0  0  0  0  0  0  0  0  0  0  0  0
  145.8697  139.5840  153.6096 H   0  0  0  0  0  0  0  0  0  0  0  0
  146.4891  138.6689  152.2265 H   0  0  0  0  0  0  0  0  0  0  0  0
  147.2339  140.2115  152.6722 H   0  0  0  0  0  0  0  0  0  0  0  0
  147.5877  138.1878  156.9305 H   0  0  0  0  0  0  0  0  0  0  0  0
  152.0804  137.9931  157.4055 H   0  0  0  0  0  0  0  0  0  0  0  0
  151.8766  139.2569  158.6263 H   0  0  0  0  0  0  0  0  0  0  0  0
  151.5620  139.6149  156.9218 H   0  0  0  0  0  0  0  0  0  0  0  0
  1  2  1  0  0  0  0
  1 30  1  0  0  0  0
  1 31  1  0  0  0  0
  1 32  1  0  0  0  0
  2  3  2  0  0  0  0
  2  4  1  0  0  0  0
  4  5  1  0  0  0  0
  5  6  1  0  0  0  0
  5 33  1  0  0  0  0
  5 34  1  0  0  0  0
  6 25  1  0  0  0  0
  6  7  1  0  0  0  0
  6 35  1  0  0  0  0
  7  8  1  0  0  0  0
  8  9  1  0  0  0  0
  8 20  1  0  0  0  0
  8 36  1  0  0  0  0
  9 19  1  0  0  0  0
  9 10  1  0  0  0  0
 10 11  1  0  0  0  0
 10 12  2  0  0  0  0
 12 13  1  0  0  0  0
 13 19  2  0  0  0  0
 13 14  1  0  0  0  0
 14 15  1  0  0  0  0
 14 16  2  0  0  0  0
 15 37  1  0  0  0  0
 15 38  1  0  0  0  0
 16 17  1  0  0  0  0
 17 18  2  0  0  0  0
 17 39  1  0  0  0  0
 18 19  1  0  0  0  0
 20 21  1  0  0  0  0
 20 25  1  0  0  0  0
 20 40  1  0  0  0  0
 21 22  1  0  0  0  0
 22 23  1  0  0  0  0
 22 24  2  0  0  0  0
 23 41  1  0  0  0  0
 23 42  1  0  0  0  0
 23 43  1  0  0  0  0
 25 26  1  0  0  0  0
 25 44  1  0  0  0  0
 26 27  1  0  0  0  0
 27 28  1  0  0  0  0
 27 29  2  0  0  0  0
 28 45  1  0  0  0  0
 28 46  1  0  0  0  0
 28 47  1  0  0  0  0
M  END
> <s_m_source_file>
AV-unprocessed.smi

> <i_m_source_file_index>
104

> <i_lp_mmshare_version>
43012

> <i_f3d_flags>
0

> <s_epik_input>
W0NIM11DKD1PKU9bQ0gyXVtDQEBIXTFPW0NASF0oW0NAQEhdKE9DKD1PKVtDSDNdKVtDQEhdMU9DKD1PKVtDSDNdKW4oYyhCciluMiljKGMyMyluW2NIXW5jM1tOSDJd

> <s_epik_cmdline>
J2VwaWtfcHl0aG9uJywgJy1waCcsICc3LjAnLCAnLXRuJywgJzgnLCAnLW1hJywgJzIwMCcsICctbWV0YWxfYmluZGluZycsICctaW1hZScsICc8aW5maWxlLm1hZT4nLCAnLW9tYWUnLCAnPG91dGZpbGUubWFlPic=

> <r_lp_tautomer_probability>
1

> <r_epik_Ionization_Penalty>
7.36622e-05

> <r_epik_Ionization_Penalty_Charging>
0

> <r_epik_Ionization_Penalty_Neutral>
7.36622e-05

> <r_epik_State_Penalty>
-0

> <r_epik_Charging_Adjusted_Penalty>
0

> <i_epik_Tot_Q>
0

> <i_epik_Tot_abs_Q>
0

> <r_epik_Metal_State_Penalty>
-0

> <b_epik_Metal_Only>
0

> <s_epik_Chemistry_Notes>
This compound has an ester and may undergo hydrolysis at high or low pH. This compound contains an acetal/aminal-like group ( X-CH(R)-Y where X, Y are N, S, or O) that may be acid/base labile, releasing an aldehyde.

> <s_lp_Force_Field>
OPLS_2005

> <r_lp_Energy>
20.7491

> <b_lp_Chiralities_Consistent>
1

> <s_lp_Variant>
AV-unprocessed.smi:104-9

> <Gold.Version>
5.8.1

> <Gold.Id.Protein>
6NUR|6NUR_protein|mol2

> <Gold.PLP.Fitness>
33.2172

> <Gold.PLP.PLP>
-23.1374

> <Gold.PLP.part.hbond>
-4.5965

> <Gold.PLP.part.metal>
0.0000

> <Gold.PLP.part.buried>
-4.8328

> <Gold.PLP.part.nonpolar>
-14.4617

> <Gold.PLP.part.repulsive>
0.6617

> <Gold.PLP.ligand.clash>
0.0000

> <Gold.PLP.ligand.torsion>
0.7594

> <Gold.PLP.Chemscore.Hbond>
2.8400

> <Gold.PLP.Chemscore.CHOScore>
0.9975

> <Gold.PLP.Chemscore.Metal>
0.0000

> <Gold.Chemscore.Hbonds>
donor molecule, donor type, donor heavy atom, donor atom, acceptor molecule, acceptor atom, score
      L1  H    15    37       P1 11000  0.94
      P1  H  6931  6943       L1     3  0.85
      P1  H  6934  6947       L1     3  0.86
      L1  C    17    39       P1 10171  1.00

> <Gold.PLP.Chemscore.Internal.Correction>
0.0862

> <Gold.Rescore>
     Score         DG    S(hbond)    S(metal)    S(lipo)     H(rot)  DE(clash)    DE(int)     intcor
     -0.87      -6.57       2.61        0.00      29.15       4.31       0.02       7.41       ----

> <Gold.Chemscore.Fitness>
-0.8683

> <Gold.Chemscore.DG>
-6.5713

> <Gold.Chemscore.ZeroCoef>
-5.4800

> <Gold.Chemscore.Hbond>
2.6066

> <Gold.Chemscore.Metal>
0.0000

> <Gold.Chemscore.Lipo>
29.1547

> <Gold.Chemscore.Internal_Hbond>
0.0000

> <Gold.Chemscore.DEClash>
0.0246

> <Gold.Chemscore.DEInternal>
7.4149

> <Gold.Chemscore.Rot>
4.3070

> <Gold.Chemscore.Internal.Correction>
   9.000000E+99

> <Gold.Chemscore.Hbonds>
donor molecule, donor type, donor heavy atom, donor atom, acceptor molecule, acceptor atom, score
      L1  H    15    37       P1 11000  0.59
      P1  H  6931  6943       L1     3  0.79
      P1  H  6934  6947       L1     3  0.80

> <Gold.Chemscore.Hbond.Weighted>
-8.7060

> <Gold.Chemscore.Metal.Weighted>
-0.0000

> <Gold.Chemscore.Lipo.Weighted>
-3.4111

> <Gold.Chemscore.Internal_Hbond.Weighted>
0.0000

> <Gold.Chemscore.DEClash.Weighted>
0.0246

> <Gold.Chemscore.DEInternal.Weighted>
7.4149

> <Gold.Chemscore.Rot.Weighted>
11.0259

> <Gold.Chemscore.Internal.Correction.Weighted>
   9.000000E+99

> <Gold.Protein.RotatedTorsions>
[ 6907 6896 6895 6894 ] final -141.51 input  -60.11 | X-H torsion
[ 7974 7965 7964 7962 ] final  -16.80 input  175.53 | X-H torsion
[ 8008 7997 7996 7995 ] final -152.41 input   59.86 | X-H torsion
[ 10167 10162 10161 10158 ] final   41.60 input  -65.29 | X-H torsion
[ 10718 10713 10712 10709 ] final -112.65 input   66.30 | X-H torsion
[ 10763 10752 10751 10750 ] final   23.28 input  -60.55 | X-H torsion
[ 11005 11000 10999 10996 ] final -145.61 input  -57.11 | X-H torsion

> <Gold.Protein.ActiveResidues>
 VAL166  LYS551  ARG553  GLY616  TRP617  ASP618  TYR619  PRO620  LYS621  CYS622 
 ASP623  PHE694  ASN695  SER759  ASP760  ASP761  ALA762  ILE779  LEU786  VAL792 
 PHE793  MET794  SER795  GLU796  ALA797  LYS798  CYS799  TRP800  GLU811  SER814 

> <Gold.Protein.RotatedAtoms>
  151.0747  133.5437  159.2624 H   0  0  0  0  0  0  0  0  0  0  0  0  # atno 6907 bound_to 6896
  151.2363  135.0572  159.9017 H   0  0  0  0  0  0  0  0  0  0  0  0  # atno 6908 bound_to 6896
  152.5416  134.0529  159.8171 H   0  0  0  0  0  0  0  0  0  0  0  0  # atno 6909 bound_to 6896
  146.1971  140.3688  142.8437 H   0  0  0  0  0  0  0  0  0  0  0  0  # atno 7974 bound_to 7965
  155.6547  140.0716  157.2575 H   0  0  0  0  0  0  0  0  0  0  0  0  # atno 8008 bound_to 7997
  154.4155  140.1727  156.1763 H   0  0  0  0  0  0  0  0  0  0  0  0  # atno 8009 bound_to 7997
  155.9747  140.3359  155.6611 H   0  0  0  0  0  0  0  0  0  0  0  0  # atno 8010 bound_to 7997
  140.3627  144.2207  150.6137 H   0  0  0  0  0  0  0  0  0  0  0  0  # atno 10167 bound_to 10162
  156.0719  130.5931  150.8537 H   0  0  0  0  0  0  0  0  0  0  0  0  # atno 10718 bound_to 10713
  153.0850  135.6630  153.9967 H   0  0  0  0  0  0  0  0  0  0  0  0  # atno 10763 bound_to 10752
  153.9579  135.2977  155.3436 H   0  0  0  0  0  0  0  0  0  0  0  0  # atno 10764 bound_to 10752
  154.7256  135.5145  153.8954 H   0  0  0  0  0  0  0  0  0  0  0  0  # atno 10765 bound_to 10752
  140.7905  134.2974  157.5015 H   0  0  0  0  0  0  0  0  0  0  0  0  # atno 11005 bound_to 11000
  144.8603  140.7129  143.6112 LP  0  0  0  0  0  0  0  0  0  0  0  0  # atno 17320 bound_to 7965
  145.3608  139.1682  143.4384 LP  0  0  0  0  0  0  0  0  0  0  0  0  # atno 17321 bound_to 7965
  140.5111  143.2290  151.8534 LP  0  0  0  0  0  0  0  0  0  0  0  0  # atno 17342 bound_to 10162
  139.4812  144.4949  151.9137 LP  0  0  0  0  0  0  0  0  0  0  0  0  # atno 17343 bound_to 10162
  157.5794  131.0946  150.9295 LP  0  0  0  0  0  0  0  0  0  0  0  0  # atno 17370 bound_to 10713
  156.9494  130.5414  149.5282 LP  0  0  0  0  0  0  0  0  0  0  0  0  # atno 17371 bound_to 10713
  139.8732  134.9371  156.3679 LP  0  0  0  0  0  0  0  0  0  0  0  0  # atno 17394 bound_to 11000
  140.9395  133.7524  156.0127 LP  0  0  0  0  0  0  0  0  0  0  0  0  # atno 17395 bound_to 11000

$$$$
