#       Name:                AV-unprocessed.smi:3259
#       Creating user name   scv26
#       Creation time:       Fri Mar 27 18:37:22 2020


#       File generated by GOLD software.
#

@<TRIPOS>MOLECULE
AV-unprocessed.smi:3259
    44    45     1
SMALL
NO_CHARGES


@<TRIPOS>ATOM
      1 ****        -4.2398   0.5929   1.4779 C.3            1 S1                 0.0000
      2 ****        -3.2473   0.6699   0.4620 O.3            1 S1                 0.0000
      3 ****        -2.1803  -0.2874   0.5098 C.3            1 S1                 0.0000
      4 ****        -2.7373  -1.7164   0.4828 C.3            1 S1                 0.0000
      5 ****        -1.1606   0.1049   1.5964 C.3            1 S1                 0.0000
      6 ****        -0.5399   1.0488   0.5684 C.3            1 S1                 0.0000
      7 ****         0.9149   1.0893   0.6480 N.am           1 S1                 0.0000
      8 ****         1.6957   1.8709  -0.1131 C.2            1 S1                 0.0000
      9 ****         1.2550   2.7073  -0.9009 O.2            1 S1                 0.0000
     10 ****         3.2056   1.6655   0.0226 C.3            1 S1                 0.0000
     11 ****         3.5888   0.3175  -0.3627 N.pl3          1 S1                 0.0000
     12 ****         3.7506  -0.7909   0.4428 C.2            1 S1                 0.0000
     13 ****         4.0908  -1.8364  -0.3668 C.2            1 S1                 0.0000
     14 ****         4.1149  -1.2620  -1.6684 C.2            1 S1                 0.0000
     15 ****         3.8150   0.0269  -1.6628 N.2            1 S1                 0.0000
     16 ****        -1.0999   0.1238  -0.5435 C.3            1 S1                 0.0000
     17 ****        -0.1740  -1.0060  -1.0370 C.3            1 S1                 0.0000
     18 ****        -1.6049   0.8282  -1.8074 C.3            1 S1                 0.0000
     19 ****        -4.8855   1.4683   1.4099 H              1 S1                 0.0000
     20 ****        -3.8110   0.5764   2.4794 H              1 S1                 0.0000
     21 ****        -4.8749  -0.2841   1.3537 H              1 S1                 0.0000
     22 ****        -1.9434  -2.4598   0.4187 H              1 S1                 0.0000
     23 ****        -3.3971  -1.8685  -0.3717 H              1 S1                 0.0000
     24 ****        -3.2983  -1.9528   1.3865 H              1 S1                 0.0000
     25 ****        -1.5634   0.6048   2.4764 H              1 S1                 0.0000
     26 ****        -0.5074  -0.7217   1.8818 H              1 S1                 0.0000
     27 ****        -1.0136   2.0332   0.5853 H              1 S1                 0.0000
     28 ****         1.3592   0.4342   1.2745 H              1 S1                 0.0000
     29 ****         3.7427   2.3835  -0.5993 H              1 S1                 0.0000
     30 ****         3.5097   1.8413   1.0551 H              1 S1                 0.0000
     31 ****         3.6061  -0.7449   1.5122 H              1 S1                 0.0000
     32 ****         4.2911  -2.8564  -0.0741 H              1 S1                 0.0000
     33 ****         4.3397  -1.7398  -2.6105 H              1 S1                 0.0000
     34 ****         0.6590  -0.6182  -1.6246 H              1 S1                 0.0000
     35 ****        -0.7103  -1.7129  -1.6708 H              1 S1                 0.0000
     36 ****         0.2576  -1.5756  -0.2138 H              1 S1                 0.0000
     37 ****        -0.7806   1.1374  -2.4510 H              1 S1                 0.0000
     38 ****        -2.1717   1.7295  -1.5735 H              1 S1                 0.0000
     39 ****        -2.2556   0.1780  -2.3929 H              1 S1                 0.0000
     40 ****        -2.8364   1.5802   0.5121 LP             1 S1                 0.0000
     41 ****        -3.7094   0.5608  -0.4181 LP             1 S1                 0.0000
     42 ****         0.2675   2.8311  -0.9981 LP             1 S1                 0.0000
     43 ****         1.8844   3.2633  -1.4438 LP             1 S1                 0.0000
     44 ****         3.7666   0.6472  -2.4457 LP             1 S1                 0.0000
@<TRIPOS>BOND
    1    1    2 1     
    2    1   19 1     
    3    1   20 1     
    4    1   21 1     
    5    2    3 1     
    6    3   16 1     
    7    3    4 1     
    8    3    5 1     
    9    4   22 1     
   10    4   23 1     
   11    4   24 1     
   12    5    6 1     
   13    5   25 1     
   14    5   26 1     
   15    6    7 1     
   16    6   16 1     
   17    6   27 1     
   18    7    8 am    
   19    7   28 1     
   20    8    9 2     
   21    8   10 1     
   22   10   11 1     
   23   10   29 1     
   24   10   30 1     
   25   11   15 1     
   26   11   12 1     
   27   12   13 2     
   28   12   31 1     
   29   13   14 1     
   30   13   32 1     
   31   14   15 2     
   32   14   33 1     
   33   16   17 1     
   34   16   18 1     
   35   17   34 1     
   36   17   35 1     
   37   17   36 1     
   38   18   37 1     
   39   18   38 1     
   40   18   39 1     
   41    2   40 1     
   42    2   41 1     
   43    9   42 1     
   44    9   43 1     
   45   15   44 1     
@<TRIPOS>SUBSTRUCTURE
      1 S1             1
@<TRIPOS>SET
LONE_PAIRS      STATIC     ATOMS    <user>   **** ""
5 40 41 42 43 44
DONOR_HYDROGENS      STATIC     ATOMS    <user>   **** ""
1 28
ATOM$BLUE        STATIC     ATOMS    COLORGROUP SYSTEM
5 40 41 42 43 44
ATOM$RED        STATIC     ATOMS    COLORGROUP SYSTEM
1 28
