AV-unprocessed.smi:3216|AV-procd|sdf|12288|dock10
  -GOLD-   2272018133D 1   1.00000     0.00000
 Structure written by MMmdl.
 36 36  0  0  0  0  0  0  0  0  1 V2000
  152.4055  143.4189  160.4935 C   0  0  0  0  0  0  0  0  0  0  0  0
  152.3521  143.7841  158.9996 C   0  0  0  0  0  0  0  0  0  0  0  0
  152.1045  145.2890  158.8193 C   0  0  0  0  0  0  0  0  0  0  0  0
  151.2986  142.9620  158.2328 C   0  0  0  0  0  0  0  0  0  0  0  0
  151.2256  141.5917  158.7234 N   0  0  0  0  0  0  0  0  0  0  0  0
  150.9803  140.5220  157.9538 C   0  0  0  0  0  0  0  0  0  0  0  0
  150.7910  140.5914  156.7394 O   0  0  0  0  0  0  0  0  0  0  0  0
  150.9528  139.1615  158.6604 C   0  0  0  0  0  0  0  0  0  0  0  0
  149.6068  138.5925  158.8342 N   0  0  0  0  0  0  0  0  0  0  0  0
  149.6111  137.2171  159.3229 C   0  0  0  0  0  0  0  0  0  0  0  0
  148.1757  136.6692  159.3905 C   0  0  0  0  0  0  0  0  0  0  0  0
  147.7786  136.3249  160.7446 N   0  0  0  0  0  0  0  0  0  0  0  0
  147.5343  135.0747  161.2732 C   0  0  0  0  0  0  0  0  0  0  0  0
  147.1886  135.2474  162.5828 C   0  0  0  0  0  0  0  0  0  0  0  0
  147.2530  136.6571  162.7658 C   0  0  0  0  0  0  0  0  0  0  0  0
  147.6097  137.2991  161.6650 N   0  0  0  0  0  0  0  0  0  0  0  0
  151.4445  143.5952  160.9776 H   0  0  0  0  0  0  0  0  0  0  0  0
  153.1543  144.0153  161.0158 H   0  0  0  0  0  0  0  0  0  0  0  0
  152.6663  142.3709  160.6435 H   0  0  0  0  0  0  0  0  0  0  0  0
  153.3295  143.5622  158.5685 H   0  0  0  0  0  0  0  0  0  0  0  0
  151.1387  145.5837  159.2310 H   0  0  0  0  0  0  0  0  0  0  0  0
  152.1155  145.5663  157.7649 H   0  0  0  0  0  0  0  0  0  0  0  0
  152.8736  145.8774  159.3205 H   0  0  0  0  0  0  0  0  0  0  0  0
  150.3188  143.4348  158.3214 H   0  0  0  0  0  0  0  0  0  0  0  0
  151.5450  142.9376  157.1701 H   0  0  0  0  0  0  0  0  0  0  0  0
  151.3726  141.4476  159.7117 H   0  0  0  0  0  0  0  0  0  0  0  0
  151.5788  138.4449  158.1258 H   0  0  0  0  0  0  0  0  0  0  0  0
  151.4042  139.2864  159.6451 H   0  0  0  0  0  0  0  0  0  0  0  0
  149.0407  139.1632  159.4455 H   0  0  0  0  0  0  0  0  0  0  0  0
  150.2194  136.5722  158.6876 H   0  0  0  0  0  0  0  0  0  0  0  0
  150.0523  137.1952  160.3201 H   0  0  0  0  0  0  0  0  0  0  0  0
  147.4781  137.4207  159.0191 H   0  0  0  0  0  0  0  0  0  0  0  0
  148.0643  135.7966  158.7443 H   0  0  0  0  0  0  0  0  0  0  0  0
  147.6226  134.1775  160.6786 H   0  0  0  0  0  0  0  0  0  0  0  0
  146.9282  134.4835  163.3003 H   0  0  0  0  0  0  0  0  0  0  0  0
  147.0536  137.2292  163.6599 H   0  0  0  0  0  0  0  0  0  0  0  0
  1  2  1  0  0  0  0
  1 17  1  0  0  0  0
  1 18  1  0  0  0  0
  1 19  1  0  0  0  0
  2  3  1  0  0  0  0
  2  4  1  0  0  0  0
  2 20  1  0  0  0  0
  3 21  1  0  0  0  0
  3 22  1  0  0  0  0
  3 23  1  0  0  0  0
  4  5  1  0  0  0  0
  4 24  1  0  0  0  0
  4 25  1  0  0  0  0
  5  6  1  0  0  0  0
  5 26  1  0  0  0  0
  6  7  2  0  0  0  0
  6  8  1  0  0  0  0
  8  9  1  0  0  0  0
  8 27  1  0  0  0  0
  8 28  1  0  0  0  0
  9 10  1  0  0  0  0
  9 29  1  0  0  0  0
 10 11  1  0  0  0  0
 10 30  1  0  0  0  0
 10 31  1  0  0  0  0
 11 12  1  0  0  0  0
 11 32  1  0  0  0  0
 11 33  1  0  0  0  0
 12 16  1  0  0  0  0
 12 13  1  0  0  0  0
 13 14  2  0  0  0  0
 13 34  1  0  0  0  0
 14 15  1  0  0  0  0
 14 35  1  0  0  0  0
 15 16  2  0  0  0  0
 15 36  1  0  0  0  0
M  END
> <s_m_source_file>
AV-unprocessed.smi

> <i_m_source_file_index>
3216

> <i_lp_mmshare_version>
43012

> <i_f3d_flags>
0

> <s_epik_input>
W0NIM11bQ0hdKFtDSDNdKVtDSDJdW05IXUMoPU8pW0NIMl1bTkhdW0NIMl1bQ0gyXW4xW2NIXVtjSF1bY0hdbjE=

> <s_epik_cmdline>
J2VwaWtfcHl0aG9uJywgJy1waCcsICc3LjAnLCAnLXRuJywgJzgnLCAnLW1hJywgJzIwMCcsICctbWV0YWxfYmluZGluZycsICctaW1hZScsICc8aW5maWxlLm1hZT4nLCAnLW9tYWUnLCAnPG91dGZpbGUubWFlPic=

> <r_lp_tautomer_probability>
1

> <r_epik_Ionization_Penalty>
0.724936

> <r_epik_Ionization_Penalty_Charging>
0

> <r_epik_Ionization_Penalty_Neutral>
0.724936

> <r_epik_State_Penalty>
0.747957

> <r_epik_Charging_Adjusted_Penalty>
0.747957

> <i_epik_Tot_Q>
0

> <i_epik_Tot_abs_Q>
0

> <r_epik_Metal_State_Penalty>
0.746186

> <b_epik_Metal_Only>
0

> <s_lp_Force_Field>
OPLS_2005

> <r_lp_Energy>
6.66152

> <b_lp_Chiralities_Consistent>
1

> <s_lp_Variant>
AV-unprocessed.smi:3216-2

> <Gold.Version>
5.8.1

> <Gold.Id.Protein>
6NUR|6NUR_protein|mol2

> <Gold.PLP.Fitness>
41.8049

> <Gold.PLP.PLP>
-38.5806

> <Gold.PLP.part.hbond>
-2.4433

> <Gold.PLP.part.metal>
0.0000

> <Gold.PLP.part.buried>
-4.7308

> <Gold.PLP.part.nonpolar>
-30.8005

> <Gold.PLP.part.repulsive>
0.1378

> <Gold.PLP.ligand.clash>
0.0000

> <Gold.PLP.ligand.torsion>
1.0147

> <Gold.PLP.Chemscore.Hbond>
1.6978

> <Gold.PLP.Chemscore.CHOScore>
0.0000

> <Gold.PLP.Chemscore.Metal>
0.0000

> <Gold.Chemscore.Hbonds>
donor molecule, donor type, donor heavy atom, donor atom, acceptor molecule, acceptor atom, score
      P1  H  6931  6943       L1    16  0.93
      P1  H  6934  6947       L1    16  0.74

> <Gold.PLP.Chemscore.Internal.Correction>
0.1602

> <Gold.Rescore>
     Score         DG    S(hbond)    S(metal)    S(lipo)     H(rot)  DE(clash)    DE(int)     intcor
     14.14     -15.02       1.52        0.00      86.85       2.22       0.01       0.87       ----

> <Gold.Chemscore.Fitness>
14.1399

> <Gold.Chemscore.DG>
-15.0190

> <Gold.Chemscore.ZeroCoef>
-5.4800

> <Gold.Chemscore.Hbond>
1.5173

> <Gold.Chemscore.Metal>
0.0000

> <Gold.Chemscore.Lipo>
86.8488

> <Gold.Chemscore.Internal_Hbond>
0.0000

> <Gold.Chemscore.DEClash>
0.0137

> <Gold.Chemscore.DEInternal>
0.8654

> <Gold.Chemscore.Rot>
2.2227

> <Gold.Chemscore.Internal.Correction>
   9.000000E+99

> <Gold.Chemscore.Hbonds>
donor molecule, donor type, donor heavy atom, donor atom, acceptor molecule, acceptor atom, score
      P1  H  6931  6943       L1    16  0.66
      P1  H  6934  6947       L1    16  0.67

> <Gold.Chemscore.Hbond.Weighted>
-5.0679

> <Gold.Chemscore.Metal.Weighted>
-0.0000

> <Gold.Chemscore.Lipo.Weighted>
-10.1613

> <Gold.Chemscore.Internal_Hbond.Weighted>
0.0000

> <Gold.Chemscore.DEClash.Weighted>
0.0137

> <Gold.Chemscore.DEInternal.Weighted>
0.8654

> <Gold.Chemscore.Rot.Weighted>
5.6902

> <Gold.Chemscore.Internal.Correction.Weighted>
   9.000000E+99

> <Gold.Protein.RotatedTorsions>
[ 6907 6896 6895 6894 ] final  -44.75 input  -60.11 | X-H torsion
[ 7974 7965 7964 7962 ] final  102.70 input  175.53 | X-H torsion
[ 8008 7997 7996 7995 ] final -116.67 input   59.86 | X-H torsion
[ 10167 10162 10161 10158 ] final   42.68 input  -65.29 | X-H torsion
[ 10718 10713 10712 10709 ] final  126.27 input   66.30 | X-H torsion
[ 10763 10752 10751 10750 ] final -131.49 input  -60.55 | X-H torsion
[ 11005 11000 10999 10996 ] final -138.51 input  -57.11 | X-H torsion

> <Gold.Protein.ActiveResidues>
 VAL166  LYS551  ARG553  GLY616  TRP617  ASP618  TYR619  PRO620  LYS621  CYS622 
 ASP623  PHE694  ASN695  SER759  ASP760  ASP761  ALA762  ILE779  LEU786  VAL792 
 PHE793  MET794  SER795  GLU796  ALA797  LYS798  CYS799  TRP800  GLU811  SER814 

> <Gold.Protein.RotatedAtoms>
  150.9294  134.8710  159.7541 H   0  0  0  0  0  0  0  0  0  0  0  0  # atno 6907 bound_to 6896
  152.5031  134.4101  159.9456 H   0  0  0  0  0  0  0  0  0  0  0  0  # atno 6908 bound_to 6896
  151.4129  133.3682  159.2781 H   0  0  0  0  0  0  0  0  0  0  0  0  # atno 6909 bound_to 6896
  145.3557  139.2429  143.3534 H   0  0  0  0  0  0  0  0  0  0  0  0  # atno 7974 bound_to 7965
  155.0715  140.0393  157.2610 H   0  0  0  0  0  0  0  0  0  0  0  0  # atno 8008 bound_to 7997
  154.6978  140.2667  155.6724 H   0  0  0  0  0  0  0  0  0  0  0  0  # atno 8009 bound_to 7997
  156.2750  140.2746  156.1579 H   0  0  0  0  0  0  0  0  0  0  0  0  # atno 8010 bound_to 7997
  140.3520  144.2338  150.6145 H   0  0  0  0  0  0  0  0  0  0  0  0  # atno 10167 bound_to 10162
  157.5433  131.1096  150.8823 H   0  0  0  0  0  0  0  0  0  0  0  0  # atno 10718 bound_to 10713
  154.8750  135.3828  154.4255 H   0  0  0  0  0  0  0  0  0  0  0  0  # atno 10763 bound_to 10752
  153.4955  135.7030  153.5866 H   0  0  0  0  0  0  0  0  0  0  0  0  # atno 10764 bound_to 10752
  153.4221  135.3899  155.2084 H   0  0  0  0  0  0  0  0  0  0  0  0  # atno 10765 bound_to 10752
  140.8609  134.2170  157.4708 H   0  0  0  0  0  0  0  0  0  0  0  0  # atno 11005 bound_to 11000
  146.2949  140.4182  142.8725 LP  0  0  0  0  0  0  0  0  0  0  0  0  # atno 17320 bound_to 7965
  144.8684  140.7238  143.6062 LP  0  0  0  0  0  0  0  0  0  0  0  0  # atno 17321 bound_to 7965
  140.5210  143.2266  151.8388 LP  0  0  0  0  0  0  0  0  0  0  0  0  # atno 17342 bound_to 10162
  139.4825  144.4837  151.9275 LP  0  0  0  0  0  0  0  0  0  0  0  0  # atno 17343 bound_to 10162
  156.9369  130.5370  149.5279 LP  0  0  0  0  0  0  0  0  0  0  0  0  # atno 17370 bound_to 10713
  156.0515  130.5583  150.8999 LP  0  0  0  0  0  0  0  0  0  0  0  0  # atno 17371 bound_to 10713
  139.8707  134.9729  156.4789 LP  0  0  0  0  0  0  0  0  0  0  0  0  # atno 17394 bound_to 11000
  140.8684  133.8007  155.9338 LP  0  0  0  0  0  0  0  0  0  0  0  0  # atno 17395 bound_to 11000

$$$$
