#       Name:                AV-unprocessed.smi:3085
#       Creating user name   scv26
#       Creation time:       Fri Mar 27 17:14:21 2020


#       File generated by GOLD software.
#

@<TRIPOS>MOLECULE
AV-unprocessed.smi:3085
    32    33     1
SMALL
NO_CHARGES


@<TRIPOS>ATOM
      1 ****        -4.3609   1.5505  -0.6948 C.3            1 S1                 0.0000
      2 ****        -3.8228   0.1184  -0.7832 C.3            1 S1                 0.0000
      3 ****        -2.3303   0.0668  -0.8009 C.2            1 S1                 0.0000
      4 ****        -1.5483   0.1281   0.2718 N.2            1 S1                 0.0000
      5 ****        -0.3168   0.0732  -0.3203 C.2            1 S1                 0.0000
      6 ****         0.9514   0.0591   0.4758 C.3            1 S1                 0.0000
      7 ****         1.4335  -1.3726   0.7783 C.3            1 S1                 0.0000
      8 ****         2.7318  -1.3274   1.4784 N.4            1 S1                 1.0000
      9 ****         3.7283  -0.5463   0.7188 C.3            1 S1                 0.0000
     10 ****         3.1780   0.8569   0.4076 C.3            1 S1                 0.0000
     11 ****         1.9410   0.7457  -0.2888 O.3            1 S1                 0.0000
     12 ****        -0.3148  -0.0404  -1.6491 N.2            1 S1                 0.0000
     13 ****        -1.6335  -0.0267  -1.9352 N.pl3          1 S1                 0.0000
     14 ****        -1.9958  -0.0882  -2.8763 H              1 S1                 0.0000
     15 ****        -5.4509   1.5555  -0.6825 H              1 S1                 0.0000
     16 ****        -4.0339   2.1472  -1.5469 H              1 S1                 0.0000
     17 ****        -4.0148   2.0450   0.2132 H              1 S1                 0.0000
     18 ****        -4.1833  -0.4658   0.0643 H              1 S1                 0.0000
     19 ****        -4.2068  -0.3676  -1.6809 H              1 S1                 0.0000
     20 ****         0.7804   0.6010   1.4080 H              1 S1                 0.0000
     21 ****         0.7074  -1.9026   1.3953 H              1 S1                 0.0000
     22 ****         1.5480  -1.9412  -0.1460 H              1 S1                 0.0000
     23 ****         2.5979  -0.8915   2.3797 H              1 S1                 0.0000
     24 ****         4.6510  -0.4781   1.2954 H              1 S1                 0.0000
     25 ****         3.9650  -1.0721  -0.2072 H              1 S1                 0.0000
     26 ****         3.0412   1.4335   1.3238 H              1 S1                 0.0000
     27 ****         3.8846   1.4089  -0.2123 H              1 S1                 0.0000
     28 ****         3.0738  -2.2682   1.6145 H              1 S1                 0.0000
     29 ****        -1.7918   0.1954   1.2394 LP             1 S1                 0.0000
     30 ****         1.6058   1.6642  -0.4985 LP             1 S1                 0.0000
     31 ****         2.0949   0.2445  -1.1404 LP             1 S1                 0.0000
     32 ****         0.4633  -0.1162  -2.2727 LP             1 S1                 0.0000
@<TRIPOS>BOND
    1    1    2 1     
    2    1   15 1     
    3    1   16 1     
    4    1   17 1     
    5    2    3 1     
    6    2   18 1     
    7    2   19 1     
    8    3   13 1     
    9    3    4 2     
   10    4    5 1     
   11    5    6 1     
   12    5   12 2     
   13    6   11 1     
   14    6    7 1     
   15    6   20 1     
   16    7    8 1     
   17    7   21 1     
   18    7   22 1     
   19    8    9 1     
   20    8   23 1     
   21    8   28 1     
   22    9   10 1     
   23    9   24 1     
   24    9   25 1     
   25   10   11 1     
   26   10   26 1     
   27   10   27 1     
   28   12   13 1     
   29   13   14 1     
   30    4   29 1     
   31   11   30 1     
   32   11   31 1     
   33   12   32 1     
@<TRIPOS>SUBSTRUCTURE
      1 S1             1
@<TRIPOS>SET
LONE_PAIRS      STATIC     ATOMS    <user>   **** ""
4 29 30 31 32
DONOR_HYDROGENS      STATIC     ATOMS    <user>   **** ""
3 23 28 14
ATOM$BLUE        STATIC     ATOMS    COLORGROUP SYSTEM
4 29 30 31 32
ATOM$RED        STATIC     ATOMS    COLORGROUP SYSTEM
3 23 28 14
