AV-unprocessed.smi:1752|AV-procd|sdf|7059|dock7
  -GOLD-   22720 8273D 1   1.00000     0.00000
 Structure written by MMmdl.
 43 44  0  0  0  0  0  0  0  0  2 V2000
  150.6533  140.7984  158.0763 C   0  0  0  0  0  0  0  0  0  0  0  0
  150.1174  142.1607  157.6159 C   0  0  1  0  0  0  0  0  0  0  0  0
  151.2653  143.1652  157.3781 C   0  0  0  0  0  0  0  0  0  0  0  0
  151.6428  143.8833  158.5827 N   0  0  0  0  0  0  0  0  0  0  0  0
  151.5060  145.2281  158.8568 C   0  0  0  0  0  0  0  0  0  0  0  0
  151.9847  145.4362  160.1183 C   0  0  0  0  0  0  0  0  0  0  0  0
  152.4031  144.1425  160.5382 C   0  0  0  0  0  0  0  0  0  0  0  0
  152.1989  143.2157  159.6161 N   0  0  0  0  0  0  0  0  0  0  0  0
  149.3336  141.9751  156.3951 N   0  0  0  0  0  0  0  0  0  0  0  0
  149.6846  141.2193  155.3388 C   0  0  0  0  0  0  0  0  0  0  0  0
  150.7472  140.5986  155.2904 O   0  0  0  0  0  0  0  0  0  0  0  0
  148.7348  141.1298  154.3747 N   0  0  0  0  0  0  0  0  0  0  0  0
  148.6258  139.9958  153.4300 C   0  0  0  0  0  0  0  0  0  0  0  0
  147.1820  139.6947  152.9616 C   0  0  0  0  0  0  0  0  0  0  0  0
  146.1766  139.3772  154.0901 C   0  0  0  0  0  0  0  0  0  0  0  0
  146.2967  140.2334  155.3011 N   0  3  2  0  0  0  0  0  0  0  0  0
  145.2703  139.8989  156.3129 C   0  0  0  0  0  0  0  0  0  0  0  0
  146.3772  141.6968  155.0457 C   0  0  0  0  0  0  0  0  0  0  0  0
  147.6592  142.1332  154.2985 C   0  0  0  0  0  0  0  0  0  0  0  0
  151.2189  140.8938  159.0036 H   0  0  0  0  0  0  0  0  0  0  0  0
  151.3135  140.3565  157.3291 H   0  0  0  0  0  0  0  0  0  0  0  0
  149.8389  140.0966  158.2598 H   0  0  0  0  0  0  0  0  0  0  0  0
  149.4791  142.5406  158.4157 H   0  0  0  0  0  0  0  0  0  0  0  0
  152.1488  142.6450  157.0048 H   0  0  0  0  0  0  0  0  0  0  0  0
  150.9867  143.8909  156.6125 H   0  0  0  0  0  0  0  0  0  0  0  0
  151.0777  145.9153  158.1421 H   0  0  0  0  0  0  0  0  0  0  0  0
  152.0297  146.3698  160.6590 H   0  0  0  0  0  0  0  0  0  0  0  0
  152.8462  143.8517  161.4794 H   0  0  0  0  0  0  0  0  0  0  0  0
  148.4332  142.4306  156.3662 H   0  0  0  0  0  0  0  0  0  0  0  0
  149.2544  140.2064  152.5638 H   0  0  0  0  0  0  0  0  0  0  0  0
  149.0142  139.0810  153.8808 H   0  0  0  0  0  0  0  0  0  0  0  0
  146.7987  140.5077  152.3460 H   0  0  0  0  0  0  0  0  0  0  0  0
  147.2101  138.8419  152.2824 H   0  0  0  0  0  0  0  0  0  0  0  0
  145.1621  139.4435  153.6942 H   0  0  0  0  0  0  0  0  0  0  0  0
  146.3188  138.3421  154.4030 H   0  0  0  0  0  0  0  0  0  0  0  0
  144.2731  140.1638  155.9594 H   0  0  0  0  0  0  0  0  0  0  0  0
  145.4561  140.4324  157.2457 H   0  0  0  0  0  0  0  0  0  0  0  0
  145.2820  138.8317  156.5373 H   0  0  0  0  0  0  0  0  0  0  0  0
  145.4874  142.0383  154.5150 H   0  0  0  0  0  0  0  0  0  0  0  0
  146.3708  142.2048  156.0113 H   0  0  0  0  0  0  0  0  0  0  0  0
  147.9903  143.0999  154.6832 H   0  0  0  0  0  0  0  0  0  0  0  0
  147.4380  142.3488  153.2537 H   0  0  0  0  0  0  0  0  0  0  0  0
  147.1828  139.9899  155.7208 H   0  0  0  0  0  0  0  0  0  0  0  0
  1  2  1  0  0  0  0
  1 20  1  0  0  0  0
  1 21  1  0  0  0  0
  1 22  1  0  0  0  0
  2  3  1  0  0  0  0
  2  9  1  0  0  0  0
  2 23  1  0  0  0  0
  3  4  1  0  0  0  0
  3 24  1  0  0  0  0
  3 25  1  0  0  0  0
  4  8  1  0  0  0  0
  4  5  1  0  0  0  0
  5  6  2  0  0  0  0
  5 26  1  0  0  0  0
  6  7  1  0  0  0  0
  6 27  1  0  0  0  0
  7  8  2  0  0  0  0
  7 28  1  0  0  0  0
  9 10  1  0  0  0  0
  9 29  1  0  0  0  0
 10 11  2  0  0  0  0
 10 12  1  0  0  0  0
 12 19  1  0  0  0  0
 12 13  1  0  0  0  0
 13 14  1  0  0  0  0
 13 30  1  0  0  0  0
 13 31  1  0  0  0  0
 14 15  1  0  0  0  0
 14 32  1  0  0  0  0
 14 33  1  0  0  0  0
 15 16  1  0  0  0  0
 15 34  1  0  0  0  0
 15 35  1  0  0  0  0
 16 17  1  0  0  0  0
 16 18  1  0  0  0  0
 16 43  1  0  0  0  0
 17 36  1  0  0  0  0
 17 37  1  0  0  0  0
 17 38  1  0  0  0  0
 18 19  1  0  0  0  0
 18 39  1  0  0  0  0
 18 40  1  0  0  0  0
 19 41  1  0  0  0  0
 19 42  1  0  0  0  0
M  CHG  1  16   1
M  END
> <s_m_source_file>
AV-unprocessed.smi

> <i_m_source_file_index>
1752

> <i_lp_mmshare_version>
43012

> <i_f3d_flags>
0

> <s_epik_input>
bjFbY0hdW2NIXVtjSF1uMVtDSDJdW0NAQEhdKFtDSDNdKVtOSF1DKD1PKU4yW0NIMl1bQ0gyXVtDSDJdTihbQ0gzXSlbQ0gyXVtDSDJdMg==

> <s_epik_cmdline>
J2VwaWtfcHl0aG9uJywgJy1waCcsICc3LjAnLCAnLXRuJywgJzgnLCAnLW1hJywgJzIwMCcsICctbWV0YWxfYmluZGluZycsICctaW1hZScsICc8aW5maWxlLm1hZT4nLCAnLW9tYWUnLCAnPG91dGZpbGUubWFlPic=

> <r_lp_tautomer_probability>
1

> <r_epik_Ionization_Penalty>
0.00208423

> <r_epik_Ionization_Penalty_Charging>
0.00203643

> <r_epik_Ionization_Penalty_Neutral>
4.77939e-05

> <r_epik_State_Penalty>
0.00139278

> <r_epik_Charging_Adjusted_Penalty>
0.00342922

> <i_epik_Tot_Q>
1

> <i_epik_Tot_abs_Q>
1

> <r_epik_Metal_State_Penalty>
-0

> <b_epik_Metal_Only>
0

> <s_lp_Force_Field>
OPLS_2005

> <r_lp_Energy>
45.8522

> <b_lp_Chiralities_Consistent>
1

> <s_lp_Variant>
AV-unprocessed.smi:1752-2

> <Gold.Version>
5.8.1

> <Gold.Id.Protein>
6NUR|6NUR_protein|mol2

> <Gold.PLP.Fitness>
36.0999

> <Gold.PLP.PLP>
-37.0685

> <Gold.PLP.part.hbond>
-2.0000

> <Gold.PLP.part.metal>
0.0000

> <Gold.PLP.part.buried>
1.4733

> <Gold.PLP.part.nonpolar>
-35.8601

> <Gold.PLP.part.repulsive>
0.1039

> <Gold.PLP.ligand.clash>
2.2347

> <Gold.PLP.ligand.torsion>
0.7849

> <Gold.PLP.Chemscore.Hbond>
0.9136

> <Gold.PLP.Chemscore.CHOScore>
0.0000

> <Gold.PLP.Chemscore.Metal>
0.0000

> <Gold.Chemscore.Hbonds>
donor molecule, donor type, donor heavy atom, donor atom, acceptor molecule, acceptor atom, score
      P1  H  7989  7998       L1    11  0.93

> <Gold.PLP.Chemscore.Internal.Correction>
0.0952

> <Gold.Rescore>
     Score         DG    S(hbond)    S(metal)    S(lipo)     H(rot)  DE(clash)    DE(int)     intcor
     11.39     -15.19       0.84        0.00      89.83       1.41       1.88       1.92       ----

> <Gold.Chemscore.Fitness>
11.3907

> <Gold.Chemscore.DG>
-15.1916

> <Gold.Chemscore.ZeroCoef>
-5.4800

> <Gold.Chemscore.Hbond>
0.8436

> <Gold.Chemscore.Metal>
0.0000

> <Gold.Chemscore.Lipo>
89.8294

> <Gold.Chemscore.Internal_Hbond>
0.0000

> <Gold.Chemscore.DEClash>
1.8772

> <Gold.Chemscore.DEInternal>
1.9238

> <Gold.Chemscore.Rot>
1.4125

> <Gold.Chemscore.Internal.Correction>
   9.000000E+99

> <Gold.Chemscore.Hbonds>
donor molecule, donor type, donor heavy atom, donor atom, acceptor molecule, acceptor atom, score
      L1  H     9    29       P1  8028  0.01
      P1  H  7989  7998       L1    11  0.64

> <Gold.Chemscore.Hbond.Weighted>
-2.8176

> <Gold.Chemscore.Metal.Weighted>
-0.0000

> <Gold.Chemscore.Lipo.Weighted>
-10.5100

> <Gold.Chemscore.Internal_Hbond.Weighted>
0.0000

> <Gold.Chemscore.DEClash.Weighted>
1.8772

> <Gold.Chemscore.DEInternal.Weighted>
1.9238

> <Gold.Chemscore.Rot.Weighted>
3.6160

> <Gold.Chemscore.Internal.Correction.Weighted>
   9.000000E+99

> <Gold.Protein.RotatedTorsions>
[ 6907 6896 6895 6894 ] final -166.18 input  -60.11 | X-H torsion
[ 7974 7965 7964 7962 ] final   40.47 input  175.53 | X-H torsion
[ 8008 7997 7996 7995 ] final  -67.35 input   59.86 | X-H torsion
[ 10167 10162 10161 10158 ] final -129.50 input  -65.29 | X-H torsion
[ 10718 10713 10712 10709 ] final -170.95 input   66.30 | X-H torsion
[ 10763 10752 10751 10750 ] final   56.24 input  -60.55 | X-H torsion
[ 11005 11000 10999 10996 ] final   45.31 input  -57.11 | X-H torsion

> <Gold.Protein.ActiveResidues>
 VAL166  LYS551  ARG553  GLY616  TRP617  ASP618  TYR619  PRO620  LYS621  CYS622 
 ASP623  PHE694  ASN695  SER759  ASP760  ASP761  ALA762  ILE779  LEU786  VAL792 
 PHE793  MET794  SER795  GLU796  ALA797  LYS798  CYS799  TRP800  GLU811  SER814 

> <Gold.Protein.RotatedAtoms>
  151.4396  133.3647  159.2779 H   0  0  0  0  0  0  0  0  0  0  0  0  # atno 6907 bound_to 6896
  150.9167  134.8586  159.7472 H   0  0  0  0  0  0  0  0  0  0  0  0  # atno 6908 bound_to 6896
  152.4961  134.4330  159.9570 H   0  0  0  0  0  0  0  0  0  0  0  0  # atno 6909 bound_to 6896
  146.0902  139.5529  142.9481 H   0  0  0  0  0  0  0  0  0  0  0  0  # atno 7974 bound_to 7965
  154.4794  140.0894  156.7340 H   0  0  0  0  0  0  0  0  0  0  0  0  # atno 8008 bound_to 7997
  155.4511  140.3457  155.4282 H   0  0  0  0  0  0  0  0  0  0  0  0  # atno 8009 bound_to 7997
  156.1167  140.1463  156.9250 H   0  0  0  0  0  0  0  0  0  0  0  0  # atno 8010 bound_to 7997
  139.9391  143.6184  152.2508 H   0  0  0  0  0  0  0  0  0  0  0  0  # atno 10167 bound_to 10162
  156.7336  130.9316  151.3106 H   0  0  0  0  0  0  0  0  0  0  0  0  # atno 10718 bound_to 10713
  152.9829  135.5683  154.5196 H   0  0  0  0  0  0  0  0  0  0  0  0  # atno 10763 bound_to 10752
  154.4686  135.2784  155.1661 H   0  0  0  0  0  0  0  0  0  0  0  0  # atno 10764 bound_to 10752
  154.3219  135.6267  153.5565 H   0  0  0  0  0  0  0  0  0  0  0  0  # atno 10765 bound_to 10752
  140.1471  134.4509  155.8408 H   0  0  0  0  0  0  0  0  0  0  0  0  # atno 11005 bound_to 11000
  145.6053  141.0348  143.1996 LP  0  0  0  0  0  0  0  0  0  0  0  0  # atno 17320 bound_to 7965
  144.7355  139.7600  143.7331 LP  0  0  0  0  0  0  0  0  0  0  0  0  # atno 17321 bound_to 7965
  139.6719  144.7660  151.1767 LP  0  0  0  0  0  0  0  0  0  0  0  0  # atno 17342 bound_to 10162
  140.7616  143.5852  150.8853 LP  0  0  0  0  0  0  0  0  0  0  0  0  # atno 17343 bound_to 10162
  157.6848  130.9175  150.0358 LP  0  0  0  0  0  0  0  0  0  0  0  0  # atno 17370 bound_to 10713
  156.1512  130.3642  149.9436 LP  0  0  0  0  0  0  0  0  0  0  0  0  # atno 17371 bound_to 10713
  141.2194  133.6857  156.7354 LP  0  0  0  0  0  0  0  0  0  0  0  0  # atno 17394 bound_to 11000
  140.2650  134.8437  157.3794 LP  0  0  0  0  0  0  0  0  0  0  0  0  # atno 17395 bound_to 11000

$$$$
