AV-unprocessed.smi:67|AV-procd|sdf|630|dock8
  -GOLD-   2262016523D 1   1.00000     0.00000
 Structure written by MMmdl.
 49 51  0  0  0  0  0  0  0  0  3 V2000
  146.9331  136.5919  153.5017 O   0  0  0  0  0  0  0  0  0  0  0  0
  146.0909  137.5797  152.9327 C   0  0  2  0  0  0  0  0  0  0  0  0
  145.9929  138.7675  153.9159 C   0  0  0  0  0  0  0  0  0  0  0  0
  147.3304  139.3280  154.2465 N   0  3  2  0  0  0  0  0  0  0  0  0
  147.6213  139.3249  155.7038 C   0  0  0  0  0  0  0  0  0  0  0  0
  149.0903  139.6893  155.9749 C   0  0  0  0  0  0  0  0  0  0  0  0
  149.4586  141.0269  155.2979 C   0  0  1  0  0  0  0  0  0  0  0  0
  150.7869  141.4851  155.5639 O   0  0  0  0  0  0  0  0  0  0  0  0
  151.2573  141.7544  156.8357 C   0  0  0  0  0  0  0  0  0  0  0  0
  151.6875  140.6363  157.5794 C   0  0  0  0  0  0  0  0  0  0  0  0
  152.1872  140.7821  158.8868 C   0  0  0  0  0  0  0  0  0  0  0  0
  152.2643  142.0580  159.4731 C   0  0  0  0  0  0  0  0  0  0  0  0
  151.8396  143.1921  158.7496 C   0  0  0  0  0  0  0  0  0  0  0  0
  151.9075  144.5862  159.3547 C   0  0  0  0  0  0  0  0  0  0  0  0
  150.6964  145.1420  159.3239 F   0  0  0  0  0  0  0  0  0  0  0  0
  152.3325  144.5650  160.6183 F   0  0  0  0  0  0  0  0  0  0  0  0
  152.7418  145.3400  158.6389 F   0  0  0  0  0  0  0  0  0  0  0  0
  151.3403  143.0345  157.4393 C   0  0  0  0  0  0  0  0  0  0  0  0
  149.0410  141.0886  153.8130 C   0  0  0  0  0  0  0  0  0  0  0  0
  147.5739  140.6636  153.6416 C   0  0  0  0  0  0  0  0  0  0  0  0
  144.7341  136.9400  152.6240 C   0  0  0  0  0  0  0  0  0  0  0  0
  144.9538  136.2153  151.2933 C   0  0  0  0  0  0  0  0  0  0  0  0
  146.0393  136.9378  150.6023 N   0  3  0  0  0  0  0  0  0  0  0  0
  146.6050  137.9389  151.5290 C   0  0  0  0  0  0  0  0  0  0  0  0
  147.7549  136.5827  153.0332 H   0  0  0  0  0  0  0  0  0  0  0  0
  145.3501  139.5467  153.5027 H   0  0  0  0  0  0  0  0  0  0  0  0
  145.4875  138.4330  154.8237 H   0  0  0  0  0  0  0  0  0  0  0  0
  146.9559  140.0253  156.2115 H   0  0  0  0  0  0  0  0  0  0  0  0
  147.4190  138.3363  156.1183 H   0  0  0  0  0  0  0  0  0  0  0  0
  149.2546  139.7665  157.0501 H   0  0  0  0  0  0  0  0  0  0  0  0
  149.7177  138.8679  155.6395 H   0  0  0  0  0  0  0  0  0  0  0  0
  148.8431  141.7764  155.7973 H   0  0  0  0  0  0  0  0  0  0  0  0
  151.6337  139.6506  157.1408 H   0  0  0  0  0  0  0  0  0  0  0  0
  152.5117  139.9131  159.4402 H   0  0  0  0  0  0  0  0  0  0  0  0
  152.6498  142.1556  160.4771 H   0  0  0  0  0  0  0  0  0  0  0  0
  151.0295  143.9284  156.9286 H   0  0  0  0  0  0  0  0  0  0  0  0
  149.1728  142.1042  153.4387 H   0  0  0  0  0  0  0  0  0  0  0  0
  149.6603  140.4585  153.1804 H   0  0  0  0  0  0  0  0  0  0  0  0
  147.3302  140.6434  152.5794 H   0  0  0  0  0  0  0  0  0  0  0  0
  146.9119  141.3983  154.1031 H   0  0  0  0  0  0  0  0  0  0  0  0
  144.3755  136.2776  153.4131 H   0  0  0  0  0  0  0  0  0  0  0  0
  143.9813  137.7175  152.4843 H   0  0  0  0  0  0  0  0  0  0  0  0
  145.2818  135.1906  151.4704 H   0  0  0  0  0  0  0  0  0  0  0  0
  144.0495  136.1783  150.6856 H   0  0  0  0  0  0  0  0  0  0  0  0
  146.7549  136.2744  150.3406 H   0  0  0  0  0  0  0  0  0  0  0  0
  146.2177  138.9118  151.2249 H   0  0  0  0  0  0  0  0  0  0  0  0
  147.6931  137.9812  151.4646 H   0  0  0  0  0  0  0  0  0  0  0  0
  145.6861  137.3977  149.7750 H   0  0  0  0  0  0  0  0  0  0  0  0
  148.0007  138.6957  153.8321 H   0  0  0  0  0  0  0  0  0  0  0  0
  1  2  1  0  0  0  0
  1 25  1  0  0  0  0
  2 24  1  0  0  0  0
  2  3  1  0  0  0  0
  2 21  1  0  0  0  0
  3  4  1  0  0  0  0
  3 26  1  0  0  0  0
  3 27  1  0  0  0  0
  4 20  1  0  0  0  0
  4  5  1  0  0  0  0
  4 49  1  0  0  0  0
  5  6  1  0  0  0  0
  5 28  1  0  0  0  0
  5 29  1  0  0  0  0
  6  7  1  0  0  0  0
  6 30  1  0  0  0  0
  6 31  1  0  0  0  0
  7  8  1  0  0  0  0
  7 19  1  0  0  0  0
  7 32  1  0  0  0  0
  8  9  1  0  0  0  0
  9 18  1  0  0  0  0
  9 10  2  0  0  0  0
 10 11  1  0  0  0  0
 10 33  1  0  0  0  0
 11 12  2  0  0  0  0
 11 34  1  0  0  0  0
 12 13  1  0  0  0  0
 12 35  1  0  0  0  0
 13 14  1  0  0  0  0
 13 18  2  0  0  0  0
 14 15  1  0  0  0  0
 14 16  1  0  0  0  0
 14 17  1  0  0  0  0
 18 36  1  0  0  0  0
 19 20  1  0  0  0  0
 19 37  1  0  0  0  0
 19 38  1  0  0  0  0
 20 39  1  0  0  0  0
 20 40  1  0  0  0  0
 21 22  1  0  0  0  0
 21 41  1  0  0  0  0
 21 42  1  0  0  0  0
 22 23  1  0  0  0  0
 22 43  1  0  0  0  0
 22 44  1  0  0  0  0
 23 24  1  0  0  0  0
 23 45  1  0  0  0  0
 23 48  1  0  0  0  0
 24 46  1  0  0  0  0
 24 47  1  0  0  0  0
M  CHG  1   4   1
M  CHG  1  23   1
M  END
> <s_m_source_file>
AV-unprocessed.smi

> <i_m_source_file_index>
67

> <i_lp_mmshare_version>
43012

> <i_f3d_flags>
0

> <s_epik_input>
W0NIMl0xW05IXVtDSDJdW0NIMl1bQ0BAXTEoW09IXSlbQ0gyXU4yW0NIMl1bQ0gyXVtDSF0oW0NIMl1bQ0gyXTIpT2MzW2NIXVtjSF1bY0hdYyhDKEYpKEYpRilbY0hdMw==

> <s_epik_cmdline>
J2VwaWtfcHl0aG9uJywgJy1waCcsICc3LjAnLCAnLXRuJywgJzgnLCAnLW1hJywgJzIwMCcsICctbWV0YWxfYmluZGluZycsICctaW1hZScsICc8aW5maWxlLm1hZT4nLCAnLW9tYWUnLCAnPG91dGZpbGUubWFlPic=

> <r_lp_tautomer_probability>
1

> <r_epik_Ionization_Penalty>
0.0989853

> <r_epik_Ionization_Penalty_Charging>
0.0989662

> <r_epik_Ionization_Penalty_Neutral>
1.91014e-05

> <r_epik_State_Penalty>
0.0852826

> <r_epik_Charging_Adjusted_Penalty>
0.184249

> <i_epik_Tot_Q>
2

> <i_epik_Tot_abs_Q>
2

> <r_epik_Metal_State_Penalty>
0.0849414

> <b_epik_Metal_Only>
0

> <s_lp_Force_Field>
OPLS_2005

> <r_lp_Energy>
59.8113

> <b_lp_Chiralities_Consistent>
1

> <s_lp_Variant>
AV-unprocessed.smi:67-2

> <Gold.Version>
5.8.1

> <Gold.Id.Protein>
6NUR|6NUR_protein|mol2

> <Gold.PLP.Fitness>
49.4995

> <Gold.PLP.PLP>
-45.5972

> <Gold.PLP.part.hbond>
-1.9634

> <Gold.PLP.part.metal>
0.0000

> <Gold.PLP.part.buried>
-5.6594

> <Gold.PLP.part.nonpolar>
-39.0966

> <Gold.PLP.part.repulsive>
0.2020

> <Gold.PLP.ligand.clash>
0.0000

> <Gold.PLP.ligand.torsion>
1.1094

> <Gold.PLP.Chemscore.Hbond>
1.8640

> <Gold.PLP.Chemscore.CHOScore>
0.0000

> <Gold.PLP.Chemscore.Metal>
0.0000

> <Gold.Chemscore.Hbonds>
donor molecule, donor type, donor heavy atom, donor atom, acceptor molecule, acceptor atom, score
      L1  H     1    25       P1  7948  1.00
      L1  H    23    48       P1 10171  0.32
      P1  H  7989  7998       L1     8  0.13

> <Gold.PLP.Chemscore.Internal.Correction>
0.5291

> <Gold.Rescore>
     Score         DG    S(hbond)    S(metal)    S(lipo)     H(rot)  DE(clash)    DE(int)     intcor
     17.65     -18.96       1.95        0.00     108.39       2.24       0.14       1.18       ----

> <Gold.Chemscore.Fitness>
17.6480

> <Gold.Chemscore.DG>
-18.9623

> <Gold.Chemscore.ZeroCoef>
-5.4800

> <Gold.Chemscore.Hbond>
1.9528

> <Gold.Chemscore.Metal>
0.0000

> <Gold.Chemscore.Lipo>
108.3940

> <Gold.Chemscore.Internal_Hbond>
0.0000

> <Gold.Chemscore.DEClash>
0.1352

> <Gold.Chemscore.DEInternal>
1.1792

> <Gold.Chemscore.Rot>
2.2352

> <Gold.Chemscore.Internal.Correction>
   9.000000E+99

> <Gold.Chemscore.Hbonds>
donor molecule, donor type, donor heavy atom, donor atom, acceptor molecule, acceptor atom, score
      L1  H     1    25       P1  7948  1.00
      L1  H    23    48       P1 10171  0.33
      P1  H  7989  7998       L1     8  0.02

> <Gold.Chemscore.Hbond.Weighted>
-6.5224

> <Gold.Chemscore.Metal.Weighted>
-0.0000

> <Gold.Chemscore.Lipo.Weighted>
-12.6821

> <Gold.Chemscore.Internal_Hbond.Weighted>
0.0000

> <Gold.Chemscore.DEClash.Weighted>
0.1352

> <Gold.Chemscore.DEInternal.Weighted>
1.1792

> <Gold.Chemscore.Rot.Weighted>
5.7221

> <Gold.Chemscore.Internal.Correction.Weighted>
   9.000000E+99

> <Gold.Protein.RotatedTorsions>
[ 6907 6896 6895 6894 ] final  -17.32 input  -60.11 | X-H torsion
[ 7974 7965 7964 7962 ] final  -27.50 input  175.53 | X-H torsion
[ 8008 7997 7996 7995 ] final  113.59 input   59.86 | X-H torsion
[ 10167 10162 10161 10158 ] final  148.39 input  -65.29 | X-H torsion
[ 10718 10713 10712 10709 ] final  -44.57 input   66.30 | X-H torsion
[ 10763 10752 10751 10750 ] final  160.91 input  -60.55 | X-H torsion
[ 11005 11000 10999 10996 ] final -150.11 input  -57.11 | X-H torsion

> <Gold.Protein.ActiveResidues>
 VAL166  LYS551  ARG553  GLY616  TRP617  ASP618  TYR619  PRO620  LYS621  CYS622 
 ASP623  PHE694  ASN695  SER759  ASP760  ASP761  ALA762  ILE779  LEU786  VAL792 
 PHE793  MET794  SER795  GLU796  ALA797  LYS798  CYS799  TRP800  GLU811  SER814 

> <Gold.Protein.RotatedAtoms>
  151.2951  135.0753  159.9218 H   0  0  0  0  0  0  0  0  0  0  0  0  # atno 6907 bound_to 6896
  152.5309  133.9891  159.7853 H   0  0  0  0  0  0  0  0  0  0  0  0  # atno 6908 bound_to 6896
  151.0168  133.5862  159.2706 H   0  0  0  0  0  0  0  0  0  0  0  0  # atno 6909 bound_to 6896
  146.1353  140.5160  142.8675 H   0  0  0  0  0  0  0  0  0  0  0  0  # atno 7974 bound_to 7965
  156.2267  140.2976  156.0086 H   0  0  0  0  0  0  0  0  0  0  0  0  # atno 8008 bound_to 7997
  155.2336  140.0420  157.2982 H   0  0  0  0  0  0  0  0  0  0  0  0  # atno 8009 bound_to 7997
  154.5928  140.2406  155.7905 H   0  0  0  0  0  0  0  0  0  0  0  0  # atno 8010 bound_to 7997
  139.4875  144.5683  151.7104 H   0  0  0  0  0  0  0  0  0  0  0  0  # atno 10167 bound_to 10162
  156.2372  130.4177  149.8803 H   0  0  0  0  0  0  0  0  0  0  0  0  # atno 10718 bound_to 10713
  154.2547  135.2770  155.2802 H   0  0  0  0  0  0  0  0  0  0  0  0  # atno 10763 bound_to 10752
  154.5435  135.5696  153.6863 H   0  0  0  0  0  0  0  0  0  0  0  0  # atno 10764 bound_to 10752
  152.9973  135.6257  154.2695 H   0  0  0  0  0  0  0  0  0  0  0  0  # atno 10765 bound_to 10752
  140.7436  134.3486  157.5142 H   0  0  0  0  0  0  0  0  0  0  0  0  # atno 11005 bound_to 11000
  144.7733  140.5686  143.6655 LP  0  0  0  0  0  0  0  0  0  0  0  0  # atno 17320 bound_to 7965
  145.5169  139.1477  143.3574 LP  0  0  0  0  0  0  0  0  0  0  0  0  # atno 17321 bound_to 7965
  140.5265  144.0798  150.6039 LP  0  0  0  0  0  0  0  0  0  0  0  0  # atno 17342 bound_to 10162
  140.3773  143.2822  152.0210 LP  0  0  0  0  0  0  0  0  0  0  0  0  # atno 17343 bound_to 10162
  156.6397  130.8700  151.3511 LP  0  0  0  0  0  0  0  0  0  0  0  0  # atno 17370 bound_to 10713
  157.7159  130.9497  150.1255 LP  0  0  0  0  0  0  0  0  0  0  0  0  # atno 17371 bound_to 10713
  139.8801  134.9097  156.2996 LP  0  0  0  0  0  0  0  0  0  0  0  0  # atno 17394 bound_to 11000
  140.9814  133.7265  156.0678 LP  0  0  0  0  0  0  0  0  0  0  0  0  # atno 17395 bound_to 11000

$$$$
