AV-unprocessed.smi:302|AV-procd|sdf|2273|dock7
  -GOLD-   2262022163D 1   1.00000     0.00000
 Structure written by MMmdl.
 44 45  0  0  0  0  0  0  0  0  1 V2000
  144.2815  142.9160  156.0276 C   0  0  0  0  0  0  0  0  0  0  0  0
  145.3086  142.4198  157.0478 C   0  0  0  0  0  0  0  0  0  0  0  0
  145.6514  141.0752  156.7330 O   0  0  0  0  0  0  0  0  0  0  0  0
  146.0158  140.8377  155.3750 C   0  0  1  0  0  0  0  0  0  0  0  0
  147.3270  141.6081  155.1166 C   0  0  0  0  0  0  0  0  0  0  0  0
  148.5283  141.0938  155.9248 C   0  0  0  0  0  0  0  0  0  0  0  0
  146.1691  139.3263  155.1281 C   0  0  0  0  0  0  0  0  0  0  0  0
  146.9824  138.6817  155.7896 O   0  0  0  0  0  0  0  0  0  0  0  0
  145.3799  138.8077  154.1690 N   0  0  0  0  0  0  0  0  0  0  0  0
  145.3095  137.4648  153.7101 C   0  0  0  0  0  0  0  0  0  0  0  0
  145.8642  136.3583  154.3962 C   0  0  0  0  0  0  0  0  0  0  0  0
  145.7174  135.0718  153.8436 C   0  0  0  0  0  0  0  0  0  0  0  0
  145.0143  134.9281  152.6300 C   0  0  0  0  0  0  0  0  0  0  0  0
  144.8731  133.6492  152.0736 N   0  0  0  0  0  0  0  0  0  0  0  0
  146.1438  132.9727  151.8453 C   0  0  0  0  0  0  0  0  0  0  0  0
  145.8943  131.5344  151.3598 C   0  0  0  0  0  0  0  0  0  0  0  0
  145.0743  131.5580  150.1946 O   0  0  0  0  0  0  0  0  0  0  0  0
  143.8057  132.1569  150.4449 C   0  0  0  0  0  0  0  0  0  0  0  0
  144.0041  133.6117  150.9039 C   0  0  0  0  0  0  0  0  0  0  0  0
  144.4662  135.9799  151.9766 N   0  0  0  0  0  0  0  0  0  0  0  0
  144.6105  137.2104  152.5119 C   0  0  0  0  0  0  0  0  0  0  0  0
  143.9834  143.9424  156.2424 H   0  0  0  0  0  0  0  0  0  0  0  0
  143.3844  142.2970  156.0415 H   0  0  0  0  0  0  0  0  0  0  0  0
  144.6908  142.8912  155.0173 H   0  0  0  0  0  0  0  0  0  0  0  0
  146.1860  143.0668  157.0236 H   0  0  0  0  0  0  0  0  0  0  0  0
  144.8864  142.4730  158.0522 H   0  0  0  0  0  0  0  0  0  0  0  0
  145.2423  141.2472  154.7220 H   0  0  0  0  0  0  0  0  0  0  0  0
  147.5702  141.5367  154.0560 H   0  0  0  0  0  0  0  0  0  0  0  0
  147.1835  142.6710  155.3168 H   0  0  0  0  0  0  0  0  0  0  0  0
  149.4335  141.6397  155.6586 H   0  0  0  0  0  0  0  0  0  0  0  0
  148.7091  140.0367  155.7298 H   0  0  0  0  0  0  0  0  0  0  0  0
  148.3762  141.2169  156.9973 H   0  0  0  0  0  0  0  0  0  0  0  0
  144.8157  139.4706  153.6572 H   0  0  0  0  0  0  0  0  0  0  0  0
  146.3853  136.4665  155.3344 H   0  0  0  0  0  0  0  0  0  0  0  0
  146.1359  134.2119  154.3460 H   0  0  0  0  0  0  0  0  0  0  0  0
  146.7249  133.5186  151.1002 H   0  0  0  0  0  0  0  0  0  0  0  0
  146.7278  132.9614  152.7664 H   0  0  0  0  0  0  0  0  0  0  0  0
  146.8400  131.0491  151.1192 H   0  0  0  0  0  0  0  0  0  0  0  0
  145.4188  130.9377  152.1399 H   0  0  0  0  0  0  0  0  0  0  0  0
  143.2118  132.1281  149.5313 H   0  0  0  0  0  0  0  0  0  0  0  0
  143.2620  131.5821  151.1968 H   0  0  0  0  0  0  0  0  0  0  0  0
  143.0411  134.0642  151.1440 H   0  0  0  0  0  0  0  0  0  0  0  0
  144.4449  134.1969  150.0956 H   0  0  0  0  0  0  0  0  0  0  0  0
  144.1569  138.0202  151.9592 H   0  0  0  0  0  0  0  0  0  0  0  0
  1  2  1  0  0  0  0
  1 22  1  0  0  0  0
  1 23  1  0  0  0  0
  1 24  1  0  0  0  0
  2  3  1  0  0  0  0
  2 25  1  0  0  0  0
  2 26  1  0  0  0  0
  3  4  1  0  0  0  0
  4  5  1  0  0  0  0
  4  7  1  0  0  0  0
  4 27  1  0  0  0  0
  5  6  1  0  0  0  0
  5 28  1  0  0  0  0
  5 29  1  0  0  0  0
  6 30  1  0  0  0  0
  6 31  1  0  0  0  0
  6 32  1  0  0  0  0
  7  8  2  0  0  0  0
  7  9  1  0  0  0  0
  9 10  1  0  0  0  0
  9 33  1  0  0  0  0
 10 21  1  0  0  0  0
 10 11  2  0  0  0  0
 11 12  1  0  0  0  0
 11 34  1  0  0  0  0
 12 13  2  0  0  0  0
 12 35  1  0  0  0  0
 13 14  1  0  0  0  0
 13 20  1  0  0  0  0
 14 19  1  0  0  0  0
 14 15  1  0  0  0  0
 15 16  1  0  0  0  0
 15 36  1  0  0  0  0
 15 37  1  0  0  0  0
 16 17  1  0  0  0  0
 16 38  1  0  0  0  0
 16 39  1  0  0  0  0
 17 18  1  0  0  0  0
 18 19  1  0  0  0  0
 18 40  1  0  0  0  0
 18 41  1  0  0  0  0
 19 42  1  0  0  0  0
 19 43  1  0  0  0  0
 20 21  2  0  0  0  0
 21 44  1  0  0  0  0
M  END
> <s_m_source_file>
AV-unprocessed.smi

> <i_m_source_file_index>
302

> <i_lp_mmshare_version>
43012

> <i_f3d_flags>
0

> <s_epik_input>
W0NIM11bQ0gyXU9bQ0BIXShbQ0gyXVtDSDNdKUMoPU8pW05IXWMxW2NIXVtjSF1jKG5bY0hdMSlOMltDSDJdW0NIMl1PW0NIMl1bQ0gyXTI=

> <s_epik_cmdline>
J2VwaWtfcHl0aG9uJywgJy1waCcsICc3LjAnLCAnLXRuJywgJzgnLCAnLW1hJywgJzIwMCcsICctbWV0YWxfYmluZGluZycsICctaW1hZScsICc8aW5maWxlLm1hZT4nLCAnLW9tYWUnLCAnPG91dGZpbGUubWFlPic=

> <r_lp_tautomer_probability>
1

> <r_epik_Ionization_Penalty>
0.000497413

> <r_epik_Ionization_Penalty_Charging>
0

> <r_epik_Ionization_Penalty_Neutral>
0.000497413

> <r_epik_State_Penalty>
0.000308489

> <r_epik_Charging_Adjusted_Penalty>
0.000308489

> <i_epik_Tot_Q>
0

> <i_epik_Tot_abs_Q>
0

> <r_epik_Metal_State_Penalty>
-0

> <b_epik_Metal_Only>
0

> <s_lp_Force_Field>
OPLS_2005

> <r_lp_Energy>
26.1218

> <b_lp_Chiralities_Consistent>
1

> <s_lp_Variant>
AV-unprocessed.smi:302-2

> <Gold.Version>
5.8.1

> <Gold.Id.Protein>
6NUR|6NUR_protein|mol2

> <Gold.PLP.Fitness>
36.0978

> <Gold.PLP.PLP>
-27.2807

> <Gold.PLP.part.hbond>
-1.4884

> <Gold.PLP.part.metal>
0.0000

> <Gold.PLP.part.buried>
-3.1302

> <Gold.PLP.part.nonpolar>
-23.5142

> <Gold.PLP.part.repulsive>
0.5017

> <Gold.PLP.ligand.clash>
0.0000

> <Gold.PLP.ligand.torsion>
0.1616

> <Gold.PLP.Chemscore.Hbond>
1.0000

> <Gold.PLP.Chemscore.CHOScore>
1.9983

> <Gold.PLP.Chemscore.Metal>
0.0000

> <Gold.Chemscore.Hbonds>
donor molecule, donor type, donor heavy atom, donor atom, acceptor molecule, acceptor atom, score
      L1  H     9    33       P1 10175  1.00
      L1  C    21    44       P1 10171  1.00
      L1  C    21    44       P1 10175  1.00

> <Gold.PLP.Chemscore.Internal.Correction>
0.1453

> <Gold.Rescore>
     Score         DG    S(hbond)    S(metal)    S(lipo)     H(rot)  DE(clash)    DE(int)     intcor
     10.05     -12.76       0.99        0.00      69.47       1.63       0.08       2.64       ----

> <Gold.Chemscore.Fitness>
10.0462

> <Gold.Chemscore.DG>
-12.7650

> <Gold.Chemscore.ZeroCoef>
-5.4800

> <Gold.Chemscore.Hbond>
0.9937

> <Gold.Chemscore.Metal>
0.0000

> <Gold.Chemscore.Lipo>
69.4741

> <Gold.Chemscore.Internal_Hbond>
0.0000

> <Gold.Chemscore.DEClash>
0.0804

> <Gold.Chemscore.DEInternal>
2.6384

> <Gold.Chemscore.Rot>
1.6260

> <Gold.Chemscore.Internal.Correction>
   9.000000E+99

> <Gold.Chemscore.Hbonds>
donor molecule, donor type, donor heavy atom, donor atom, acceptor molecule, acceptor atom, score
      L1  H     9    33       P1 10175  1.00

> <Gold.Chemscore.Hbond.Weighted>
-3.3191

> <Gold.Chemscore.Metal.Weighted>
-0.0000

> <Gold.Chemscore.Lipo.Weighted>
-8.1285

> <Gold.Chemscore.Internal_Hbond.Weighted>
0.0000

> <Gold.Chemscore.DEClash.Weighted>
0.0804

> <Gold.Chemscore.DEInternal.Weighted>
2.6384

> <Gold.Chemscore.Rot.Weighted>
4.1626

> <Gold.Chemscore.Internal.Correction.Weighted>
   9.000000E+99

> <Gold.Protein.RotatedTorsions>
[ 6907 6896 6895 6894 ] final  134.36 input  -60.11 | X-H torsion
[ 7974 7965 7964 7962 ] final -126.35 input  175.53 | X-H torsion
[ 8008 7997 7996 7995 ] final  174.29 input   59.86 | X-H torsion
[ 10167 10162 10161 10158 ] final  132.26 input  -65.29 | X-H torsion
[ 10718 10713 10712 10709 ] final  -10.83 input   66.30 | X-H torsion
[ 10763 10752 10751 10750 ] final   58.77 input  -60.55 | X-H torsion
[ 11005 11000 10999 10996 ] final   97.00 input  -57.11 | X-H torsion

> <Gold.Protein.ActiveResidues>
 VAL166  LYS551  ARG553  GLY616  TRP617  ASP618  TYR619  PRO620  LYS621  CYS622 
 ASP623  PHE694  ASN695  SER759  ASP760  ASP761  ALA762  ILE779  LEU786  VAL792 
 PHE793  MET794  SER795  GLU796  ALA797  LYS798  CYS799  TRP800  GLU811  SER814 

> <Gold.Protein.RotatedAtoms>
  152.3121  133.5764  159.5687 H   0  0  0  0  0  0  0  0  0  0  0  0  # atno 6907 bound_to 6896
  150.7328  134.0137  159.3687 H   0  0  0  0  0  0  0  0  0  0  0  0  # atno 6908 bound_to 6896
  151.8028  135.0704  160.0453 H   0  0  0  0  0  0  0  0  0  0  0  0  # atno 6909 bound_to 6896
  144.9882  140.7706  143.4570 H   0  0  0  0  0  0  0  0  0  0  0  0  # atno 7974 bound_to 7965
  156.0989  140.1438  156.9494 H   0  0  0  0  0  0  0  0  0  0  0  0  # atno 8008 bound_to 7997
  154.4689  140.0916  156.7139 H   0  0  0  0  0  0  0  0  0  0  0  0  # atno 8009 bound_to 7997
  155.4794  140.3444  155.4340 H   0  0  0  0  0  0  0  0  0  0  0  0  # atno 8010 bound_to 7997
  139.5347  144.6670  151.4826 H   0  0  0  0  0  0  0  0  0  0  0  0  # atno 10167 bound_to 10162
  156.6679  130.5000  149.6009 H   0  0  0  0  0  0  0  0  0  0  0  0  # atno 10718 bound_to 10713
  152.9878  135.5595  154.5605 H   0  0  0  0  0  0  0  0  0  0  0  0  # atno 10763 bound_to 10752
  154.5025  135.2798  155.1411 H   0  0  0  0  0  0  0  0  0  0  0  0  # atno 10764 bound_to 10752
  154.2835  135.6340  153.5409 H   0  0  0  0  0  0  0  0  0  0  0  0  # atno 10765 bound_to 10752
  139.8778  134.8979  156.4242 H   0  0  0  0  0  0  0  0  0  0  0  0  # atno 11005 bound_to 11000
  145.2324  139.2109  143.5036 LP  0  0  0  0  0  0  0  0  0  0  0  0  # atno 17320 bound_to 7965
  146.3425  140.2203  142.8591 LP  0  0  0  0  0  0  0  0  0  0  0  0  # atno 17321 bound_to 7965
  140.6547  143.8624  150.6822 LP  0  0  0  0  0  0  0  0  0  0  0  0  # atno 17342 bound_to 10162
  140.2000  143.3967  152.1799 LP  0  0  0  0  0  0  0  0  0  0  0  0  # atno 17343 bound_to 10162
  156.1961  130.6590  151.1116 LP  0  0  0  0  0  0  0  0  0  0  0  0  # atno 17370 bound_to 10713
  157.7087  131.0744  150.6576 LP  0  0  0  0  0  0  0  0  0  0  0  0  # atno 17371 bound_to 10713
  140.9112  133.7710  155.9794 LP  0  0  0  0  0  0  0  0  0  0  0  0  # atno 17394 bound_to 11000
  140.8544  134.2916  157.5262 LP  0  0  0  0  0  0  0  0  0  0  0  0  # atno 17395 bound_to 11000

$$$$
