#       Name:                AV-unprocessed.smi:104
#       Creating user name   scv26
#       Creation time:       Thu Mar 26 17:59:10 2020


#       File generated by GOLD software.
#

@<TRIPOS>MOLECULE
AV-unprocessed.smi:104
    58    60     1
SMALL
NO_CHARGES


@<TRIPOS>ATOM
      1 ****        -4.1261   0.2071  -1.1568 C.3            1 S1                 0.0000
      2 ****        -3.7114  -1.1550  -0.6170 C.2            1 S1                 0.0000
      3 ****        -4.5374  -2.0425  -0.4035 O.2            1 S1                 0.0000
      4 ****        -2.3894  -1.2437  -0.4200 O.3            1 S1                 0.0000
      5 ****        -1.8301  -2.4484   0.0779 C.3            1 S1                 0.0000
      6 ****        -0.3371  -2.2584   0.3796 C.3            1 S1                 0.0000
      7 ****         0.3950  -2.0132  -0.8096 O.3            1 S1                 0.0000
      8 ****         1.6025  -1.4028  -0.4781 C.3            1 S1                 0.0000
      9 ****         1.8933  -0.3730  -1.5281 N.pl3          1 S1                 0.0000
     10 ****         3.0649  -0.1321  -2.2092 C.2            1 S1                 0.0000
     11 ****         4.6520  -1.1379  -1.8986 Br             1 S1                 0.0000
     12 ****         3.0589   0.8378  -3.0805 N.2            1 S1                 0.0000
     13 ****         1.7593   1.3208  -2.9918 C.ar           1 S1                 0.0000
     14 ****         1.0502   2.3658  -3.6363 C.ar           1 S1                 0.0000
     15 ****         1.6010   3.1578  -4.5666 N.pl3          1 S1                 0.0000
     16 ****        -0.2425   2.5774  -3.2952 N.ar           1 S1                 0.0000
     17 ****        -0.8148   1.8032  -2.3677 C.ar           1 S1                 0.0000
     18 ****        -0.2821   0.7888  -1.6818 N.ar           1 S1                 0.0000
     19 ****         1.0212   0.5744  -2.0276 C.ar           1 S1                 0.0000
     20 ****         1.4625  -0.7960   0.9378 C.3            1 S1                 0.0000
     21 ****         1.7383   0.6016   0.9617 O.3            1 S1                 0.0000
     22 ****         2.1102   1.2040   2.1015 C.2            1 S1                 0.0000
     23 ****         2.3543   2.6947   1.9122 C.3            1 S1                 0.0000
     24 ****         2.2504   0.6614   3.1975 O.2            1 S1                 0.0000
     25 ****         0.0074  -1.0777   1.2896 C.3            1 S1                 0.0000
     26 ****        -0.0911  -1.4317   2.6627 O.3            1 S1                 0.0000
     27 ****        -1.1909  -1.1144   3.3664 C.2            1 S1                 0.0000
     28 ****        -1.0950  -1.5568   4.8201 C.3            1 S1                 0.0000
     29 ****        -2.1890  -0.5376   2.9341 O.2            1 S1                 0.0000
     30 ****        -3.7978   0.9980  -0.4823 H              1 S1                 0.0000
     31 ****        -5.2098   0.2662  -1.2580 H              1 S1                 0.0000
     32 ****        -3.6780   0.3767  -2.1357 H              1 S1                 0.0000
     33 ****        -2.3509  -2.7420   0.9904 H              1 S1                 0.0000
     34 ****        -1.9696  -3.2496  -0.6489 H              1 S1                 0.0000
     35 ****         0.0602  -3.1780   0.8133 H              1 S1                 0.0000
     36 ****         2.4143  -2.1260  -0.5452 H              1 S1                 0.0000
     37 ****         2.5648   3.0218  -4.8366 H              1 S1                 0.0000
     38 ****         1.0518   3.8875  -4.9973 H              1 S1                 0.0000
     39 ****        -1.8459   2.0303  -2.1410 H              1 S1                 0.0000
     40 ****         2.1382  -1.3502   1.5914 H              1 S1                 0.0000
     41 ****         3.2323   2.8573   1.2870 H              1 S1                 0.0000
     42 ****         2.5184   3.1818   2.8736 H              1 S1                 0.0000
     43 ****         1.4945   3.1614   1.4309 H              1 S1                 0.0000
     44 ****        -0.5955  -0.2043   1.0360 H              1 S1                 0.0000
     45 ****        -1.0918  -2.6448   4.8848 H              1 S1                 0.0000
     46 ****        -1.9424  -1.1787   5.3923 H              1 S1                 0.0000
     47 ****        -0.1773  -1.1794   5.2717 H              1 S1                 0.0000
     48 ****        -5.5069  -1.8774  -0.5848 LP             1 S1                 0.0000
     49 ****        -4.2389  -2.9286  -0.0487 LP             1 S1                 0.0000
     50 ****        -0.1317  -1.4115  -1.4100 LP             1 S1                 0.0000
     51 ****         0.5737  -2.8784  -1.2782 LP             1 S1                 0.0000
     52 ****         3.8043   1.1551  -3.6667 LP             1 S1                 0.0000
     53 ****        -0.7658   3.3078  -3.7340 LP             1 S1                 0.0000
     54 ****        -0.7771   0.2519  -0.9986 LP             1 S1                 0.0000
     55 ****         2.0821  -0.3195   3.2950 LP             1 S1                 0.0000
     56 ****         2.5326   1.2015   3.9904 LP             1 S1                 0.0000
     57 ****        -2.2296  -0.2600   1.9743 LP             1 S1                 0.0000
     58 ****        -2.9591  -0.3467   3.5428 LP             1 S1                 0.0000
@<TRIPOS>BOND
    1    1    2 1     
    2    1   30 1     
    3    1   31 1     
    4    1   32 1     
    5    2    3 2     
    6    2    4 1     
    7    4    5 1     
    8    5    6 1     
    9    5   33 1     
   10    5   34 1     
   11    6   25 1     
   12    6    7 1     
   13    6   35 1     
   14    7    8 1     
   15    8    9 1     
   16    8   20 1     
   17    8   36 1     
   18    9   19 1     
   19    9   10 1     
   20   10   11 1     
   21   10   12 2     
   22   12   13 1     
   23   13   19 ar    
   24   13   14 ar    
   25   14   15 1     
   26   14   16 ar    
   27   15   37 1     
   28   15   38 1     
   29   16   17 ar    
   30   17   18 ar    
   31   17   39 1     
   32   18   19 ar    
   33   20   21 1     
   34   20   25 1     
   35   20   40 1     
   36   21   22 1     
   37   22   23 1     
   38   22   24 2     
   39   23   41 1     
   40   23   42 1     
   41   23   43 1     
   42   25   26 1     
   43   25   44 1     
   44   26   27 1     
   45   27   28 1     
   46   27   29 2     
   47   28   45 1     
   48   28   46 1     
   49   28   47 1     
   50    3   48 1     
   51    3   49 1     
   52    7   50 1     
   53    7   51 1     
   54   12   52 1     
   55   16   53 1     
   56   18   54 1     
   57   24   55 1     
   58   24   56 1     
   59   29   57 1     
   60   29   58 1     
@<TRIPOS>SUBSTRUCTURE
      1 S1             1
@<TRIPOS>SET
LONE_PAIRS      STATIC     ATOMS    <user>   **** ""
11 48 49 50 51 52 53 54 55 56 57 58
DONOR_HYDROGENS      STATIC     ATOMS    <user>   **** ""
2 37 38
ATOM$BLUE        STATIC     ATOMS    COLORGROUP SYSTEM
11 48 49 50 51 52 53 54 55 56 57 58
ATOM$RED        STATIC     ATOMS    COLORGROUP SYSTEM
2 37 38
