AV-unprocessed.smi:11|AV-procd|sdf|60|dock3
  -GOLD-   2262015173D 1   1.00000     0.00000
 Structure written by MMmdl.
 33 35  0  0  0  0  0  0  0  0  1 V2000
  148.1310  142.8994  158.3999 C   0  0  0  0  0  0  0  0  0  0  0  0
  149.1107  141.7363  158.1763 C   0  0  0  0  0  0  0  0  0  0  0  0
  150.2028  141.9926  157.1080 C   0  0  2  0  0  0  0  0  0  0  0  0
  149.5774  142.2958  155.8763 O   0  0  0  0  0  0  0  0  0  0  0  0
  151.1292  140.7843  156.9399 C   0  0  0  0  0  0  0  0  0  0  0  0
  152.2006  140.9887  158.0163 C   0  0  0  0  0  0  0  0  0  0  0  0
  152.2364  142.4213  158.2973 N   0  0  0  0  0  0  0  0  0  0  0  0
  152.3937  142.7630  159.6576 C   0  0  0  0  0  0  0  0  0  0  0  0
  151.6750  143.7884  160.1823 N   0  0  0  0  0  0  0  0  0  0  0  0
  151.8428  144.0672  161.5004 C   0  0  0  0  0  0  0  0  0  0  0  0
  152.6566  143.4431  162.3880 N   0  0  0  0  0  0  0  0  0  0  0  0
  153.3937  142.4118  161.8785 C   0  0  0  0  0  0  0  0  0  0  0  0
  154.2703  141.6395  162.5125 N   0  0  0  0  0  0  0  0  0  0  0  0
  154.7462  140.7793  161.5955 C   0  0  0  0  0  0  0  0  0  0  0  0
  154.1731  140.9685  160.2792 C   0  0  0  0  0  0  0  0  0  0  0  0
  153.2767  142.0542  160.5146 C   0  0  0  0  0  0  0  0  0  0  0  0
  151.2123  143.0836  157.4915 C   0  0  0  0  0  0  0  0  0  0  0  0
  147.3744  142.6248  159.1348 H   0  0  0  0  0  0  0  0  0  0  0  0
  147.6110  143.1686  157.4805 H   0  0  0  0  0  0  0  0  0  0  0  0
  148.6365  143.7886  158.7746 H   0  0  0  0  0  0  0  0  0  0  0  0
  149.5781  141.4916  159.1307 H   0  0  0  0  0  0  0  0  0  0  0  0
  148.5377  140.8520  157.8942 H   0  0  0  0  0  0  0  0  0  0  0  0
  149.2280  143.1725  155.9260 H   0  0  0  0  0  0  0  0  0  0  0  0
  150.6166  139.8257  157.0274 H   0  0  0  0  0  0  0  0  0  0  0  0
  151.6075  140.8114  155.9594 H   0  0  0  0  0  0  0  0  0  0  0  0
  151.9345  140.4319  158.9163 H   0  0  0  0  0  0  0  0  0  0  0  0
  153.1717  140.6302  157.6748 H   0  0  0  0  0  0  0  0  0  0  0  0
  151.2559  144.8862  161.8891 H   0  0  0  0  0  0  0  0  0  0  0  0
  155.4884  140.0351  161.8567 H   0  0  0  0  0  0  0  0  0  0  0  0
  154.3771  140.4287  159.3635 H   0  0  0  0  0  0  0  0  0  0  0  0
  151.7129  143.4564  156.5968 H   0  0  0  0  0  0  0  0  0  0  0  0
  150.7467  143.9508  157.9567 H   0  0  0  0  0  0  0  0  0  0  0  0
  152.6834  143.7598  163.3468 H   0  0  0  0  0  0  0  0  0  0  0  0
  1  2  1  0  0  0  0
  1 18  1  0  0  0  0
  1 19  1  0  0  0  0
  1 20  1  0  0  0  0
  2  3  1  0  0  0  0
  2 21  1  0  0  0  0
  2 22  1  0  0  0  0
  3 17  1  0  0  0  0
  3  4  1  0  0  0  0
  3  5  1  0  0  0  0
  4 23  1  0  0  0  0
  5  6  1  0  0  0  0
  5 24  1  0  0  0  0
  5 25  1  0  0  0  0
  6  7  1  0  0  0  0
  6 26  1  0  0  0  0
  6 27  1  0  0  0  0
  7  8  1  0  0  0  0
  7 17  1  0  0  0  0
  8 16  2  0  0  0  0
  8  9  1  0  0  0  0
  9 10  2  0  0  0  0
 10 11  1  0  0  0  0
 10 28  1  0  0  0  0
 11 12  1  0  0  0  0
 11 33  1  0  0  0  0
 12 16  1  0  0  0  0
 12 13  2  0  0  0  0
 13 14  1  0  0  0  0
 14 15  2  0  0  0  0
 14 29  1  0  0  0  0
 15 16  1  0  0  0  0
 15 30  1  0  0  0  0
 17 31  1  0  0  0  0
 17 32  1  0  0  0  0
M  END
> <s_m_source_file>
AV-unprocessed.smi

> <i_m_source_file_index>
11

> <i_lp_mmshare_version>
43012

> <i_f3d_flags>
0

> <s_epik_input>
W0NIM11bQ0gyXVtDQEBdMShbT0hdKVtDSDJdW0NIMl1OKFtDSDJdMSljKG5bY0hdbjIpYyhjMjMpW2NIXVtjSF1bbkhdMw==

> <s_epik_cmdline>
J2VwaWtfcHl0aG9uJywgJy1waCcsICc3LjAnLCAnLXRuJywgJzgnLCAnLW1hJywgJzIwMCcsICctbWV0YWxfYmluZGluZycsICctaW1hZScsICc8aW5maWxlLm1hZT4nLCAnLW9tYWUnLCAnPG91dGZpbGUubWFlPic=

> <r_lp_tautomer_probability>
1.75997e-05

> <r_epik_Ionization_Penalty>
5.31594

> <r_epik_Ionization_Penalty_Charging>
0

> <r_epik_Ionization_Penalty_Neutral>
5.31594

> <r_epik_State_Penalty>
7.79803

> <r_epik_Charging_Adjusted_Penalty>
7.79803

> <i_epik_Tot_Q>
0

> <i_epik_Tot_abs_Q>
0

> <r_epik_Metal_State_Penalty>
4.83511

> <b_epik_Metal_Only>
1

> <s_lp_Force_Field>
OPLS_2005

> <r_lp_Energy>
41.8975

> <b_lp_Chiralities_Consistent>
1

> <s_lp_Variant>
AV-unprocessed.smi:11-6

> <Gold.Version>
5.8.1

> <Gold.Id.Protein>
6NUR|6NUR_protein|mol2

> <Gold.PLP.Fitness>
38.1701

> <Gold.PLP.PLP>
-35.6338

> <Gold.PLP.part.hbond>
-2.3008

> <Gold.PLP.part.metal>
0.0000

> <Gold.PLP.part.buried>
-3.2584

> <Gold.PLP.part.nonpolar>
-28.8212

> <Gold.PLP.part.repulsive>
0.1552

> <Gold.PLP.ligand.clash>
0.0000

> <Gold.PLP.ligand.torsion>
0.3204

> <Gold.PLP.Chemscore.Hbond>
1.0000

> <Gold.PLP.Chemscore.CHOScore>
0.0000

> <Gold.PLP.Chemscore.Metal>
0.0000

> <Gold.Chemscore.Hbonds>
donor molecule, donor type, donor heavy atom, donor atom, acceptor molecule, acceptor atom, score
      L1  H     4    23       P1  8028  1.00

> <Gold.PLP.Chemscore.Internal.Correction>
0.1771

> <Gold.Rescore>
     Score         DG    S(hbond)    S(metal)    S(lipo)     H(rot)  DE(clash)    DE(int)     intcor
     10.54     -11.20       1.00        0.00      60.34       1.83       0.53       0.13       ----

> <Gold.Chemscore.Fitness>
10.5391

> <Gold.Chemscore.DG>
-11.2044

> <Gold.Chemscore.ZeroCoef>
-5.4800

> <Gold.Chemscore.Hbond>
0.9998

> <Gold.Chemscore.Metal>
0.0000

> <Gold.Chemscore.Lipo>
60.3432

> <Gold.Chemscore.Internal_Hbond>
0.0000

> <Gold.Chemscore.DEClash>
0.5335

> <Gold.Chemscore.DEInternal>
0.1318

> <Gold.Chemscore.Rot>
1.8263

> <Gold.Chemscore.Internal.Correction>
   9.000000E+99

> <Gold.Chemscore.Hbonds>
donor molecule, donor type, donor heavy atom, donor atom, acceptor molecule, acceptor atom, score
      L1  H     4    23       P1  8028  0.99

> <Gold.Chemscore.Hbond.Weighted>
-3.3395

> <Gold.Chemscore.Metal.Weighted>
-0.0000

> <Gold.Chemscore.Lipo.Weighted>
-7.0602

> <Gold.Chemscore.Internal_Hbond.Weighted>
0.0000

> <Gold.Chemscore.DEClash.Weighted>
0.5335

> <Gold.Chemscore.DEInternal.Weighted>
0.1318

> <Gold.Chemscore.Rot.Weighted>
4.6752

> <Gold.Chemscore.Internal.Correction.Weighted>
   9.000000E+99

> <Gold.Protein.RotatedTorsions>
[ 6907 6896 6895 6894 ] final -127.92 input  -60.11 | X-H torsion
[ 7974 7965 7964 7962 ] final  -11.87 input  175.53 | X-H torsion
[ 8008 7997 7996 7995 ] final  138.86 input   59.86 | X-H torsion
[ 10167 10162 10161 10158 ] final  -46.49 input  -65.29 | X-H torsion
[ 10718 10713 10712 10709 ] final   95.04 input   66.30 | X-H torsion
[ 10763 10752 10751 10750 ] final  127.89 input  -60.55 | X-H torsion
[ 11005 11000 10999 10996 ] final  -16.57 input  -57.11 | X-H torsion

> <Gold.Protein.ActiveResidues>
 VAL166  LYS551  ARG553  GLY616  TRP617  ASP618  TYR619  PRO620  LYS621  CYS622 
 ASP623  PHE694  ASN695  SER759  ASP760  ASP761  ALA762  ILE779  LEU786  VAL792 
 PHE793  MET794  SER795  GLU796  ALA797  LYS798  CYS799  TRP800  GLU811  SER814 

> <Gold.Protein.RotatedAtoms>
  150.9124  133.6981  159.2851 H   0  0  0  0  0  0  0  0  0  0  0  0  # atno 6907 bound_to 6896
  151.4463  135.1024  159.9694 H   0  0  0  0  0  0  0  0  0  0  0  0  # atno 6908 bound_to 6896
  152.4937  133.8520  159.7261 H   0  0  0  0  0  0  0  0  0  0  0  0  # atno 6909 bound_to 6896
  146.2172  140.2975  142.8373 H   0  0  0  0  0  0  0  0  0  0  0  0  # atno 7974 bound_to 7965
  156.2994  140.2382  156.4143 H   0  0  0  0  0  0  0  0  0  0  0  0  # atno 8008 bound_to 7997
  154.8412  140.0428  157.1563 H   0  0  0  0  0  0  0  0  0  0  0  0  # atno 8009 bound_to 7997
  154.9100  140.2989  155.5275 H   0  0  0  0  0  0  0  0  0  0  0  0  # atno 8010 bound_to 7997
  140.6815  143.2828  151.3790 H   0  0  0  0  0  0  0  0  0  0  0  0  # atno 10167 bound_to 10162
  157.6942  131.0532  150.4278 H   0  0  0  0  0  0  0  0  0  0  0  0  # atno 10718 bound_to 10713
  153.7166  135.3260  155.3258 H   0  0  0  0  0  0  0  0  0  0  0  0  # atno 10763 bound_to 10752
  154.8369  135.4489  154.1259 H   0  0  0  0  0  0  0  0  0  0  0  0  # atno 10764 bound_to 10752
  153.2368  135.6966  153.7907 H   0  0  0  0  0  0  0  0  0  0  0  0  # atno 10765 bound_to 10752
  140.8081  133.8162  155.9536 H   0  0  0  0  0  0  0  0  0  0  0  0  # atno 11005 bound_to 11000
  144.9081  140.7725  143.5824 LP  0  0  0  0  0  0  0  0  0  0  0  0  # atno 17320 bound_to 7965
  145.2904  139.1885  143.4743 LP  0  0  0  0  0  0  0  0  0  0  0  0  # atno 17321 bound_to 7965
  139.6141  144.1038  152.2328 LP  0  0  0  0  0  0  0  0  0  0  0  0  # atno 17342 bound_to 10162
  140.0461  144.5969  150.7372 LP  0  0  0  0  0  0  0  0  0  0  0  0  # atno 17343 bound_to 10162
  156.4648  130.4039  149.6554 LP  0  0  0  0  0  0  0  0  0  0  0  0  # atno 17370 bound_to 10713
  156.3656  130.7504  151.2481 LP  0  0  0  0  0  0  0  0  0  0  0  0  # atno 17371 bound_to 10713
  140.9226  134.2123  157.4917 LP  0  0  0  0  0  0  0  0  0  0  0  0  # atno 17394 bound_to 11000
  139.8716  134.9798  156.5053 LP  0  0  0  0  0  0  0  0  0  0  0  0  # atno 17395 bound_to 11000

$$$$
