AV-unprocessed.smi:720|AV-procd|sdf|3499|dock10
  -GOLD-   22720 0493D 1   1.00000     0.00000
 Structure written by MMmdl.
 46 48  0  0  0  0  0  0  0  0  1 V2000
  145.6707  136.0607  151.5072 C   0  0  0  0  0  0  0  0  0  0  0  0
  145.9705  137.1270  152.4560 N   0  0  0  0  0  0  0  0  0  0  0  0
  144.8067  137.3056  153.3145 C   0  0  0  0  0  0  0  0  0  0  0  0
  146.2621  138.3950  151.7845 C   0  0  0  0  0  0  0  0  0  0  0  0
  146.2052  139.6214  152.7206 C   0  0  0  0  0  0  0  0  0  0  0  0
  147.3673  139.7489  153.5829 N   0  0  0  0  0  0  0  0  0  0  0  0
  148.3424  138.8097  153.8546 C   0  0  0  0  0  0  0  0  0  0  0  0
  149.2418  139.3837  154.7072 C   0  0  0  0  0  0  0  0  0  0  0  0
  148.7227  140.7004  154.8891 C   0  0  0  0  0  0  0  0  0  0  0  0
  149.2911  141.7193  155.6946 N   0  0  0  0  0  0  0  0  0  0  0  0
  150.4674  141.7139  156.3503 C   0  0  0  0  0  0  0  0  0  0  0  0
  151.2866  140.7980  156.3157 O   0  0  0  0  0  0  0  0  0  0  0  0
  150.6915  142.8196  157.0828 N   0  0  0  0  0  0  0  0  0  0  0  0
  151.8615  143.1317  157.9092 C   0  0  2  0  0  0  0  0  0  0  0  0
  151.9036  142.2416  159.1710 C   0  0  0  0  0  0  0  0  0  0  0  0
  151.9118  143.2650  160.3217 C   0  0  2  0  0  0  0  0  0  0  0  0
  150.5275  143.9327  160.4303 C   0  0  0  0  0  0  0  0  0  0  0  0
  150.5011  144.8653  159.2047 C   0  0  0  0  0  0  0  0  0  0  0  0
  151.8497  144.5583  158.5196 C   0  0  1  0  0  0  0  0  0  0  0  0
  152.7584  144.3845  159.7320 C   0  0  0  0  0  0  0  0  0  0  0  0
  147.6163  140.9236  154.2018 N   0  0  0  0  0  0  0  0  0  0  0  0
  146.5455  135.8004  150.9148 H   0  0  0  0  0  0  0  0  0  0  0  0
  144.8652  136.3447  150.8285 H   0  0  0  0  0  0  0  0  0  0  0  0
  145.3678  135.1547  152.0334 H   0  0  0  0  0  0  0  0  0  0  0  0
  144.9971  138.0698  154.0688 H   0  0  0  0  0  0  0  0  0  0  0  0
  144.5708  136.3795  153.8403 H   0  0  0  0  0  0  0  0  0  0  0  0
  143.9295  137.6047  152.7384 H   0  0  0  0  0  0  0  0  0  0  0  0
  147.2103  138.3443  151.2470 H   0  0  0  0  0  0  0  0  0  0  0  0
  145.4940  138.5471  151.0247 H   0  0  0  0  0  0  0  0  0  0  0  0
  146.1587  140.5276  152.1160 H   0  0  0  0  0  0  0  0  0  0  0  0
  145.2940  139.6082  153.3214 H   0  0  0  0  0  0  0  0  0  0  0  0
  148.3136  137.8188  153.4261 H   0  0  0  0  0  0  0  0  0  0  0  0
  150.1252  138.9224  155.1220 H   0  0  0  0  0  0  0  0  0  0  0  0
  148.7111  142.5343  155.8309 H   0  0  0  0  0  0  0  0  0  0  0  0
  149.9659  143.5219  157.0690 H   0  0  0  0  0  0  0  0  0  0  0  0
  152.7748  142.9748  157.3323 H   0  0  0  0  0  0  0  0  0  0  0  0
  151.0599  141.5538  159.2452 H   0  0  0  0  0  0  0  0  0  0  0  0
  152.8154  141.6433  159.1820 H   0  0  0  0  0  0  0  0  0  0  0  0
  152.2767  142.8578  161.2649 H   0  0  0  0  0  0  0  0  0  0  0  0
  149.7165  143.2036  160.4148 H   0  0  0  0  0  0  0  0  0  0  0  0
  150.4423  144.5095  161.3520 H   0  0  0  0  0  0  0  0  0  0  0  0
  149.6357  144.6959  158.5642 H   0  0  0  0  0  0  0  0  0  0  0  0
  150.4666  145.9079  159.5239 H   0  0  0  0  0  0  0  0  0  0  0  0
  152.1690  145.3351  157.8243 H   0  0  0  0  0  0  0  0  0  0  0  0
  152.8094  145.2706  160.3676 H   0  0  0  0  0  0  0  0  0  0  0  0
  153.7715  144.0718  159.4725 H   0  0  0  0  0  0  0  0  0  0  0  0
  1  2  1  0  0  0  0
  1 22  1  0  0  0  0
  1 23  1  0  0  0  0
  1 24  1  0  0  0  0
  2  3  1  0  0  0  0
  2  4  1  0  0  0  0
  3 25  1  0  0  0  0
  3 26  1  0  0  0  0
  3 27  1  0  0  0  0
  4  5  1  0  0  0  0
  4 28  1  0  0  0  0
  4 29  1  0  0  0  0
  5  6  1  0  0  0  0
  5 30  1  0  0  0  0
  5 31  1  0  0  0  0
  6 21  1  0  0  0  0
  6  7  1  0  0  0  0
  7  8  2  0  0  0  0
  7 32  1  0  0  0  0
  8  9  1  0  0  0  0
  8 33  1  0  0  0  0
  9 10  1  0  0  0  0
  9 21  2  0  0  0  0
 10 11  1  0  0  0  0
 10 34  1  0  0  0  0
 11 12  2  0  0  0  0
 11 13  1  0  0  0  0
 13 14  1  0  0  0  0
 13 35  1  0  0  0  0
 14 19  1  0  0  0  0
 14 15  1  0  0  0  0
 14 36  1  0  0  0  0
 15 16  1  0  0  0  0
 15 37  1  0  0  0  0
 15 38  1  0  0  0  0
 16 20  1  0  0  0  0
 16 17  1  0  0  0  0
 16 39  1  0  0  0  0
 17 18  1  0  0  0  0
 17 40  1  0  0  0  0
 17 41  1  0  0  0  0
 18 19  1  0  0  0  0
 18 42  1  0  0  0  0
 18 43  1  0  0  0  0
 19 20  1  0  0  0  0
 19 44  1  0  0  0  0
 20 45  1  0  0  0  0
 20 46  1  0  0  0  0
M  END
> <s_m_source_file>
AV-unprocessed.smi

> <i_m_source_file_index>
720

> <i_lp_mmshare_version>
43012

> <i_f3d_flags>
0

> <s_epik_input>
W0NIM11OKFtDSDNdKVtDSDJdW0NIMl1uMVtjSF1bY0hdYyhuMSlbTkhdQyg9TylbTkhdW0NASF0oW0NIMl1bQ0BIXTIzKVtDQEhdKFtDSDJdMylbQ0gyXVtDSDJdMg==

> <s_epik_cmdline>
J2VwaWtfcHl0aG9uJywgJy1waCcsICc3LjAnLCAnLXRuJywgJzgnLCAnLW1hJywgJzIwMCcsICctbWV0YWxfYmluZGluZycsICctaW1hZScsICc8aW5maWxlLm1hZT4nLCAnLW9tYWUnLCAnPG91dGZpbGUubWFlPic=

> <r_lp_tautomer_probability>
1

> <r_epik_Ionization_Penalty>
1.83819

> <r_epik_Ionization_Penalty_Charging>
0

> <r_epik_Ionization_Penalty_Neutral>
1.83819

> <r_epik_State_Penalty>
1.95467

> <r_epik_Charging_Adjusted_Penalty>
1.95467

> <i_epik_Tot_Q>
0

> <i_epik_Tot_abs_Q>
0

> <r_epik_Metal_State_Penalty>
1.95467

> <b_epik_Metal_Only>
0

> <s_lp_Force_Field>
OPLS_2005

> <r_lp_Energy>
64.6773

> <b_lp_Chiralities_Consistent>
1

> <s_lp_Variant>
AV-unprocessed.smi:720-5

> <Gold.Version>
5.8.1

> <Gold.Id.Protein>
6NUR|6NUR_protein|mol2

> <Gold.PLP.Fitness>
45.7524

> <Gold.PLP.PLP>
-37.6217

> <Gold.PLP.part.hbond>
-2.0000

> <Gold.PLP.part.metal>
0.0000

> <Gold.PLP.part.buried>
0.8211

> <Gold.PLP.part.nonpolar>
-38.1606

> <Gold.PLP.part.repulsive>
0.6162

> <Gold.PLP.ligand.clash>
0.0000

> <Gold.PLP.ligand.torsion>
0.4486

> <Gold.PLP.Chemscore.Hbond>
2.0000

> <Gold.PLP.Chemscore.CHOScore>
1.0000

> <Gold.PLP.Chemscore.Metal>
0.0000

> <Gold.Chemscore.Hbonds>
donor molecule, donor type, donor heavy atom, donor atom, acceptor molecule, acceptor atom, score
      L1  H    10    34       P1  8028  0.47
      L1  H    13    35       P1  8028  0.60
      L1  C     7    32       P1  7948  1.00

> <Gold.PLP.Chemscore.Internal.Correction>
0.0278

> <Gold.Rescore>
     Score         DG    S(hbond)    S(metal)    S(lipo)     H(rot)  DE(clash)    DE(int)     intcor
     16.59     -19.51       1.50        0.00     110.48       1.53       1.70       1.23       ----

> <Gold.Chemscore.Fitness>
16.5850

> <Gold.Chemscore.DG>
-19.5117

> <Gold.Chemscore.ZeroCoef>
-5.4800

> <Gold.Chemscore.Hbond>
1.5044

> <Gold.Chemscore.Metal>
0.0000

> <Gold.Chemscore.Lipo>
110.4850

> <Gold.Chemscore.Internal_Hbond>
0.0000

> <Gold.Chemscore.DEClash>
1.6967

> <Gold.Chemscore.DEInternal>
1.2300

> <Gold.Chemscore.Rot>
1.5312

> <Gold.Chemscore.Internal.Correction>
   9.000000E+99

> <Gold.Chemscore.Hbonds>
donor molecule, donor type, donor heavy atom, donor atom, acceptor molecule, acceptor atom, score
      L1  H    10    34       P1  8028  0.45
      L1  H    13    35       P1  8028  0.59

> <Gold.Chemscore.Hbond.Weighted>
-5.0248

> <Gold.Chemscore.Metal.Weighted>
-0.0000

> <Gold.Chemscore.Lipo.Weighted>
-12.9267

> <Gold.Chemscore.Internal_Hbond.Weighted>
0.0000

> <Gold.Chemscore.DEClash.Weighted>
1.6967

> <Gold.Chemscore.DEInternal.Weighted>
1.2300

> <Gold.Chemscore.Rot.Weighted>
3.9199

> <Gold.Chemscore.Internal.Correction.Weighted>
   9.000000E+99

> <Gold.Protein.RotatedTorsions>
[ 6907 6896 6895 6894 ] final  134.75 input  -60.11 | X-H torsion
[ 7974 7965 7964 7962 ] final  -79.34 input  175.53 | X-H torsion
[ 8008 7997 7996 7995 ] final -168.30 input   59.86 | X-H torsion
[ 10167 10162 10161 10158 ] final    5.59 input  -65.29 | X-H torsion
[ 10718 10713 10712 10709 ] final -100.14 input   66.30 | X-H torsion
[ 10763 10752 10751 10750 ] final    4.79 input  -60.55 | X-H torsion
[ 11005 11000 10999 10996 ] final  118.86 input  -57.11 | X-H torsion

> <Gold.Protein.ActiveResidues>
 VAL166  LYS551  ARG553  GLY616  TRP617  ASP618  TYR619  PRO620  LYS621  CYS622 
 ASP623  PHE694  ASN695  SER759  ASP760  ASP761  ALA762  ILE779  LEU786  VAL792 
 PHE793  MET794  SER795  GLU796  ALA797  LYS798  CYS799  TRP800  GLU811  SER814 

> <Gold.Protein.RotatedAtoms>
  152.3079  133.5722  159.5661 H   0  0  0  0  0  0  0  0  0  0  0  0  # atno 6907 bound_to 6896
  150.7308  134.0195  159.3705 H   0  0  0  0  0  0  0  0  0  0  0  0  # atno 6908 bound_to 6896
  151.8090  135.0687  160.0461 H   0  0  0  0  0  0  0  0  0  0  0  0  # atno 6909 bound_to 6896
  145.5746  140.9460  143.1377 H   0  0  0  0  0  0  0  0  0  0  0  0  # atno 7974 bound_to 7965
  155.8895  140.1022  157.1429 H   0  0  0  0  0  0  0  0  0  0  0  0  # atno 8008 bound_to 7997
  154.4013  140.1313  156.4361 H   0  0  0  0  0  0  0  0  0  0  0  0  # atno 8009 bound_to 7997
  155.7550  140.3464  155.5172 H   0  0  0  0  0  0  0  0  0  0  0  0  # atno 8010 bound_to 7997
  140.6474  143.7629  150.7520 H   0  0  0  0  0  0  0  0  0  0  0  0  # atno 10167 bound_to 10162
  156.0154  130.5314  150.6773 H   0  0  0  0  0  0  0  0  0  0  0  0  # atno 10718 bound_to 10713
  153.2671  135.6928  153.7518 H   0  0  0  0  0  0  0  0  0  0  0  0  # atno 10763 bound_to 10752
  153.6556  135.3369  155.3113 H   0  0  0  0  0  0  0  0  0  0  0  0  # atno 10764 bound_to 10752
  154.8451  135.4465  154.1681 H   0  0  0  0  0  0  0  0  0  0  0  0  # atno 10765 bound_to 10752
  139.9125  134.9624  156.7568 H   0  0  0  0  0  0  0  0  0  0  0  0  # atno 11005 bound_to 11000
  144.7422  139.7418  143.7306 LP  0  0  0  0  0  0  0  0  0  0  0  0  # atno 17320 bound_to 7965
  146.1760  139.4931  142.9897 LP  0  0  0  0  0  0  0  0  0  0  0  0  # atno 17321 bound_to 7965
  140.1273  143.4557  152.2276 LP  0  0  0  0  0  0  0  0  0  0  0  0  # atno 17342 bound_to 10162
  139.5685  144.7449  151.3955 LP  0  0  0  0  0  0  0  0  0  0  0  0  # atno 17343 bound_to 10162
  157.4483  131.0869  151.0873 LP  0  0  0  0  0  0  0  0  0  0  0  0  # atno 17370 bound_to 10713
  157.1396  130.6137  149.5551 LP  0  0  0  0  0  0  0  0  0  0  0  0  # atno 17371 bound_to 10713
  140.6729  133.9543  155.7867 LP  0  0  0  0  0  0  0  0  0  0  0  0  # atno 17394 bound_to 11000
  141.0564  134.0410  157.3716 LP  0  0  0  0  0  0  0  0  0  0  0  0  # atno 17395 bound_to 11000

$$$$
