AV-unprocessed.smi:601|AV-procd|sdf|3031|dock3
  -GOLD-   2262023543D 1   1.00000     0.00000
 Structure written by MMmdl.
 50 51  0  0  0  0  0  0  0  0  1 V2000
  152.6616  144.8634  158.2017 C   0  0  0  0  0  0  0  0  0  0  0  0
  151.2112  144.5855  158.6179 C   0  0  0  0  0  0  0  0  0  0  0  0
  150.7663  143.1336  158.3808 C   0  0  0  0  0  0  0  0  0  0  0  0
  150.9595  142.6599  156.9259 C   0  0  0  0  0  0  0  0  0  0  0  0
  150.5843  141.2506  156.7304 N   0  0  0  0  0  0  0  0  0  0  0  0
  151.1202  140.2689  157.5037 C   0  0  0  0  0  0  0  0  0  0  0  0
  151.9463  140.5163  158.3844 O   0  0  0  0  0  0  0  0  0  0  0  0
  150.6900  138.7970  157.2701 C   0  0  2  0  0  0  0  0  0  0  0  0
  150.2039  138.0566  158.5226 C   0  0  0  0  0  0  0  0  0  0  0  0
  151.4813  137.5541  159.1822 C   0  0  0  0  0  0  0  0  0  0  0  0
  152.5334  137.6349  158.0714 C   0  0  0  0  0  0  0  0  0  0  0  0
  151.8141  138.0061  156.8993 O   0  0  0  0  0  0  0  0  0  0  0  0
  149.5663  140.9917  155.7951 C   0  0  0  0  0  0  0  0  0  0  0  0
  148.2783  141.4024  155.9937 C   0  0  0  0  0  0  0  0  0  0  0  0
  147.9399  142.1285  157.1254 N   0  0  0  0  0  0  0  0  0  0  0  0
  147.2721  141.1365  155.0603 N   0  0  0  0  0  0  0  0  0  0  0  0
  145.8997  141.5762  155.2144 C   0  0  0  0  0  0  0  0  0  0  0  0
  145.7546  143.1031  155.1012 C   0  0  0  0  0  0  0  0  0  0  0  0
  145.2997  143.5442  153.7067 C   0  0  0  0  0  0  0  0  0  0  0  0
  147.5795  140.4517  153.8600 C   0  0  0  0  0  0  0  0  0  0  0  0
  146.7534  140.2241  152.9754 O   0  0  0  0  0  0  0  0  0  0  0  0
  148.8919  140.0243  153.6918 N   0  0  0  0  0  0  0  0  0  0  0  0
  149.9337  140.2351  154.5912 C   0  0  0  0  0  0  0  0  0  0  0  0
  151.0552  139.8006  154.3321 O   0  0  0  0  0  0  0  0  0  0  0  0
  149.1092  139.5245  152.8419 H   0  0  0  0  0  0  0  0  0  0  0  0
  152.9476  145.8829  158.4612 H   0  0  0  0  0  0  0  0  0  0  0  0
  152.8002  144.7483  157.1268 H   0  0  0  0  0  0  0  0  0  0  0  0
  153.3524  144.1867  158.7052 H   0  0  0  0  0  0  0  0  0  0  0  0
  151.1071  144.8120  159.6795 H   0  0  0  0  0  0  0  0  0  0  0  0
  150.5398  145.2691  158.0972 H   0  0  0  0  0  0  0  0  0  0  0  0
  151.3070  142.4798  159.0640 H   0  0  0  0  0  0  0  0  0  0  0  0
  149.7142  143.0510  158.6541 H   0  0  0  0  0  0  0  0  0  0  0  0
  150.3827  143.2900  156.2466 H   0  0  0  0  0  0  0  0  0  0  0  0
  152.0011  142.7987  156.6336 H   0  0  0  0  0  0  0  0  0  0  0  0
  149.9255  138.7608  156.4942 H   0  0  0  0  0  0  0  0  0  0  0  0
  149.5941  138.6668  159.1902 H   0  0  0  0  0  0  0  0  0  0  0  0
  149.5922  137.2062  158.2193 H   0  0  0  0  0  0  0  0  0  0  0  0
  151.7665  138.1889  160.0221 H   0  0  0  0  0  0  0  0  0  0  0  0
  151.3589  136.5375  159.5570 H   0  0  0  0  0  0  0  0  0  0  0  0
  153.2790  138.3976  158.3003 H   0  0  0  0  0  0  0  0  0  0  0  0
  153.0535  136.6888  157.9201 H   0  0  0  0  0  0  0  0  0  0  0  0
  148.6292  142.3693  157.8232 H   0  0  0  0  0  0  0  0  0  0  0  0
  147.0358  142.5680  157.2214 H   0  0  0  0  0  0  0  0  0  0  0  0
  145.2874  141.0482  154.4813 H   0  0  0  0  0  0  0  0  0  0  0  0
  145.5552  141.2118  156.1820 H   0  0  0  0  0  0  0  0  0  0  0  0
  145.0380  143.4596  155.8423 H   0  0  0  0  0  0  0  0  0  0  0  0
  146.7047  143.5845  155.3362 H   0  0  0  0  0  0  0  0  0  0  0  0
  145.1970  144.6283  153.6568 H   0  0  0  0  0  0  0  0  0  0  0  0
  144.3348  143.1060  153.4502 H   0  0  0  0  0  0  0  0  0  0  0  0
  146.0190  143.2420  152.9449 H   0  0  0  0  0  0  0  0  0  0  0  0
  1  2  1  0  0  0  0
  1 26  1  0  0  0  0
  1 27  1  0  0  0  0
  1 28  1  0  0  0  0
  2  3  1  0  0  0  0
  2 29  1  0  0  0  0
  2 30  1  0  0  0  0
  3  4  1  0  0  0  0
  3 31  1  0  0  0  0
  3 32  1  0  0  0  0
  4  5  1  0  0  0  0
  4 33  1  0  0  0  0
  4 34  1  0  0  0  0
  5  6  1  0  0  0  0
  5 13  1  0  0  0  0
  6  7  2  0  0  0  0
  6  8  1  0  0  0  0
  8 12  1  0  0  0  0
  8  9  1  0  0  0  0
  8 35  1  0  0  0  0
  9 10  1  0  0  0  0
  9 36  1  0  0  0  0
  9 37  1  0  0  0  0
 10 11  1  0  0  0  0
 10 38  1  0  0  0  0
 10 39  1  0  0  0  0
 11 12  1  0  0  0  0
 11 40  1  0  0  0  0
 11 41  1  0  0  0  0
 13 23  1  0  0  0  0
 13 14  2  0  0  0  0
 14 15  1  0  0  0  0
 14 16  1  0  0  0  0
 15 42  1  0  0  0  0
 15 43  1  0  0  0  0
 16 17  1  0  0  0  0
 16 20  1  0  0  0  0
 17 18  1  0  0  0  0
 17 44  1  0  0  0  0
 17 45  1  0  0  0  0
 18 19  1  0  0  0  0
 18 46  1  0  0  0  0
 18 47  1  0  0  0  0
 19 48  1  0  0  0  0
 19 49  1  0  0  0  0
 19 50  1  0  0  0  0
 20 21  2  0  0  0  0
 20 22  1  0  0  0  0
 22 25  1  0  0  0  0
 22 23  1  0  0  0  0
 23 24  2  0  0  0  0
M  END
> <s_m_source_file>
AV-unprocessed.smi

> <i_m_source_file_index>
601

> <i_lp_mmshare_version>
43012

> <i_f3d_flags>
0

> <s_epik_input>
TzFbQ0gyXVtDSDJdW0NIMl1bQ0BIXTFDKD1PKU4oW0NIMl1bQ0gyXVtDSDJdW0NIM10pYzJjKFtOSDJdKW4oW0NIMl1bQ0gyXVtDSDNdKWMoPU8pW25IXWMyPU8=

> <s_epik_cmdline>
J2VwaWtfcHl0aG9uJywgJy1waCcsICc3LjAnLCAnLXRuJywgJzgnLCAnLW1hJywgJzIwMCcsICctbWV0YWxfYmluZGluZycsICctaW1hZScsICc8aW5maWxlLm1hZT4nLCAnLW9tYWUnLCAnPG91dGZpbGUubWFlPic=

> <r_lp_tautomer_probability>
1

> <r_epik_Ionization_Penalty>
6.19718e-05

> <r_epik_Ionization_Penalty_Charging>
2.78773e-05

> <r_epik_Ionization_Penalty_Neutral>
3.40944e-05

> <r_epik_State_Penalty>
-0

> <r_epik_Charging_Adjusted_Penalty>
2.78773e-05

> <i_epik_Tot_Q>
0

> <i_epik_Tot_abs_Q>
0

> <r_epik_Metal_State_Penalty>
0.0271358

> <b_epik_Metal_Only>
0

> <s_lp_Force_Field>
OPLS_2005

> <r_lp_Energy>
42.1273

> <b_lp_Chiralities_Consistent>
1

> <s_lp_Variant>
AV-unprocessed.smi:601-1

> <Gold.Version>
5.8.1

> <Gold.Id.Protein>
6NUR|6NUR_protein|mol2

> <Gold.PLP.Fitness>
45.8426

> <Gold.PLP.PLP>
-42.2039

> <Gold.PLP.part.hbond>
-3.0000

> <Gold.PLP.part.metal>
0.0000

> <Gold.PLP.part.buried>
-6.3158

> <Gold.PLP.part.nonpolar>
-33.4319

> <Gold.PLP.part.repulsive>
0.5163

> <Gold.PLP.ligand.clash>
0.0000

> <Gold.PLP.ligand.torsion>
1.7436

> <Gold.PLP.Chemscore.Hbond>
1.6220

> <Gold.PLP.Chemscore.CHOScore>
0.0000

> <Gold.PLP.Chemscore.Metal>
0.0000

> <Gold.Chemscore.Hbonds>
donor molecule, donor type, donor heavy atom, donor atom, acceptor molecule, acceptor atom, score
      L1  H    22    25       P1  7957  0.69
      P1  H  7989  7998       L1    24  0.84

> <Gold.PLP.Chemscore.Internal.Correction>
2.2599

> <Gold.Rescore>
     Score         DG    S(hbond)    S(metal)    S(lipo)     H(rot)  DE(clash)    DE(int)     intcor
      9.39     -15.47       1.90        0.00      73.95       1.96       1.08       5.01       ----

> <Gold.Chemscore.Fitness>
9.3868

> <Gold.Chemscore.DG>
-15.4696

> <Gold.Chemscore.ZeroCoef>
-5.4800

> <Gold.Chemscore.Hbond>
1.9028

> <Gold.Chemscore.Metal>
0.0000

> <Gold.Chemscore.Lipo>
73.9546

> <Gold.Chemscore.Internal_Hbond>
0.0000

> <Gold.Chemscore.DEClash>
1.0762

> <Gold.Chemscore.DEInternal>
5.0066

> <Gold.Chemscore.Rot>
1.9603

> <Gold.Chemscore.Internal.Correction>
   9.000000E+99

> <Gold.Chemscore.Hbonds>
donor molecule, donor type, donor heavy atom, donor atom, acceptor molecule, acceptor atom, score
      L1  H    22    25       P1  7957  0.68
      P1  H  7989  7998       L1    24  0.33

> <Gold.Chemscore.Hbond.Weighted>
-6.3554

> <Gold.Chemscore.Metal.Weighted>
-0.0000

> <Gold.Chemscore.Lipo.Weighted>
-8.6527

> <Gold.Chemscore.Internal_Hbond.Weighted>
0.0000

> <Gold.Chemscore.DEClash.Weighted>
1.0762

> <Gold.Chemscore.DEInternal.Weighted>
5.0066

> <Gold.Chemscore.Rot.Weighted>
5.0185

> <Gold.Chemscore.Internal.Correction.Weighted>
   9.000000E+99

> <Gold.Protein.RotatedTorsions>
[ 6907 6896 6895 6894 ] final   70.94 input  -60.11 | X-H torsion
[ 7974 7965 7964 7962 ] final   14.28 input  175.53 | X-H torsion
[ 8008 7997 7996 7995 ] final   60.30 input   59.86 | X-H torsion
[ 10167 10162 10161 10158 ] final   67.51 input  -65.29 | X-H torsion
[ 10718 10713 10712 10709 ] final  127.50 input   66.30 | X-H torsion
[ 10763 10752 10751 10750 ] final    6.74 input  -60.55 | X-H torsion
[ 11005 11000 10999 10996 ] final  -80.23 input  -57.11 | X-H torsion

> <Gold.Protein.ActiveResidues>
 VAL166  LYS551  ARG553  GLY616  TRP617  ASP618  TYR619  PRO620  LYS621  CYS622 
 ASP623  PHE694  ASN695  SER759  ASP760  ASP761  ALA762  ILE779  LEU786  VAL792 
 PHE793  MET794  SER795  GLU796  ALA797  LYS798  CYS799  TRP800  GLU811  SER814 

> <Gold.Protein.RotatedAtoms>
  152.4780  134.4795  159.9660 H   0  0  0  0  0  0  0  0  0  0  0  0  # atno 6907 bound_to 6896
  151.4807  133.3541  159.2845 H   0  0  0  0  0  0  0  0  0  0  0  0  # atno 6908 bound_to 6896
  150.8831  134.8252  159.7301 H   0  0  0  0  0  0  0  0  0  0  0  0  # atno 6909 bound_to 6896
  146.2309  139.9064  142.8531 H   0  0  0  0  0  0  0  0  0  0  0  0  # atno 7974 bound_to 7965
  155.5801  140.3491  155.4538 H   0  0  0  0  0  0  0  0  0  0  0  0  # atno 8008 bound_to 7997
  156.0379  140.1289  157.0212 H   0  0  0  0  0  0  0  0  0  0  0  0  # atno 8009 bound_to 7997
  154.4379  140.1030  156.6180 H   0  0  0  0  0  0  0  0  0  0  0  0  # atno 8010 bound_to 7997
  140.0887  144.5007  150.7113 H   0  0  0  0  0  0  0  0  0  0  0  0  # atno 10167 bound_to 10162
  157.5327  131.1098  150.8984 H   0  0  0  0  0  0  0  0  0  0  0  0  # atno 10718 bound_to 10713
  153.2443  135.6907  153.7749 H   0  0  0  0  0  0  0  0  0  0  0  0  # atno 10763 bound_to 10752
  153.6867  135.3319  155.3193 H   0  0  0  0  0  0  0  0  0  0  0  0  # atno 10764 bound_to 10752
  154.8368  135.4535  154.1376 H   0  0  0  0  0  0  0  0  0  0  0  0  # atno 10765 bound_to 10752
  141.1668  133.7141  156.8241 H   0  0  0  0  0  0  0  0  0  0  0  0  # atno 11005 bound_to 11000
  145.2272  140.9959  143.4011 LP  0  0  0  0  0  0  0  0  0  0  0  0  # atno 17320 bound_to 7965
  144.9560  139.4031  143.6379 LP  0  0  0  0  0  0  0  0  0  0  0  0  # atno 17321 bound_to 7965
  140.7040  143.2454  151.4782 LP  0  0  0  0  0  0  0  0  0  0  0  0  # atno 17342 bound_to 10162
  139.5737  144.1869  152.1873 LP  0  0  0  0  0  0  0  0  0  0  0  0  # atno 17343 bound_to 10162
  156.9560  130.5437  149.5284 LP  0  0  0  0  0  0  0  0  0  0  0  0  # atno 17370 bound_to 10713
  156.0435  130.5514  150.8826 LP  0  0  0  0  0  0  0  0  0  0  0  0  # atno 17371 bound_to 10713
  140.2098  134.8836  157.3261 LP  0  0  0  0  0  0  0  0  0  0  0  0  # atno 17394 bound_to 11000
  140.2099  134.4151  155.7618 LP  0  0  0  0  0  0  0  0  0  0  0  0  # atno 17395 bound_to 11000

$$$$
