AV-unprocessed.smi:837|AV-procd|sdf|3906|dock3
  -GOLD-   22720 1363D 1   1.00000     0.00000
 Structure written by MMmdl.
 49 51  0  0  0  0  0  0  0  0  3 V2000
  150.0180  140.8332  156.6271 C   0  0  0  0  0  0  0  0  0  0  0  0
  149.3165  141.0237  155.2650 C   0  0  2  0  0  0  0  0  0  0  0  0
  147.9367  141.6876  155.4750 C   0  0  0  0  0  0  0  0  0  0  0  0
  147.2229  141.9661  154.1447 C   0  0  0  0  0  0  0  0  0  0  0  0
  147.0725  140.6844  153.3164 C   0  0  0  0  0  0  0  0  0  0  0  0
  148.4389  140.0180  153.0814 C   0  0  0  0  0  0  0  0  0  0  0  0
  149.2197  139.7276  154.3917 C   0  0  1  0  0  0  0  0  0  0  0  0
  150.5469  139.2522  154.0371 N   0  5  0  0  0  0  0  0  0  0  0  0
  150.6895  137.9781  154.4673 C   0  0  0  0  0  0  0  0  0  0  0  0
  151.6808  137.2620  154.3268 O   0  0  0  0  0  0  0  0  0  0  0  0
  149.5839  137.5559  155.1087 N   0  0  0  0  0  0  0  0  0  0  0  0
  149.4428  136.2418  155.7470 C   0  0  0  0  0  0  0  0  0  0  0  0
  148.0673  135.6296  155.4633 C   0  0  0  0  0  0  0  0  0  0  0  0
  147.3931  135.1605  156.3801 O   0  0  0  0  0  0  0  0  0  0  0  0
  147.6711  135.6413  154.1820 N   0  0  0  0  0  0  0  0  0  0  0  0
  146.4329  135.0668  153.6641 C   0  0  0  0  0  0  0  0  0  0  0  0
  146.1278  135.4587  152.2006 C   0  0  0  0  0  0  0  0  0  0  0  0
  145.4901  134.3556  151.3682 C   0  0  0  0  0  0  0  0  0  0  0  0
  146.2395  133.2162  150.9989 C   0  0  0  0  0  0  0  0  0  0  0  0
  145.6350  132.2116  150.2157 C   0  0  0  0  0  0  0  0  0  0  0  0
  144.2943  132.3702  149.8129 C   0  0  0  0  0  0  0  0  0  0  0  0
  143.6066  133.4716  150.1858 N   0  3  0  0  0  0  0  0  0  0  0  0
  144.1476  134.4529  150.9413 C   0  0  0  0  0  0  0  0  0  0  0  0
  148.6531  138.5158  155.1304 C   0  0  0  0  0  0  0  0  0  0  0  0
  147.5407  138.4606  155.6558 O   0  0  0  0  0  0  0  0  0  0  0  0
  149.4638  140.1602  157.2817 H   0  0  0  0  0  0  0  0  0  0  0  0
  150.1182  141.7850  157.1486 H   0  0  0  0  0  0  0  0  0  0  0  0
  151.0209  140.4290  156.5045 H   0  0  0  0  0  0  0  0  0  0  0  0
  149.9233  141.7387  154.7065 H   0  0  0  0  0  0  0  0  0  0  0  0
  147.3052  141.0599  156.1041 H   0  0  0  0  0  0  0  0  0  0  0  0
  148.0591  142.6269  156.0153 H   0  0  0  0  0  0  0  0  0  0  0  0
  146.2422  142.4036  154.3331 H   0  0  0  0  0  0  0  0  0  0  0  0
  147.7876  142.7050  153.5749 H   0  0  0  0  0  0  0  0  0  0  0  0
  146.3956  139.9950  153.8208 H   0  0  0  0  0  0  0  0  0  0  0  0
  146.6082  140.9178  152.3582 H   0  0  0  0  0  0  0  0  0  0  0  0
  148.2930  139.0985  152.5119 H   0  0  0  0  0  0  0  0  0  0  0  0
  149.0352  140.6699  152.4408 H   0  0  0  0  0  0  0  0  0  0  0  0
  150.2101  135.5530  155.3903 H   0  0  0  0  0  0  0  0  0  0  0  0
  149.6058  136.3337  156.8226 H   0  0  0  0  0  0  0  0  0  0  0  0
  148.2965  136.0545  153.5053 H   0  0  0  0  0  0  0  0  0  0  0  0
  146.4441  133.9816  153.7759 H   0  0  0  0  0  0  0  0  0  0  0  0
  145.6299  135.4316  154.3050 H   0  0  0  0  0  0  0  0  0  0  0  0
  145.4680  136.3271  152.1957 H   0  0  0  0  0  0  0  0  0  0  0  0
  147.0458  135.7815  151.7089 H   0  0  0  0  0  0  0  0  0  0  0  0
  147.2709  133.1146  151.3035 H   0  0  0  0  0  0  0  0  0  0  0  0
  146.1972  131.3403  149.9135 H   0  0  0  0  0  0  0  0  0  0  0  0
  143.7589  131.6587  149.2016 H   0  0  0  0  0  0  0  0  0  0  0  0
  143.4980  135.2854  151.1688 H   0  0  0  0  0  0  0  0  0  0  0  0
  142.6391  133.5689  149.8778 H   0  0  0  0  0  0  0  0  0  0  0  0
  1  2  1  0  0  0  0
  1 26  1  0  0  0  0
  1 27  1  0  0  0  0
  1 28  1  0  0  0  0
  2  7  1  0  0  0  0
  2  3  1  0  0  0  0
  2 29  1  0  0  0  0
  3  4  1  0  0  0  0
  3 30  1  0  0  0  0
  3 31  1  0  0  0  0
  4  5  1  0  0  0  0
  4 32  1  0  0  0  0
  4 33  1  0  0  0  0
  5  6  1  0  0  0  0
  5 34  1  0  0  0  0
  5 35  1  0  0  0  0
  6  7  1  0  0  0  0
  6 36  1  0  0  0  0
  6 37  1  0  0  0  0
  7 24  1  0  0  0  0
  7  8  1  0  0  0  0
  8  9  1  0  0  0  0
  9 10  2  0  0  0  0
  9 11  1  0  0  0  0
 11 12  1  0  0  0  0
 11 24  1  0  0  0  0
 12 13  1  0  0  0  0
 12 38  1  0  0  0  0
 12 39  1  0  0  0  0
 13 14  2  0  0  0  0
 13 15  1  0  0  0  0
 15 16  1  0  0  0  0
 15 40  1  0  0  0  0
 16 17  1  0  0  0  0
 16 41  1  0  0  0  0
 16 42  1  0  0  0  0
 17 18  1  0  0  0  0
 17 43  1  0  0  0  0
 17 44  1  0  0  0  0
 18 23  1  0  0  0  0
 18 19  2  0  0  0  0
 19 20  1  0  0  0  0
 19 45  1  0  0  0  0
 20 21  2  0  0  0  0
 20 46  1  0  0  0  0
 21 22  1  0  0  0  0
 21 47  1  0  0  0  0
 22 23  2  0  0  0  0
 22 49  1  0  0  0  0
 23 48  1  0  0  0  0
 24 25  2  0  0  0  0
M  CHG  1   8  -1
M  CHG  1  22   1
M  END
> <s_m_source_file>
AV-unprocessed.smi

> <i_m_source_file_index>
837

> <i_lp_mmshare_version>
43012

> <i_f3d_flags>
0

> <s_epik_input>
W0NIMl0xW0NIMl1bQ0gyXVtDSDJdW0NAQEhdKFtDSDNdKVtDQEBdMTJbTkhdQyg9TylOKEMyPU8pW0NIMl1DKD1PKVtOSF1bQ0gyXVtDSDJdYzNbY0hdW2NIXVtjSF1uW2NIXTM=

> <s_epik_cmdline>
J2VwaWtfcHl0aG9uJywgJy1waCcsICc3LjAnLCAnLXRuJywgJzgnLCAnLW1hJywgJzIwMCcsICctbWV0YWxfYmluZGluZycsICctaW1hZScsICc8aW5maWxlLm1hZT4nLCAnLW9tYWUnLCAnPG91dGZpbGUubWFlPic=

> <r_lp_tautomer_probability>
1

> <r_epik_Ionization_Penalty>
8.27169

> <r_epik_Ionization_Penalty_Charging>
8.27169

> <r_epik_Ionization_Penalty_Neutral>
1.56557e-07

> <r_epik_State_Penalty>
8.42098

> <r_epik_Charging_Adjusted_Penalty>
16.6927

> <i_epik_Tot_Q>
0

> <i_epik_Tot_abs_Q>
2

> <r_epik_Metal_State_Penalty>
4.38565

> <b_epik_Metal_Only>
1

> <s_lp_Force_Field>
OPLS_2005

> <r_lp_Energy>
13.0129

> <b_lp_Chiralities_Consistent>
1

> <s_lp_Variant>
AV-unprocessed.smi:837-15

> <Gold.Version>
5.8.1

> <Gold.Id.Protein>
6NUR|6NUR_protein|mol2

> <Gold.PLP.Fitness>
49.8414

> <Gold.PLP.PLP>
-36.2911

> <Gold.PLP.part.hbond>
-4.0000

> <Gold.PLP.part.metal>
0.0000

> <Gold.PLP.part.buried>
2.9510

> <Gold.PLP.part.nonpolar>
-35.5835

> <Gold.PLP.part.repulsive>
0.4473

> <Gold.PLP.ligand.clash>
0.0000

> <Gold.PLP.ligand.torsion>
0.7271

> <Gold.PLP.Chemscore.Hbond>
4.9913

> <Gold.PLP.Chemscore.CHOScore>
0.0000

> <Gold.PLP.Chemscore.Metal>
0.0000

> <Gold.Chemscore.Hbonds>
donor molecule, donor type, donor heavy atom, donor atom, acceptor molecule, acceptor atom, score
      L1  H    15    40       P1  7948  1.00
      L1  H    22    49       P1 10186  2.00
      P1  H  7989  7998       L1     8  1.00
      P1  H 10752 10765       L1    10  0.98

> <Gold.PLP.Chemscore.Internal.Correction>
0.0308

> <Gold.Rescore>
     Score         DG    S(hbond)    S(metal)    S(lipo)     H(rot)  DE(clash)    DE(int)     intcor
     18.22     -23.18       3.50        0.00      93.38       1.92       2.98       1.98       ----

> <Gold.Chemscore.Fitness>
18.2204

> <Gold.Chemscore.DG>
-23.1810

> <Gold.Chemscore.ZeroCoef>
-5.4800

> <Gold.Chemscore.Hbond>
3.4982

> <Gold.Chemscore.Metal>
0.0000

> <Gold.Chemscore.Lipo>
93.3819

> <Gold.Chemscore.Internal_Hbond>
0.0000

> <Gold.Chemscore.DEClash>
2.9777

> <Gold.Chemscore.DEInternal>
1.9828

> <Gold.Chemscore.Rot>
1.9175

> <Gold.Chemscore.Internal.Correction>
   9.000000E+99

> <Gold.Chemscore.Hbonds>
donor molecule, donor type, donor heavy atom, donor atom, acceptor molecule, acceptor atom, score
      L1  H    15    40       P1  7948  0.97
      L1  H    22    49       P1 10186  0.99
      P1  H  7989  7998       L1     8  0.57
      P1  H 10752 10765       L1    10  0.89

> <Gold.Chemscore.Hbond.Weighted>
-11.6841

> <Gold.Chemscore.Metal.Weighted>
-0.0000

> <Gold.Chemscore.Lipo.Weighted>
-10.9257

> <Gold.Chemscore.Internal_Hbond.Weighted>
0.0000

> <Gold.Chemscore.DEClash.Weighted>
2.9777

> <Gold.Chemscore.DEInternal.Weighted>
1.9828

> <Gold.Chemscore.Rot.Weighted>
4.9087

> <Gold.Chemscore.Internal.Correction.Weighted>
   9.000000E+99

> <Gold.Protein.RotatedTorsions>
[ 6907 6896 6895 6894 ] final -109.05 input  -60.11 | X-H torsion
[ 7974 7965 7964 7962 ] final   64.88 input  175.53 | X-H torsion
[ 8008 7997 7996 7995 ] final   96.52 input   59.86 | X-H torsion
[ 10167 10162 10161 10158 ] final  107.00 input  -65.29 | X-H torsion
[ 10718 10713 10712 10709 ] final -101.01 input   66.30 | X-H torsion
[ 10763 10752 10751 10750 ] final  153.05 input  -60.55 | X-H torsion
[ 11005 11000 10999 10996 ] final   35.95 input  -57.11 | X-H torsion

> <Gold.Protein.ActiveResidues>
 VAL166  LYS551  ARG553  GLY616  TRP617  ASP618  TYR619  PRO620  LYS621  CYS622 
 ASP623  PHE694  ASN695  SER759  ASP760  ASP761  ALA762  ILE779  LEU786  VAL792 
 PHE793  MET794  SER795  GLU796  ALA797  LYS798  CYS799  TRP800  GLU811  SER814 

> <Gold.Protein.RotatedAtoms>
  150.7538  133.9587  159.3508 H   0  0  0  0  0  0  0  0  0  0  0  0  # atno 6907 bound_to 6896
  151.7511  135.0830  160.0340 H   0  0  0  0  0  0  0  0  0  0  0  0  # atno 6908 bound_to 6896
  152.3466  133.6092  159.5950 H   0  0  0  0  0  0  0  0  0  0  0  0  # atno 6909 bound_to 6896
  145.8450  139.3219  143.0909 H   0  0  0  0  0  0  0  0  0  0  0  0  # atno 7974 bound_to 7965
  156.0805  140.3271  155.7687 H   0  0  0  0  0  0  0  0  0  0  0  0  # atno 8008 bound_to 7997
  155.5161  140.0581  157.2932 H   0  0  0  0  0  0  0  0  0  0  0  0  # atno 8009 bound_to 7997
  154.4579  140.1952  156.0344 H   0  0  0  0  0  0  0  0  0  0  0  0  # atno 8010 bound_to 7997
  139.6963  144.7101  151.1262 H   0  0  0  0  0  0  0  0  0  0  0  0  # atno 10167 bound_to 10162
  156.0181  130.5354  150.6901 H   0  0  0  0  0  0  0  0  0  0  0  0  # atno 10718 bound_to 10713
  154.1299  135.2827  155.3187 H   0  0  0  0  0  0  0  0  0  0  0  0  # atno 10763 bound_to 10752
  154.6363  135.5418  153.7741 H   0  0  0  0  0  0  0  0  0  0  0  0  # atno 10764 bound_to 10752
  153.0284  135.6475  154.1450 H   0  0  0  0  0  0  0  0  0  0  0  0  # atno 10765 bound_to 10752
  140.2375  134.3454  155.7939 H   0  0  0  0  0  0  0  0  0  0  0  0  # atno 11005 bound_to 11000
  145.9422  140.8971  143.0302 LP  0  0  0  0  0  0  0  0  0  0  0  0  # atno 17320 bound_to 7965
  144.6731  140.1565  143.7426 LP  0  0  0  0  0  0  0  0  0  0  0  0  # atno 17321 bound_to 7965
  140.7697  143.5487  150.9229 LP  0  0  0  0  0  0  0  0  0  0  0  0  # atno 17342 bound_to 10162
  139.9167  143.6655  152.3105 LP  0  0  0  0  0  0  0  0  0  0  0  0  # atno 17343 bound_to 10162
  157.4584  131.0880  151.0772 LP  0  0  0  0  0  0  0  0  0  0  0  0  # atno 17370 bound_to 10713
  157.1266  130.6084  149.5519 LP  0  0  0  0  0  0  0  0  0  0  0  0  # atno 17371 bound_to 10713
  141.2213  133.7280  156.8832 LP  0  0  0  0  0  0  0  0  0  0  0  0  # atno 17394 bound_to 11000
  140.1687  134.9115  157.2806 LP  0  0  0  0  0  0  0  0  0  0  0  0  # atno 17395 bound_to 11000

$$$$
