AV-unprocessed.smi:618|AV-procd|sdf|3082|dock4
  -GOLD-   22720 0 03D 1   1.00000     0.00000
 Structure written by MMmdl.
 40 42  0  0  0  0  0  0  0  0  1 V2000
  150.2659  135.1474  156.1153 O   0  0  0  0  0  0  0  0  0  0  0  0
  149.8690  135.4445  154.9888 C   0  0  0  0  0  0  0  0  0  0  0  0
  149.2641  134.5782  154.1639 N   0  0  0  0  0  0  0  0  0  0  0  0
  149.0169  133.1702  154.4568 C   0  0  0  0  0  0  0  0  0  0  0  0
  148.2238  132.4893  153.3288 C   0  0  2  0  0  0  0  0  0  0  0  0
  147.2419  133.4686  152.6451 C   0  0  0  0  0  0  0  0  0  0  0  0
  146.4411  132.7603  151.6654 N   0  0  0  0  0  0  0  0  0  0  0  0
  145.4173  133.5184  150.9851 C   0  0  0  0  0  0  0  0  0  0  0  0
  144.5054  132.4477  150.3603 C   0  0  0  0  0  0  0  0  0  0  0  0
  144.8027  131.1666  151.1712 C   0  0  0  0  0  0  0  0  0  0  0  0
  145.7245  131.6758  152.2805 C   0  0  1  0  0  0  0  0  0  0  0  0
  146.6978  130.6739  152.9173 C   0  0  0  0  0  0  0  0  0  0  0  0
  147.4928  131.3817  153.8712 O   0  0  0  0  0  0  0  0  0  0  0  0
  149.9976  136.6517  154.4125 N   0  0  0  0  0  0  0  0  0  0  0  0
  150.5896  137.8273  154.9480 C   0  0  0  0  0  0  0  0  0  0  0  0
  151.4680  137.6863  156.0421 C   0  0  0  0  0  0  0  0  0  0  0  0
  152.0822  138.8323  156.5814 C   0  0  0  0  0  0  0  0  0  0  0  0
  151.7988  140.0815  155.9966 C   0  0  0  0  0  0  0  0  0  0  0  0
  150.9728  140.2335  154.9401 N   0  0  0  0  0  0  0  0  0  0  0  0
  150.3859  139.1299  154.4282 C   0  0  0  0  0  0  0  0  0  0  0  0
  148.9734  134.9102  153.2562 H   0  0  0  0  0  0  0  0  0  0  0  0
  149.9508  132.6381  154.6469 H   0  0  0  0  0  0  0  0  0  0  0  0
  148.4443  133.1256  155.3836 H   0  0  0  0  0  0  0  0  0  0  0  0
  148.9232  132.1099  152.5815 H   0  0  0  0  0  0  0  0  0  0  0  0
  146.5943  133.9273  153.3940 H   0  0  0  0  0  0  0  0  0  0  0  0
  147.7906  134.2770  152.1610 H   0  0  0  0  0  0  0  0  0  0  0  0
  144.8515  134.1157  151.7020 H   0  0  0  0  0  0  0  0  0  0  0  0
  145.8424  134.1943  150.2426 H   0  0  0  0  0  0  0  0  0  0  0  0
  143.4569  132.7393  150.4249 H   0  0  0  0  0  0  0  0  0  0  0  0
  144.7472  132.2951  149.3079 H   0  0  0  0  0  0  0  0  0  0  0  0
  143.9006  130.7002  151.5680 H   0  0  0  0  0  0  0  0  0  0  0  0
  145.3170  130.4362  150.5452 H   0  0  0  0  0  0  0  0  0  0  0  0
  145.0922  132.0783  153.0751 H   0  0  0  0  0  0  0  0  0  0  0  0
  146.1554  129.8739  153.4213 H   0  0  0  0  0  0  0  0  0  0  0  0
  147.3402  130.2120  152.1661 H   0  0  0  0  0  0  0  0  0  0  0  0
  149.6945  136.7186  153.4521 H   0  0  0  0  0  0  0  0  0  0  0  0
  151.6675  136.7138  156.4683 H   0  0  0  0  0  0  0  0  0  0  0  0
  152.7547  138.7558  157.4230 H   0  0  0  0  0  0  0  0  0  0  0  0
  152.2520  140.9818  156.3844 H   0  0  0  0  0  0  0  0  0  0  0  0
  149.7589  139.3118  153.5696 H   0  0  0  0  0  0  0  0  0  0  0  0
  1  2  2  0  0  0  0
  2  3  1  0  0  0  0
  2 14  1  0  0  0  0
  3  4  1  0  0  0  0
  3 21  1  0  0  0  0
  4  5  1  0  0  0  0
  4 22  1  0  0  0  0
  4 23  1  0  0  0  0
  5 13  1  0  0  0  0
  5  6  1  0  0  0  0
  5 24  1  0  0  0  0
  6  7  1  0  0  0  0
  6 25  1  0  0  0  0
  6 26  1  0  0  0  0
  7 11  1  0  0  0  0
  7  8  1  0  0  0  0
  8  9  1  0  0  0  0
  8 27  1  0  0  0  0
  8 28  1  0  0  0  0
  9 10  1  0  0  0  0
  9 29  1  0  0  0  0
  9 30  1  0  0  0  0
 10 11  1  0  0  0  0
 10 31  1  0  0  0  0
 10 32  1  0  0  0  0
 11 12  1  0  0  0  0
 11 33  1  0  0  0  0
 12 13  1  0  0  0  0
 12 34  1  0  0  0  0
 12 35  1  0  0  0  0
 14 15  1  0  0  0  0
 14 36  1  0  0  0  0
 15 20  1  0  0  0  0
 15 16  2  0  0  0  0
 16 17  1  0  0  0  0
 16 37  1  0  0  0  0
 17 18  2  0  0  0  0
 17 38  1  0  0  0  0
 18 19  1  0  0  0  0
 18 39  1  0  0  0  0
 19 20  2  0  0  0  0
 20 40  1  0  0  0  0
M  END
> <s_m_source_file>
AV-unprocessed.smi

> <i_m_source_file_index>
618

> <i_lp_mmshare_version>
43012

> <i_f3d_flags>
0

> <s_epik_input>
W2NIXTFuW2NIXVtjSF1bY0hdYzFbTkhdQyg9TylbTkhdW0NIMl1bQ0BIXShbQ0gyXTIpT1tDSDJdW0NAQEhdKE4yMylbQ0gyXVtDSDJdW0NIMl0z

> <s_epik_cmdline>
J2VwaWtfcHl0aG9uJywgJy1waCcsICc3LjAnLCAnLXRuJywgJzgnLCAnLW1hJywgJzIwMCcsICctbWV0YWxfYmluZGluZycsICctaW1hZScsICc8aW5maWxlLm1hZT4nLCAnLW9tYWUnLCAnPG91dGZpbGUubWFlPic=

> <r_epik_Ionization_Penalty>
1.07277

> <r_epik_Ionization_Penalty_Charging>
0

> <r_epik_Ionization_Penalty_Neutral>
1.07277

> <r_epik_State_Penalty>
1.13623

> <r_epik_Charging_Adjusted_Penalty>
1.13623

> <i_epik_Tot_Q>
0

> <i_epik_Tot_abs_Q>
0

> <r_epik_Metal_State_Penalty>
1.13277

> <b_epik_Metal_Only>
0

> <s_lp_Force_Field>
OPLS_2005

> <r_lp_Energy>
50.2081

> <b_lp_Chiralities_Consistent>
1

> <s_lp_Variant>
AV-unprocessed.smi:618-9

> <Gold.Version>
5.8.1

> <Gold.Id.Protein>
6NUR|6NUR_protein|mol2

> <Gold.PLP.Fitness>
47.0701

> <Gold.PLP.PLP>
-36.3047

> <Gold.PLP.part.hbond>
-3.6907

> <Gold.PLP.part.metal>
0.0000

> <Gold.PLP.part.buried>
-5.5170

> <Gold.PLP.part.nonpolar>
-27.8684

> <Gold.PLP.part.repulsive>
0.3855

> <Gold.PLP.ligand.clash>
0.0000

> <Gold.PLP.ligand.torsion>
0.3936

> <Gold.PLP.Chemscore.Hbond>
2.8500

> <Gold.PLP.Chemscore.CHOScore>
1.0000

> <Gold.PLP.Chemscore.Metal>
0.0000

> <Gold.Chemscore.Hbonds>
donor molecule, donor type, donor heavy atom, donor atom, acceptor molecule, acceptor atom, score
      L1  H     3    21       P1  7948  0.95
      L1  H    14    36       P1  7948  1.00
      P1  H  7989  7998       L1    19  0.95
      L1  C    20    40       P1  7957  1.00

> <Gold.PLP.Chemscore.Internal.Correction>
0.0026

> <Gold.Rescore>
     Score         DG    S(hbond)    S(metal)    S(lipo)     H(rot)  DE(clash)    DE(int)     intcor
     15.71     -17.53       1.60        0.00      84.46       1.25       0.02       1.80       ----

> <Gold.Chemscore.Fitness>
15.7132

> <Gold.Chemscore.DG>
-17.5261

> <Gold.Chemscore.ZeroCoef>
-5.4800

> <Gold.Chemscore.Hbond>
1.6032

> <Gold.Chemscore.Metal>
0.0000

> <Gold.Chemscore.Lipo>
84.4587

> <Gold.Chemscore.Internal_Hbond>
0.0000

> <Gold.Chemscore.DEClash>
0.0172

> <Gold.Chemscore.DEInternal>
1.7958

> <Gold.Chemscore.Rot>
1.2461

> <Gold.Chemscore.Internal.Correction>
   9.000000E+99

> <Gold.Chemscore.Hbonds>
donor molecule, donor type, donor heavy atom, donor atom, acceptor molecule, acceptor atom, score
      L1  H     3    21       P1  7948  0.21
      L1  H    14    36       P1  7948  0.50
      P1  H  7989  7998       L1    19  0.21

> <Gold.Chemscore.Hbond.Weighted>
-5.3545

> <Gold.Chemscore.Metal.Weighted>
-0.0000

> <Gold.Chemscore.Lipo.Weighted>
-9.8817

> <Gold.Chemscore.Internal_Hbond.Weighted>
0.0000

> <Gold.Chemscore.DEClash.Weighted>
0.0172

> <Gold.Chemscore.DEInternal.Weighted>
1.7958

> <Gold.Chemscore.Rot.Weighted>
3.1901

> <Gold.Chemscore.Internal.Correction.Weighted>
   9.000000E+99

> <Gold.Protein.RotatedTorsions>
[ 6907 6896 6895 6894 ] final    2.04 input  -60.11 | X-H torsion
[ 7974 7965 7964 7962 ] final  -52.02 input  175.53 | X-H torsion
[ 8008 7997 7996 7995 ] final  135.12 input   59.86 | X-H torsion
[ 10167 10162 10161 10158 ] final   87.63 input  -65.29 | X-H torsion
[ 10718 10713 10712 10709 ] final   50.99 input   66.30 | X-H torsion
[ 10763 10752 10751 10750 ] final -128.18 input  -60.55 | X-H torsion
[ 11005 11000 10999 10996 ] final  111.04 input  -57.11 | X-H torsion

> <Gold.Protein.ActiveResidues>
 VAL166  LYS551  ARG553  GLY616  TRP617  ASP618  TYR619  PRO620  LYS621  CYS622 
 ASP623  PHE694  ASN695  SER759  ASP760  ASP761  ALA762  ILE779  LEU786  VAL792 
 PHE793  MET794  SER795  GLU796  ALA797  LYS798  CYS799  TRP800  GLU811  SER814 

> <Gold.Protein.RotatedAtoms>
  151.6025  135.1046  160.0063 H   0  0  0  0  0  0  0  0  0  0  0  0  # atno 6907 bound_to 6896
  152.4250  133.7176  159.6526 H   0  0  0  0  0  0  0  0  0  0  0  0  # atno 6908 bound_to 6896
  150.8139  133.8300  159.3191 H   0  0  0  0  0  0  0  0  0  0  0  0  # atno 6909 bound_to 6896
  145.9126  140.7902  142.9688 H   0  0  0  0  0  0  0  0  0  0  0  0  # atno 7974 bound_to 7965
  156.3002  140.2479  156.3529 H   0  0  0  0  0  0  0  0  0  0  0  0  # atno 8008 bound_to 7997
  154.8949  140.0408  157.1879 H   0  0  0  0  0  0  0  0  0  0  0  0  # atno 8009 bound_to 7997
  154.8560  140.2913  155.5572 H   0  0  0  0  0  0  0  0  0  0  0  0  # atno 8010 bound_to 7997
  139.8754  144.6470  150.8902 H   0  0  0  0  0  0  0  0  0  0  0  0  # atno 10167 bound_to 10162
  157.4938  130.8393  149.8234 H   0  0  0  0  0  0  0  0  0  0  0  0  # atno 10718 bound_to 10713
  154.8755  135.3937  154.3714 H   0  0  0  0  0  0  0  0  0  0  0  0  # atno 10763 bound_to 10752
  153.4473  135.7027  153.6136 H   0  0  0  0  0  0  0  0  0  0  0  0  # atno 10764 bound_to 10752
  153.4691  135.3794  155.2350 H   0  0  0  0  0  0  0  0  0  0  0  0  # atno 10765 bound_to 10752
  139.8895  134.9498  156.6371 H   0  0  0  0  0  0  0  0  0  0  0  0  # atno 11005 bound_to 11000
  144.6744  140.1849  143.7402 LP  0  0  0  0  0  0  0  0  0  0  0  0  # atno 17320 bound_to 7965
  145.8652  139.2243  143.1693 LP  0  0  0  0  0  0  0  0  0  0  0  0  # atno 17321 bound_to 7965
  140.7754  143.3629  151.1793 LP  0  0  0  0  0  0  0  0  0  0  0  0  # atno 17342 bound_to 10162
  139.7245  143.9170  152.2997 LP  0  0  0  0  0  0  0  0  0  0  0  0  # atno 17343 bound_to 10162
  156.0189  130.3803  150.2024 LP  0  0  0  0  0  0  0  0  0  0  0  0  # atno 17370 bound_to 10713
  157.0213  130.9980  151.3339 LP  0  0  0  0  0  0  0  0  0  0  0  0  # atno 17371 bound_to 10713
  140.7622  133.8808  155.8427 LP  0  0  0  0  0  0  0  0  0  0  0  0  # atno 17394 bound_to 11000
  140.9912  134.1276  157.4406 LP  0  0  0  0  0  0  0  0  0  0  0  0  # atno 17395 bound_to 11000

$$$$
