AV-unprocessed.smi:2040|AV-procd|sdf|8287|dock6
  -GOLD-   2272010553D 1   1.00000     0.00000
 Structure written by MMmdl.
 38 39  0  0  0  0  0  0  0  0  1 V2000
  153.4159  141.6595  161.3224 C   0  0  0  0  0  0  0  0  0  0  0  0
  152.7081  142.3237  160.1784 C   0  0  0  0  0  0  0  0  0  0  0  0
  152.1590  141.7135  159.0132 C   0  0  0  0  0  0  0  0  0  0  0  0
  151.6451  142.7806  158.3281 C   0  0  0  0  0  0  0  0  0  0  0  0
  151.0024  142.7981  157.1302 N   0  0  0  0  0  0  0  0  0  0  0  0
  150.3083  141.8117  156.5360 C   0  0  0  0  0  0  0  0  0  0  0  0
  150.1261  140.6864  157.0010 O   0  0  0  0  0  0  0  0  0  0  0  0
  149.8195  142.2101  155.3526 N   0  0  0  0  0  0  0  0  0  0  0  0
  149.0275  141.3851  154.4437 C   0  0  1  0  0  0  0  0  0  0  0  0
  149.6073  139.9605  154.4010 C   0  0  0  0  0  0  0  0  0  0  0  0
  147.5560  141.4014  154.8998 C   0  0  2  0  0  0  0  0  0  0  0  0
  146.7142  142.5376  154.3114 C   0  0  0  0  0  0  0  0  0  0  0  0
  145.6605  142.8103  155.3756 C   0  0  0  0  0  0  0  0  0  0  0  0
  146.1121  141.9735  156.5737 C   0  0  0  0  0  0  0  0  0  0  0  0
  147.4658  141.6523  156.2944 O   0  0  0  0  0  0  0  0  0  0  0  0
  151.8869  143.9296  159.0479 N   0  0  0  0  0  0  0  0  0  0  0  0
  151.5393  145.3021  158.7355 C   0  0  0  0  0  0  0  0  0  0  0  0
  152.5421  143.6416  160.1933 N   0  0  0  0  0  0  0  0  0  0  0  0
  153.5573  140.5952  161.1336 H   0  0  0  0  0  0  0  0  0  0  0  0
  152.8466  141.7595  162.2468 H   0  0  0  0  0  0  0  0  0  0  0  0
  154.3998  142.1001  161.4858 H   0  0  0  0  0  0  0  0  0  0  0  0
  152.1558  140.6680  158.7445 H   0  0  0  0  0  0  0  0  0  0  0  0
  151.0447  143.6746  156.6316 H   0  0  0  0  0  0  0  0  0  0  0  0
  150.0227  143.1503  155.0467 H   0  0  0  0  0  0  0  0  0  0  0  0
  149.0775  141.8127  153.4404 H   0  0  0  0  0  0  0  0  0  0  0  0
  149.0598  139.3292  153.7010 H   0  0  0  0  0  0  0  0  0  0  0  0
  149.5639  139.4853  155.3815 H   0  0  0  0  0  0  0  0  0  0  0  0
  150.6497  139.9669  154.0806 H   0  0  0  0  0  0  0  0  0  0  0  0
  147.0802  140.4417  154.6865 H   0  0  0  0  0  0  0  0  0  0  0  0
  147.3245  143.4306  154.1687 H   0  0  0  0  0  0  0  0  0  0  0  0
  146.2790  142.2737  153.3471 H   0  0  0  0  0  0  0  0  0  0  0  0
  145.6378  143.8723  155.6233 H   0  0  0  0  0  0  0  0  0  0  0  0
  144.6614  142.5206  155.0483 H   0  0  0  0  0  0  0  0  0  0  0  0
  146.0154  142.5060  157.5200 H   0  0  0  0  0  0  0  0  0  0  0  0
  145.5317  141.0520  156.6398 H   0  0  0  0  0  0  0  0  0  0  0  0
  150.4564  145.3956  158.6518 H   0  0  0  0  0  0  0  0  0  0  0  0
  151.9968  145.5891  157.7886 H   0  0  0  0  0  0  0  0  0  0  0  0
  151.8932  145.9757  159.5171 H   0  0  0  0  0  0  0  0  0  0  0  0
  1  2  1  0  0  0  0
  1 19  1  0  0  0  0
  1 20  1  0  0  0  0
  1 21  1  0  0  0  0
  2 18  2  0  0  0  0
  2  3  1  0  0  0  0
  3  4  2  0  0  0  0
  3 22  1  0  0  0  0
  4  5  1  0  0  0  0
  4 16  1  0  0  0  0
  5  6  1  0  0  0  0
  5 23  1  0  0  0  0
  6  7  2  0  0  0  0
  6  8  1  0  0  0  0
  8  9  1  0  0  0  0
  8 24  1  0  0  0  0
  9 10  1  0  0  0  0
  9 11  1  0  0  0  0
  9 25  1  0  0  0  0
 10 26  1  0  0  0  0
 10 27  1  0  0  0  0
 10 28  1  0  0  0  0
 11 15  1  0  0  0  0
 11 12  1  0  0  0  0
 11 29  1  0  0  0  0
 12 13  1  0  0  0  0
 12 30  1  0  0  0  0
 12 31  1  0  0  0  0
 13 14  1  0  0  0  0
 13 32  1  0  0  0  0
 13 33  1  0  0  0  0
 14 15  1  0  0  0  0
 14 34  1  0  0  0  0
 14 35  1  0  0  0  0
 16 17  1  0  0  0  0
 16 18  1  0  0  0  0
 17 36  1  0  0  0  0
 17 37  1  0  0  0  0
 17 38  1  0  0  0  0
M  END
> <s_m_source_file>
AV-unprocessed.smi

> <i_m_source_file_index>
2040

> <i_lp_mmshare_version>
43012

> <i_f3d_flags>
0

> <s_epik_input>
W0NIM11jMVtjSF1jKG4objEpW0NIM10pW05IXUMoPU8pW05IXVtDQEhdKFtDSDNdKVtDQEBIXTJbQ0gyXVtDSDJdW0NIMl1PMg==

> <s_epik_cmdline>
J2VwaWtfcHl0aG9uJywgJy1waCcsICc3LjAnLCAnLXRuJywgJzgnLCAnLW1hJywgJzIwMCcsICctbWV0YWxfYmluZGluZycsICctaW1hZScsICc8aW5maWxlLm1hZT4nLCAnLW9tYWUnLCAnPG91dGZpbGUubWFlPic=

> <r_lp_tautomer_probability>
1

> <r_epik_Ionization_Penalty>
9.09088e-05

> <r_epik_Ionization_Penalty_Charging>
0

> <r_epik_Ionization_Penalty_Neutral>
9.09088e-05

> <r_epik_State_Penalty>
-0

> <r_epik_Charging_Adjusted_Penalty>
0

> <i_epik_Tot_Q>
0

> <i_epik_Tot_abs_Q>
0

> <r_epik_Metal_State_Penalty>
-0

> <b_epik_Metal_Only>
0

> <s_lp_Force_Field>
OPLS_2005

> <r_lp_Energy>
19.5884

> <b_lp_Chiralities_Consistent>
1

> <s_lp_Variant>
AV-unprocessed.smi:2040-2

> <Gold.Version>
5.8.1

> <Gold.Id.Protein>
6NUR|6NUR_protein|mol2

> <Gold.PLP.Fitness>
38.0529

> <Gold.PLP.PLP>
-39.2369

> <Gold.PLP.part.hbond>
-1.3987

> <Gold.PLP.part.metal>
0.0000

> <Gold.PLP.part.buried>
-4.5509

> <Gold.PLP.part.nonpolar>
-33.4138

> <Gold.PLP.part.repulsive>
0.3873

> <Gold.PLP.ligand.clash>
0.0394

> <Gold.PLP.ligand.torsion>
1.2557

> <Gold.PLP.Chemscore.Hbond>
0.4480

> <Gold.PLP.Chemscore.CHOScore>
0.0000

> <Gold.PLP.Chemscore.Metal>
0.0000

> <Gold.Chemscore.Hbonds>
donor molecule, donor type, donor heavy atom, donor atom, acceptor molecule, acceptor atom, score
      L1  H     8    24       P1  8028  0.43

> <Gold.PLP.Chemscore.Internal.Correction>
0.0228

> <Gold.Rescore>
     Score         DG    S(hbond)    S(metal)    S(lipo)     H(rot)  DE(clash)    DE(int)     intcor
     13.09     -16.99       1.80        0.00      74.05       1.23       0.00       3.90       ----

> <Gold.Chemscore.Fitness>
13.0863

> <Gold.Chemscore.DG>
-16.9864

> <Gold.Chemscore.ZeroCoef>
-5.4800

> <Gold.Chemscore.Hbond>
1.7966

> <Gold.Chemscore.Metal>
0.0000

> <Gold.Chemscore.Lipo>
74.0536

> <Gold.Chemscore.Internal_Hbond>
0.0000

> <Gold.Chemscore.DEClash>
0.0021

> <Gold.Chemscore.DEInternal>
3.8980

> <Gold.Chemscore.Rot>
1.2338

> <Gold.Chemscore.Internal.Correction>
   9.000000E+99

> <Gold.Chemscore.Hbonds>
donor molecule, donor type, donor heavy atom, donor atom, acceptor molecule, acceptor atom, score
      L1  H     8    24       P1  8028  0.42

> <Gold.Chemscore.Hbond.Weighted>
-6.0006

> <Gold.Chemscore.Metal.Weighted>
-0.0000

> <Gold.Chemscore.Lipo.Weighted>
-8.6643

> <Gold.Chemscore.Internal_Hbond.Weighted>
0.0000

> <Gold.Chemscore.DEClash.Weighted>
0.0021

> <Gold.Chemscore.DEInternal.Weighted>
3.8980

> <Gold.Chemscore.Rot.Weighted>
3.1584

> <Gold.Chemscore.Internal.Correction.Weighted>
   9.000000E+99

> <Gold.Protein.RotatedTorsions>
[ 6907 6896 6895 6894 ] final  143.67 input  -60.11 | X-H torsion
[ 7974 7965 7964 7962 ] final   93.78 input  175.53 | X-H torsion
[ 8008 7997 7996 7995 ] final  -94.70 input   59.86 | X-H torsion
[ 10167 10162 10161 10158 ] final    3.48 input  -65.29 | X-H torsion
[ 10718 10713 10712 10709 ] final   88.92 input   66.30 | X-H torsion
[ 10763 10752 10751 10750 ] final  126.36 input  -60.55 | X-H torsion
[ 11005 11000 10999 10996 ] final   69.47 input  -57.11 | X-H torsion

> <Gold.Protein.ActiveResidues>
 VAL166  LYS551  ARG553  GLY616  TRP617  ASP618  TYR619  PRO620  LYS621  CYS622 
 ASP623  PHE694  ASN695  SER759  ASP760  ASP761  ALA762  ILE779  LEU786  VAL792 
 PHE793  MET794  SER795  GLU796  ALA797  LYS798  CYS799  TRP800  GLU811  SER814 

> <Gold.Protein.RotatedAtoms>
  152.2034  133.4857  159.5070 H   0  0  0  0  0  0  0  0  0  0  0  0  # atno 6907 bound_to 6896
  150.6974  134.1561  159.4167 H   0  0  0  0  0  0  0  0  0  0  0  0  # atno 6908 bound_to 6896
  151.9479  135.0183  160.0591 H   0  0  0  0  0  0  0  0  0  0  0  0  # atno 6909 bound_to 6896
  145.4743  139.2280  143.2918 H   0  0  0  0  0  0  0  0  0  0  0  0  # atno 7974 bound_to 7965
  154.7518  140.0487  157.0900 H   0  0  0  0  0  0  0  0  0  0  0  0  # atno 8008 bound_to 7997
  155.0047  140.3129  155.4834 H   0  0  0  0  0  0  0  0  0  0  0  0  # atno 8009 bound_to 7997
  156.2887  140.2195  156.5159 H   0  0  0  0  0  0  0  0  0  0  0  0  # atno 8010 bound_to 7997
  140.6584  143.7368  150.7694 H   0  0  0  0  0  0  0  0  0  0  0  0  # atno 10167 bound_to 10162
  157.6952  131.0313  150.3348 H   0  0  0  0  0  0  0  0  0  0  0  0  # atno 10718 bound_to 10713
  153.6921  135.3297  155.3204 H   0  0  0  0  0  0  0  0  0  0  0  0  # atno 10763 bound_to 10752
  154.8437  135.4434  154.1497 H   0  0  0  0  0  0  0  0  0  0  0  0  # atno 10764 bound_to 10752
  153.2542  135.6984  153.7725 H   0  0  0  0  0  0  0  0  0  0  0  0  # atno 10765 bound_to 10752
  139.9652  134.6993  156.0561 H   0  0  0  0  0  0  0  0  0  0  0  0  # atno 11005 bound_to 11000
  146.2378  140.5524  142.8947 LP  0  0  0  0  0  0  0  0  0  0  0  0  # atno 17320 bound_to 7965
  144.7926  140.6062  143.6531 LP  0  0  0  0  0  0  0  0  0  0  0  0  # atno 17321 bound_to 7965
  140.1032  143.4768  152.2413 LP  0  0  0  0  0  0  0  0  0  0  0  0  # atno 17342 bound_to 10162
  139.5811  144.7511  151.3637 LP  0  0  0  0  0  0  0  0  0  0  0  0  # atno 17343 bound_to 10162
  156.3817  130.3881  149.7097 LP  0  0  0  0  0  0  0  0  0  0  0  0  # atno 17370 bound_to 10713
  156.4477  130.7891  151.2913 LP  0  0  0  0  0  0  0  0  0  0  0  0  # atno 17371 bound_to 10713
  141.1331  133.6581  156.3520 LP  0  0  0  0  0  0  0  0  0  0  0  0  # atno 17394 bound_to 11000
  140.5412  134.6118  157.5380 LP  0  0  0  0  0  0  0  0  0  0  0  0  # atno 17395 bound_to 11000

$$$$
