#       Name:                AV-unprocessed.smi:984
#       Creating user name   scv26
#       Creation time:       Fri Mar 27 02:22:21 2020


#       File generated by GOLD software.
#

@<TRIPOS>MOLECULE
AV-unprocessed.smi:984
    40    40     1
SMALL
NO_CHARGES


@<TRIPOS>ATOM
      1 ****        -2.8340   1.7311   0.2153 C.3            1 S1                 0.0000
      2 ****        -2.1876   0.3746  -0.0832 C.3            1 S1                 0.0000
      3 ****        -2.6889  -0.2428  -1.4015 C.3            1 S1                 0.0000
      4 ****        -2.1411  -1.6528  -1.6954 C.3            1 S1                 0.0000
      5 ****        -0.6957  -1.6487  -1.9003 N.am           1 S1                 0.0000
      6 ****         0.2199  -1.9254  -0.9594 C.2            1 S1                 0.0000
      7 ****        -0.0708  -2.2877   0.1810 O.2            1 S1                 0.0000
      8 ****         1.6875  -1.7600  -1.3634 C.3            1 S1                 0.0000
      9 ****         2.3145  -0.7203  -0.5555 N.am           1 S1                 0.0000
     10 ****         2.8910  -0.8952   0.6443 C.2            1 S1                 0.0000
     11 ****         3.0786  -1.9977   1.1574 O.2            1 S1                 0.0000
     12 ****         3.2886   0.3779   1.3918 C.3            1 S1                 0.0000
     13 ****         2.1117   1.1658   1.7185 N.pl3          1 S1                 0.0000
     14 ****         1.1636   0.9695   2.6374 C.2            1 S1                 0.0000
     15 ****         0.2126   1.8933   2.6314 N.2            1 S1                 0.0000
     16 ****         0.6690   2.6842   1.6150 C.2            1 S1                 0.0000
     17 ****         1.8033   2.2930   1.0338 N.2            1 S1                 0.0000
     18 ****        -2.4633   2.1389   1.1559 H              1 S1                 0.0000
     19 ****        -3.9177   1.6426   0.2959 H              1 S1                 0.0000
     20 ****        -2.6126   2.4537  -0.5705 H              1 S1                 0.0000
     21 ****        -1.1058   0.5058  -0.1165 H              1 S1                 0.0000
     22 ****        -2.3903  -0.3093   0.7417 H              1 S1                 0.0000
     23 ****        -3.7777  -0.2973  -1.3731 H              1 S1                 0.0000
     24 ****        -2.4430   0.4220  -2.2305 H              1 S1                 0.0000
     25 ****        -2.4259  -2.3449  -0.9013 H              1 S1                 0.0000
     26 ****        -2.6020  -2.0348  -2.6065 H              1 S1                 0.0000
     27 ****        -0.3666  -1.3699  -2.8133 H              1 S1                 0.0000
     28 ****         2.2072  -2.7127  -1.2506 H              1 S1                 0.0000
     29 ****         1.7657  -1.4797  -2.4145 H              1 S1                 0.0000
     30 ****         2.2158   0.2276  -0.8895 H              1 S1                 0.0000
     31 ****         3.8091   0.1262   2.3169 H              1 S1                 0.0000
     32 ****         3.9724   0.9708   0.7823 H              1 S1                 0.0000
     33 ****         1.1646   0.1292   3.3163 H              1 S1                 0.0000
     34 ****         0.1477   3.5732   1.2918 H              1 S1                 0.0000
     35 ****        -1.0302  -2.3885   0.4442 LP             1 S1                 0.0000
     36 ****         0.6526  -2.4811   0.8438 LP             1 S1                 0.0000
     37 ****         2.7959  -2.8276   0.6764 LP             1 S1                 0.0000
     38 ****         3.5138  -2.0638   2.0553 LP             1 S1                 0.0000
     39 ****        -0.6019   1.9847   3.2042 LP             1 S1                 0.0000
     40 ****         2.3014   2.7237   0.2812 LP             1 S1                 0.0000
@<TRIPOS>BOND
    1    1    2 1     
    2    1   18 1     
    3    1   19 1     
    4    1   20 1     
    5    2    3 1     
    6    2   21 1     
    7    2   22 1     
    8    3    4 1     
    9    3   23 1     
   10    3   24 1     
   11    4    5 1     
   12    4   25 1     
   13    4   26 1     
   14    5    6 am    
   15    5   27 1     
   16    6    7 2     
   17    6    8 1     
   18    8    9 1     
   19    8   28 1     
   20    8   29 1     
   21    9   10 am    
   22    9   30 1     
   23   10   11 2     
   24   10   12 1     
   25   12   13 1     
   26   12   31 1     
   27   12   32 1     
   28   13   17 1     
   29   13   14 1     
   30   14   15 2     
   31   14   33 1     
   32   15   16 1     
   33   16   17 2     
   34   16   34 1     
   35    7   35 1     
   36    7   36 1     
   37   11   37 1     
   38   11   38 1     
   39   15   39 1     
   40   17   40 1     
@<TRIPOS>SUBSTRUCTURE
      1 S1             1
@<TRIPOS>SET
LONE_PAIRS      STATIC     ATOMS    <user>   **** ""
6 35 36 37 38 39 40
DONOR_HYDROGENS      STATIC     ATOMS    <user>   **** ""
2 27 30
ATOM$BLUE        STATIC     ATOMS    COLORGROUP SYSTEM
6 35 36 37 38 39 40
ATOM$RED        STATIC     ATOMS    COLORGROUP SYSTEM
2 27 30
