AV-unprocessed.smi:2611|AV-procd|sdf|10210|dock2
  -GOLD-   2272014213D 1   1.00000     0.00000
 Structure written by MMmdl.
 39 40  0  0  0  0  0  0  0  0  1 V2000
  154.9458  141.0810  160.2303 C   0  0  0  0  0  0  0  0  0  0  0  0
  153.6289  141.3979  159.5064 C   0  0  0  0  0  0  0  0  0  0  0  0
  152.7175  142.3402  160.3062 C   0  0  0  0  0  0  0  0  0  0  0  0
  152.9102  140.1507  159.0914 C   0  0  0  0  0  0  0  0  0  0  0  0
  152.7146  139.8622  157.8097 N   0  0  0  0  0  0  0  0  0  0  0  0
  152.0307  138.6388  157.8519 O   0  0  0  0  0  0  0  0  0  0  0  0
  151.8803  138.3450  159.1654 C   0  0  0  0  0  0  0  0  0  0  0  0
  151.2240  137.0605  159.5457 C   0  0  0  0  0  0  0  0  0  0  0  0
  149.7114  137.0729  159.2740 C   0  0  0  0  0  0  0  0  0  0  0  0
  148.9566  136.5987  160.4281 N   0  0  0  0  0  0  0  0  0  0  0  0
  147.6842  136.9251  160.7124 C   0  0  0  0  0  0  0  0  0  0  0  0
  147.0358  137.7024  160.0104 O   0  0  0  0  0  0  0  0  0  0  0  0
  147.1880  136.3505  161.8378 N   0  0  0  0  0  0  0  0  0  0  0  0
  147.6654  135.0995  162.4497 C   0  0  0  0  0  0  0  0  0  0  0  0
  146.7905  133.9348  161.9573 C   0  0  0  0  0  0  0  0  0  0  0  0
  145.0615  134.1519  162.4837 S   0  0  0  0  0  0  0  0  0  0  0  0
  144.7874  135.8678  161.9407 C   0  0  0  0  0  0  0  0  0  0  0  0
  145.9181  136.7897  162.4282 C   0  0  0  0  0  0  0  0  0  0  0  0
  152.4237  139.2426  159.9833 N   0  0  0  0  0  0  0  0  0  0  0  0
  155.5993  140.4705  159.6065 H   0  0  0  0  0  0  0  0  0  0  0  0
  154.7678  140.5376  161.1586 H   0  0  0  0  0  0  0  0  0  0  0  0
  155.4863  141.9945  160.4793 H   0  0  0  0  0  0  0  0  0  0  0  0
  153.9009  141.9339  158.5955 H   0  0  0  0  0  0  0  0  0  0  0  0
  151.8280  142.6047  159.7335 H   0  0  0  0  0  0  0  0  0  0  0  0
  153.2353  143.2659  160.5579 H   0  0  0  0  0  0  0  0  0  0  0  0
  152.3893  141.8797  161.2387 H   0  0  0  0  0  0  0  0  0  0  0  0
  151.7032  136.2510  158.9935 H   0  0  0  0  0  0  0  0  0  0  0  0
  151.4151  136.8734  160.6031 H   0  0  0  0  0  0  0  0  0  0  0  0
  149.3828  138.0887  159.0523 H   0  0  0  0  0  0  0  0  0  0  0  0
  149.4745  136.4710  158.3950 H   0  0  0  0  0  0  0  0  0  0  0  0
  149.4327  135.9670  161.0555 H   0  0  0  0  0  0  0  0  0  0  0  0
  148.7146  134.8923  162.2388 H   0  0  0  0  0  0  0  0  0  0  0  0
  147.6087  135.1724  163.5368 H   0  0  0  0  0  0  0  0  0  0  0  0
  146.8266  133.8643  160.8695 H   0  0  0  0  0  0  0  0  0  0  0  0
  147.1590  132.9881  162.3517 H   0  0  0  0  0  0  0  0  0  0  0  0
  144.7209  135.8902  160.8524 H   0  0  0  0  0  0  0  0  0  0  0  0
  143.8260  136.2076  162.3260 H   0  0  0  0  0  0  0  0  0  0  0  0
  145.9803  136.7666  163.5170 H   0  0  0  0  0  0  0  0  0  0  0  0
  145.6892  137.8261  162.1749 H   0  0  0  0  0  0  0  0  0  0  0  0
  1  2  1  0  0  0  0
  1 20  1  0  0  0  0
  1 21  1  0  0  0  0
  1 22  1  0  0  0  0
  2  3  1  0  0  0  0
  2  4  1  0  0  0  0
  2 23  1  0  0  0  0
  3 24  1  0  0  0  0
  3 25  1  0  0  0  0
  3 26  1  0  0  0  0
  4 19  1  0  0  0  0
  4  5  2  0  0  0  0
  5  6  1  0  0  0  0
  6  7  1  0  0  0  0
  7  8  1  0  0  0  0
  7 19  2  0  0  0  0
  8  9  1  0  0  0  0
  8 27  1  0  0  0  0
  8 28  1  0  0  0  0
  9 10  1  0  0  0  0
  9 29  1  0  0  0  0
  9 30  1  0  0  0  0
 10 11  1  0  0  0  0
 10 31  1  0  0  0  0
 11 12  2  0  0  0  0
 11 13  1  0  0  0  0
 13 18  1  0  0  0  0
 13 14  1  0  0  0  0
 14 15  1  0  0  0  0
 14 32  1  0  0  0  0
 14 33  1  0  0  0  0
 15 16  1  0  0  0  0
 15 34  1  0  0  0  0
 15 35  1  0  0  0  0
 16 17  1  0  0  0  0
 17 18  1  0  0  0  0
 17 36  1  0  0  0  0
 17 37  1  0  0  0  0
 18 38  1  0  0  0  0
 18 39  1  0  0  0  0
M  END
> <s_m_source_file>
AV-unprocessed.smi

> <i_m_source_file_index>
2611

> <i_lp_mmshare_version>
43012

> <i_f3d_flags>
0

> <s_epik_input>
W0NIM11bQ0hdKFtDSDNdKWMxbm9jKG4xKVtDSDJdW0NIMl1bTkhdQyg9TylOMltDSDJdW0NIMl1TW0NIMl1bQ0gyXTI=

> <s_epik_cmdline>
J2VwaWtfcHl0aG9uJywgJy1waCcsICc3LjAnLCAnLXRuJywgJzgnLCAnLW1hJywgJzIwMCcsICctbWV0YWxfYmluZGluZycsICctaW1hZScsICc8aW5maWxlLm1hZT4nLCAnLW9tYWUnLCAnPG91dGZpbGUubWFlPic=

> <r_lp_tautomer_probability>
1

> <r_epik_Ionization_Penalty>
4.28847e-05

> <r_epik_Ionization_Penalty_Charging>
0

> <r_epik_Ionization_Penalty_Neutral>
4.28847e-05

> <r_epik_State_Penalty>
-0

> <r_epik_Charging_Adjusted_Penalty>
0

> <i_epik_Tot_Q>
0

> <i_epik_Tot_abs_Q>
0

> <r_epik_Metal_State_Penalty>
-0

> <b_epik_Metal_Only>
0

> <s_lp_Force_Field>
OPLS_2005

> <r_lp_Energy>
14.602

> <b_lp_Chiralities_Consistent>
1

> <s_lp_Variant>
AV-unprocessed.smi:2611-1

> <Gold.Version>
5.8.1

> <Gold.Id.Protein>
6NUR|6NUR_protein|mol2

> <Gold.PLP.Fitness>
35.4322

> <Gold.PLP.PLP>
-30.9022

> <Gold.PLP.part.hbond>
-2.0000

> <Gold.PLP.part.metal>
0.0000

> <Gold.PLP.part.buried>
0.7642

> <Gold.PLP.part.nonpolar>
-29.9117

> <Gold.PLP.part.repulsive>
0.4782

> <Gold.PLP.ligand.clash>
0.0000

> <Gold.PLP.ligand.torsion>
0.7987

> <Gold.PLP.Chemscore.Hbond>
2.0000

> <Gold.PLP.Chemscore.CHOScore>
0.0000

> <Gold.PLP.Chemscore.Metal>
0.0000

> <Gold.Chemscore.Hbonds>
donor molecule, donor type, donor heavy atom, donor atom, acceptor molecule, acceptor atom, score
      P1  H  6934  6947       L1    12  0.95
      P1  H  7997  8009       L1     5  1.00

> <Gold.PLP.Chemscore.Internal.Correction>
0.1274

> <Gold.Rescore>
     Score         DG    S(hbond)    S(metal)    S(lipo)     H(rot)  DE(clash)    DE(int)     intcor
     13.69     -15.30       1.49        0.00      78.96       1.72       0.67       0.93       ----

> <Gold.Chemscore.Fitness>
13.6871

> <Gold.Chemscore.DG>
-15.2966

> <Gold.Chemscore.ZeroCoef>
-5.4800

> <Gold.Chemscore.Hbond>
1.4910

> <Gold.Chemscore.Metal>
0.0000

> <Gold.Chemscore.Lipo>
78.9594

> <Gold.Chemscore.Internal_Hbond>
0.0000

> <Gold.Chemscore.DEClash>
0.6749

> <Gold.Chemscore.DEInternal>
0.9346

> <Gold.Chemscore.Rot>
1.7193

> <Gold.Chemscore.Internal.Correction>
   9.000000E+99

> <Gold.Chemscore.Hbonds>
donor molecule, donor type, donor heavy atom, donor atom, acceptor molecule, acceptor atom, score
      P1  H  6934  6947       L1    12  0.20
      P1  H  7997  8009       L1     5  0.73

> <Gold.Chemscore.Hbond.Weighted>
-4.9799

> <Gold.Chemscore.Metal.Weighted>
-0.0000

> <Gold.Chemscore.Lipo.Weighted>
-9.2382

> <Gold.Chemscore.Internal_Hbond.Weighted>
0.0000

> <Gold.Chemscore.DEClash.Weighted>
0.6749

> <Gold.Chemscore.DEInternal.Weighted>
0.9346

> <Gold.Chemscore.Rot.Weighted>
4.4015

> <Gold.Chemscore.Internal.Correction.Weighted>
   9.000000E+99

> <Gold.Protein.RotatedTorsions>
[ 6907 6896 6895 6894 ] final -129.90 input  -60.11 | X-H torsion
[ 7974 7965 7964 7962 ] final -138.15 input  175.53 | X-H torsion
[ 8008 7997 7996 7995 ] final  173.45 input   59.86 | X-H torsion
[ 10167 10162 10161 10158 ] final  -11.26 input  -65.29 | X-H torsion
[ 10718 10713 10712 10709 ] final  -88.17 input   66.30 | X-H torsion
[ 10763 10752 10751 10750 ] final   20.66 input  -60.55 | X-H torsion
[ 11005 11000 10999 10996 ] final   87.17 input  -57.11 | X-H torsion

> <Gold.Protein.ActiveResidues>
 VAL166  LYS551  ARG553  GLY616  TRP617  ASP618  TYR619  PRO620  LYS621  CYS622 
 ASP623  PHE694  ASN695  SER759  ASP760  ASP761  ALA762  ILE779  LEU786  VAL792 
 PHE793  MET794  SER795  GLU796  ALA797  LYS798  CYS799  TRP800  GLU811  SER814 

> <Gold.Protein.RotatedAtoms>
  150.9337  133.6736  159.2804 H   0  0  0  0  0  0  0  0  0  0  0  0  # atno 6907 bound_to 6896
  151.4149  135.0989  159.9606 H   0  0  0  0  0  0  0  0  0  0  0  0  # atno 6908 bound_to 6896
  152.5038  133.8802  159.7397 H   0  0  0  0  0  0  0  0  0  0  0  0  # atno 6909 bound_to 6896
  144.8782  140.6468  143.5223 H   0  0  0  0  0  0  0  0  0  0  0  0  # atno 7974 bound_to 7965
  156.1074  140.1460  156.9385 H   0  0  0  0  0  0  0  0  0  0  0  0  # atno 8008 bound_to 7997
  154.4743  140.0899  156.7267 H   0  0  0  0  0  0  0  0  0  0  0  0  # atno 8009 bound_to 7997
  155.4656  140.3440  155.4321 H   0  0  0  0  0  0  0  0  0  0  0  0  # atno 8010 bound_to 7997
  140.7134  143.5659  150.9145 H   0  0  0  0  0  0  0  0  0  0  0  0  # atno 10167 bound_to 10162
  155.9984  130.4826  150.4978 H   0  0  0  0  0  0  0  0  0  0  0  0  # atno 10718 bound_to 10713
  153.1059  135.6684  153.9587 H   0  0  0  0  0  0  0  0  0  0  0  0  # atno 10763 bound_to 10752
  153.9145  135.3021  155.3449 H   0  0  0  0  0  0  0  0  0  0  0  0  # atno 10764 bound_to 10752
  154.7480  135.5048  153.9315 H   0  0  0  0  0  0  0  0  0  0  0  0  # atno 10765 bound_to 10752
  139.8926  134.8404  156.2823 H   0  0  0  0  0  0  0  0  0  0  0  0  # atno 11005 bound_to 11000
  145.4003  139.1599  143.4181 LP  0  0  0  0  0  0  0  0  0  0  0  0  # atno 17320 bound_to 7965
  146.2977  140.4099  142.8715 LP  0  0  0  0  0  0  0  0  0  0  0  0  # atno 17321 bound_to 7965
  139.9384  143.6410  152.3059 LP  0  0  0  0  0  0  0  0  0  0  0  0  # atno 17342 bound_to 10162
  139.6886  144.7649  151.1479 LP  0  0  0  0  0  0  0  0  0  0  0  0  # atno 17343 bound_to 10162
  157.2966  131.0637  151.2097 LP  0  0  0  0  0  0  0  0  0  0  0  0  # atno 17370 bound_to 10713
  157.3091  130.6881  149.6206 LP  0  0  0  0  0  0  0  0  0  0  0  0  # atno 17371 bound_to 10713
  141.0031  133.7140  156.0991 LP  0  0  0  0  0  0  0  0  0  0  0  0  # atno 17394 bound_to 11000
  140.7471  134.4086  157.5547 LP  0  0  0  0  0  0  0  0  0  0  0  0  # atno 17395 bound_to 11000

$$$$
