AV-unprocessed.smi:1112|AV-procd|sdf|4796|dock6
  -GOLD-   22720 3343D 1   1.00000     0.00000
 Structure written by MMmdl.
 49 51  0  0  0  0  0  0  0  0  1 V2000
  151.3457  138.7175  157.7652 O   0  0  0  0  0  0  0  0  0  0  0  0
  150.9266  139.8735  157.8165 C   0  0  0  0  0  0  0  0  0  0  0  0
  149.8961  140.3246  157.0869 N   0  0  0  0  0  0  0  0  0  0  0  0
  149.0886  139.5328  156.1597 C   0  0  0  0  0  0  0  0  0  0  0  0
  149.3897  139.8548  154.6709 C   0  0  0  0  0  0  0  0  0  0  0  0
  150.7244  139.4462  154.4363 O   0  0  0  0  0  0  0  0  0  0  0  0
  148.5088  139.0092  153.7194 C   0  0  0  0  0  0  0  0  0  0  0  0
  147.0466  139.4930  153.6720 C   0  0  0  0  0  0  0  0  0  0  0  0
  146.9573  140.9880  153.3280 C   0  0  0  0  0  0  0  0  0  0  0  0
  147.8111  141.8338  154.2846 C   0  0  0  0  0  0  0  0  0  0  0  0
  149.2719  141.3526  154.2928 C   0  0  0  0  0  0  0  0  0  0  0  0
  151.4354  140.8488  158.5879 N   0  0  0  0  0  0  0  0  0  0  0  0
  152.5155  140.7796  159.5151 C   0  0  0  0  0  0  0  0  0  0  0  0
  153.2207  139.5823  159.7913 C   0  0  0  0  0  0  0  0  0  0  0  0
  154.2603  139.6005  160.7391 C   0  0  0  0  0  0  0  0  0  0  0  0
  154.5540  140.8136  161.3865 C   0  0  0  0  0  0  0  0  0  0  0  0
  153.8833  141.9585  161.1471 N   0  0  0  0  0  0  0  0  0  0  0  0
  152.8814  141.9472  160.2337 C   0  0  0  0  0  0  0  0  0  0  0  0
  152.1953  143.1536  160.0052 N   0  0  0  0  0  0  0  0  0  0  0  0
  152.3691  143.7339  158.6840 C   0  0  0  0  0  0  0  0  0  0  0  0
  151.8643  145.1738  158.8032 C   0  0  0  0  0  0  0  0  0  0  0  0
  151.9494  145.4985  160.2997 C   0  0  0  0  0  0  0  0  0  0  0  0
  152.4794  144.2188  160.9523 C   0  0  0  0  0  0  0  0  0  0  0  0
  149.6296  141.2923  157.1947 H   0  0  0  0  0  0  0  0  0  0  0  0
  149.2760  138.4773  156.3616 H   0  0  0  0  0  0  0  0  0  0  0  0
  148.0299  139.6821  156.3705 H   0  0  0  0  0  0  0  0  0  0  0  0
  150.7101  138.5887  154.0393 H   0  0  0  0  0  0  0  0  0  0  0  0
  148.9153  139.0572  152.7077 H   0  0  0  0  0  0  0  0  0  0  0  0
  148.5404  137.9571  154.0061 H   0  0  0  0  0  0  0  0  0  0  0  0
  146.4917  138.9134  152.9341 H   0  0  0  0  0  0  0  0  0  0  0  0
  146.5573  139.3084  154.6280 H   0  0  0  0  0  0  0  0  0  0  0  0
  147.2941  141.1474  152.3029 H   0  0  0  0  0  0  0  0  0  0  0  0
  145.9185  141.3170  153.3661 H   0  0  0  0  0  0  0  0  0  0  0  0
  147.7690  142.8823  153.9888 H   0  0  0  0  0  0  0  0  0  0  0  0
  147.3946  141.7829  155.2905 H   0  0  0  0  0  0  0  0  0  0  0  0
  149.8696  141.9794  154.9548 H   0  0  0  0  0  0  0  0  0  0  0  0
  149.6872  141.5061  153.2954 H   0  0  0  0  0  0  0  0  0  0  0  0
  151.0461  141.7704  158.4518 H   0  0  0  0  0  0  0  0  0  0  0  0
  152.9765  138.6488  159.3086 H   0  0  0  0  0  0  0  0  0  0  0  0
  154.8159  138.7034  160.9690 H   0  0  0  0  0  0  0  0  0  0  0  0
  155.3432  140.8647  162.1220 H   0  0  0  0  0  0  0  0  0  0  0  0
  153.4214  143.7296  158.3966 H   0  0  0  0  0  0  0  0  0  0  0  0
  151.8120  143.1736  157.9326 H   0  0  0  0  0  0  0  0  0  0  0  0
  152.4560  145.8585  158.1947 H   0  0  0  0  0  0  0  0  0  0  0  0
  150.8288  145.2405  158.4677 H   0  0  0  0  0  0  0  0  0  0  0  0
  152.6007  146.3492  160.5024 H   0  0  0  0  0  0  0  0  0  0  0  0
  150.9581  145.7395  160.6850 H   0  0  0  0  0  0  0  0  0  0  0  0
  151.9984  144.0288  161.9123 H   0  0  0  0  0  0  0  0  0  0  0  0
  153.5536  144.3024  161.1243 H   0  0  0  0  0  0  0  0  0  0  0  0
  1  2  2  0  0  0  0
  2  3  1  0  0  0  0
  2 12  1  0  0  0  0
  3  4  1  0  0  0  0
  3 24  1  0  0  0  0
  4  5  1  0  0  0  0
  4 25  1  0  0  0  0
  4 26  1  0  0  0  0
  5 11  1  0  0  0  0
  5  6  1  0  0  0  0
  5  7  1  0  0  0  0
  6 27  1  0  0  0  0
  7  8  1  0  0  0  0
  7 28  1  0  0  0  0
  7 29  1  0  0  0  0
  8  9  1  0  0  0  0
  8 30  1  0  0  0  0
  8 31  1  0  0  0  0
  9 10  1  0  0  0  0
  9 32  1  0  0  0  0
  9 33  1  0  0  0  0
 10 11  1  0  0  0  0
 10 34  1  0  0  0  0
 10 35  1  0  0  0  0
 11 36  1  0  0  0  0
 11 37  1  0  0  0  0
 12 13  1  0  0  0  0
 12 38  1  0  0  0  0
 13 18  1  0  0  0  0
 13 14  2  0  0  0  0
 14 15  1  0  0  0  0
 14 39  1  0  0  0  0
 15 16  2  0  0  0  0
 15 40  1  0  0  0  0
 16 17  1  0  0  0  0
 16 41  1  0  0  0  0
 17 18  2  0  0  0  0
 18 19  1  0  0  0  0
 19 23  1  0  0  0  0
 19 20  1  0  0  0  0
 20 21  1  0  0  0  0
 20 42  1  0  0  0  0
 20 43  1  0  0  0  0
 21 22  1  0  0  0  0
 21 44  1  0  0  0  0
 21 45  1  0  0  0  0
 22 23  1  0  0  0  0
 22 46  1  0  0  0  0
 22 47  1  0  0  0  0
 23 48  1  0  0  0  0
 23 49  1  0  0  0  0
M  END
> <s_m_source_file>
AV-unprocessed.smi

> <i_m_source_file_index>
1112

> <i_lp_mmshare_version>
43012

> <i_f3d_flags>
0

> <s_epik_input>
W0NIMl0xW0NIMl1bQ0gyXVtDSDJdW0NIMl1DMShbT0hdKVtDSDJdW05IXUMoPU8pW05IXWMyW2NIXVtjSF1bY0hdbmMyTjNbQ0gyXVtDSDJdW0NIMl1bQ0gyXTM=

> <s_epik_cmdline>
J2VwaWtfcHl0aG9uJywgJy1waCcsICc3LjAnLCAnLXRuJywgJzgnLCAnLW1hJywgJzIwMCcsICctbWV0YWxfYmluZGluZycsICctaW1hZScsICc8aW5maWxlLm1hZT4nLCAnLW9tYWUnLCAnPG91dGZpbGUubWFlPic=

> <r_lp_tautomer_probability>
1

> <r_epik_Ionization_Penalty>
0.100401

> <r_epik_Ionization_Penalty_Charging>
0

> <r_epik_Ionization_Penalty_Neutral>
0.100401

> <r_epik_State_Penalty>
0.0898606

> <r_epik_Charging_Adjusted_Penalty>
0.0898606

> <i_epik_Tot_Q>
0

> <i_epik_Tot_abs_Q>
0

> <r_epik_Metal_State_Penalty>
0.0767935

> <b_epik_Metal_Only>
0

> <s_lp_Force_Field>
OPLS_2005

> <r_lp_Energy>
45.6108

> <b_lp_Chiralities_Consistent>
1

> <s_lp_Variant>
AV-unprocessed.smi:1112-1

> <Gold.Version>
5.8.1

> <Gold.Id.Protein>
6NUR|6NUR_protein|mol2

> <Gold.PLP.Fitness>
48.2069

> <Gold.PLP.PLP>
-45.6529

> <Gold.PLP.part.hbond>
-1.1418

> <Gold.PLP.part.metal>
0.0000

> <Gold.PLP.part.buried>
-4.1867

> <Gold.PLP.part.nonpolar>
-40.1723

> <Gold.PLP.part.repulsive>
0.1784

> <Gold.PLP.ligand.clash>
0.0000

> <Gold.PLP.ligand.torsion>
0.2388

> <Gold.PLP.Chemscore.Hbond>
1.0000

> <Gold.PLP.Chemscore.CHOScore>
0.0000

> <Gold.PLP.Chemscore.Metal>
0.0000

> <Gold.Chemscore.Hbonds>
donor molecule, donor type, donor heavy atom, donor atom, acceptor molecule, acceptor atom, score
      P1  H  7989  7998       L1     6  1.00

> <Gold.PLP.Chemscore.Internal.Correction>
0.0316

> <Gold.Rescore>
     Score         DG    S(hbond)    S(metal)    S(lipo)     H(rot)  DE(clash)    DE(int)     intcor
     15.18     -17.91       0.95        0.00     120.46       1.89       0.18       2.55       ----

> <Gold.Chemscore.Fitness>
15.1770

> <Gold.Chemscore.DG>
-17.9066

> <Gold.Chemscore.ZeroCoef>
-5.4800

> <Gold.Chemscore.Hbond>
0.9468

> <Gold.Chemscore.Metal>
0.0000

> <Gold.Chemscore.Lipo>
120.4626

> <Gold.Chemscore.Internal_Hbond>
0.0000

> <Gold.Chemscore.DEClash>
0.1841

> <Gold.Chemscore.DEInternal>
2.5455

> <Gold.Chemscore.Rot>
1.8866

> <Gold.Chemscore.Internal.Correction>
   9.000000E+99

> <Gold.Chemscore.Hbonds>
donor molecule, donor type, donor heavy atom, donor atom, acceptor molecule, acceptor atom, score
      P1  H  7989  7998       L1     6  0.61

> <Gold.Chemscore.Hbond.Weighted>
-3.1622

> <Gold.Chemscore.Metal.Weighted>
-0.0000

> <Gold.Chemscore.Lipo.Weighted>
-14.0941

> <Gold.Chemscore.Internal_Hbond.Weighted>
0.0000

> <Gold.Chemscore.DEClash.Weighted>
0.1841

> <Gold.Chemscore.DEInternal.Weighted>
2.5455

> <Gold.Chemscore.Rot.Weighted>
4.8297

> <Gold.Chemscore.Internal.Correction.Weighted>
   9.000000E+99

> <Gold.Protein.RotatedTorsions>
[ 6907 6896 6895 6894 ] final  116.00 input  -60.11 | X-H torsion
[ 7974 7965 7964 7962 ] final -143.82 input  175.53 | X-H torsion
[ 8008 7997 7996 7995 ] final   59.86 input   59.86 | X-H torsion
[ 10167 10162 10161 10158 ] final  122.60 input  -65.29 | X-H torsion
[ 10718 10713 10712 10709 ] final  135.68 input   66.30 | X-H torsion
[ 10763 10752 10751 10750 ] final  178.10 input  -60.55 | X-H torsion
[ 11005 11000 10999 10996 ] final  -31.45 input  -57.11 | X-H torsion

> <Gold.Protein.ActiveResidues>
 VAL166  LYS551  ARG553  GLY616  TRP617  ASP618  TYR619  PRO620  LYS621  CYS622 
 ASP623  PHE694  ASN695  SER759  ASP760  ASP761  ALA762  ILE779  LEU786  VAL792 
 PHE793  MET794  SER795  GLU796  ALA797  LYS798  CYS799  TRP800  GLU811  SER814 

> <Gold.Protein.RotatedAtoms>
  152.4706  133.8020  159.6957 H   0  0  0  0  0  0  0  0  0  0  0  0  # atno 6907 bound_to 6896
  150.8693  133.7519  159.2973 H   0  0  0  0  0  0  0  0  0  0  0  0  # atno 6908 bound_to 6896
  151.5060  135.1067  159.9893 H   0  0  0  0  0  0  0  0  0  0  0  0  # atno 6909 bound_to 6896
  144.8341  140.5787  143.5495 H   0  0  0  0  0  0  0  0  0  0  0  0  # atno 7974 bound_to 7965
  155.5730  140.3490  155.4520 H   0  0  0  0  0  0  0  0  0  0  0  0  # atno 8008 bound_to 7997
  156.0430  140.1300  157.0160 H   0  0  0  0  0  0  0  0  0  0  0  0  # atno 8009 bound_to 7997
  154.4400  140.1020  156.6250 H   0  0  0  0  0  0  0  0  0  0  0  0  # atno 8010 bound_to 7997
  139.5849  144.7002  151.3434 H   0  0  0  0  0  0  0  0  0  0  0  0  # atno 10167 bound_to 10162
  157.4545  131.1068  150.9994 H   0  0  0  0  0  0  0  0  0  0  0  0  # atno 10718 bound_to 10713
  154.5032  135.2784  155.1403 H   0  0  0  0  0  0  0  0  0  0  0  0  # atno 10763 bound_to 10752
  154.3028  135.6244  153.5436 H   0  0  0  0  0  0  0  0  0  0  0  0  # atno 10764 bound_to 10752
  152.9906  135.5701  154.5480 H   0  0  0  0  0  0  0  0  0  0  0  0  # atno 10765 bound_to 10752
  140.9469  133.7245  156.1160 H   0  0  0  0  0  0  0  0  0  0  0  0  # atno 11005 bound_to 11000
  145.4831  139.1494  143.3751 LP  0  0  0  0  0  0  0  0  0  0  0  0  # atno 17320 bound_to 7965
  146.2642  140.4968  142.8841 LP  0  0  0  0  0  0  0  0  0  0  0  0  # atno 17321 bound_to 7965
  140.7122  143.7360  150.7588 LP  0  0  0  0  0  0  0  0  0  0  0  0  # atno 17342 bound_to 10162
  140.0902  143.4885  152.2483 LP  0  0  0  0  0  0  0  0  0  0  0  0  # atno 17343 bound_to 10162
  157.0812  130.5904  149.5421 LP  0  0  0  0  0  0  0  0  0  0  0  0  # atno 17370 bound_to 10713
  156.0001  130.5078  150.7631 LP  0  0  0  0  0  0  0  0  0  0  0  0  # atno 17371 bound_to 10713
  140.7657  134.3889  157.5517 LP  0  0  0  0  0  0  0  0  0  0  0  0  # atno 17394 bound_to 11000
  139.8836  134.8990  156.2757 LP  0  0  0  0  0  0  0  0  0  0  0  0  # atno 17395 bound_to 11000

$$$$
