#       Name:                AV-unprocessed.smi:2671
#       Creating user name   scv26
#       Creation time:       Fri Mar 27 14:37:54 2020


#       File generated by GOLD software.
#

@<TRIPOS>MOLECULE
AV-unprocessed.smi:2671
    35    36     1
SMALL
NO_CHARGES


@<TRIPOS>ATOM
      1 ****        -3.7203  -1.9359   0.5555 O.3            1 S1                 0.0000
      2 ****        -3.1655  -0.7063   0.7549 C.ar           1 S1                 0.0000
      3 ****        -3.8830   0.2788   1.4647 C.ar           1 S1                 0.0000
      4 ****        -3.2438   1.5289   1.6324 C.ar           1 S1                 0.0000
      5 ****        -3.9014   2.6800   2.3781 C.3            1 S1                 0.0000
      6 ****        -4.0112   3.7351   1.5705 F              1 S1                 0.0000
      7 ****        -5.1191   2.3508   2.8115 F              1 S1                 0.0000
      8 ****        -3.1555   3.0178   3.4298 F              1 S1                 0.0000
      9 ****        -2.0072   1.7606   1.1352 N.ar           1 S1                 0.0000
     10 ****        -1.4250   0.7542   0.4819 C.ar           1 S1                 0.0000
     11 ****         0.2034   1.1102  -0.1582 S.3            1 S1                 0.0000
     12 ****         0.7235  -0.4862  -0.8579 C.3            1 S1                 0.0000
     13 ****         2.1358  -0.4130  -1.4535 C.3            1 S1                 0.0000
     14 ****         3.2525  -0.2099  -0.4280 C.3            1 S1                 0.0000
     15 ****         4.4667  -0.8555  -1.0799 C.3            1 S1                 0.0000
     16 ****         3.8891  -1.6282  -2.2687 C.3            1 S1                 0.0000
     17 ****         2.4873  -1.6538  -2.0431 O.3            1 S1                 0.0000
     18 ****        -1.9319  -0.4621   0.2634 N.ar           1 S1                 0.0000
     19 ****        -4.5818  -2.0190   0.9337 H              1 S1                 0.0000
     20 ****        -4.8696   0.0828   1.8578 H              1 S1                 0.0000
     21 ****         0.6801  -1.2545  -0.0852 H              1 S1                 0.0000
     22 ****         0.0172  -0.7722  -1.6377 H              1 S1                 0.0000
     23 ****         2.1837   0.3616  -2.2213 H              1 S1                 0.0000
     24 ****         3.4113   0.8415  -0.1865 H              1 S1                 0.0000
     25 ****         3.0166  -0.7339   0.4993 H              1 S1                 0.0000
     26 ****         5.1900  -0.1116  -1.4154 H              1 S1                 0.0000
     27 ****         4.9704  -1.5211  -0.3781 H              1 S1                 0.0000
     28 ****         4.0915  -1.1022  -3.2027 H              1 S1                 0.0000
     29 ****         4.2948  -2.6367  -2.3518 H              1 S1                 0.0000
     30 ****        -3.1239  -2.6249   0.9674 LP             1 S1                 0.0000
     31 ****        -3.7876  -2.0990  -0.4288 LP             1 S1                 0.0000
     32 ****        -1.5519   2.6433   1.2518 LP             1 S1                 0.0000
     33 ****         2.0027  -1.7709  -2.9100 LP             1 S1                 0.0000
     34 ****         2.2531  -2.4051  -1.4261 LP             1 S1                 0.0000
     35 ****        -1.4217  -1.1591  -0.2405 LP             1 S1                 0.0000
@<TRIPOS>BOND
    1    1    2 1     
    2    1   19 1     
    3    2   18 ar    
    4    2    3 ar    
    5    3    4 ar    
    6    3   20 1     
    7    4    5 1     
    8    4    9 ar    
    9    5    6 1     
   10    5    7 1     
   11    5    8 1     
   12    9   10 ar    
   13   10   11 1     
   14   10   18 ar    
   15   11   12 1     
   16   12   13 1     
   17   12   21 1     
   18   12   22 1     
   19   13   17 1     
   20   13   14 1     
   21   13   23 1     
   22   14   15 1     
   23   14   24 1     
   24   14   25 1     
   25   15   16 1     
   26   15   26 1     
   27   15   27 1     
   28   16   17 1     
   29   16   28 1     
   30   16   29 1     
   31    1   30 1     
   32    1   31 1     
   33    9   32 1     
   34   17   33 1     
   35   17   34 1     
   36   18   35 1     
@<TRIPOS>SUBSTRUCTURE
      1 S1             1
@<TRIPOS>SET
LONE_PAIRS      STATIC     ATOMS    <user>   **** ""
6 30 31 32 33 34 35
DONOR_HYDROGENS      STATIC     ATOMS    <user>   **** ""
1 19
ATOM$BLUE        STATIC     ATOMS    COLORGROUP SYSTEM
6 30 31 32 33 34 35
ATOM$RED        STATIC     ATOMS    COLORGROUP SYSTEM
1 19
