AV-unprocessed.smi:1403|AV-procd|sdf|5702|dock4
  -GOLD-   22720 5333D 1   1.00000     0.00000
 Structure written by MMmdl.
 35 36  0  0  0  0  0  0  0  0  2 V2000
  147.4564  133.1140  158.9368 C   0  0  0  0  0  0  0  0  0  0  0  0
  148.0382  134.4752  159.3532 C   0  0  1  0  0  0  0  0  0  0  0  0
  148.0098  135.3958  158.2194 N   0  0  0  0  0  0  0  0  0  0  0  0
  149.0413  136.1407  157.7940 C   0  0  0  0  0  0  0  0  0  0  0  0
  150.1453  136.1428  158.3399 O   0  0  0  0  0  0  0  0  0  0  0  0
  148.7691  137.0401  156.5812 C   0  0  0  0  0  0  0  0  0  0  0  0
  149.9649  137.7754  156.1401 N   0  0  0  0  0  0  0  0  0  0  0  0
  150.3598  137.6403  154.7974 C   0  0  0  0  0  0  0  0  0  0  0  0
  151.4398  138.2782  154.3070 C   0  0  0  0  0  0  0  0  0  0  0  0
  152.2086  139.1273  155.2085 C   0  0  0  0  0  0  0  0  0  0  0  0
  153.2016  139.7121  154.7797 O   0  0  0  0  0  0  0  0  0  0  0  0
  151.7813  139.2312  156.5010 N   0  5  0  0  0  0  0  0  0  0  0  0
  150.6795  138.5783  156.9855 C   0  0  0  0  0  0  0  0  0  0  0  0
  150.3105  138.6869  158.1556 O   0  0  0  0  0  0  0  0  0  0  0  0
  147.2690  135.0867  160.5396 C   0  0  2  0  0  0  0  0  0  0  0  0
  147.9475  136.2955  161.1906 C   0  0  0  0  0  0  0  0  0  0  0  0
  147.4553  136.2617  162.6303 C   0  0  0  0  0  0  0  0  0  0  0  0
  146.7699  134.8996  162.7611 C   0  0  0  0  0  0  0  0  0  0  0  0
  147.1931  134.1693  161.6197 O   0  0  0  0  0  0  0  0  0  0  0  0
  147.4838  132.4044  159.7640 H   0  0  0  0  0  0  0  0  0  0  0  0
  148.0225  132.6764  158.1139 H   0  0  0  0  0  0  0  0  0  0  0  0
  146.4193  133.2079  158.6132 H   0  0  0  0  0  0  0  0  0  0  0  0
  149.0746  134.3290  159.6636 H   0  0  0  0  0  0  0  0  0  0  0  0
  147.1411  135.4609  157.7090 H   0  0  0  0  0  0  0  0  0  0  0  0
  148.3697  136.4465  155.7567 H   0  0  0  0  0  0  0  0  0  0  0  0
  147.9705  137.7338  156.8472 H   0  0  0  0  0  0  0  0  0  0  0  0
  149.7333  136.9985  154.1958 H   0  0  0  0  0  0  0  0  0  0  0  0
  151.7284  138.1664  153.2722 H   0  0  0  0  0  0  0  0  0  0  0  0
  146.2550  135.3552  160.2362 H   0  0  0  0  0  0  0  0  0  0  0  0
  149.0317  136.1753  161.1748 H   0  0  0  0  0  0  0  0  0  0  0  0
  147.7079  137.2309  160.6841 H   0  0  0  0  0  0  0  0  0  0  0  0
  148.2930  136.3533  163.3224 H   0  0  0  0  0  0  0  0  0  0  0  0
  146.7556  137.0713  162.8407 H   0  0  0  0  0  0  0  0  0  0  0  0
  147.0346  134.3825  163.6837 H   0  0  0  0  0  0  0  0  0  0  0  0
  145.6849  135.0113  162.7322 H   0  0  0  0  0  0  0  0  0  0  0  0
  1  2  1  0  0  0  0
  1 20  1  0  0  0  0
  1 21  1  0  0  0  0
  1 22  1  0  0  0  0
  2  3  1  0  0  0  0
  2 15  1  0  0  0  0
  2 23  1  0  0  0  0
  3  4  1  0  0  0  0
  3 24  1  0  0  0  0
  4  5  2  0  0  0  0
  4  6  1  0  0  0  0
  6  7  1  0  0  0  0
  6 25  1  0  0  0  0
  6 26  1  0  0  0  0
  7 13  1  0  0  0  0
  7  8  1  0  0  0  0
  8  9  2  0  0  0  0
  8 27  1  0  0  0  0
  9 10  1  0  0  0  0
  9 28  1  0  0  0  0
 10 11  2  0  0  0  0
 10 12  1  0  0  0  0
 12 13  1  0  0  0  0
 13 14  2  0  0  0  0
 15 19  1  0  0  0  0
 15 16  1  0  0  0  0
 15 29  1  0  0  0  0
 16 17  1  0  0  0  0
 16 30  1  0  0  0  0
 16 31  1  0  0  0  0
 17 18  1  0  0  0  0
 17 32  1  0  0  0  0
 17 33  1  0  0  0  0
 18 19  1  0  0  0  0
 18 34  1  0  0  0  0
 18 35  1  0  0  0  0
M  CHG  1  12  -1
M  END
> <s_m_source_file>
AV-unprocessed.smi

> <i_m_source_file_index>
1403

> <i_lp_mmshare_version>
43012

> <i_f3d_flags>
0

> <s_epik_input>
TzFbQ0gyXVtDSDJdW0NIMl1bQ0BIXTFbQ0BIXShbQ0gzXSlbTkhdQyg9TylbQ0gyXW4yW2NIXVtjSF1jKD1PKVtuSF1jMj1P

> <s_epik_cmdline>
J2VwaWtfcHl0aG9uJywgJy1waCcsICc3LjAnLCAnLXRuJywgJzgnLCAnLW1hJywgJzIwMCcsICctbWV0YWxfYmluZGluZycsICctaW1hZScsICc8aW5maWxlLm1hZT4nLCAnLW9tYWUnLCAnPG91dGZpbGUubWFlPic=

> <r_lp_tautomer_probability>
0.999537

> <r_epik_Ionization_Penalty>
3.07438

> <r_epik_Ionization_Penalty_Charging>
2.82466e-08

> <r_epik_Ionization_Penalty_Neutral>
3.07438

> <r_epik_State_Penalty>
3.07341

> <r_epik_Charging_Adjusted_Penalty>
3.07341

> <i_epik_Tot_Q>
-1

> <i_epik_Tot_abs_Q>
1

> <r_epik_Metal_State_Penalty>
0.45947

> <b_epik_Metal_Only>
1

> <s_lp_Force_Field>
OPLS_2005

> <r_lp_Energy>
26.8934

> <b_lp_Chiralities_Consistent>
1

> <s_lp_Variant>
AV-unprocessed.smi:1403-6

> <Gold.Version>
5.8.1

> <Gold.Id.Protein>
6NUR|6NUR_protein|mol2

> <Gold.PLP.Fitness>
37.9460

> <Gold.PLP.PLP>
-29.4039

> <Gold.PLP.part.hbond>
-3.0000

> <Gold.PLP.part.metal>
0.0000

> <Gold.PLP.part.buried>
-4.7130

> <Gold.PLP.part.nonpolar>
-21.3504

> <Gold.PLP.part.repulsive>
0.0735

> <Gold.PLP.ligand.clash>
0.0000

> <Gold.PLP.ligand.torsion>
0.2441

> <Gold.PLP.Chemscore.Hbond>
1.9982

> <Gold.PLP.Chemscore.CHOScore>
1.0000

> <Gold.PLP.Chemscore.Metal>
0.0000

> <Gold.Chemscore.Hbonds>
donor molecule, donor type, donor heavy atom, donor atom, acceptor molecule, acceptor atom, score
      P1  H  6896  6908       L1     5  0.98
      P1  H  7989  7998       L1    11  0.03
      P1  H  7997  8009       L1    11  1.00
      L1  C     8    27       P1  7948  0.96

> <Gold.PLP.Chemscore.Internal.Correction>
0.0356

> <Gold.Rescore>
     Score         DG    S(hbond)    S(metal)    S(lipo)     H(rot)  DE(clash)    DE(int)     intcor
     13.40     -13.80       1.99        0.00      57.85       1.99       0.05       0.35       ----

> <Gold.Chemscore.Fitness>
13.4037

> <Gold.Chemscore.DG>
-13.8021

> <Gold.Chemscore.ZeroCoef>
-5.4800

> <Gold.Chemscore.Hbond>
1.9935

> <Gold.Chemscore.Metal>
0.0000

> <Gold.Chemscore.Lipo>
57.8511

> <Gold.Chemscore.Internal_Hbond>
0.0000

> <Gold.Chemscore.DEClash>
0.0515

> <Gold.Chemscore.DEInternal>
0.3469

> <Gold.Chemscore.Rot>
1.9940

> <Gold.Chemscore.Internal.Correction>
   9.000000E+99

> <Gold.Chemscore.Hbonds>
donor molecule, donor type, donor heavy atom, donor atom, acceptor molecule, acceptor atom, score
      P1  H  6896  6908       L1     5  0.91
      P1  H  7997  8009       L1    11  1.00

> <Gold.Chemscore.Hbond.Weighted>
-6.6582

> <Gold.Chemscore.Metal.Weighted>
-0.0000

> <Gold.Chemscore.Lipo.Weighted>
-6.7686

> <Gold.Chemscore.Internal_Hbond.Weighted>
0.0000

> <Gold.Chemscore.DEClash.Weighted>
0.0515

> <Gold.Chemscore.DEInternal.Weighted>
0.3469

> <Gold.Chemscore.Rot.Weighted>
5.1047

> <Gold.Chemscore.Internal.Correction.Weighted>
   9.000000E+99

> <Gold.Protein.RotatedTorsions>
[ 6907 6896 6895 6894 ] final -175.27 input  -60.11 | X-H torsion
[ 7974 7965 7964 7962 ] final    6.51 input  175.53 | X-H torsion
[ 8008 7997 7996 7995 ] final -122.66 input   59.86 | X-H torsion
[ 10167 10162 10161 10158 ] final  -85.05 input  -65.29 | X-H torsion
[ 10718 10713 10712 10709 ] final   39.69 input   66.30 | X-H torsion
[ 10763 10752 10751 10750 ] final -143.10 input  -60.55 | X-H torsion
[ 11005 11000 10999 10996 ] final   42.47 input  -57.11 | X-H torsion

> <Gold.Protein.ActiveResidues>
 VAL166  LYS551  ARG553  GLY616  TRP617  ASP618  TYR619  PRO620  LYS621  CYS622 
 ASP623  PHE694  ASN695  SER759  ASP760  ASP761  ALA762  ILE779  LEU786  VAL792 
 PHE793  MET794  SER795  GLU796  ALA797  LYS798  CYS799  TRP800  GLU811  SER814 

> <Gold.Protein.RotatedAtoms>
  151.5858  133.3372  159.3017 H   0  0  0  0  0  0  0  0  0  0  0  0  # atno 6907 bound_to 6896
  150.8288  134.7534  159.6847 H   0  0  0  0  0  0  0  0  0  0  0  0  # atno 6908 bound_to 6896
  152.4374  134.5665  159.9961 H   0  0  0  0  0  0  0  0  0  0  0  0  # atno 6909 bound_to 6896
  146.2434  140.0223  142.8397 H   0  0  0  0  0  0  0  0  0  0  0  0  # atno 7974 bound_to 7965
  155.1679  140.0407  157.2856 H   0  0  0  0  0  0  0  0  0  0  0  0  # atno 8008 bound_to 7997
  154.6290  140.2519  155.7429 H   0  0  0  0  0  0  0  0  0  0  0  0  # atno 8009 bound_to 7997
  156.2474  140.2879  156.0633 H   0  0  0  0  0  0  0  0  0  0  0  0  # atno 8010 bound_to 7997
  140.4074  143.2637  151.9062 H   0  0  0  0  0  0  0  0  0  0  0  0  # atno 10167 bound_to 10162
  157.3734  130.7714  149.7137 H   0  0  0  0  0  0  0  0  0  0  0  0  # atno 10718 bound_to 10713
  154.8483  135.3477  154.6134 H   0  0  0  0  0  0  0  0  0  0  0  0  # atno 10763 bound_to 10752
  153.6742  135.6983  153.5142 H   0  0  0  0  0  0  0  0  0  0  0  0  # atno 10764 bound_to 10752
  153.2718  135.4290  155.0951 H   0  0  0  0  0  0  0  0  0  0  0  0  # atno 10765 bound_to 10752
  140.1736  134.4191  155.8242 H   0  0  0  0  0  0  0  0  0  0  0  0  # atno 11005 bound_to 11000
  145.1230  140.9473  143.4589 LP  0  0  0  0  0  0  0  0  0  0  0  0  # atno 17320 bound_to 7965
  145.0463  139.3218  143.5951 LP  0  0  0  0  0  0  0  0  0  0  0  0  # atno 17321 bound_to 7965
  139.4783  144.5571  151.8296 LP  0  0  0  0  0  0  0  0  0  0  0  0  # atno 17342 bound_to 10162
  140.4674  144.1635  150.5913 LP  0  0  0  0  0  0  0  0  0  0  0  0  # atno 17343 bound_to 10162
  155.9760  130.4081  150.3808 LP  0  0  0  0  0  0  0  0  0  0  0  0  # atno 17370 bound_to 10713
  157.1902  131.0413  151.2704 LP  0  0  0  0  0  0  0  0  0  0  0  0  # atno 17371 bound_to 10713
  141.2219  133.6967  156.7807 LP  0  0  0  0  0  0  0  0  0  0  0  0  # atno 17394 bound_to 11000
  140.2349  134.8658  157.3514 LP  0  0  0  0  0  0  0  0  0  0  0  0  # atno 17395 bound_to 11000

$$$$
