AV-unprocessed.smi:767|AV-procd|sdf|3666|dock3
  -GOLD-   22720 1 73D 1   1.00000     0.00000
 Structure written by MMmdl.
 48 50  0  0  0  0  0  0  0  0  2 V2000
  145.8610  129.8406  151.6574 C   0  0  0  0  0  0  0  0  0  0  0  0
  145.6386  131.3154  151.3969 C   0  0  0  0  0  0  0  0  0  0  0  0
  144.3481  131.8810  151.3134 C   0  0  0  0  0  0  0  0  0  0  0  0
  144.2166  133.2630  151.0641 C   0  0  0  0  0  0  0  0  0  0  0  0
  145.3772  134.0513  150.9041 C   0  0  0  0  0  0  0  0  0  0  0  0
  145.2674  135.5368  150.6232 C   0  0  0  0  0  0  0  0  0  0  0  0
  145.0715  136.3523  151.9114 C   0  0  0  0  0  0  0  0  0  0  0  0
  146.3462  136.7624  152.4876 N   0  0  0  0  0  0  0  0  0  0  0  0
  146.4811  137.4715  153.6165 C   0  0  0  0  0  0  0  0  0  0  0  0
  145.5366  137.8469  154.3114 O   0  0  0  0  0  0  0  0  0  0  0  0
  147.7657  137.7304  153.8930 N   0  0  0  0  0  0  0  0  0  0  0  0
  148.2232  138.5019  155.0533 C   0  0  1  0  0  0  0  0  0  0  0  0
  149.7275  138.3616  155.3017 C   0  0  1  0  0  0  0  0  0  0  0  0
  150.7931  137.4144  154.8833 C   0  0  0  0  0  0  0  0  0  0  0  0
  151.8951  138.4731  154.6057 C   0  0  0  0  0  0  0  0  0  0  0  0
  151.2328  139.7630  154.6605 O   0  0  0  0  0  0  0  0  0  0  0  0
  149.8988  139.4760  154.2905 C   0  0  2  0  0  0  0  0  0  0  0  0
  148.5386  140.0256  154.7756 C   0  0  0  0  0  0  0  0  0  0  0  0
  147.6972  140.7318  153.7064 C   0  0  0  0  0  0  0  0  0  0  0  0
  148.5534  140.9722  155.9893 C   0  0  0  0  0  0  0  0  0  0  0  0
  146.6415  133.4315  150.9992 C   0  0  0  0  0  0  0  0  0  0  0  0
  146.7252  132.1045  151.2385 N   0  3  0  0  0  0  0  0  0  0  0  0
  144.9135  129.3179  151.7912 H   0  0  0  0  0  0  0  0  0  0  0  0
  146.4576  129.6994  152.5590 H   0  0  0  0  0  0  0  0  0  0  0  0
  146.3872  129.3818  150.8197 H   0  0  0  0  0  0  0  0  0  0  0  0
  143.4681  131.2665  151.4364 H   0  0  0  0  0  0  0  0  0  0  0  0
  143.2354  133.7098  150.9938 H   0  0  0  0  0  0  0  0  0  0  0  0
  146.1668  135.8637  150.0996 H   0  0  0  0  0  0  0  0  0  0  0  0
  144.4348  135.7092  149.9396 H   0  0  0  0  0  0  0  0  0  0  0  0
  144.4914  137.2510  151.6996 H   0  0  0  0  0  0  0  0  0  0  0  0
  144.4995  135.7794  152.6438 H   0  0  0  0  0  0  0  0  0  0  0  0
  147.1821  136.5007  151.9851 H   0  0  0  0  0  0  0  0  0  0  0  0
  148.4741  137.3828  153.2638 H   0  0  0  0  0  0  0  0  0  0  0  0
  147.6303  138.3396  155.9550 H   0  0  0  0  0  0  0  0  0  0  0  0
  149.9353  138.6842  156.3249 H   0  0  0  0  0  0  0  0  0  0  0  0
  151.0728  136.7142  155.6708 H   0  0  0  0  0  0  0  0  0  0  0  0
  150.5238  136.8576  153.9847 H   0  0  0  0  0  0  0  0  0  0  0  0
  152.6898  138.4394  155.3512 H   0  0  0  0  0  0  0  0  0  0  0  0
  152.3451  138.3178  153.6243 H   0  0  0  0  0  0  0  0  0  0  0  0
  149.8578  139.1429  153.2483 H   0  0  0  0  0  0  0  0  0  0  0  0
  148.0506  141.7469  153.5225 H   0  0  0  0  0  0  0  0  0  0  0  0
  146.6495  140.7952  154.0024 H   0  0  0  0  0  0  0  0  0  0  0  0
  147.7307  140.2113  152.7492 H   0  0  0  0  0  0  0  0  0  0  0  0
  149.0671  141.9050  155.7553 H   0  0  0  0  0  0  0  0  0  0  0  0
  149.0487  140.5524  156.8632 H   0  0  0  0  0  0  0  0  0  0  0  0
  147.5406  141.2282  156.3020 H   0  0  0  0  0  0  0  0  0  0  0  0
  147.5818  133.9516  150.8874 H   0  0  0  0  0  0  0  0  0  0  0  0
  147.6502  131.6786  151.3007 H   0  0  0  0  0  0  0  0  0  0  0  0
  1  2  1  0  0  0  0
  1 23  1  0  0  0  0
  1 24  1  0  0  0  0
  1 25  1  0  0  0  0
  2 22  1  0  0  0  0
  2  3  2  0  0  0  0
  3  4  1  0  0  0  0
  3 26  1  0  0  0  0
  4  5  2  0  0  0  0
  4 27  1  0  0  0  0
  5  6  1  0  0  0  0
  5 21  1  0  0  0  0
  6  7  1  0  0  0  0
  6 28  1  0  0  0  0
  6 29  1  0  0  0  0
  7  8  1  0  0  0  0
  7 30  1  0  0  0  0
  7 31  1  0  0  0  0
  8  9  1  0  0  0  0
  8 32  1  0  0  0  0
  9 10  2  0  0  0  0
  9 11  1  0  0  0  0
 11 12  1  0  0  0  0
 11 33  1  0  0  0  0
 12 18  1  0  0  0  0
 12 13  1  0  0  0  0
 12 34  1  0  0  0  0
 13 17  1  0  0  0  0
 13 14  1  0  0  0  0
 13 35  1  0  0  0  0
 14 15  1  0  0  0  0
 14 36  1  0  0  0  0
 14 37  1  0  0  0  0
 15 16  1  0  0  0  0
 15 38  1  0  0  0  0
 15 39  1  0  0  0  0
 16 17  1  0  0  0  0
 17 18  1  0  0  0  0
 17 40  1  0  0  0  0
 18 19  1  0  0  0  0
 18 20  1  0  0  0  0
 19 41  1  0  0  0  0
 19 42  1  0  0  0  0
 19 43  1  0  0  0  0
 20 44  1  0  0  0  0
 20 45  1  0  0  0  0
 20 46  1  0  0  0  0
 21 22  2  0  0  0  0
 21 47  1  0  0  0  0
 22 48  1  0  0  0  0
M  CHG  1  22   1
M  END
> <s_m_source_file>
AV-unprocessed.smi

> <i_m_source_file_index>
767

> <i_lp_mmshare_version>
43012

> <i_f3d_flags>
0

> <s_epik_input>
W0NIM11jMVtjSF1bY0hdYyhbY0hdbjEpW0NIMl1bQ0gyXVtOSF1DKD1PKVtOSF1bQ0BIXTJDKFtDSDNdKShbQ0gzXSlbQ0BIXShbQ0BASF0yMylPW0NIMl1bQ0gyXTM=

> <s_epik_cmdline>
J2VwaWtfcHl0aG9uJywgJy1waCcsICc3LjAnLCAnLXRuJywgJzgnLCAnLW1hJywgJzIwMCcsICctbWV0YWxfYmluZGluZycsICctaW1hZScsICc8aW5maWxlLm1hZT4nLCAnLW9tYWUnLCAnPG91dGZpbGUubWFlPic=

> <r_epik_Ionization_Penalty>
1.41853

> <r_epik_Ionization_Penalty_Charging>
1.41848

> <r_epik_Ionization_Penalty_Neutral>
5.17407e-05

> <r_epik_State_Penalty>
1.50205

> <r_epik_Charging_Adjusted_Penalty>
2.92053

> <i_epik_Tot_Q>
1

> <i_epik_Tot_abs_Q>
1

> <r_epik_Metal_State_Penalty>
1.5544

> <b_epik_Metal_Only>
0

> <s_lp_Force_Field>
OPLS_2005

> <r_lp_Energy>
64.9812

> <b_lp_Chiralities_Consistent>
1

> <s_lp_Variant>
AV-unprocessed.smi:767-10

> <Gold.Version>
5.8.1

> <Gold.Id.Protein>
6NUR|6NUR_protein|mol2

> <Gold.PLP.Fitness>
50.5580

> <Gold.PLP.PLP>
-39.8528

> <Gold.PLP.part.hbond>
-4.0000

> <Gold.PLP.part.metal>
0.0000

> <Gold.PLP.part.buried>
-6.4636

> <Gold.PLP.part.nonpolar>
-30.2862

> <Gold.PLP.part.repulsive>
0.2402

> <Gold.PLP.ligand.clash>
0.0000

> <Gold.PLP.ligand.torsion>
0.7566

> <Gold.PLP.Chemscore.Hbond>
3.9840

> <Gold.PLP.Chemscore.CHOScore>
0.0000

> <Gold.PLP.Chemscore.Metal>
0.0000

> <Gold.Chemscore.Hbonds>
donor molecule, donor type, donor heavy atom, donor atom, acceptor molecule, acceptor atom, score
      L1  H     8    32       P1  7948  1.00
      L1  H    11    33       P1  7948  0.99
      L1  H    22    48       P1 10747  0.85
      P1  H  7989  7998       L1    16  1.00

> <Gold.PLP.Chemscore.Internal.Correction>
0.2662

> <Gold.Rescore>
     Score         DG    S(hbond)    S(metal)    S(lipo)     H(rot)  DE(clash)    DE(int)     intcor
     24.89     -25.67       3.53        0.00     105.17       1.52       0.16       0.62       ----

> <Gold.Chemscore.Fitness>
24.8904

> <Gold.Chemscore.DG>
-25.6724

> <Gold.Chemscore.ZeroCoef>
-5.4800

> <Gold.Chemscore.Hbond>
3.5292

> <Gold.Chemscore.Metal>
0.0000

> <Gold.Chemscore.Lipo>
105.1659

> <Gold.Chemscore.Internal_Hbond>
0.0000

> <Gold.Chemscore.DEClash>
0.1630

> <Gold.Chemscore.DEInternal>
0.6189

> <Gold.Chemscore.Rot>
1.5233

> <Gold.Chemscore.Internal.Correction>
   9.000000E+99

> <Gold.Chemscore.Hbonds>
donor molecule, donor type, donor heavy atom, donor atom, acceptor molecule, acceptor atom, score
      L1  H     8    32       P1  7948  0.98
      L1  H    11    33       P1  7948  0.94
      L1  H    22    48       P1 10747  0.85
      P1  H  7989  7998       L1    16  0.28

> <Gold.Chemscore.Hbond.Weighted>
-11.7875

> <Gold.Chemscore.Metal.Weighted>
-0.0000

> <Gold.Chemscore.Lipo.Weighted>
-12.3044

> <Gold.Chemscore.Internal_Hbond.Weighted>
0.0000

> <Gold.Chemscore.DEClash.Weighted>
0.1630

> <Gold.Chemscore.DEInternal.Weighted>
0.6189

> <Gold.Chemscore.Rot.Weighted>
3.8995

> <Gold.Chemscore.Internal.Correction.Weighted>
   9.000000E+99

> <Gold.Protein.RotatedTorsions>
[ 6907 6896 6895 6894 ] final  -44.42 input  -60.11 | X-H torsion
[ 7974 7965 7964 7962 ] final  -86.92 input  175.53 | X-H torsion
[ 8008 7997 7996 7995 ] final   94.15 input   59.86 | X-H torsion
[ 10167 10162 10161 10158 ] final -164.43 input  -65.29 | X-H torsion
[ 10718 10713 10712 10709 ] final   81.62 input   66.30 | X-H torsion
[ 10763 10752 10751 10750 ] final  147.63 input  -60.55 | X-H torsion
[ 11005 11000 10999 10996 ] final -169.89 input  -57.11 | X-H torsion

> <Gold.Protein.ActiveResidues>
 VAL166  LYS551  ARG553  GLY616  TRP617  ASP618  TYR619  PRO620  LYS621  CYS622 
 ASP623  PHE694  ASN695  SER759  ASP760  ASP761  ALA762  ILE779  LEU786  VAL792 
 PHE793  MET794  SER795  GLU796  ALA797  LYS798  CYS799  TRP800  GLU811  SER814 

> <Gold.Protein.RotatedAtoms>
  150.9331  134.8745  159.7563 H   0  0  0  0  0  0  0  0  0  0  0  0  # atno 6907 bound_to 6896
  152.5047  134.4050  159.9439 H   0  0  0  0  0  0  0  0  0  0  0  0  # atno 6908 bound_to 6896
  151.4076  133.3697  159.2775 H   0  0  0  0  0  0  0  0  0  0  0  0  # atno 6909 bound_to 6896
  145.4734  140.9559  143.1904 H   0  0  0  0  0  0  0  0  0  0  0  0  # atno 7974 bound_to 7965
  156.0548  140.3303  155.7392 H   0  0  0  0  0  0  0  0  0  0  0  0  # atno 8008 bound_to 7997
  155.5546  140.0613  157.2860 H   0  0  0  0  0  0  0  0  0  0  0  0  # atno 8009 bound_to 7997
  154.4452  140.1888  156.0709 H   0  0  0  0  0  0  0  0  0  0  0  0  # atno 8010 bound_to 7997
  139.6251  144.0548  152.1968 H   0  0  0  0  0  0  0  0  0  0  0  0  # atno 10167 bound_to 10162
  157.6837  131.0012  150.2254 H   0  0  0  0  0  0  0  0  0  0  0  0  # atno 10718 bound_to 10713
  154.0415  135.2889  155.3354 H   0  0  0  0  0  0  0  0  0  0  0  0  # atno 10763 bound_to 10752
  154.6926  135.5220  153.8416 H   0  0  0  0  0  0  0  0  0  0  0  0  # atno 10764 bound_to 10752
  153.0598  135.6609  154.0619 H   0  0  0  0  0  0  0  0  0  0  0  0  # atno 10765 bound_to 10752
  140.5256  134.5666  157.5060 H   0  0  0  0  0  0  0  0  0  0  0  0  # atno 11005 bound_to 11000
  144.7931  139.6288  143.7104 LP  0  0  0  0  0  0  0  0  0  0  0  0  # atno 17320 bound_to 7965
  146.2383  139.5950  142.9508 LP  0  0  0  0  0  0  0  0  0  0  0  0  # atno 17321 bound_to 7965
  140.0199  144.6161  150.7575 LP  0  0  0  0  0  0  0  0  0  0  0  0  # atno 17342 bound_to 10162
  140.7406  143.2807  151.3608 LP  0  0  0  0  0  0  0  0  0  0  0  0  # atno 17343 bound_to 10162
  156.2897  130.3744  149.7854 LP  0  0  0  0  0  0  0  0  0  0  0  0  # atno 17370 bound_to 10713
  156.5517  130.8345  151.3301 LP  0  0  0  0  0  0  0  0  0  0  0  0  # atno 17371 bound_to 10713
  139.9582  134.7498  156.0295 LP  0  0  0  0  0  0  0  0  0  0  0  0  # atno 17394 bound_to 11000
  141.1310  133.6586  156.3464 LP  0  0  0  0  0  0  0  0  0  0  0  0  # atno 17395 bound_to 11000

$$$$
