AV-unprocessed.smi:766|AV-procd|sdf|3655|dock10
  -GOLD-   22720 1 63D 1   1.00000     0.00000
 Structure written by MMmdl.
 46 48  0  0  0  0  0  0  0  0  1 V2000
  153.3566  142.6212  161.3682 C   0  0  0  0  0  0  0  0  0  0  0  0
  152.6132  142.3954  160.0635 C   0  0  0  0  0  0  0  0  0  0  0  0
  152.5609  141.0923  159.5193 C   0  0  0  0  0  0  0  0  0  0  0  0
  151.8793  140.8397  158.3086 C   0  0  0  0  0  0  0  0  0  0  0  0
  151.7041  139.6604  157.6049 N   0  0  0  0  0  0  0  0  0  0  0  0
  150.9840  140.0736  156.5658 C   0  0  0  0  0  0  0  0  0  0  0  0
  150.6707  141.3827  156.5133 N   0  0  0  0  0  0  0  0  0  0  0  0
  149.9060  142.0622  155.4823 C   0  0  0  0  0  0  0  0  0  0  0  0
  149.0059  141.1025  154.6796 C   0  0  2  0  0  0  0  0  0  0  0  0
  149.4748  141.0364  153.3465 O   0  0  0  0  0  0  0  0  0  0  0  0
  147.5432  141.5773  154.6603 C   0  0  0  0  0  0  0  0  0  0  0  0
  147.4311  142.9194  154.0997 N   0  0  0  0  0  0  0  0  0  0  0  0
  146.0515  143.3340  153.8586 C   0  0  0  0  0  0  0  0  0  0  0  0
  145.2357  143.3752  155.1610 C   0  0  0  0  0  0  0  0  0  0  0  0
  144.4157  144.5693  155.2617 N   0  0  0  0  0  0  0  0  0  0  0  0
  143.5570  145.1011  154.3231 C   0  0  0  0  0  0  0  0  0  0  0  0
  143.0064  146.2261  154.8670 C   0  0  0  0  0  0  0  0  0  0  0  0
  143.6003  146.3024  156.1577 C   0  0  0  0  0  0  0  0  0  0  0  0
  144.4458  145.3112  156.3901 N   0  0  0  0  0  0  0  0  0  0  0  0
  151.2474  141.9356  157.6514 C   0  0  0  0  0  0  0  0  0  0  0  0
  151.2938  143.2369  158.1819 C   0  0  0  0  0  0  0  0  0  0  0  0
  151.9765  143.4712  159.3938 C   0  0  0  0  0  0  0  0  0  0  0  0
  152.0156  144.8791  159.9616 C   0  0  0  0  0  0  0  0  0  0  0  0
  153.8255  141.7031  161.7233 H   0  0  0  0  0  0  0  0  0  0  0  0
  152.6719  142.9689  162.1420 H   0  0  0  0  0  0  0  0  0  0  0  0
  154.1409  143.3673  161.2385 H   0  0  0  0  0  0  0  0  0  0  0  0
  153.0444  140.2722  160.0295 H   0  0  0  0  0  0  0  0  0  0  0  0
  150.6645  139.3836  155.7986 H   0  0  0  0  0  0  0  0  0  0  0  0
  149.2997  142.8296  155.9650 H   0  0  0  0  0  0  0  0  0  0  0  0
  150.5974  142.5830  154.8180 H   0  0  0  0  0  0  0  0  0  0  0  0
  149.0682  140.1072  155.1224 H   0  0  0  0  0  0  0  0  0  0  0  0
  149.2082  140.2095  152.9750 H   0  0  0  0  0  0  0  0  0  0  0  0
  146.9526  140.8949  154.0476 H   0  0  0  0  0  0  0  0  0  0  0  0
  147.1154  141.5361  155.6630 H   0  0  0  0  0  0  0  0  0  0  0  0
  147.8887  143.5848  154.7152 H   0  0  0  0  0  0  0  0  0  0  0  0
  146.0293  144.3122  153.3766 H   0  0  0  0  0  0  0  0  0  0  0  0
  145.5773  142.6375  153.1662 H   0  0  0  0  0  0  0  0  0  0  0  0
  144.5789  142.5058  155.2142 H   0  0  0  0  0  0  0  0  0  0  0  0
  145.8934  143.3219  156.0296 H   0  0  0  0  0  0  0  0  0  0  0  0
  143.4091  144.6385  153.3586 H   0  0  0  0  0  0  0  0  0  0  0  0
  142.2887  146.8927  154.4127 H   0  0  0  0  0  0  0  0  0  0  0  0
  143.4433  147.0439  156.9270 H   0  0  0  0  0  0  0  0  0  0  0  0
  150.8047  144.0467  157.6608 H   0  0  0  0  0  0  0  0  0  0  0  0
  151.4500  145.5743  159.3404 H   0  0  0  0  0  0  0  0  0  0  0  0
  153.0430  145.2392  160.0173 H   0  0  0  0  0  0  0  0  0  0  0  0
  151.5855  144.9002  160.9631 H   0  0  0  0  0  0  0  0  0  0  0  0
  1  2  1  0  0  0  0
  1 24  1  0  0  0  0
  1 25  1  0  0  0  0
  1 26  1  0  0  0  0
  2 22  1  0  0  0  0
  2  3  2  0  0  0  0
  3  4  1  0  0  0  0
  3 27  1  0  0  0  0
  4 20  2  0  0  0  0
  4  5  1  0  0  0  0
  5  6  2  0  0  0  0
  6  7  1  0  0  0  0
  6 28  1  0  0  0  0
  7  8  1  0  0  0  0
  7 20  1  0  0  0  0
  8  9  1  0  0  0  0
  8 29  1  0  0  0  0
  8 30  1  0  0  0  0
  9 10  1  0  0  0  0
  9 11  1  0  0  0  0
  9 31  1  0  0  0  0
 10 32  1  0  0  0  0
 11 12  1  0  0  0  0
 11 33  1  0  0  0  0
 11 34  1  0  0  0  0
 12 13  1  0  0  0  0
 12 35  1  0  0  0  0
 13 14  1  0  0  0  0
 13 36  1  0  0  0  0
 13 37  1  0  0  0  0
 14 15  1  0  0  0  0
 14 38  1  0  0  0  0
 14 39  1  0  0  0  0
 15 19  1  0  0  0  0
 15 16  1  0  0  0  0
 16 17  2  0  0  0  0
 16 40  1  0  0  0  0
 17 18  1  0  0  0  0
 17 41  1  0  0  0  0
 18 19  2  0  0  0  0
 18 42  1  0  0  0  0
 20 21  1  0  0  0  0
 21 22  2  0  0  0  0
 21 43  1  0  0  0  0
 22 23  1  0  0  0  0
 23 44  1  0  0  0  0
 23 45  1  0  0  0  0
 23 46  1  0  0  0  0
M  END
> <s_m_source_file>
AV-unprocessed.smi

> <i_m_source_file_index>
766

> <i_lp_mmshare_version>
43012

> <i_f3d_flags>
0

> <s_epik_input>
W0NIM11jKFtjSF0xKWMoW0NIM10pW2NIXWMoYzEyKW4oW2NIXW4yKVtDSDJdW0NASF0oW09IXSlbQ0gyXVtOSF1bQ0gyXVtDSDJdbjNbY0hdW2NIXVtjSF1uMw==

> <s_epik_cmdline>
J2VwaWtfcHl0aG9uJywgJy1waCcsICc3LjAnLCAnLXRuJywgJzgnLCAnLW1hJywgJzIwMCcsICctbWV0YWxfYmluZGluZycsICctaW1hZScsICc8aW5maWxlLm1hZT4nLCAnLW9tYWUnLCAnPG91dGZpbGUubWFlPic=

> <r_lp_tautomer_probability>
1

> <r_epik_Ionization_Penalty>
1.68727

> <r_epik_Ionization_Penalty_Charging>
0

> <r_epik_Ionization_Penalty_Neutral>
1.68727

> <r_epik_State_Penalty>
1.78741

> <r_epik_Charging_Adjusted_Penalty>
1.78741

> <i_epik_Tot_Q>
0

> <i_epik_Tot_abs_Q>
0

> <r_epik_Metal_State_Penalty>
1.73664

> <b_epik_Metal_Only>
0

> <s_lp_Force_Field>
OPLS_2005

> <r_lp_Energy>
17.6974

> <b_lp_Chiralities_Consistent>
1

> <s_lp_Variant>
AV-unprocessed.smi:766-5

> <Gold.Version>
5.8.1

> <Gold.Id.Protein>
6NUR|6NUR_protein|mol2

> <Gold.PLP.Fitness>
61.1882

> <Gold.PLP.PLP>
-53.7023

> <Gold.PLP.part.hbond>
-4.8290

> <Gold.PLP.part.metal>
0.0000

> <Gold.PLP.part.buried>
-4.3006

> <Gold.PLP.part.nonpolar>
-44.5412

> <Gold.PLP.part.repulsive>
0.1004

> <Gold.PLP.ligand.clash>
0.0000

> <Gold.PLP.ligand.torsion>
1.4807

> <Gold.PLP.Chemscore.Hbond>
2.4376

> <Gold.PLP.Chemscore.CHOScore>
1.0000

> <Gold.PLP.Chemscore.Metal>
0.0000

> <Gold.Chemscore.Hbonds>
donor molecule, donor type, donor heavy atom, donor atom, acceptor molecule, acceptor atom, score
      L1  H    10    32       P1  7957  0.27
      L1  H    12    35       P1  8028  1.00
      P1  H  7989  7998       L1    10  0.15
      P1  H  8011  8017       L1    10  1.00
      L1  C    16    40       P1 10174  0.91

> <Gold.PLP.Chemscore.Internal.Correction>
0.1346

> <Gold.Rescore>
     Score         DG    S(hbond)    S(metal)    S(lipo)     H(rot)  DE(clash)    DE(int)     intcor
     17.66     -20.62       1.89        0.00     137.55       2.83       1.61       1.35       ----

> <Gold.Chemscore.Fitness>
17.6618

> <Gold.Chemscore.DG>
-20.6183

> <Gold.Chemscore.ZeroCoef>
-5.4800

> <Gold.Chemscore.Hbond>
1.8869

> <Gold.Chemscore.Metal>
0.0000

> <Gold.Chemscore.Lipo>
137.5482

> <Gold.Chemscore.Internal_Hbond>
0.0000

> <Gold.Chemscore.DEClash>
1.6054

> <Gold.Chemscore.DEInternal>
1.3511

> <Gold.Chemscore.Rot>
2.8348

> <Gold.Chemscore.Internal.Correction>
   9.000000E+99

> <Gold.Chemscore.Hbonds>
donor molecule, donor type, donor heavy atom, donor atom, acceptor molecule, acceptor atom, score
      L1  H    10    32       P1  7957  0.26
      L1  H    12    35       P1  8028  0.55
      P1  H  7989  7998       L1    10  0.04
      P1  H  8011  8017       L1    10  0.97

> <Gold.Chemscore.Hbond.Weighted>
-6.3023

> <Gold.Chemscore.Metal.Weighted>
-0.0000

> <Gold.Chemscore.Lipo.Weighted>
-16.0931

> <Gold.Chemscore.Internal_Hbond.Weighted>
0.0000

> <Gold.Chemscore.DEClash.Weighted>
1.6054

> <Gold.Chemscore.DEInternal.Weighted>
1.3511

> <Gold.Chemscore.Rot.Weighted>
7.2572

> <Gold.Chemscore.Internal.Correction.Weighted>
   9.000000E+99

> <Gold.Protein.RotatedTorsions>
[ 6907 6896 6895 6894 ] final  -53.65 input  -60.11 | X-H torsion
[ 7974 7965 7964 7962 ] final   58.43 input  175.53 | X-H torsion
[ 8008 7997 7996 7995 ] final  -70.18 input   59.86 | X-H torsion
[ 10167 10162 10161 10158 ] final  -23.31 input  -65.29 | X-H torsion
[ 10718 10713 10712 10709 ] final  -32.63 input   66.30 | X-H torsion
[ 10763 10752 10751 10750 ] final   73.58 input  -60.55 | X-H torsion
[ 11005 11000 10999 10996 ] final   45.55 input  -57.11 | X-H torsion

> <Gold.Protein.ActiveResidues>
 VAL166  LYS551  ARG553  GLY616  TRP617  ASP618  TYR619  PRO620  LYS621  CYS622 
 ASP623  PHE694  ASN695  SER759  ASP760  ASP761  ALA762  ILE779  LEU786  VAL792 
 PHE793  MET794  SER795  GLU796  ALA797  LYS798  CYS799  TRP800  GLU811  SER814 

> <Gold.Protein.RotatedAtoms>
  150.8408  134.7699  159.6930 H   0  0  0  0  0  0  0  0  0  0  0  0  # atno 6907 bound_to 6896
  152.4495  134.5420  159.9851 H   0  0  0  0  0  0  0  0  0  0  0  0  # atno 6908 bound_to 6896
  151.5560  133.3372  159.2998 H   0  0  0  0  0  0  0  0  0  0  0  0  # atno 6909 bound_to 6896
  145.9182  139.3708  143.0494 H   0  0  0  0  0  0  0  0  0  0  0  0  # atno 7974 bound_to 7965
  154.4993  140.0839  156.7763 H   0  0  0  0  0  0  0  0  0  0  0  0  # atno 8008 bound_to 7997
  155.4042  140.3438  155.4241 H   0  0  0  0  0  0  0  0  0  0  0  0  # atno 8009 bound_to 7997
  156.1435  140.1536  156.8871 H   0  0  0  0  0  0  0  0  0  0  0  0  # atno 8010 bound_to 7997
  140.7288  143.4454  151.0594 H   0  0  0  0  0  0  0  0  0  0  0  0  # atno 10167 bound_to 10162
  156.3725  130.4342  149.7534 H   0  0  0  0  0  0  0  0  0  0  0  0  # atno 10718 bound_to 10713
  153.0531  135.5057  154.7915 H   0  0  0  0  0  0  0  0  0  0  0  0  # atno 10763 bound_to 10752
  154.6762  135.2961  154.9678 H   0  0  0  0  0  0  0  0  0  0  0  0  # atno 10764 bound_to 10752
  154.0479  135.6708  153.4850 H   0  0  0  0  0  0  0  0  0  0  0  0  # atno 10765 bound_to 10752
  140.1450  134.4535  155.8422 H   0  0  0  0  0  0  0  0  0  0  0  0  # atno 11005 bound_to 11000
  145.8583  140.9489  143.0713 LP  0  0  0  0  0  0  0  0  0  0  0  0  # atno 17320 bound_to 7965
  144.6750  140.0498  143.7479 LP  0  0  0  0  0  0  0  0  0  0  0  0  # atno 17321 bound_to 7965
  139.8126  143.7930  152.3172 LP  0  0  0  0  0  0  0  0  0  0  0  0  # atno 17342 bound_to 10162
  139.7985  144.7383  150.9857 LP  0  0  0  0  0  0  0  0  0  0  0  0  # atno 17343 bound_to 10162
  156.4656  130.7972  151.2991 LP  0  0  0  0  0  0  0  0  0  0  0  0  # atno 17370 bound_to 10713
  157.7485  131.0052  150.3105 LP  0  0  0  0  0  0  0  0  0  0  0  0  # atno 17371 bound_to 10713
  141.2191  133.6848  156.7316 LP  0  0  0  0  0  0  0  0  0  0  0  0  # atno 17394 bound_to 11000
  140.2675  134.8418  157.3816 LP  0  0  0  0  0  0  0  0  0  0  0  0  # atno 17395 bound_to 11000

$$$$
