AV-unprocessed.smi:1202|AV-procd|sdf|5031|dock2
  -GOLD-   22720 4 53D 1   1.00000     0.00000
 Structure written by MMmdl.
 44 45  0  0  0  0  0  0  0  0  3 V2000
  146.4595  133.0257  150.8137 C   0  0  0  0  0  0  0  0  0  0  0  0
  145.9232  134.2886  151.3070 N   0  5  0  0  0  0  0  0  0  0  0  0
  146.1737  134.7747  152.5522 C   0  0  0  0  0  0  0  0  0  0  0  0
  146.7092  134.2454  153.5319 O   0  0  0  0  0  0  0  0  0  0  0  0
  145.6568  136.2104  152.6993 C   0  0  0  0  0  0  0  0  0  0  0  0
  146.7631  137.1106  153.1097 N   0  3  2  0  0  0  0  0  0  0  0  0
  147.1221  136.9825  154.5481 C   0  0  0  0  0  0  0  0  0  0  0  0
  148.3561  137.8331  154.8906 C   0  0  0  0  0  0  0  0  0  0  0  0
  148.1362  139.3097  154.5154 C   0  0  1  0  0  0  0  0  0  0  0  0
  149.3466  140.0915  154.7488 N   0  0  0  0  0  0  0  0  0  0  0  0
  149.7085  140.6245  155.9257 C   0  0  0  0  0  0  0  0  0  0  0  0
  149.0498  140.4897  156.9578 O   0  0  0  0  0  0  0  0  0  0  0  0
  151.0278  141.4099  155.9312 C   0  0  0  0  0  0  0  0  0  0  0  0
  151.4945  141.7538  157.2847 N   0  0  0  0  0  0  0  0  0  0  0  0
  151.0882  142.9978  157.8077 C   0  0  0  0  0  0  0  0  0  0  0  0
  151.4587  143.4087  159.0308 C   0  0  0  0  0  0  0  0  0  0  0  0
  152.2975  142.5373  159.8189 C   0  0  0  0  0  0  0  0  0  0  0  0
  152.6949  141.3469  159.3270 C   0  0  0  0  0  0  0  0  0  0  0  0
  152.2942  140.8946  157.9895 C   0  0  0  0  0  0  0  0  0  0  0  0
  152.6552  139.8105  157.5303 O   0  0  0  0  0  0  0  0  0  0  0  0
  147.7287  139.4087  153.0368 C   0  0  0  0  0  0  0  0  0  0  0  0
  146.5073  138.5245  152.7356 C   0  0  0  0  0  0  0  0  0  0  0  0
  146.1548  132.8300  149.7858 H   0  0  0  0  0  0  0  0  0  0  0  0
  146.1209  132.1729  151.4032 H   0  0  0  0  0  0  0  0  0  0  0  0
  147.5497  133.0035  150.8229 H   0  0  0  0  0  0  0  0  0  0  0  0
  145.2760  136.5090  151.7217 H   0  0  0  0  0  0  0  0  0  0  0  0
  144.8176  136.2928  153.3940 H   0  0  0  0  0  0  0  0  0  0  0  0
  146.2744  137.2862  155.1641 H   0  0  0  0  0  0  0  0  0  0  0  0
  147.3324  135.9416  154.7952 H   0  0  0  0  0  0  0  0  0  0  0  0
  148.5772  137.7425  155.9548 H   0  0  0  0  0  0  0  0  0  0  0  0
  149.2246  137.4396  154.3600 H   0  0  0  0  0  0  0  0  0  0  0  0
  147.3239  139.7153  155.1221 H   0  0  0  0  0  0  0  0  0  0  0  0
  149.9500  140.2478  153.9542 H   0  0  0  0  0  0  0  0  0  0  0  0
  151.7777  140.8167  155.4061 H   0  0  0  0  0  0  0  0  0  0  0  0
  150.9140  142.3175  155.3348 H   0  0  0  0  0  0  0  0  0  0  0  0
  150.4686  143.5932  157.1530 H   0  0  0  0  0  0  0  0  0  0  0  0
  151.1412  144.3676  159.4134 H   0  0  0  0  0  0  0  0  0  0  0  0
  152.6095  142.8421  160.8071 H   0  0  0  0  0  0  0  0  0  0  0  0
  153.3237  140.7090  159.9307 H   0  0  0  0  0  0  0  0  0  0  0  0
  147.5051  140.4447  152.7791 H   0  0  0  0  0  0  0  0  0  0  0  0
  148.5608  139.1038  152.3998 H   0  0  0  0  0  0  0  0  0  0  0  0
  146.2746  138.5884  151.6718 H   0  0  0  0  0  0  0  0  0  0  0  0
  145.6327  138.8917  153.2751 H   0  0  0  0  0  0  0  0  0  0  0  0
  147.5686  136.8141  152.5769 H   0  0  0  0  0  0  0  0  0  0  0  0
  1  2  1  0  0  0  0
  1 23  1  0  0  0  0
  1 24  1  0  0  0  0
  1 25  1  0  0  0  0
  2  3  1  0  0  0  0
  3  4  2  0  0  0  0
  3  5  1  0  0  0  0
  5  6  1  0  0  0  0
  5 26  1  0  0  0  0
  5 27  1  0  0  0  0
  6 22  1  0  0  0  0
  6  7  1  0  0  0  0
  6 44  1  0  0  0  0
  7  8  1  0  0  0  0
  7 28  1  0  0  0  0
  7 29  1  0  0  0  0
  8  9  1  0  0  0  0
  8 30  1  0  0  0  0
  8 31  1  0  0  0  0
  9 10  1  0  0  0  0
  9 21  1  0  0  0  0
  9 32  1  0  0  0  0
 10 11  1  0  0  0  0
 10 33  1  0  0  0  0
 11 12  2  0  0  0  0
 11 13  1  0  0  0  0
 13 14  1  0  0  0  0
 13 34  1  0  0  0  0
 13 35  1  0  0  0  0
 14 19  1  0  0  0  0
 14 15  1  0  0  0  0
 15 16  2  0  0  0  0
 15 36  1  0  0  0  0
 16 17  1  0  0  0  0
 16 37  1  0  0  0  0
 17 18  2  0  0  0  0
 17 38  1  0  0  0  0
 18 19  1  0  0  0  0
 18 39  1  0  0  0  0
 19 20  2  0  0  0  0
 21 22  1  0  0  0  0
 21 40  1  0  0  0  0
 21 41  1  0  0  0  0
 22 42  1  0  0  0  0
 22 43  1  0  0  0  0
M  CHG  1   2  -1
M  CHG  1   6   1
M  END
> <s_m_source_file>
AV-unprocessed.smi

> <i_m_source_file_index>
1202

> <i_lp_mmshare_version>
43012

> <i_f3d_flags>
0

> <s_epik_input>
W0NIM11bTkhdQyg9TylbQ0gyXU4xW0NIMl1bQ0gyXVtDSF0oW0NIMl1bQ0gyXTEpW05IXUMoPU8pW0NIMl1uMltjSF1bY0hdW2NIXVtjSF1jMj1P

> <s_epik_cmdline>
J2VwaWtfcHl0aG9uJywgJy1waCcsICc3LjAnLCAnLXRuJywgJzgnLCAnLW1hJywgJzIwMCcsICctbWV0YWxfYmluZGluZycsICctaW1hZScsICc8aW5maWxlLm1hZT4nLCAnLW9tYWUnLCAnPG91dGZpbGUubWFlPic=

> <r_lp_tautomer_probability>
1

> <r_epik_Ionization_Penalty>
6.12124

> <r_epik_Ionization_Penalty_Charging>
6.12124

> <r_epik_Ionization_Penalty_Neutral>
4.50226e-08

> <r_epik_State_Penalty>
7.08052

> <r_epik_Charging_Adjusted_Penalty>
13.2018

> <i_epik_Tot_Q>
0

> <i_epik_Tot_abs_Q>
2

> <r_epik_Metal_State_Penalty>
3.01282

> <b_epik_Metal_Only>
1

> <s_lp_Force_Field>
OPLS_2005

> <r_lp_Energy>
18.7723

> <b_lp_Chiralities_Consistent>
1

> <s_lp_Variant>
AV-unprocessed.smi:1202-4

> <Gold.Version>
5.8.1

> <Gold.Id.Protein>
6NUR|6NUR_protein|mol2

> <Gold.PLP.Fitness>
40.3424

> <Gold.PLP.PLP>
-30.2738

> <Gold.PLP.part.hbond>
-2.0000

> <Gold.PLP.part.metal>
0.0000

> <Gold.PLP.part.buried>
-1.3993

> <Gold.PLP.part.nonpolar>
-25.9869

> <Gold.PLP.part.repulsive>
0.4116

> <Gold.PLP.ligand.clash>
0.0000

> <Gold.PLP.ligand.torsion>
1.0344

> <Gold.PLP.Chemscore.Hbond>
3.0000

> <Gold.PLP.Chemscore.CHOScore>
1.0000

> <Gold.PLP.Chemscore.Metal>
0.0000

> <Gold.Chemscore.Hbonds>
donor molecule, donor type, donor heavy atom, donor atom, acceptor molecule, acceptor atom, score
      L1  H     6    44       P1  7948  2.00
      P1  H  7997  8009       L1    20  1.00
      L1  C    15    36       P1  8028  1.00

> <Gold.PLP.Chemscore.Internal.Correction>
0.1374

> <Gold.Rescore>
     Score         DG    S(hbond)    S(metal)    S(lipo)     H(rot)  DE(clash)    DE(int)     intcor
     13.22     -15.45       1.93        0.00      77.13       2.15       0.04       2.18       ----

> <Gold.Chemscore.Fitness>
13.2231

> <Gold.Chemscore.DG>
-15.4484

> <Gold.Chemscore.ZeroCoef>
-5.4800

> <Gold.Chemscore.Hbond>
1.9315

> <Gold.Chemscore.Metal>
0.0000

> <Gold.Chemscore.Lipo>
77.1264

> <Gold.Chemscore.Internal_Hbond>
0.0000

> <Gold.Chemscore.DEClash>
0.0419

> <Gold.Chemscore.DEInternal>
2.1834

> <Gold.Chemscore.Rot>
2.1510

> <Gold.Chemscore.Internal.Correction>
   9.000000E+99

> <Gold.Chemscore.Hbonds>
donor molecule, donor type, donor heavy atom, donor atom, acceptor molecule, acceptor atom, score
      L1  H     6    44       P1  7948  1.00
      P1  H  7997  8009       L1    20  0.60

> <Gold.Chemscore.Hbond.Weighted>
-6.4511

> <Gold.Chemscore.Metal.Weighted>
-0.0000

> <Gold.Chemscore.Lipo.Weighted>
-9.0238

> <Gold.Chemscore.Internal_Hbond.Weighted>
0.0000

> <Gold.Chemscore.DEClash.Weighted>
0.0419

> <Gold.Chemscore.DEInternal.Weighted>
2.1834

> <Gold.Chemscore.Rot.Weighted>
5.5065

> <Gold.Chemscore.Internal.Correction.Weighted>
   9.000000E+99

> <Gold.Protein.RotatedTorsions>
[ 6907 6896 6895 6894 ] final  -41.93 input  -60.11 | X-H torsion
[ 7974 7965 7964 7962 ] final   98.26 input  175.53 | X-H torsion
[ 8008 7997 7996 7995 ] final  175.67 input   59.86 | X-H torsion
[ 10167 10162 10161 10158 ] final   91.32 input  -65.29 | X-H torsion
[ 10718 10713 10712 10709 ] final  -37.22 input   66.30 | X-H torsion
[ 10763 10752 10751 10750 ] final  165.59 input  -60.55 | X-H torsion
[ 11005 11000 10999 10996 ] final -118.62 input  -57.11 | X-H torsion

> <Gold.Protein.ActiveResidues>
 VAL166  LYS551  ARG553  GLY616  TRP617  ASP618  TYR619  PRO620  LYS621  CYS622 
 ASP623  PHE694  ASN695  SER759  ASP760  ASP761  ALA762  ILE779  LEU786  VAL792 
 PHE793  MET794  SER795  GLU796  ALA797  LYS798  CYS799  TRP800  GLU811  SER814 

> <Gold.Protein.RotatedAtoms>
  150.9610  134.8998  159.7730 H   0  0  0  0  0  0  0  0  0  0  0  0  # atno 6907 bound_to 6896
  152.5156  134.3672  159.9315 H   0  0  0  0  0  0  0  0  0  0  0  0  # atno 6908 bound_to 6896
  151.3684  133.3823  159.2732 H   0  0  0  0  0  0  0  0  0  0  0  0  # atno 6909 bound_to 6896
  145.4145  139.2329  143.3230 H   0  0  0  0  0  0  0  0  0  0  0  0  # atno 7974 bound_to 7965
  156.0846  140.1403  156.9670 H   0  0  0  0  0  0  0  0  0  0  0  0  # atno 8008 bound_to 7997
  154.4605  140.0945  156.6928 H   0  0  0  0  0  0  0  0  0  0  0  0  # atno 8009 bound_to 7997
  155.5020  140.3451  155.4375 H   0  0  0  0  0  0  0  0  0  0  0  0  # atno 8010 bound_to 7997
  139.8386  144.6652  150.9311 H   0  0  0  0  0  0  0  0  0  0  0  0  # atno 10167 bound_to 10162
  156.3177  130.4261  149.7990 H   0  0  0  0  0  0  0  0  0  0  0  0  # atno 10718 bound_to 10713
  154.3263  135.2755  155.2494 H   0  0  0  0  0  0  0  0  0  0  0  0  # atno 10763 bound_to 10752
  154.4826  135.5854  153.6404 H   0  0  0  0  0  0  0  0  0  0  0  0  # atno 10764 bound_to 10752
  152.9871  135.6115  154.3451 H   0  0  0  0  0  0  0  0  0  0  0  0  # atno 10765 bound_to 10752
  141.0273  134.0035  157.3196 H   0  0  0  0  0  0  0  0  0  0  0  0  # atno 11005 bound_to 11000
  146.2688  140.4861  142.8823 LP  0  0  0  0  0  0  0  0  0  0  0  0  # atno 17320 bound_to 7965
  144.8286  140.6670  143.6305 LP  0  0  0  0  0  0  0  0  0  0  0  0  # atno 17321 bound_to 7965
  140.7800  143.3934  151.1271 LP  0  0  0  0  0  0  0  0  0  0  0  0  # atno 17342 bound_to 10162
  139.7582  143.8675  152.3094 LP  0  0  0  0  0  0  0  0  0  0  0  0  # atno 17343 bound_to 10162
  156.5309  130.8257  151.3236 LP  0  0  0  0  0  0  0  0  0  0  0  0  # atno 17370 bound_to 10713
  157.7405  130.9852  150.2382 LP  0  0  0  0  0  0  0  0  0  0  0  0  # atno 17371 bound_to 10713
  139.9184  135.0199  156.7971 LP  0  0  0  0  0  0  0  0  0  0  0  0  # atno 17394 bound_to 11000
  140.6469  133.9767  155.7735 LP  0  0  0  0  0  0  0  0  0  0  0  0  # atno 17395 bound_to 11000

$$$$
