AV-unprocessed.smi:2591|AV-procd|sdf|10158|dock9
  -GOLD-   2272014173D 1   1.00000     0.00000
 Structure written by MMmdl.
 34 35  0  0  0  0  0  0  0  0  1 V2000
  148.5017  139.7553  154.6238 C   0  0  0  0  0  0  0  0  0  0  0  0
  149.5912  139.2818  155.4639 N   0  0  0  0  0  0  0  0  0  0  0  0
  150.6354  138.6364  154.6802 C   0  0  0  0  0  0  0  0  0  0  0  0
  151.7828  138.1341  155.5724 C   0  0  0  0  0  0  0  0  0  0  0  0
  151.2657  137.2552  156.5673 O   0  0  0  0  0  0  0  0  0  0  0  0
  150.2678  137.8607  157.3909 C   0  0  2  0  0  0  0  0  0  0  0  0
  149.8054  136.8409  158.4417 C   0  0  0  0  0  0  0  0  0  0  0  0
  150.2522  135.6928  158.4271 O   0  0  0  0  0  0  0  0  0  0  0  0
  148.8928  137.2885  159.3254 N   0  0  0  0  0  0  0  0  0  0  0  0
  148.2766  136.5825  160.3923 C   0  0  0  0  0  0  0  0  0  0  0  0
  148.1272  135.1934  160.1829 C   0  0  0  0  0  0  0  0  0  0  0  0
  147.5354  134.3939  161.1847 C   0  0  0  0  0  0  0  0  0  0  0  0
  147.3584  132.8966  160.9852 C   0  0  0  0  0  0  0  0  0  0  0  0
  147.7169  132.5366  159.7524 F   0  0  0  0  0  0  0  0  0  0  0  0
  148.1198  132.2435  161.8620 F   0  0  0  0  0  0  0  0  0  0  0  0
  146.0867  132.5409  161.1712 F   0  0  0  0  0  0  0  0  0  0  0  0
  147.0965  135.0223  162.3677 C   0  0  0  0  0  0  0  0  0  0  0  0
  147.2798  136.4110  162.4943 C   0  0  0  0  0  0  0  0  0  0  0  0
  147.8538  137.1703  161.5386 N   0  0  0  0  0  0  0  0  0  0  0  0
  149.1150  138.3669  156.4934 C   0  0  0  0  0  0  0  0  0  0  0  0
  148.8673  140.4632  153.8792 H   0  0  0  0  0  0  0  0  0  0  0  0
  147.7461  140.2643  155.2230 H   0  0  0  0  0  0  0  0  0  0  0  0
  148.0198  138.9286  154.1000 H   0  0  0  0  0  0  0  0  0  0  0  0
  150.2158  137.7959  154.1249 H   0  0  0  0  0  0  0  0  0  0  0  0
  151.0288  139.3346  153.9406 H   0  0  0  0  0  0  0  0  0  0  0  0
  152.5225  137.6013  154.9752 H   0  0  0  0  0  0  0  0  0  0  0  0
  152.2967  138.9706  156.0482 H   0  0  0  0  0  0  0  0  0  0  0  0
  150.7126  138.7033  157.9238 H   0  0  0  0  0  0  0  0  0  0  0  0
  148.6093  138.2516  159.2184 H   0  0  0  0  0  0  0  0  0  0  0  0
  148.4655  134.7437  159.2605 H   0  0  0  0  0  0  0  0  0  0  0  0
  146.6281  134.4585  163.1611 H   0  0  0  0  0  0  0  0  0  0  0  0
  146.9557  136.9268  163.3860 H   0  0  0  0  0  0  0  0  0  0  0  0
  148.3667  138.8708  157.1068 H   0  0  0  0  0  0  0  0  0  0  0  0
  148.6143  137.5167  156.0264 H   0  0  0  0  0  0  0  0  0  0  0  0
  1  2  1  0  0  0  0
  1 21  1  0  0  0  0
  1 22  1  0  0  0  0
  1 23  1  0  0  0  0
  2 20  1  0  0  0  0
  2  3  1  0  0  0  0
  3  4  1  0  0  0  0
  3 24  1  0  0  0  0
  3 25  1  0  0  0  0
  4  5  1  0  0  0  0
  4 26  1  0  0  0  0
  4 27  1  0  0  0  0
  5  6  1  0  0  0  0
  6  7  1  0  0  0  0
  6 20  1  0  0  0  0
  6 28  1  0  0  0  0
  7  8  2  0  0  0  0
  7  9  1  0  0  0  0
  9 10  1  0  0  0  0
  9 29  1  0  0  0  0
 10 19  1  0  0  0  0
 10 11  2  0  0  0  0
 11 12  1  0  0  0  0
 11 30  1  0  0  0  0
 12 13  1  0  0  0  0
 12 17  2  0  0  0  0
 13 14  1  0  0  0  0
 13 15  1  0  0  0  0
 13 16  1  0  0  0  0
 17 18  1  0  0  0  0
 17 31  1  0  0  0  0
 18 19  2  0  0  0  0
 18 32  1  0  0  0  0
 20 33  1  0  0  0  0
 20 34  1  0  0  0  0
M  END
> <s_m_source_file>
AV-unprocessed.smi

> <i_m_source_file_index>
2591

> <i_lp_mmshare_version>
43012

> <i_f3d_flags>
0

> <s_epik_input>
W0NIM11OMVtDSDJdW0NIMl1PW0NASF0oW0NIMl0xKUMoPU8pW05IXWMyW2NIXWMoQyhGKShGKUYpW2NIXVtjSF1uMg==

> <s_epik_cmdline>
J2VwaWtfcHl0aG9uJywgJy1waCcsICc3LjAnLCAnLXRuJywgJzgnLCAnLW1hJywgJzIwMCcsICctbWV0YWxfYmluZGluZycsICctaW1hZScsICc8aW5maWxlLm1hZT4nLCAnLW9tYWUnLCAnPG91dGZpbGUubWFlPic=

> <r_epik_Ionization_Penalty>
0.526245

> <r_epik_Ionization_Penalty_Charging>
0

> <r_epik_Ionization_Penalty_Neutral>
0.526245

> <r_epik_State_Penalty>
0.534659

> <r_epik_Charging_Adjusted_Penalty>
0.534659

> <i_epik_Tot_Q>
0

> <i_epik_Tot_abs_Q>
0

> <r_epik_Metal_State_Penalty>
0.534657

> <b_epik_Metal_Only>
0

> <s_lp_Force_Field>
OPLS_2005

> <r_lp_Energy>
21.9247

> <b_lp_Chiralities_Consistent>
1

> <s_lp_Variant>
AV-unprocessed.smi:2591-6

> <Gold.Version>
5.8.1

> <Gold.Id.Protein>
6NUR|6NUR_protein|mol2

> <Gold.PLP.Fitness>
38.1517

> <Gold.PLP.PLP>
-30.7669

> <Gold.PLP.part.hbond>
-2.8195

> <Gold.PLP.part.metal>
0.0000

> <Gold.PLP.part.buried>
-3.9000

> <Gold.PLP.part.nonpolar>
-24.0762

> <Gold.PLP.part.repulsive>
0.2642

> <Gold.PLP.ligand.clash>
0.9918

> <Gold.PLP.ligand.torsion>
0.3046

> <Gold.PLP.Chemscore.Hbond>
2.6320

> <Gold.PLP.Chemscore.CHOScore>
0.0000

> <Gold.PLP.Chemscore.Metal>
0.0000

> <Gold.Chemscore.Hbonds>
donor molecule, donor type, donor heavy atom, donor atom, acceptor molecule, acceptor atom, score
      P1  H  6896  6909       L1     8  0.88
      P1  H  6931  6943       L1    19  1.00
      P1  H  6934  6947       L1    19  0.66

> <Gold.PLP.Chemscore.Internal.Correction>
1.0897

> <Gold.Rescore>
     Score         DG    S(hbond)    S(metal)    S(lipo)     H(rot)  DE(clash)    DE(int)     intcor
     15.14     -16.77       2.04        0.00      60.18       1.00       0.05       1.58       ----

> <Gold.Chemscore.Fitness>
15.1419

> <Gold.Chemscore.DG>
-16.7746

> <Gold.Chemscore.ZeroCoef>
-5.4800

> <Gold.Chemscore.Hbond>
2.0401

> <Gold.Chemscore.Metal>
0.0000

> <Gold.Chemscore.Lipo>
60.1770

> <Gold.Chemscore.Internal_Hbond>
0.0000

> <Gold.Chemscore.DEClash>
0.0484

> <Gold.Chemscore.DEInternal>
1.5843

> <Gold.Chemscore.Rot>
1.0000

> <Gold.Chemscore.Internal.Correction>
   9.000000E+99

> <Gold.Chemscore.Hbonds>
donor molecule, donor type, donor heavy atom, donor atom, acceptor molecule, acceptor atom, score
      P1  H  6896  6909       L1     8  0.86
      P1  H  6931  6943       L1    19  0.48
      P1  H  6934  6947       L1    19  0.28

> <Gold.Chemscore.Hbond.Weighted>
-6.8139

> <Gold.Chemscore.Metal.Weighted>
-0.0000

> <Gold.Chemscore.Lipo.Weighted>
-7.0407

> <Gold.Chemscore.Internal_Hbond.Weighted>
0.0000

> <Gold.Chemscore.DEClash.Weighted>
0.0484

> <Gold.Chemscore.DEInternal.Weighted>
1.5843

> <Gold.Chemscore.Rot.Weighted>
2.5600

> <Gold.Chemscore.Internal.Correction.Weighted>
   9.000000E+99

> <Gold.Protein.RotatedTorsions>
[ 6907 6896 6895 6894 ] final   66.35 input  -60.11 | X-H torsion
[ 7974 7965 7964 7962 ] final   96.77 input  175.53 | X-H torsion
[ 8008 7997 7996 7995 ] final  114.59 input   59.86 | X-H torsion
[ 10167 10162 10161 10158 ] final -145.15 input  -65.29 | X-H torsion
[ 10718 10713 10712 10709 ] final   17.68 input   66.30 | X-H torsion
[ 10763 10752 10751 10750 ] final   14.87 input  -60.55 | X-H torsion
[ 11005 11000 10999 10996 ] final  -71.83 input  -57.11 | X-H torsion

> <Gold.Protein.ActiveResidues>
 VAL166  LYS551  ARG553  GLY616  TRP617  ASP618  TYR619  PRO620  LYS621  CYS622 
 ASP623  PHE694  ASN695  SER759  ASP760  ASP761  ALA762  ILE779  LEU786  VAL792 
 PHE793  MET794  SER795  GLU796  ALA797  LYS798  CYS799  TRP800  GLU811  SER814 

> <Gold.Protein.RotatedAtoms>
  152.4474  134.5465  159.9854 H   0  0  0  0  0  0  0  0  0  0  0  0  # atno 6907 bound_to 6896
  151.5546  133.3406  159.2967 H   0  0  0  0  0  0  0  0  0  0  0  0  # atno 6908 bound_to 6896
  150.8394  134.7712  159.6983 H   0  0  0  0  0  0  0  0  0  0  0  0  # atno 6909 bound_to 6896
  145.4344  139.2307  143.3126 H   0  0  0  0  0  0  0  0  0  0  0  0  # atno 7974 bound_to 7965
  156.2330  140.2956  156.0239 H   0  0  0  0  0  0  0  0  0  0  0  0  # atno 8008 bound_to 7997
  155.2170  140.0414  157.2959 H   0  0  0  0  0  0  0  0  0  0  0  0  # atno 8009 bound_to 7997
  154.6030  140.2432  155.7776 H   0  0  0  0  0  0  0  0  0  0  0  0  # atno 8010 bound_to 7997
  139.7832  143.8070  152.2641 H   0  0  0  0  0  0  0  0  0  0  0  0  # atno 10167 bound_to 10162
  157.0856  130.6406  149.5836 H   0  0  0  0  0  0  0  0  0  0  0  0  # atno 10718 bound_to 10713
  153.1580  135.6790  153.8784 H   0  0  0  0  0  0  0  0  0  0  0  0  # atno 10763 bound_to 10752
  153.8189  135.3133  155.3409 H   0  0  0  0  0  0  0  0  0  0  0  0  # atno 10764 bound_to 10752
  154.7912  135.4834  154.0144 H   0  0  0  0  0  0  0  0  0  0  0  0  # atno 10765 bound_to 10752
  141.1599  133.6829  156.6966 H   0  0  0  0  0  0  0  0  0  0  0  0  # atno 11005 bound_to 11000
  146.2590  140.5085  142.8861 LP  0  0  0  0  0  0  0  0  0  0  0  0  # atno 17320 bound_to 7965
  144.8162  140.6471  143.6383 LP  0  0  0  0  0  0  0  0  0  0  0  0  # atno 17321 bound_to 7965
  139.8139  144.7324  150.9660 LP  0  0  0  0  0  0  0  0  0  0  0  0  # atno 17342 bound_to 10162
  140.7819  143.4223  151.0822 LP  0  0  0  0  0  0  0  0  0  0  0  0  # atno 17343 bound_to 10162
  155.9912  130.4965  150.7288 LP  0  0  0  0  0  0  0  0  0  0  0  0  # atno 17370 bound_to 10713
  157.4764  131.0898  151.0585 LP  0  0  0  0  0  0  0  0  0  0  0  0  # atno 17371 bound_to 10713
  140.2990  134.8179  157.4082 LP  0  0  0  0  0  0  0  0  0  0  0  0  # atno 17394 bound_to 11000
  140.1278  134.5134  155.8130 LP  0  0  0  0  0  0  0  0  0  0  0  0  # atno 17395 bound_to 11000

$$$$
