AV-unprocessed.smi:2482|AV-procd|sdf|9784|dock4
  -GOLD-   2272013423D 1   1.00000     0.00000
 Structure written by MMmdl.
 34 35  0  0  0  0  0  0  0  0  3 V2000
  153.1803  142.3556  160.6018 C   0  0  0  0  0  0  0  0  0  0  0  0
  152.4661  142.0720  159.2934 C   0  0  0  0  0  0  0  0  0  0  0  0
  151.8285  143.1249  158.7380 N   0  0  0  0  0  0  0  0  0  0  0  0
  151.1827  142.9242  157.5724 C   0  0  0  0  0  0  0  0  0  0  0  0
  151.1416  141.6795  156.9163 C   0  0  0  0  0  0  0  0  0  0  0  0
  151.7969  140.5669  157.4894 C   0  0  0  0  0  0  0  0  0  0  0  0
  151.7718  139.3738  156.8727 N   0  5  0  0  0  0  0  0  0  0  0  0
  151.9042  139.3065  155.5254 C   0  0  0  0  0  0  0  0  0  0  0  0
  152.7672  139.8209  154.8113 O   0  0  0  0  0  0  0  0  0  0  0  0
  150.7855  138.4622  154.8965 C   0  0  1  0  0  0  0  0  0  0  0  0
  150.8467  136.9738  155.3085 C   0  0  0  0  0  0  0  0  0  0  0  0
  149.7091  136.2330  154.7180 N   0  3  1  0  0  0  0  0  0  0  0  0
  149.7439  134.7892  155.0323 C   0  0  0  0  0  0  0  0  0  0  0  0
  148.4220  136.8673  155.0827 C   0  0  0  0  0  0  0  0  0  0  0  0
  148.4319  138.3546  154.6927 C   0  0  0  0  0  0  0  0  0  0  0  0
  149.5343  139.0036  155.3128 O   0  0  0  0  0  0  0  0  0  0  0  0
  152.4836  140.7810  158.7129 C   0  0  0  0  0  0  0  0  0  0  0  0
  153.3343  139.4867  159.4930 Cl  0  0  0  0  0  0  0  0  0  0  0  0
  152.7845  141.7209  161.3950 H   0  0  0  0  0  0  0  0  0  0  0  0
  153.0572  143.3948  160.9094 H   0  0  0  0  0  0  0  0  0  0  0  0
  154.2477  142.1579  160.5011 H   0  0  0  0  0  0  0  0  0  0  0  0
  150.6831  143.7822  157.1478 H   0  0  0  0  0  0  0  0  0  0  0  0
  150.6073  141.5813  155.9825 H   0  0  0  0  0  0  0  0  0  0  0  0
  150.8643  138.5302  153.8086 H   0  0  0  0  0  0  0  0  0  0  0  0
  151.7842  136.5302  154.9693 H   0  0  0  0  0  0  0  0  0  0  0  0
  150.8146  136.8708  156.3948 H   0  0  0  0  0  0  0  0  0  0  0  0
  149.6551  134.6198  156.1063 H   0  0  0  0  0  0  0  0  0  0  0  0
  150.6798  134.3447  154.6919 H   0  0  0  0  0  0  0  0  0  0  0  0
  148.9262  134.2676  154.5342 H   0  0  0  0  0  0  0  0  0  0  0  0
  147.6018  136.3558  154.5776 H   0  0  0  0  0  0  0  0  0  0  0  0
  148.2530  136.7647  156.1558 H   0  0  0  0  0  0  0  0  0  0  0  0
  148.4860  138.4744  153.6095 H   0  0  0  0  0  0  0  0  0  0  0  0
  147.5097  138.8351  155.0202 H   0  0  0  0  0  0  0  0  0  0  0  0
  149.8009  136.3163  153.7155 H   0  0  0  0  0  0  0  0  0  0  0  0
  1  2  1  0  0  0  0
  1 19  1  0  0  0  0
  1 20  1  0  0  0  0
  1 21  1  0  0  0  0
  2 17  1  0  0  0  0
  2  3  2  0  0  0  0
  3  4  1  0  0  0  0
  4  5  2  0  0  0  0
  4 22  1  0  0  0  0
  5  6  1  0  0  0  0
  5 23  1  0  0  0  0
  6  7  1  0  0  0  0
  6 17  2  0  0  0  0
  7  8  1  0  0  0  0
  8  9  2  0  0  0  0
  8 10  1  0  0  0  0
 10 16  1  0  0  0  0
 10 11  1  0  0  0  0
 10 24  1  0  0  0  0
 11 12  1  0  0  0  0
 11 25  1  0  0  0  0
 11 26  1  0  0  0  0
 12 13  1  0  0  0  0
 12 14  1  0  0  0  0
 12 34  1  0  0  0  0
 13 27  1  0  0  0  0
 13 28  1  0  0  0  0
 13 29  1  0  0  0  0
 14 15  1  0  0  0  0
 14 30  1  0  0  0  0
 14 31  1  0  0  0  0
 15 16  1  0  0  0  0
 15 32  1  0  0  0  0
 15 33  1  0  0  0  0
 17 18  1  0  0  0  0
M  CHG  1   7  -1
M  CHG  1  12   1
M  END
> <s_m_source_file>
AV-unprocessed.smi

> <i_m_source_file_index>
2482

> <i_lp_mmshare_version>
43012

> <i_f3d_flags>
0

> <s_epik_input>
W0NIM11jMW5bY0hdW2NIXWMoYzFDbClbTkhdQyg9TylbQ0BASF0yW0NIMl1OKFtDSDNdKVtDSDJdW0NIMl1PMg==

> <s_epik_cmdline>
J2VwaWtfcHl0aG9uJywgJy1waCcsICc3LjAnLCAnLXRuJywgJzgnLCAnLW1hJywgJzIwMCcsICctbWV0YWxfYmluZGluZycsICctaW1hZScsICc8aW5maWxlLm1hZT4nLCAnLW9tYWUnLCAnPG91dGZpbGUubWFlPic=

> <r_epik_Ionization_Penalty>
6.9249

> <r_epik_Ionization_Penalty_Charging>
6.74596

> <r_epik_Ionization_Penalty_Neutral>
0.178941

> <r_epik_State_Penalty>
6.78185

> <r_epik_Charging_Adjusted_Penalty>
13.5278

> <i_epik_Tot_Q>
0

> <i_epik_Tot_abs_Q>
2

> <r_epik_Metal_State_Penalty>
2.70608

> <b_epik_Metal_Only>
1

> <s_lp_Force_Field>
OPLS_2005

> <r_lp_Energy>
14.2833

> <b_lp_Chiralities_Consistent>
1

> <s_lp_Variant>
AV-unprocessed.smi:2482-10

> <Gold.Version>
5.8.1

> <Gold.Id.Protein>
6NUR|6NUR_protein|mol2

> <Gold.PLP.Fitness>
43.9593

> <Gold.PLP.PLP>
-31.8530

> <Gold.PLP.part.hbond>
-3.0000

> <Gold.PLP.part.metal>
0.0000

> <Gold.PLP.part.buried>
-5.0532

> <Gold.PLP.part.nonpolar>
-24.9758

> <Gold.PLP.part.repulsive>
0.1520

> <Gold.PLP.ligand.clash>
0.0000

> <Gold.PLP.ligand.torsion>
0.8275

> <Gold.PLP.Chemscore.Hbond>
3.4364

> <Gold.PLP.Chemscore.CHOScore>
1.0000

> <Gold.PLP.Chemscore.Metal>
0.0000

> <Gold.Chemscore.Hbonds>
donor molecule, donor type, donor heavy atom, donor atom, acceptor molecule, acceptor atom, score
      L1  H    12    34       P1  7948  2.00
      P1  H  7989  7998       L1     9  0.46
      P1  H  7997  8009       L1     9  0.94
      L1  C     4    22       P1  8028  1.00

> <Gold.PLP.Chemscore.Internal.Correction>
0.4521

> <Gold.Rescore>
     Score         DG    S(hbond)    S(metal)    S(lipo)     H(rot)  DE(clash)    DE(int)     intcor
     17.73     -18.54       1.99        0.00      76.74       1.00       0.02       0.79       ----

> <Gold.Chemscore.Fitness>
17.7287

> <Gold.Chemscore.DG>
-18.5430

> <Gold.Chemscore.ZeroCoef>
-5.4800

> <Gold.Chemscore.Hbond>
1.9893

> <Gold.Chemscore.Metal>
0.0000

> <Gold.Chemscore.Lipo>
76.7408

> <Gold.Chemscore.Internal_Hbond>
0.0000

> <Gold.Chemscore.DEClash>
0.0215

> <Gold.Chemscore.DEInternal>
0.7929

> <Gold.Chemscore.Rot>
1.0000

> <Gold.Chemscore.Internal.Correction>
   9.000000E+99

> <Gold.Chemscore.Hbonds>
donor molecule, donor type, donor heavy atom, donor atom, acceptor molecule, acceptor atom, score
      L1  H    12    34       P1  7948  0.27
      P1  H  7989  7998       L1     9  0.18
      P1  H  7997  8009       L1     9  0.83

> <Gold.Chemscore.Hbond.Weighted>
-6.6444

> <Gold.Chemscore.Metal.Weighted>
-0.0000

> <Gold.Chemscore.Lipo.Weighted>
-8.9787

> <Gold.Chemscore.Internal_Hbond.Weighted>
0.0000

> <Gold.Chemscore.DEClash.Weighted>
0.0215

> <Gold.Chemscore.DEInternal.Weighted>
0.7929

> <Gold.Chemscore.Rot.Weighted>
2.5600

> <Gold.Chemscore.Internal.Correction.Weighted>
   9.000000E+99

> <Gold.Protein.RotatedTorsions>
[ 6907 6896 6895 6894 ] final  -98.11 input  -60.11 | X-H torsion
[ 7974 7965 7964 7962 ] final  175.12 input  175.53 | X-H torsion
[ 8008 7997 7996 7995 ] final -123.70 input   59.86 | X-H torsion
[ 10167 10162 10161 10158 ] final -103.56 input  -65.29 | X-H torsion
[ 10718 10713 10712 10709 ] final  -33.90 input   66.30 | X-H torsion
[ 10763 10752 10751 10750 ] final -112.07 input  -60.55 | X-H torsion
[ 11005 11000 10999 10996 ] final  160.35 input  -57.11 | X-H torsion

> <Gold.Protein.ActiveResidues>
 VAL166  LYS551  ARG553  GLY616  TRP617  ASP618  TYR619  PRO620  LYS621  CYS622 
 ASP623  PHE694  ASN695  SER759  ASP760  ASP761  ALA762  ILE779  LEU786  VAL792 
 PHE793  MET794  SER795  GLU796  ALA797  LYS798  CYS799  TRP800  GLU811  SER814 

> <Gold.Protein.RotatedAtoms>
  150.7036  134.1245  159.4046 H   0  0  0  0  0  0  0  0  0  0  0  0  # atno 6907 bound_to 6896
  151.9231  135.0287  160.0533 H   0  0  0  0  0  0  0  0  0  0  0  0  # atno 6908 bound_to 6896
  152.2239  133.4970  159.5214 H   0  0  0  0  0  0  0  0  0  0  0  0  # atno 6909 bound_to 6896
  144.7208  139.9900  143.6440 H   0  0  0  0  0  0  0  0  0  0  0  0  # atno 7974 bound_to 7965
  155.1847  140.0411  157.2889 H   0  0  0  0  0  0  0  0  0  0  0  0  # atno 8008 bound_to 7997
  154.6179  140.2493  155.7558 H   0  0  0  0  0  0  0  0  0  0  0  0  # atno 8009 bound_to 7997
  156.2417  140.2901  156.0473 H   0  0  0  0  0  0  0  0  0  0  0  0  # atno 8010 bound_to 7997
  140.2187  143.3692  152.0988 H   0  0  0  0  0  0  0  0  0  0  0  0  # atno 10167 bound_to 10162
  156.3570  130.4317  149.7655 H   0  0  0  0  0  0  0  0  0  0  0  0  # atno 10718 bound_to 10713
  154.8332  135.4504  154.1137 H   0  0  0  0  0  0  0  0  0  0  0  0  # atno 10763 bound_to 10752
  153.2392  135.6914  153.7808 H   0  0  0  0  0  0  0  0  0  0  0  0  # atno 10764 bound_to 10752
  153.7162  135.3349  155.3233 H   0  0  0  0  0  0  0  0  0  0  0  0  # atno 10765 bound_to 10752
  140.2051  134.8309  157.3060 H   0  0  0  0  0  0  0  0  0  0  0  0  # atno 11005 bound_to 11000
  146.0420  139.3430  143.0692 LP  0  0  0  0  0  0  0  0  0  0  0  0  # atno 17320 bound_to 7965
  145.8323  140.9624  143.0842 LP  0  0  0  0  0  0  0  0  0  0  0  0  # atno 17321 bound_to 7965
  139.5152  144.6960  151.5629 LP  0  0  0  0  0  0  0  0  0  0  0  0  # atno 17342 bound_to 10162
  140.6271  143.9148  150.6574 LP  0  0  0  0  0  0  0  0  0  0  0  0  # atno 17343 bound_to 10162
  156.4834  130.8051  151.3065 LP  0  0  0  0  0  0  0  0  0  0  0  0  # atno 17370 bound_to 10713
  157.7469  130.9998  150.2904 LP  0  0  0  0  0  0  0  0  0  0  0  0  # atno 17371 bound_to 10713
  140.2011  134.4253  155.7662 LP  0  0  0  0  0  0  0  0  0  0  0  0  # atno 17394 bound_to 11000
  141.2227  133.7072  156.8185 LP  0  0  0  0  0  0  0  0  0  0  0  0  # atno 17395 bound_to 11000

$$$$
