#       Name:                AV-unprocessed.smi:23
#       Creating user name   scv26
#       Creation time:       Thu Mar 26 15:42:57 2020


#       File generated by GOLD software.
#

@<TRIPOS>MOLECULE
AV-unprocessed.smi:23
    63    66     1
SMALL
NO_CHARGES


@<TRIPOS>ATOM
      1 ****        -4.9192   0.4426   2.8899 C.3            1 S1                 0.0000
      2 ****        -4.8438  -0.6942   2.0373 O.3            1 S1                 0.0000
      3 ****        -4.4343  -0.5072   0.6783 C.3            1 S1                 0.0000
      4 ****        -4.2125  -1.9530   0.1899 C.3            1 S1                 0.0000
      5 ****        -5.5557   0.1927  -0.1311 C.3            1 S1                 0.0000
      6 ****        -5.1175   0.4816  -1.5777 C.3            1 S1                 0.0000
      7 ****        -3.7846   1.2473  -1.6140 C.3            1 S1                 0.0000
      8 ****        -2.7633   0.5522  -0.8292 N.3            1 S1                 0.0000
      9 ****        -1.4629   0.8775  -1.0395 C.ar           1 S1                 0.0000
     10 ****        -1.1437   2.0843  -1.5792 N.ar           1 S1                 0.0000
     11 ****         0.1348   2.4159  -1.7816 C.ar           1 S1                 0.0000
     12 ****         1.2330   1.7047  -1.5197 N.ar           1 S1                 0.0000
     13 ****         0.9207   0.4911  -0.9811 C.ar           1 S1                 0.0000
     14 ****        -0.3893  -0.0001  -0.7170 C.ar           1 S1                 0.0000
     15 ****        -0.3153  -1.2874  -0.1975 N.2            1 S1                 0.0000
     16 ****         0.9642  -1.5393  -0.1511 C.2            1 S1                 0.0000
     17 ****         1.7807  -0.5140  -0.5725 N.pl3          1 S1                 0.0000
     18 ****         3.2120  -0.5407  -0.6609 C.3            1 S1                 0.0000
     19 ****         4.0494  -1.3403   0.3426 C.3            1 S1                 0.0000
     20 ****         5.1397  -0.2462   0.3259 C.3            1 S1                 0.0000
     21 ****         5.6530   0.1867   1.7081 C.3            1 S1                 0.0000
     22 ****         6.3109  -0.8740   2.3712 O.3            1 S1                 0.0000
     23 ****         6.3797  -0.5007  -0.5601 C.3            1 S1                 0.0000
     24 ****         6.0548  -0.8581  -1.8881 O.3            1 S1                 0.0000
     25 ****         4.0525   0.6780  -0.2670 C.3            1 S1                 0.0000
     26 ****        -3.1176   0.3017   0.5683 C.3            1 S1                 0.0000
     27 ****        -5.3290   0.1327   3.8511 H              1 S1                 0.0000
     28 ****        -5.5699   1.2228   2.4985 H              1 S1                 0.0000
     29 ****        -3.9348   0.8666   3.0873 H              1 S1                 0.0000
     30 ****        -3.8716  -1.9955  -0.8442 H              1 S1                 0.0000
     31 ****        -5.1311  -2.5369   0.2575 H              1 S1                 0.0000
     32 ****        -3.4589  -2.4579   0.7955 H              1 S1                 0.0000
     33 ****        -6.4636  -0.4111  -0.1263 H              1 S1                 0.0000
     34 ****        -5.8202   1.1442   0.3278 H              1 S1                 0.0000
     35 ****        -5.0184  -0.4517  -2.1320 H              1 S1                 0.0000
     36 ****        -5.8885   1.0567  -2.0910 H              1 S1                 0.0000
     37 ****        -3.4584   1.3532  -2.6496 H              1 S1                 0.0000
     38 ****        -3.9213   2.2531  -1.2143 H              1 S1                 0.0000
     39 ****         0.3023   3.3922  -2.2120 H              1 S1                 0.0000
     40 ****         1.3491  -2.4859   0.1997 H              1 S1                 0.0000
     41 ****         3.4386  -0.8488  -1.6823 H              1 S1                 0.0000
     42 ****         3.5608  -1.4304   1.3143 H              1 S1                 0.0000
     43 ****         4.3751  -2.3158  -0.0200 H              1 S1                 0.0000
     44 ****         6.3365   1.0330   1.6286 H              1 S1                 0.0000
     45 ****         4.8300   0.5147   2.3440 H              1 S1                 0.0000
     46 ****         6.5934  -0.5685   3.2198 H              1 S1                 0.0000
     47 ****         7.0117   0.3870  -0.6026 H              1 S1                 0.0000
     48 ****         6.9948  -1.3020  -0.1497 H              1 S1                 0.0000
     49 ****         6.8578  -0.9969  -2.3667 H              1 S1                 0.0000
     50 ****         4.3783   1.2891  -1.1095 H              1 S1                 0.0000
     51 ****         3.5574   1.2925   0.4869 H              1 S1                 0.0000
     52 ****        -3.2260   1.2781   1.0407 H              1 S1                 0.0000
     53 ****        -2.3223  -0.2142   1.1054 H              1 S1                 0.0000
     54 ****        -5.7541  -1.1076   2.0164 LP             1 S1                 0.0000
     55 ****        -4.1972  -1.3329   2.4545 LP             1 S1                 0.0000
     56 ****        -2.7938  -0.3470  -1.2657 LP             1 S1                 0.0000
     57 ****        -1.8693   2.7266  -1.8258 LP             1 S1                 0.0000
     58 ****         2.1653   2.0208  -1.6957 LP             1 S1                 0.0000
     59 ****        -1.0695  -1.8836   0.0775 LP             1 S1                 0.0000
     60 ****         7.1041  -1.1656   1.8365 LP             1 S1                 0.0000
     61 ****         5.6824  -1.6439   2.4820 LP             1 S1                 0.0000
     62 ****         5.5298  -0.1227  -2.3164 LP             1 S1                 0.0000
     63 ****         5.5127  -1.6984  -1.8882 LP             1 S1                 0.0000
@<TRIPOS>BOND
    1    1    2 1     
    2    1   27 1     
    3    1   28 1     
    4    1   29 1     
    5    2    3 1     
    6    3   26 1     
    7    3    4 1     
    8    3    5 1     
    9    4   30 1     
   10    4   31 1     
   11    4   32 1     
   12    5    6 1     
   13    5   33 1     
   14    5   34 1     
   15    6    7 1     
   16    6   35 1     
   17    6   36 1     
   18    7    8 1     
   19    7   37 1     
   20    7   38 1     
   21    8    9 1     
   22    8   26 1     
   23    9   14 ar    
   24    9   10 ar    
   25   10   11 ar    
   26   11   12 ar    
   27   11   39 1     
   28   12   13 ar    
   29   13   17 1     
   30   13   14 ar    
   31   14   15 1     
   32   15   16 2     
   33   16   17 1     
   34   16   40 1     
   35   17   18 1     
   36   18   25 1     
   37   18   19 1     
   38   18   41 1     
   39   19   20 1     
   40   19   42 1     
   41   19   43 1     
   42   20   21 1     
   43   20   23 1     
   44   20   25 1     
   45   21   22 1     
   46   21   44 1     
   47   21   45 1     
   48   22   46 1     
   49   23   24 1     
   50   23   47 1     
   51   23   48 1     
   52   24   49 1     
   53   25   50 1     
   54   25   51 1     
   55   26   52 1     
   56   26   53 1     
   57    2   54 1     
   58    2   55 1     
   59    8   56 1     
   60   10   57 1     
   61   12   58 1     
   62   15   59 1     
   63   22   60 1     
   64   22   61 1     
   65   24   62 1     
   66   24   63 1     
@<TRIPOS>SUBSTRUCTURE
      1 S1             1
@<TRIPOS>SET
LONE_PAIRS      STATIC     ATOMS    <user>   **** ""
10 54 55 56 57 58 59 60 61 62 63
DONOR_HYDROGENS      STATIC     ATOMS    <user>   **** ""
2 46 49
ATOM$BLUE        STATIC     ATOMS    COLORGROUP SYSTEM
10 54 55 56 57 58 59 60 61 62 63
ATOM$RED        STATIC     ATOMS    COLORGROUP SYSTEM
2 46 49
