AV-unprocessed.smi:2923|AV-procd|sdf|11213|dock10
  -GOLD-   2272016103D 1   1.00000     0.00000
 Structure written by MMmdl.
 46 48  0  0  0  0  0  0  0  0  1 V2000
  143.6585  133.0992  149.5470 C   0  0  0  0  0  0  0  0  0  0  0  0
  144.0784  132.9623  150.9329 N   0  0  0  0  0  0  0  0  0  0  0  0
  145.1509  132.0133  151.1891 C   0  0  0  0  0  0  0  0  0  0  0  0
  144.2738  134.1975  151.5646 C   0  0  0  0  0  0  0  0  0  0  0  0
  143.3492  134.6933  152.5117 C   0  0  0  0  0  0  0  0  0  0  0  0
  143.5998  135.9397  153.1164 C   0  0  0  0  0  0  0  0  0  0  0  0
  144.7718  136.6489  152.7605 C   0  0  0  0  0  0  0  0  0  0  0  0
  145.1301  137.9203  153.2840 N   0  0  0  0  0  0  0  0  0  0  0  0
  146.2032  138.6750  152.9930 C   0  0  0  0  0  0  0  0  0  0  0  0
  147.0875  138.3785  152.1900 O   0  0  0  0  0  0  0  0  0  0  0  0
  146.1846  139.8212  153.6850 N   0  0  0  0  0  0  0  0  0  0  0  0
  147.1981  140.8753  153.6064 C   0  0  1  0  0  0  0  0  0  0  0  0
  146.8692  142.0936  154.4986 C   0  0  1  0  0  0  0  0  0  0  0  0
  145.5244  142.2914  155.1548 C   0  0  0  0  0  0  0  0  0  0  0  0
  145.7543  141.7482  156.5682 C   0  0  0  0  0  0  0  0  0  0  0  0
  146.8883  140.8915  156.4498 O   0  0  0  0  0  0  0  0  0  0  0  0
  147.8030  141.5028  155.5425 C   0  0  1  0  0  0  0  0  0  0  0  0
  148.4430  140.5801  154.4838 C   0  0  0  0  0  0  0  0  0  0  0  0
  148.7168  139.1328  154.9153 C   0  0  0  0  0  0  0  0  0  0  0  0
  149.7575  141.1114  153.9044 C   0  0  0  0  0  0  0  0  0  0  0  0
  145.6207  136.0699  151.7945 C   0  0  0  0  0  0  0  0  0  0  0  0
  145.3878  134.8746  151.2125 N   0  0  0  0  0  0  0  0  0  0  0  0
  142.8488  133.8244  149.4558 H   0  0  0  0  0  0  0  0  0  0  0  0
  143.2977  132.1431  149.1673 H   0  0  0  0  0  0  0  0  0  0  0  0
  144.4876  133.4261  148.9185 H   0  0  0  0  0  0  0  0  0  0  0  0
  145.3835  131.9702  152.2540 H   0  0  0  0  0  0  0  0  0  0  0  0
  146.0569  132.2885  150.6480 H   0  0  0  0  0  0  0  0  0  0  0  0
  144.8527  131.0145  150.8697 H   0  0  0  0  0  0  0  0  0  0  0  0
  142.4622  134.1338  152.7705 H   0  0  0  0  0  0  0  0  0  0  0  0
  142.8851  136.3276  153.8251 H   0  0  0  0  0  0  0  0  0  0  0  0
  144.4563  138.3331  153.9124 H   0  0  0  0  0  0  0  0  0  0  0  0
  145.4160  139.9822  154.3196 H   0  0  0  0  0  0  0  0  0  0  0  0
  147.4604  141.1713  152.5890 H   0  0  0  0  0  0  0  0  0  0  0  0
  147.2873  143.0078  154.0741 H   0  0  0  0  0  0  0  0  0  0  0  0
  145.2291  143.3407  155.1810 H   0  0  0  0  0  0  0  0  0  0  0  0
  144.7323  141.7447  154.6431 H   0  0  0  0  0  0  0  0  0  0  0  0
  145.9948  142.5605  157.2556 H   0  0  0  0  0  0  0  0  0  0  0  0
  144.8884  141.2147  156.9603 H   0  0  0  0  0  0  0  0  0  0  0  0
  148.4649  142.2316  156.0128 H   0  0  0  0  0  0  0  0  0  0  0  0
  149.5631  139.0734  155.6003 H   0  0  0  0  0  0  0  0  0  0  0  0
  148.9421  138.4977  154.0581 H   0  0  0  0  0  0  0  0  0  0  0  0
  147.8664  138.6874  155.4319 H   0  0  0  0  0  0  0  0  0  0  0  0
  150.5550  141.1048  154.6480 H   0  0  0  0  0  0  0  0  0  0  0  0
  149.6569  142.1384  153.5520 H   0  0  0  0  0  0  0  0  0  0  0  0
  150.0917  140.5123  153.0567 H   0  0  0  0  0  0  0  0  0  0  0  0
  146.5204  136.5786  151.4801 H   0  0  0  0  0  0  0  0  0  0  0  0
  1  2  1  0  0  0  0
  1 23  1  0  0  0  0
  1 24  1  0  0  0  0
  1 25  1  0  0  0  0
  2  3  1  0  0  0  0
  2  4  1  0  0  0  0
  3 26  1  0  0  0  0
  3 27  1  0  0  0  0
  3 28  1  0  0  0  0
  4 22  1  0  0  0  0
  4  5  2  0  0  0  0
  5  6  1  0  0  0  0
  5 29  1  0  0  0  0
  6  7  2  0  0  0  0
  6 30  1  0  0  0  0
  7  8  1  0  0  0  0
  7 21  1  0  0  0  0
  8  9  1  0  0  0  0
  8 31  1  0  0  0  0
  9 10  2  0  0  0  0
  9 11  1  0  0  0  0
 11 12  1  0  0  0  0
 11 32  1  0  0  0  0
 12 18  1  0  0  0  0
 12 13  1  0  0  0  0
 12 33  1  0  0  0  0
 13 17  1  0  0  0  0
 13 14  1  0  0  0  0
 13 34  1  0  0  0  0
 14 15  1  0  0  0  0
 14 35  1  0  0  0  0
 14 36  1  0  0  0  0
 15 16  1  0  0  0  0
 15 37  1  0  0  0  0
 15 38  1  0  0  0  0
 16 17  1  0  0  0  0
 17 18  1  0  0  0  0
 17 39  1  0  0  0  0
 18 19  1  0  0  0  0
 18 20  1  0  0  0  0
 19 40  1  0  0  0  0
 19 41  1  0  0  0  0
 19 42  1  0  0  0  0
 20 43  1  0  0  0  0
 20 44  1  0  0  0  0
 20 45  1  0  0  0  0
 21 22  2  0  0  0  0
 21 46  1  0  0  0  0
M  END
> <s_m_source_file>
AV-unprocessed.smi

> <i_m_source_file_index>
2923

> <i_lp_mmshare_version>
43012

> <i_f3d_flags>
0

> <s_epik_input>
W0NIM11OKFtDSDNdKWMxW2NIXVtjSF1jKFtjSF1uMSlbTkhdQyg9TylbTkhdW0NASF0yQyhbQ0gzXSkoW0NIM10pW0NAQEhdKFtDQEhdMjMpT1tDSDJdW0NIMl0z

> <s_epik_cmdline>
J2VwaWtfcHl0aG9uJywgJy1waCcsICc3LjAnLCAnLXRuJywgJzgnLCAnLW1hJywgJzIwMCcsICctbWV0YWxfYmluZGluZycsICctaW1hZScsICc8aW5maWxlLm1hZT4nLCAnLW9tYWUnLCAnPG91dGZpbGUubWFlPic=

> <r_lp_tautomer_probability>
1

> <r_epik_Ionization_Penalty>
0.628785

> <r_epik_Ionization_Penalty_Charging>
0

> <r_epik_Ionization_Penalty_Neutral>
0.628785

> <r_epik_State_Penalty>
0.644286

> <r_epik_Charging_Adjusted_Penalty>
0.644286

> <i_epik_Tot_Q>
0

> <i_epik_Tot_abs_Q>
0

> <r_epik_Metal_State_Penalty>
0.308404

> <b_epik_Metal_Only>
0

> <s_lp_Force_Field>
OPLS_2005

> <r_lp_Energy>
44.9089

> <b_lp_Chiralities_Consistent>
1

> <s_lp_Variant>
AV-unprocessed.smi:2923-12

> <Gold.Version>
5.8.1

> <Gold.Id.Protein>
6NUR|6NUR_protein|mol2

> <Gold.PLP.Fitness>
37.6463

> <Gold.PLP.PLP>
-32.2975

> <Gold.PLP.part.hbond>
-2.0000

> <Gold.PLP.part.metal>
0.0000

> <Gold.PLP.part.buried>
-3.6272

> <Gold.PLP.part.nonpolar>
-30.8639

> <Gold.PLP.part.repulsive>
4.1821

> <Gold.PLP.ligand.clash>
0.0000

> <Gold.PLP.ligand.torsion>
0.3266

> <Gold.PLP.Chemscore.Hbond>
0.8689

> <Gold.PLP.Chemscore.CHOScore>
1.0000

> <Gold.PLP.Chemscore.Metal>
0.0000

> <Gold.Chemscore.Hbonds>
donor molecule, donor type, donor heavy atom, donor atom, acceptor molecule, acceptor atom, score
      L1  C    21    46       P1  7948  1.00

> <Gold.PLP.Chemscore.Internal.Correction>
0.3954

> <Gold.Rescore>
     Score         DG    S(hbond)    S(metal)    S(lipo)     H(rot)  DE(clash)    DE(int)     intcor
      8.52     -20.98       2.23        0.00      95.02       1.19       7.96       4.49       ----

> <Gold.Chemscore.Fitness>
8.5232

> <Gold.Chemscore.DG>
-20.9785

> <Gold.Chemscore.ZeroCoef>
-5.4800

> <Gold.Chemscore.Hbond>
2.2267

> <Gold.Chemscore.Metal>
0.0000

> <Gold.Chemscore.Lipo>
95.0192

> <Gold.Chemscore.Internal_Hbond>
0.0000

> <Gold.Chemscore.DEClash>
7.9630

> <Gold.Chemscore.DEInternal>
4.4923

> <Gold.Chemscore.Rot>
1.1937

> <Gold.Chemscore.Internal.Correction>
   9.000000E+99

> <Gold.Chemscore.Hbond.Weighted>
-7.4372

> <Gold.Chemscore.Metal.Weighted>
-0.0000

> <Gold.Chemscore.Lipo.Weighted>
-11.1172

> <Gold.Chemscore.Internal_Hbond.Weighted>
0.0000

> <Gold.Chemscore.DEClash.Weighted>
7.9630

> <Gold.Chemscore.DEInternal.Weighted>
4.4923

> <Gold.Chemscore.Rot.Weighted>
3.0559

> <Gold.Chemscore.Internal.Correction.Weighted>
   9.000000E+99

> <Gold.Protein.RotatedTorsions>
[ 6907 6896 6895 6894 ] final  -86.54 input  -60.11 | X-H torsion
[ 7974 7965 7964 7962 ] final -121.06 input  175.53 | X-H torsion
[ 8008 7997 7996 7995 ] final  -95.89 input   59.86 | X-H torsion
[ 10167 10162 10161 10158 ] final  162.00 input  -65.29 | X-H torsion
[ 10718 10713 10712 10709 ] final   62.46 input   66.30 | X-H torsion
[ 10763 10752 10751 10750 ] final   30.05 input  -60.55 | X-H torsion
[ 11005 11000 10999 10996 ] final -117.51 input  -57.11 | X-H torsion

> <Gold.Protein.ActiveResidues>
 VAL166  LYS551  ARG553  GLY616  TRP617  ASP618  TYR619  PRO620  LYS621  CYS622 
 ASP623  PHE694  ASN695  SER759  ASP760  ASP761  ALA762  ILE779  LEU786  VAL792 
 PHE793  MET794  SER795  GLU796  ALA797  LYS798  CYS799  TRP800  GLU811  SER814 

> <Gold.Protein.RotatedAtoms>
  150.6867  134.3035  159.4715 H   0  0  0  0  0  0  0  0  0  0  0  0  # atno 6907 bound_to 6896
  152.0928  134.9393  160.0580 H   0  0  0  0  0  0  0  0  0  0  0  0  # atno 6908 bound_to 6896
  152.0702  133.4068  159.4493 H   0  0  0  0  0  0  0  0  0  0  0  0  # atno 6909 bound_to 6896
  145.0444  140.8170  143.4247 H   0  0  0  0  0  0  0  0  0  0  0  0  # atno 7974 bound_to 7965
  154.7673  140.0476  157.1022 H   0  0  0  0  0  0  0  0  0  0  0  0  # atno 8008 bound_to 7997
  154.9864  140.3108  155.4905 H   0  0  0  0  0  0  0  0  0  0  0  0  # atno 8009 bound_to 7997
  156.2915  140.2226  156.4966 H   0  0  0  0  0  0  0  0  0  0  0  0  # atno 8010 bound_to 7997
  139.4855  144.4481  151.8865 H   0  0  0  0  0  0  0  0  0  0  0  0  # atno 10167 bound_to 10162
  157.5902  130.9051  149.9590 H   0  0  0  0  0  0  0  0  0  0  0  0  # atno 10718 bound_to 10713
  153.0394  135.6474  154.0984 H   0  0  0  0  0  0  0  0  0  0  0  0  # atno 10763 bound_to 10752
  154.0694  135.2882  155.3312 H   0  0  0  0  0  0  0  0  0  0  0  0  # atno 10764 bound_to 10752
  154.6605  135.5393  153.8076 H   0  0  0  0  0  0  0  0  0  0  0  0  # atno 10765 bound_to 10752
  141.0350  133.9924  157.3085 H   0  0  0  0  0  0  0  0  0  0  0  0  # atno 11005 bound_to 11000
  145.1606  139.2461  143.5393 LP  0  0  0  0  0  0  0  0  0  0  0  0  # atno 17320 bound_to 7965
  146.3512  140.1332  142.8596 LP  0  0  0  0  0  0  0  0  0  0  0  0  # atno 17321 bound_to 7965
  140.3936  144.2583  150.5898 LP  0  0  0  0  0  0  0  0  0  0  0  0  # atno 17342 bound_to 10162
  140.5123  143.2287  151.8517 LP  0  0  0  0  0  0  0  0  0  0  0  0  # atno 17343 bound_to 10162
  156.0956  130.3659  150.0313 LP  0  0  0  0  0  0  0  0  0  0  0  0  # atno 17370 bound_to 10713
  156.8438  130.9435  151.3630 LP  0  0  0  0  0  0  0  0  0  0  0  0  # atno 17371 bound_to 10713
  139.9234  135.0201  156.8147 LP  0  0  0  0  0  0  0  0  0  0  0  0  # atno 17394 bound_to 11000
  140.6339  133.9880  155.7675 LP  0  0  0  0  0  0  0  0  0  0  0  0  # atno 17395 bound_to 11000

$$$$
