AV-unprocessed.smi:748|AV-procd|sdf|3583|dock3
  -GOLD-   22720 0573D 1   1.00000     0.00000
 Structure written by MMmdl.
 50 51  0  0  0  0  0  0  0  0  1 V2000
  145.9189  130.0601  151.6984 C   0  0  0  0  0  0  0  0  0  0  0  0
  145.8937  131.5522  152.0648 C   0  0  0  0  0  0  0  0  0  0  0  0
  145.3936  132.4144  150.8981 C   0  0  0  0  0  0  0  0  0  0  0  0
  147.2250  131.9998  152.4641 N   0  0  0  0  0  0  0  0  0  0  0  0
  147.5103  133.1746  153.0476 C   0  0  0  0  0  0  0  0  0  0  0  0
  146.6581  134.0252  153.3064 O   0  0  0  0  0  0  0  0  0  0  0  0
  148.9849  133.4154  153.3850 C   0  0  0  0  0  0  0  0  0  0  0  0
  149.2119  133.8457  154.8476 C   0  0  0  0  0  0  0  0  0  0  0  0
  149.6132  135.2448  154.9346 N   0  0  0  0  0  0  0  0  0  0  0  0
  150.6647  135.7030  155.6330 C   0  0  0  0  0  0  0  0  0  0  0  0
  151.4256  134.9749  156.2716 O   0  0  0  0  0  0  0  0  0  0  0  0
  150.9140  137.1808  155.5348 C   0  0  0  0  0  0  0  0  0  0  0  0
  150.4989  137.9264  154.4092 C   0  0  0  0  0  0  0  0  0  0  0  0
  150.7547  139.3095  154.3903 C   0  0  0  0  0  0  0  0  0  0  0  0
  151.3684  139.9634  155.3977 N   0  0  0  0  0  0  0  0  0  0  0  0
  151.7553  139.2645  156.4929 C   0  0  0  0  0  0  0  0  0  0  0  0
  152.3854  139.9624  157.5457 N   0  0  0  0  0  0  0  0  0  0  0  0
  152.7277  139.1598  158.7166 C   0  0  0  0  0  0  0  0  0  0  0  0
  153.6682  139.9450  159.6463 C   0  0  0  0  0  0  0  0  0  0  0  0
  153.0807  141.1983  159.9812 O   0  0  0  0  0  0  0  0  0  0  0  0
  152.8609  142.0120  158.8323 C   0  0  2  0  0  0  0  0  0  0  0  0
  152.3188  143.3676  159.2968 C   0  0  0  0  0  0  0  0  0  0  0  0
  151.8833  141.2924  157.8839 C   0  0  0  0  0  0  0  0  0  0  0  0
  151.5447  137.8690  156.5943 C   0  0  0  0  0  0  0  0  0  0  0  0
  144.9274  129.7124  151.4072 H   0  0  0  0  0  0  0  0  0  0  0  0
  146.2445  129.4503  152.5418 H   0  0  0  0  0  0  0  0  0  0  0  0
  146.5969  129.8665  150.8665 H   0  0  0  0  0  0  0  0  0  0  0  0
  145.2041  131.6931  152.8990 H   0  0  0  0  0  0  0  0  0  0  0  0
  144.3886  132.1188  150.5960 H   0  0  0  0  0  0  0  0  0  0  0  0
  146.0431  132.3219  150.0270 H   0  0  0  0  0  0  0  0  0  0  0  0
  145.3558  133.4682  151.1762 H   0  0  0  0  0  0  0  0  0  0  0  0
  147.9885  131.3628  152.2880 H   0  0  0  0  0  0  0  0  0  0  0  0
  149.5398  132.4986  153.1808 H   0  0  0  0  0  0  0  0  0  0  0  0
  149.3756  134.1757  152.7077 H   0  0  0  0  0  0  0  0  0  0  0  0
  148.2929  133.7262  155.4225 H   0  0  0  0  0  0  0  0  0  0  0  0
  149.9621  133.2131  155.3263 H   0  0  0  0  0  0  0  0  0  0  0  0
  149.0577  135.9144  154.4222 H   0  0  0  0  0  0  0  0  0  0  0  0
  149.9943  137.4618  153.5745 H   0  0  0  0  0  0  0  0  0  0  0  0
  150.4551  139.9090  153.5433 H   0  0  0  0  0  0  0  0  0  0  0  0
  151.8096  138.9029  159.2466 H   0  0  0  0  0  0  0  0  0  0  0  0
  153.2055  138.2213  158.4389 H   0  0  0  0  0  0  0  0  0  0  0  0
  153.8462  139.3810  160.5618 H   0  0  0  0  0  0  0  0  0  0  0  0
  154.6398  140.1007  159.1749 H   0  0  0  0  0  0  0  0  0  0  0  0
  153.8127  142.1757  158.3233 H   0  0  0  0  0  0  0  0  0  0  0  0
  152.1484  144.0323  158.4496 H   0  0  0  0  0  0  0  0  0  0  0  0
  153.0229  143.8594  159.9683 H   0  0  0  0  0  0  0  0  0  0  0  0
  151.3742  143.2538  159.8294 H   0  0  0  0  0  0  0  0  0  0  0  0
  151.7540  141.8861  156.9779 H   0  0  0  0  0  0  0  0  0  0  0  0
  150.9038  141.1971  158.3549 H   0  0  0  0  0  0  0  0  0  0  0  0
  151.8772  137.3245  157.4662 H   0  0  0  0  0  0  0  0  0  0  0  0
  1  2  1  0  0  0  0
  1 25  1  0  0  0  0
  1 26  1  0  0  0  0
  1 27  1  0  0  0  0
  2  3  1  0  0  0  0
  2  4  1  0  0  0  0
  2 28  1  0  0  0  0
  3 29  1  0  0  0  0
  3 30  1  0  0  0  0
  3 31  1  0  0  0  0
  4  5  1  0  0  0  0
  4 32  1  0  0  0  0
  5  6  2  0  0  0  0
  5  7  1  0  0  0  0
  7  8  1  0  0  0  0
  7 33  1  0  0  0  0
  7 34  1  0  0  0  0
  8  9  1  0  0  0  0
  8 35  1  0  0  0  0
  8 36  1  0  0  0  0
  9 10  1  0  0  0  0
  9 37  1  0  0  0  0
 10 11  2  0  0  0  0
 10 12  1  0  0  0  0
 12 24  1  0  0  0  0
 12 13  2  0  0  0  0
 13 14  1  0  0  0  0
 13 38  1  0  0  0  0
 14 15  2  0  0  0  0
 14 39  1  0  0  0  0
 15 16  1  0  0  0  0
 16 17  1  0  0  0  0
 16 24  2  0  0  0  0
 17 23  1  0  0  0  0
 17 18  1  0  0  0  0
 18 19  1  0  0  0  0
 18 40  1  0  0  0  0
 18 41  1  0  0  0  0
 19 20  1  0  0  0  0
 19 42  1  0  0  0  0
 19 43  1  0  0  0  0
 20 21  1  0  0  0  0
 21 22  1  0  0  0  0
 21 23  1  0  0  0  0
 21 44  1  0  0  0  0
 22 45  1  0  0  0  0
 22 46  1  0  0  0  0
 22 47  1  0  0  0  0
 23 48  1  0  0  0  0
 23 49  1  0  0  0  0
 24 50  1  0  0  0  0
M  END
> <s_m_source_file>
AV-unprocessed.smi

> <i_m_source_file_index>
748

> <i_lp_mmshare_version>
43012

> <i_f3d_flags>
0

> <s_epik_input>
W0NIM11bQ0hdKFtDSDNdKVtOSF1DKD1PKVtDSDJdW0NIMl1bTkhdQyg9TyljMVtjSF1bY0hdbmMoW2NIXTEpTjJbQ0gyXVtDSDJdT1tDQEBIXShbQ0gzXSlbQ0gyXTI=

> <s_epik_cmdline>
J2VwaWtfcHl0aG9uJywgJy1waCcsICc3LjAnLCAnLXRuJywgJzgnLCAnLW1hJywgJzIwMCcsICctbWV0YWxfYmluZGluZycsICctaW1hZScsICc8aW5maWxlLm1hZT4nLCAnLW9tYWUnLCAnPG91dGZpbGUubWFlPic=

> <r_lp_tautomer_probability>
1

> <r_epik_Ionization_Penalty>
1.38678e-05

> <r_epik_Ionization_Penalty_Charging>
0

> <r_epik_Ionization_Penalty_Neutral>
1.38678e-05

> <r_epik_State_Penalty>
-0

> <r_epik_Charging_Adjusted_Penalty>
0

> <i_epik_Tot_Q>
0

> <i_epik_Tot_abs_Q>
0

> <r_epik_Metal_State_Penalty>
-0

> <b_epik_Metal_Only>
0

> <s_lp_Force_Field>
OPLS_2005

> <r_lp_Energy>
15.3694

> <b_lp_Chiralities_Consistent>
1

> <s_lp_Variant>
AV-unprocessed.smi:748-2

> <Gold.Version>
5.8.1

> <Gold.Id.Protein>
6NUR|6NUR_protein|mol2

> <Gold.PLP.Fitness>
47.9246

> <Gold.PLP.PLP>
-41.4046

> <Gold.PLP.part.hbond>
-3.8134

> <Gold.PLP.part.metal>
0.0000

> <Gold.PLP.part.buried>
-3.5898

> <Gold.PLP.part.nonpolar>
-32.5354

> <Gold.PLP.part.repulsive>
0.1677

> <Gold.PLP.ligand.clash>
0.0000

> <Gold.PLP.ligand.torsion>
1.2061

> <Gold.PLP.Chemscore.Hbond>
1.8583

> <Gold.PLP.Chemscore.CHOScore>
1.0000

> <Gold.PLP.Chemscore.Metal>
0.0000

> <Gold.Chemscore.Hbonds>
donor molecule, donor type, donor heavy atom, donor atom, acceptor molecule, acceptor atom, score
      L1  H     4    32       P1 10747  0.21
      P1  H  7997  8010       L1    17  0.50
      P1  H 10752 10763       L1    11  0.51
      L1  C    14    39       P1  7957  1.00

> <Gold.PLP.Chemscore.Internal.Correction>
0.3575

> <Gold.Rescore>
     Score         DG    S(hbond)    S(metal)    S(lipo)     H(rot)  DE(clash)    DE(int)     intcor
     15.80     -17.53       1.35        0.00     105.24       1.87       0.61       1.12       ----

> <Gold.Chemscore.Fitness>
15.7964

> <Gold.Chemscore.DG>
-17.5319

> <Gold.Chemscore.ZeroCoef>
-5.4800

> <Gold.Chemscore.Hbond>
1.3547

> <Gold.Chemscore.Metal>
0.0000

> <Gold.Chemscore.Lipo>
105.2356

> <Gold.Chemscore.Internal_Hbond>
0.0000

> <Gold.Chemscore.DEClash>
0.6132

> <Gold.Chemscore.DEInternal>
1.1223

> <Gold.Chemscore.Rot>
1.8692

> <Gold.Chemscore.Internal.Correction>
   9.000000E+99

> <Gold.Chemscore.Hbonds>
donor molecule, donor type, donor heavy atom, donor atom, acceptor molecule, acceptor atom, score
      L1  H     4    32       P1 10747  0.20
      P1  H  7997  8010       L1    17  0.02
      P1  H 10752 10763       L1    11  0.11

> <Gold.Chemscore.Hbond.Weighted>
-4.5245

> <Gold.Chemscore.Metal.Weighted>
-0.0000

> <Gold.Chemscore.Lipo.Weighted>
-12.3126

> <Gold.Chemscore.Internal_Hbond.Weighted>
0.0000

> <Gold.Chemscore.DEClash.Weighted>
0.6132

> <Gold.Chemscore.DEInternal.Weighted>
1.1223

> <Gold.Chemscore.Rot.Weighted>
4.7852

> <Gold.Chemscore.Internal.Correction.Weighted>
   9.000000E+99

> <Gold.Protein.RotatedTorsions>
[ 6907 6896 6895 6894 ] final   53.38 input  -60.11 | X-H torsion
[ 7974 7965 7964 7962 ] final -116.28 input  175.53 | X-H torsion
[ 8008 7997 7996 7995 ] final   56.40 input   59.86 | X-H torsion
[ 10167 10162 10161 10158 ] final  -36.23 input  -65.29 | X-H torsion
[ 10718 10713 10712 10709 ] final   11.70 input   66.30 | X-H torsion
[ 10763 10752 10751 10750 ] final  102.72 input  -60.55 | X-H torsion
[ 11005 11000 10999 10996 ] final  164.56 input  -57.11 | X-H torsion

> <Gold.Protein.ActiveResidues>
 VAL166  LYS551  ARG553  GLY616  TRP617  ASP618  TYR619  PRO620  LYS621  CYS622 
 ASP623  PHE694  ASN695  SER759  ASP760  ASP761  ALA762  ILE779  LEU786  VAL792 
 PHE793  MET794  SER795  GLU796  ALA797  LYS798  CYS799  TRP800  GLU811  SER814 

> <Gold.Protein.RotatedAtoms>
  152.3331  134.7233  160.0283 H   0  0  0  0  0  0  0  0  0  0  0  0  # atno 6907 bound_to 6896
  151.7643  133.3331  159.3435 H   0  0  0  0  0  0  0  0  0  0  0  0  # atno 6908 bound_to 6896
  150.7434  134.6008  159.6080 H   0  0  0  0  0  0  0  0  0  0  0  0  # atno 6909 bound_to 6896
  145.0986  140.8537  143.3939 H   0  0  0  0  0  0  0  0  0  0  0  0  # atno 7974 bound_to 7965
  155.5169  140.3478  155.4399 H   0  0  0  0  0  0  0  0  0  0  0  0  # atno 8008 bound_to 7997
  156.0811  140.1387  156.9738 H   0  0  0  0  0  0  0  0  0  0  0  0  # atno 8009 bound_to 7997
  154.4580  140.0946  156.6790 H   0  0  0  0  0  0  0  0  0  0  0  0  # atno 8010 bound_to 7997
  140.7147  143.3422  151.2332 H   0  0  0  0  0  0  0  0  0  0  0  0  # atno 10167 bound_to 10162
  156.9994  130.6073  149.5694 H   0  0  0  0  0  0  0  0  0  0  0  0  # atno 10718 bound_to 10713
  153.3433  135.4001  155.1589 H   0  0  0  0  0  0  0  0  0  0  0  0  # atno 10763 bound_to 10752
  154.8648  135.3639  154.5318 H   0  0  0  0  0  0  0  0  0  0  0  0  # atno 10764 bound_to 10752
  153.5764  135.7077  153.5542 H   0  0  0  0  0  0  0  0  0  0  0  0  # atno 10765 bound_to 10752
  140.2471  134.8005  157.3467 H   0  0  0  0  0  0  0  0  0  0  0  0  # atno 11005 bound_to 11000
  145.0981  139.2842  143.5700 LP  0  0  0  0  0  0  0  0  0  0  0  0  # atno 17320 bound_to 7965
  146.3530  140.0540  142.8634 LP  0  0  0  0  0  0  0  0  0  0  0  0  # atno 17321 bound_to 7965
  139.6933  143.9655  152.2870 LP  0  0  0  0  0  0  0  0  0  0  0  0  # atno 17342 bound_to 10162
  139.9324  144.6733  150.8349 LP  0  0  0  0  0  0  0  0  0  0  0  0  # atno 17343 bound_to 10162
  156.0177  130.5271  150.8183 LP  0  0  0  0  0  0  0  0  0  0  0  0  # atno 17370 bound_to 10713
  157.5401  131.0940  150.9838 LP  0  0  0  0  0  0  0  0  0  0  0  0  # atno 17371 bound_to 10713
  140.1594  134.4747  155.7905 LP  0  0  0  0  0  0  0  0  0  0  0  0  # atno 17394 bound_to 11000
  141.2205  133.6895  156.7518 LP  0  0  0  0  0  0  0  0  0  0  0  0  # atno 17395 bound_to 11000

$$$$
