AV-unprocessed.smi:113|AV-procd|sdf|1098|dock2
  -GOLD-   2262018203D 1   1.00000     0.00000
 Structure written by MMmdl.
 52 55  0  0  0  0  0  0  0  0  1 V2000
  149.6840  138.0794  158.5345 C   0  0  0  0  0  0  0  0  0  0  0  0
  148.8750  136.9366  159.1119 C   0  0  0  0  0  0  0  0  0  0  0  0
  148.4644  135.8648  158.2996 C   0  0  0  0  0  0  0  0  0  0  0  0
  147.7105  134.8172  158.8763 C   0  0  0  0  0  0  0  0  0  0  0  0
  147.2442  133.6219  158.0379 C   0  0  0  0  0  0  0  0  0  0  0  0
  147.3551  133.7475  156.5913 N   0  0  0  0  0  0  0  0  0  0  0  0
  148.6547  133.7729  156.0296 C   0  0  0  0  0  0  0  0  0  0  0  0
  149.6632  133.6937  156.7344 O   0  0  0  0  0  0  0  0  0  0  0  0
  148.7003  133.9173  154.5727 C   0  0  0  0  0  0  0  0  0  0  0  0
  150.0631  133.9521  153.8988 C   0  0  0  0  0  0  0  0  0  0  0  0
  147.5470  134.0195  153.8696 C   0  0  0  0  0  0  0  0  0  0  0  0
  146.2865  134.0005  154.4459 N   0  0  0  0  0  0  0  0  0  0  0  0
  145.0222  134.1328  153.6188 C   0  0  1  0  0  0  0  0  0  0  0  0
  145.1064  135.3511  152.6990 C   0  0  0  0  0  0  0  0  0  0  0  0
  145.7080  134.7462  151.4478 C   0  0  2  0  0  0  0  0  0  0  0  0
  145.4287  135.5314  150.3059 O   0  0  0  0  0  0  0  0  0  0  0  0
  145.1037  133.3301  151.4279 C   0  0  2  0  0  0  0  0  0  0  0  0
  143.7535  133.1857  150.6967 C   0  0  0  0  0  0  0  0  0  0  0  0
  143.8325  133.7161  149.3900 O   0  0  0  0  0  0  0  0  0  0  0  0
  144.8697  133.0081  152.8020 O   0  0  0  0  0  0  0  0  0  0  0  0
  146.1623  133.8786  155.8457 C   0  0  0  0  0  0  0  0  0  0  0  0
  145.0542  133.9038  156.3873 O   0  0  0  0  0  0  0  0  0  0  0  0
  147.3977  134.9058  160.2599 C   0  0  0  0  0  0  0  0  0  0  0  0
  146.6433  133.9013  160.9134 C   0  0  0  0  0  0  0  0  0  0  0  0
  146.3455  134.0069  162.2838 C   0  0  0  0  0  0  0  0  0  0  0  0
  146.7978  135.1174  163.0153 C   0  0  0  0  0  0  0  0  0  0  0  0
  147.5467  136.1202  162.3736 C   0  0  0  0  0  0  0  0  0  0  0  0
  147.8579  136.0352  160.9996 C   0  0  0  0  0  0  0  0  0  0  0  0
  148.5800  137.0216  160.4240 N   0  0  0  0  0  0  0  0  0  0  0  0
  150.2021  137.7707  157.6262 H   0  0  0  0  0  0  0  0  0  0  0  0
  150.4328  138.4258  159.2479 H   0  0  0  0  0  0  0  0  0  0  0  0
  149.0297  138.9159  158.2884 H   0  0  0  0  0  0  0  0  0  0  0  0
  148.7327  135.8598  157.2537 H   0  0  0  0  0  0  0  0  0  0  0  0
  147.7942  132.7240  158.3237 H   0  0  0  0  0  0  0  0  0  0  0  0
  146.2044  133.3853  158.2687 H   0  0  0  0  0  0  0  0  0  0  0  0
  149.9799  134.0541  152.8163 H   0  0  0  0  0  0  0  0  0  0  0  0
  150.6141  133.0337  154.1052 H   0  0  0  0  0  0  0  0  0  0  0  0
  150.6490  134.7945  154.2685 H   0  0  0  0  0  0  0  0  0  0  0  0
  147.6303  134.1300  152.7992 H   0  0  0  0  0  0  0  0  0  0  0  0
  144.1988  134.1732  154.3335 H   0  0  0  0  0  0  0  0  0  0  0  0
  144.0932  135.7110  152.5136 H   0  0  0  0  0  0  0  0  0  0  0  0
  145.6949  136.1614  153.1312 H   0  0  0  0  0  0  0  0  0  0  0  0
  146.7900  134.6763  151.5666 H   0  0  0  0  0  0  0  0  0  0  0  0
  145.9232  135.1878  149.5770 H   0  0  0  0  0  0  0  0  0  0  0  0
  145.8161  132.6123  151.0187 H   0  0  0  0  0  0  0  0  0  0  0  0
  143.4958  132.1305  150.6019 H   0  0  0  0  0  0  0  0  0  0  0  0
  142.9440  133.6630  151.2496 H   0  0  0  0  0  0  0  0  0  0  0  0
  142.9864  134.0673  149.1572 H   0  0  0  0  0  0  0  0  0  0  0  0
  146.2799  133.0359  160.3809 H   0  0  0  0  0  0  0  0  0  0  0  0
  145.7696  133.2353  162.7733 H   0  0  0  0  0  0  0  0  0  0  0  0
  146.5709  135.2012  164.0680 H   0  0  0  0  0  0  0  0  0  0  0  0
  147.8882  136.9697  162.9471 H   0  0  0  0  0  0  0  0  0  0  0  0
  1  2  1  0  0  0  0
  1 30  1  0  0  0  0
  1 31  1  0  0  0  0
  1 32  1  0  0  0  0
  2 29  1  0  0  0  0
  2  3  2  0  0  0  0
  3  4  1  0  0  0  0
  3 33  1  0  0  0  0
  4  5  1  0  0  0  0
  4 23  2  0  0  0  0
  5  6  1  0  0  0  0
  5 34  1  0  0  0  0
  5 35  1  0  0  0  0
  6 21  1  0  0  0  0
  6  7  1  0  0  0  0
  7  8  2  0  0  0  0
  7  9  1  0  0  0  0
  9 10  1  0  0  0  0
  9 11  2  0  0  0  0
 10 36  1  0  0  0  0
 10 37  1  0  0  0  0
 10 38  1  0  0  0  0
 11 12  1  0  0  0  0
 11 39  1  0  0  0  0
 12 13  1  0  0  0  0
 12 21  1  0  0  0  0
 13 20  1  0  0  0  0
 13 14  1  0  0  0  0
 13 40  1  0  0  0  0
 14 15  1  0  0  0  0
 14 41  1  0  0  0  0
 14 42  1  0  0  0  0
 15 16  1  0  0  0  0
 15 17  1  0  0  0  0
 15 43  1  0  0  0  0
 16 44  1  0  0  0  0
 17 18  1  0  0  0  0
 17 20  1  0  0  0  0
 17 45  1  0  0  0  0
 18 19  1  0  0  0  0
 18 46  1  0  0  0  0
 18 47  1  0  0  0  0
 19 48  1  0  0  0  0
 21 22  2  0  0  0  0
 23 28  1  0  0  0  0
 23 24  1  0  0  0  0
 24 25  2  0  0  0  0
 24 49  1  0  0  0  0
 25 26  1  0  0  0  0
 25 50  1  0  0  0  0
 26 27  2  0  0  0  0
 26 51  1  0  0  0  0
 27 28  1  0  0  0  0
 27 52  1  0  0  0  0
 28 29  2  0  0  0  0
M  END
> <s_m_source_file>
AV-unprocessed.smi

> <i_m_source_file_index>
113

> <i_lp_mmshare_version>
43012

> <i_f3d_flags>
0

> <s_epik_input>
W2NIXTFbY0hdW2NIXVtjSF1jKGMxMiluYyhbQ0gzXSlbY0hdYzJbQ0gyXW4zYyg9TyljKFtDSDNdKVtjSF1uKGMzPU8pW0NAQEhdNFtDSDJdW0NAQEhdKFtPSF0pW0NASF0oTzQpW0NIMl1bT0hd

> <s_epik_cmdline>
J2VwaWtfcHl0aG9uJywgJy1waCcsICc3LjAnLCAnLXRuJywgJzgnLCAnLW1hJywgJzIwMCcsICctbWV0YWxfYmluZGluZycsICctaW1hZScsICc8aW5maWxlLm1hZT4nLCAnLW9tYWUnLCAnPG91dGZpbGUubWFlPic=

> <r_lp_tautomer_probability>
1

> <r_epik_Ionization_Penalty>
0.214728

> <r_epik_Ionization_Penalty_Charging>
3.04883e-08

> <r_epik_Ionization_Penalty_Neutral>
0.214728

> <r_epik_State_Penalty>
0.204913

> <r_epik_Charging_Adjusted_Penalty>
0.204913

> <i_epik_Tot_Q>
0

> <i_epik_Tot_abs_Q>
0

> <r_epik_Metal_State_Penalty>
0.000244761

> <b_epik_Metal_Only>
0

> <s_epik_Chemistry_Notes>
This compound contains an acetal/aminal-like group ( X-CH(R)-Y where X, Y are N, S, or O) that may be acid/base labile, releasing an aldehyde.

> <s_lp_Force_Field>
OPLS_2005

> <r_lp_Energy>
41.6677

> <b_lp_Chiralities_Consistent>
1

> <s_lp_Variant>
AV-unprocessed.smi:113-8

> <Gold.Version>
5.8.1

> <Gold.Id.Protein>
6NUR|6NUR_protein|mol2

> <Gold.PLP.Fitness>
46.9542

> <Gold.PLP.PLP>
-37.3178

> <Gold.PLP.part.hbond>
-3.9313

> <Gold.PLP.part.metal>
0.0000

> <Gold.PLP.part.buried>
-5.8851

> <Gold.PLP.part.nonpolar>
-27.7055

> <Gold.PLP.part.repulsive>
0.1984

> <Gold.PLP.ligand.clash>
0.0000

> <Gold.PLP.ligand.torsion>
0.3811

> <Gold.PLP.Chemscore.Hbond>
2.7433

> <Gold.PLP.Chemscore.CHOScore>
0.7140

> <Gold.PLP.Chemscore.Metal>
0.0000

> <Gold.Chemscore.Hbonds>
donor molecule, donor type, donor heavy atom, donor atom, acceptor molecule, acceptor atom, score
      L1  H    16    44       P1  7921  1.00
      L1  H    19    48       P1 10186  0.98
      P1  H  6931  6943       L1    29  0.75
      L1  C    11    39       P1  7948  0.62

> <Gold.PLP.Chemscore.Internal.Correction>
0.0270

> <Gold.Rescore>
     Score         DG    S(hbond)    S(metal)    S(lipo)     H(rot)  DE(clash)    DE(int)     intcor
     16.18     -17.68       2.60        0.00      94.62       2.95       0.96       0.55       ----

> <Gold.Chemscore.Fitness>
16.1760

> <Gold.Chemscore.DG>
-17.6776

> <Gold.Chemscore.ZeroCoef>
-5.4800

> <Gold.Chemscore.Hbond>
2.5961

> <Gold.Chemscore.Metal>
0.0000

> <Gold.Chemscore.Lipo>
94.6195

> <Gold.Chemscore.Internal_Hbond>
0.0000

> <Gold.Chemscore.DEClash>
0.9565

> <Gold.Chemscore.DEInternal>
0.5452

> <Gold.Chemscore.Rot>
2.9469

> <Gold.Chemscore.Internal.Correction>
   9.000000E+99

> <Gold.Chemscore.Hbonds>
donor molecule, donor type, donor heavy atom, donor atom, acceptor molecule, acceptor atom, score
      L1  H    16    44       P1  7921  0.87
      L1  H    19    48       P1 10186  0.88
      P1  H  6931  6943       L1    29  0.41

> <Gold.Chemscore.Hbond.Weighted>
-8.6711

> <Gold.Chemscore.Metal.Weighted>
-0.0000

> <Gold.Chemscore.Lipo.Weighted>
-11.0705

> <Gold.Chemscore.Internal_Hbond.Weighted>
0.0000

> <Gold.Chemscore.DEClash.Weighted>
0.9565

> <Gold.Chemscore.DEInternal.Weighted>
0.5452

> <Gold.Chemscore.Rot.Weighted>
7.5439

> <Gold.Chemscore.Internal.Correction.Weighted>
   9.000000E+99

> <Gold.Protein.RotatedTorsions>
[ 6907 6896 6895 6894 ] final   -1.98 input  -60.11 | X-H torsion
[ 7974 7965 7964 7962 ] final  169.40 input  175.53 | X-H torsion
[ 8008 7997 7996 7995 ] final  -37.64 input   59.86 | X-H torsion
[ 10167 10162 10161 10158 ] final  108.79 input  -65.29 | X-H torsion
[ 10718 10713 10712 10709 ] final -129.32 input   66.30 | X-H torsion
[ 10763 10752 10751 10750 ] final  -59.33 input  -60.55 | X-H torsion
[ 11005 11000 10999 10996 ] final   28.61 input  -57.11 | X-H torsion

> <Gold.Protein.ActiveResidues>
 VAL166  LYS551  ARG553  GLY616  TRP617  ASP618  TYR619  PRO620  LYS621  CYS622 
 ASP623  PHE694  ASN695  SER759  ASP760  ASP761  ALA762  ILE779  LEU786  VAL792 
 PHE793  MET794  SER795  GLU796  ALA797  LYS798  CYS799  TRP800  GLU811  SER814 

> <Gold.Protein.RotatedAtoms>
  151.5373  135.1068  159.9917 H   0  0  0  0  0  0  0  0  0  0  0  0  # atno 6907 bound_to 6896
  152.4551  133.7703  159.6806 H   0  0  0  0  0  0  0  0  0  0  0  0  # atno 6908 bound_to 6896
  150.8492  133.7747  159.3056 H   0  0  0  0  0  0  0  0  0  0  0  0  # atno 6909 bound_to 6896
  144.7356  139.9049  143.6411 H   0  0  0  0  0  0  0  0  0  0  0  0  # atno 7974 bound_to 7965
  154.4050  140.1599  156.2570 H   0  0  0  0  0  0  0  0  0  0  0  0  # atno 8008 bound_to 7997
  155.9069  140.3429  155.6047 H   0  0  0  0  0  0  0  0  0  0  0  0  # atno 8009 bound_to 7997
  155.7381  140.0789  157.2249 H   0  0  0  0  0  0  0  0  0  0  0  0  # atno 8010 bound_to 7997
  139.6818  144.7117  151.1502 H   0  0  0  0  0  0  0  0  0  0  0  0  # atno 10167 bound_to 10162
  156.2036  130.6873  151.0568 H   0  0  0  0  0  0  0  0  0  0  0  0  # atno 10718 bound_to 10713
  154.2521  135.6324  153.5244 H   0  0  0  0  0  0  0  0  0  0  0  0  # atno 10763 bound_to 10752
  152.9910  135.5567  154.5796 H   0  0  0  0  0  0  0  0  0  0  0  0  # atno 10764 bound_to 10752
  154.5326  135.2889  155.1141 H   0  0  0  0  0  0  0  0  0  0  0  0  # atno 10765 bound_to 10752
  140.3138  134.2620  155.7729 H   0  0  0  0  0  0  0  0  0  0  0  0  # atno 11005 bound_to 11000
  146.1044  139.4042  143.0327 LP  0  0  0  0  0  0  0  0  0  0  0  0  # atno 17320 bound_to 7965
  145.7533  140.9964  143.1239 LP  0  0  0  0  0  0  0  0  0  0  0  0  # atno 17321 bound_to 7965
  140.7654  143.5688  150.9018 LP  0  0  0  0  0  0  0  0  0  0  0  0  # atno 17342 bound_to 10162
  139.9360  143.6437  152.3065 LP  0  0  0  0  0  0  0  0  0  0  0  0  # atno 17343 bound_to 10162
  157.6999  131.0780  150.6852 LP  0  0  0  0  0  0  0  0  0  0  0  0  # atno 17370 bound_to 10713
  156.6910  130.4595  149.5600 LP  0  0  0  0  0  0  0  0  0  0  0  0  # atno 17371 bound_to 10713
  141.2102  133.7726  156.9946 LP  0  0  0  0  0  0  0  0  0  0  0  0  # atno 17394 bound_to 11000
  140.1002  134.9540  157.1911 LP  0  0  0  0  0  0  0  0  0  0  0  0  # atno 17395 bound_to 11000

$$$$
