AV-unprocessed.smi:1605|AV-procd|sdf|6457|dock4
  -GOLD-   22720 7113D 1   1.00000     0.00000
 Structure written by MMmdl.
 52 54  0  0  0  0  0  0  0  0  3 V2000
  145.8212  133.6462  157.1794 C   0  0  0  0  0  0  0  0  0  0  0  0
  147.0036  133.3981  156.4346 O   0  0  0  0  0  0  0  0  0  0  0  0
  146.9374  133.8038  155.0720 C   0  0  2  0  0  0  0  0  0  0  0  0
  148.2925  133.4908  154.4192 C   0  0  0  0  0  0  0  0  0  0  0  0
  149.4154  134.3776  154.9864 C   0  0  0  0  0  0  0  0  0  0  0  0
  149.0894  135.8199  154.8438 N   0  3  2  0  0  0  0  0  0  0  0  0
  150.2128  136.6965  155.2651 C   0  0  0  0  0  0  0  0  0  0  0  0
  149.8837  138.1948  155.1111 C   0  0  2  0  0  0  0  0  0  0  0  0
  149.4195  138.4209  153.7944 O   0  0  0  0  0  0  0  0  0  0  0  0
  151.1147  139.0816  155.3828 C   0  0  0  0  0  0  0  0  0  0  0  0
  150.7560  140.4143  155.8911 N   0  0  0  0  0  0  0  0  0  0  0  0
  149.8857  141.3297  155.3838 C   0  0  0  0  0  0  0  0  0  0  0  0
  149.8966  142.4106  156.2116 N   0  3  0  0  0  0  0  0  0  0  0  0
  150.7841  142.1824  157.2653 C   0  0  0  0  0  0  0  0  0  0  0  0
  151.1351  142.9807  158.3474 C   0  0  0  0  0  0  0  0  0  0  0  0
  152.0787  142.4545  159.2581 C   0  0  0  0  0  0  0  0  0  0  0  0
  152.4853  143.3020  160.4518 C   0  0  0  0  0  0  0  0  0  0  0  0
  152.6365  141.1640  159.0666 C   0  0  0  0  0  0  0  0  0  0  0  0
  153.6446  140.6046  160.0561 C   0  0  0  0  0  0  0  0  0  0  0  0
  152.2698  140.3694  157.9567 C   0  0  0  0  0  0  0  0  0  0  0  0
  151.3377  140.9020  157.0686 C   0  0  0  0  0  0  0  0  0  0  0  0
  147.8010  136.1574  155.5061 C   0  0  0  0  0  0  0  0  0  0  0  0
  146.6470  135.3112  154.9420 C   0  0  0  0  0  0  0  0  0  0  0  0
  145.9477  133.2687  158.1940 H   0  0  0  0  0  0  0  0  0  0  0  0
  144.9631  133.1364  156.7400 H   0  0  0  0  0  0  0  0  0  0  0  0
  145.5991  134.7106  157.2489 H   0  0  0  0  0  0  0  0  0  0  0  0
  146.1658  133.2290  154.5571 H   0  0  0  0  0  0  0  0  0  0  0  0
  148.5403  132.4384  154.5602 H   0  0  0  0  0  0  0  0  0  0  0  0
  148.2202  133.6460  153.3420 H   0  0  0  0  0  0  0  0  0  0  0  0
  149.5885  134.1447  156.0383 H   0  0  0  0  0  0  0  0  0  0  0  0
  150.3427  134.1560  154.4567 H   0  0  0  0  0  0  0  0  0  0  0  0
  150.4803  136.4650  156.2974 H   0  0  0  0  0  0  0  0  0  0  0  0
  151.0999  136.4770  154.6682 H   0  0  0  0  0  0  0  0  0  0  0  0
  149.0932  138.4848  155.8029 H   0  0  0  0  0  0  0  0  0  0  0  0
  149.0719  137.6098  153.4548 H   0  0  0  0  0  0  0  0  0  0  0  0
  151.7475  138.6132  156.1378 H   0  0  0  0  0  0  0  0  0  0  0  0
  151.7342  139.1871  154.4920 H   0  0  0  0  0  0  0  0  0  0  0  0
  149.2929  141.2196  154.4871 H   0  0  0  0  0  0  0  0  0  0  0  0
  150.7053  143.9620  158.4878 H   0  0  0  0  0  0  0  0  0  0  0  0
  152.2083  142.8087  161.3836 H   0  0  0  0  0  0  0  0  0  0  0  0
  151.9985  144.2774  160.4330 H   0  0  0  0  0  0  0  0  0  0  0  0
  153.5625  143.4694  160.4556 H   0  0  0  0  0  0  0  0  0  0  0  0
  153.9567  139.5965  159.7815 H   0  0  0  0  0  0  0  0  0  0  0  0
  153.2134  140.5571  161.0565 H   0  0  0  0  0  0  0  0  0  0  0  0
  154.5361  141.2312  160.0913 H   0  0  0  0  0  0  0  0  0  0  0  0
  152.7015  139.3903  157.8116 H   0  0  0  0  0  0  0  0  0  0  0  0
  147.8900  135.9981  156.5820 H   0  0  0  0  0  0  0  0  0  0  0  0
  147.5661  137.2116  155.3645 H   0  0  0  0  0  0  0  0  0  0  0  0
  146.5042  135.5592  153.8895 H   0  0  0  0  0  0  0  0  0  0  0  0
  145.7130  135.5741  155.4374 H   0  0  0  0  0  0  0  0  0  0  0  0
  148.9656  135.9808  153.8539 H   0  0  0  0  0  0  0  0  0  0  0  0
  149.3364  143.2413  156.0673 H   0  0  0  0  0  0  0  0  0  0  0  0
  1  2  1  0  0  0  0
  1 24  1  0  0  0  0
  1 25  1  0  0  0  0
  1 26  1  0  0  0  0
  2  3  1  0  0  0  0
  3 23  1  0  0  0  0
  3  4  1  0  0  0  0
  3 27  1  0  0  0  0
  4  5  1  0  0  0  0
  4 28  1  0  0  0  0
  4 29  1  0  0  0  0
  5  6  1  0  0  0  0
  5 30  1  0  0  0  0
  5 31  1  0  0  0  0
  6  7  1  0  0  0  0
  6 22  1  0  0  0  0
  6 51  1  0  0  0  0
  7  8  1  0  0  0  0
  7 32  1  0  0  0  0
  7 33  1  0  0  0  0
  8  9  1  0  0  0  0
  8 10  1  0  0  0  0
  8 34  1  0  0  0  0
  9 35  1  0  0  0  0
 10 11  1  0  0  0  0
 10 36  1  0  0  0  0
 10 37  1  0  0  0  0
 11 21  1  0  0  0  0
 11 12  1  0  0  0  0
 12 13  2  0  0  0  0
 12 38  1  0  0  0  0
 13 14  1  0  0  0  0
 13 52  1  0  0  0  0
 14 21  2  0  0  0  0
 14 15  1  0  0  0  0
 15 16  2  0  0  0  0
 15 39  1  0  0  0  0
 16 17  1  0  0  0  0
 16 18  1  0  0  0  0
 17 40  1  0  0  0  0
 17 41  1  0  0  0  0
 17 42  1  0  0  0  0
 18 19  1  0  0  0  0
 18 20  2  0  0  0  0
 19 43  1  0  0  0  0
 19 44  1  0  0  0  0
 19 45  1  0  0  0  0
 20 21  1  0  0  0  0
 20 46  1  0  0  0  0
 22 23  1  0  0  0  0
 22 47  1  0  0  0  0
 22 48  1  0  0  0  0
 23 49  1  0  0  0  0
 23 50  1  0  0  0  0
M  CHG  1   6   1
M  CHG  1  13   1
M  END
> <s_m_source_file>
AV-unprocessed.smi

> <i_m_source_file_index>
1605

> <i_lp_mmshare_version>
43012

> <i_f3d_flags>
0

> <s_epik_input>
W0NIM11PW0NIXTFbQ0gyXVtDSDJdTihbQ0gyXVtDSDJdMSlbQ0gyXVtDQEhdKFtPSF0pW0NIMl1uKFtjSF1uMiljKGMyMylbY0hdYyhbQ0gzXSljKFtjSF0zKVtDSDNd

> <s_epik_cmdline>
J2VwaWtfcHl0aG9uJywgJy1waCcsICc3LjAnLCAnLXRuJywgJzgnLCAnLW1hJywgJzIwMCcsICctbWV0YWxfYmluZGluZycsICctaW1hZScsICc8aW5maWxlLm1hZT4nLCAnLW9tYWUnLCAnPG91dGZpbGUubWFlPic=

> <r_epik_Ionization_Penalty>
1.19848

> <r_epik_Ionization_Penalty_Charging>
1.19848

> <r_epik_Ionization_Penalty_Neutral>
1.67134e-06

> <r_epik_State_Penalty>
1.2782

> <r_epik_Charging_Adjusted_Penalty>
2.47668

> <i_epik_Tot_Q>
2

> <i_epik_Tot_abs_Q>
2

> <r_epik_Metal_State_Penalty>
5.29544

> <b_epik_Metal_Only>
0

> <s_lp_Force_Field>
OPLS_2005

> <r_lp_Energy>
31.9375

> <b_lp_Chiralities_Consistent>
1

> <s_lp_Variant>
AV-unprocessed.smi:1605-7

> <Gold.Version>
5.8.1

> <Gold.Id.Protein>
6NUR|6NUR_protein|mol2

> <Gold.PLP.Fitness>
56.9546

> <Gold.PLP.PLP>
-42.7452

> <Gold.PLP.part.hbond>
-4.0489

> <Gold.PLP.part.metal>
0.0000

> <Gold.PLP.part.buried>
-2.8065

> <Gold.PLP.part.nonpolar>
-34.3230

> <Gold.PLP.part.repulsive>
0.1431

> <Gold.PLP.ligand.clash>
0.0000

> <Gold.PLP.ligand.torsion>
0.4352

> <Gold.PLP.Chemscore.Hbond>
5.0000

> <Gold.PLP.Chemscore.CHOScore>
0.0000

> <Gold.PLP.Chemscore.Metal>
0.0000

> <Gold.Chemscore.Hbonds>
donor molecule, donor type, donor heavy atom, donor atom, acceptor molecule, acceptor atom, score
      L1  H     6    51       P1  7948  2.00
      L1  H     9    35       P1  7948  0.81
      L1  H    13    52       P1  8028  2.00

> <Gold.PLP.Chemscore.Internal.Correction>
0.0797

> <Gold.Rescore>
     Score         DG    S(hbond)    S(metal)    S(lipo)     H(rot)  DE(clash)    DE(int)     intcor
     21.33     -21.94       2.85        0.00     109.21       2.28       0.22       0.38       ----

> <Gold.Chemscore.Fitness>
21.3328

> <Gold.Chemscore.DG>
-21.9377

> <Gold.Chemscore.ZeroCoef>
-5.4800

> <Gold.Chemscore.Hbond>
2.8524

> <Gold.Chemscore.Metal>
0.0000

> <Gold.Chemscore.Lipo>
109.2100

> <Gold.Chemscore.Internal_Hbond>
0.0000

> <Gold.Chemscore.DEClash>
0.2223

> <Gold.Chemscore.DEInternal>
0.3827

> <Gold.Chemscore.Rot>
2.2839

> <Gold.Chemscore.Internal.Correction>
   9.000000E+99

> <Gold.Chemscore.Hbonds>
donor molecule, donor type, donor heavy atom, donor atom, acceptor molecule, acceptor atom, score
      L1  H     6    51       P1  7948  0.94
      L1  H     9    35       P1  7948  0.76
      L1  H    13    52       P1  8028  0.98

> <Gold.Chemscore.Hbond.Weighted>
-9.5270

> <Gold.Chemscore.Metal.Weighted>
-0.0000

> <Gold.Chemscore.Lipo.Weighted>
-12.7776

> <Gold.Chemscore.Internal_Hbond.Weighted>
0.0000

> <Gold.Chemscore.DEClash.Weighted>
0.2223

> <Gold.Chemscore.DEInternal.Weighted>
0.3827

> <Gold.Chemscore.Rot.Weighted>
5.8469

> <Gold.Chemscore.Internal.Correction.Weighted>
   9.000000E+99

> <Gold.Protein.RotatedTorsions>
[ 6907 6896 6895 6894 ] final  -96.01 input  -60.11 | X-H torsion
[ 7974 7965 7964 7962 ] final   80.16 input  175.53 | X-H torsion
[ 8008 7997 7996 7995 ] final  103.16 input   59.86 | X-H torsion
[ 10167 10162 10161 10158 ] final -117.85 input  -65.29 | X-H torsion
[ 10718 10713 10712 10709 ] final  -19.76 input   66.30 | X-H torsion
[ 10763 10752 10751 10750 ] final  156.96 input  -60.55 | X-H torsion
[ 11005 11000 10999 10996 ] final   47.32 input  -57.11 | X-H torsion

> <Gold.Protein.ActiveResidues>
 VAL166  LYS551  ARG553  GLY616  TRP617  ASP618  TYR619  PRO620  LYS621  CYS622 
 ASP623  PHE694  ASN695  SER759  ASP760  ASP761  ALA762  ILE779  LEU786  VAL792 
 PHE793  MET794  SER795  GLU796  ALA797  LYS798  CYS799  TRP800  GLU811  SER814 

> <Gold.Protein.RotatedAtoms>
  150.6978  134.1569  159.4161 H   0  0  0  0  0  0  0  0  0  0  0  0  # atno 6907 bound_to 6896
  151.9550  135.0148  160.0553 H   0  0  0  0  0  0  0  0  0  0  0  0  # atno 6908 bound_to 6896
  152.1977  133.4783  159.5078 H   0  0  0  0  0  0  0  0  0  0  0  0  # atno 6909 bound_to 6896
  145.6549  139.2456  143.1956 H   0  0  0  0  0  0  0  0  0  0  0  0  # atno 7974 bound_to 7965
  156.1459  140.3169  155.8569 H   0  0  0  0  0  0  0  0  0  0  0  0  # atno 8008 bound_to 7997
  155.4066  140.0503  157.3051 H   0  0  0  0  0  0  0  0  0  0  0  0  # atno 8009 bound_to 7997
  154.5015  140.2131  155.9348 H   0  0  0  0  0  0  0  0  0  0  0  0  # atno 8010 bound_to 7997
  140.0639  143.4941  152.2017 H   0  0  0  0  0  0  0  0  0  0  0  0  # atno 10167 bound_to 10162
  156.5413  130.4679  149.6497 H   0  0  0  0  0  0  0  0  0  0  0  0  # atno 10718 bound_to 10713
  154.1926  135.2794  155.3017 H   0  0  0  0  0  0  0  0  0  0  0  0  # atno 10763 bound_to 10752
  154.5917  135.5558  153.7288 H   0  0  0  0  0  0  0  0  0  0  0  0  # atno 10764 bound_to 10752
  153.0108  135.6370  154.2065 H   0  0  0  0  0  0  0  0  0  0  0  0  # atno 10765 bound_to 10752
  140.1290  134.4731  155.8537 H   0  0  0  0  0  0  0  0  0  0  0  0  # atno 11005 bound_to 11000
  146.1173  140.7353  142.9474 LP  0  0  0  0  0  0  0  0  0  0  0  0  # atno 17320 bound_to 7965
  144.7109  140.4036  143.7081 LP  0  0  0  0  0  0  0  0  0  0  0  0  # atno 17321 bound_to 7965
  139.5877  144.7537  151.3479 LP  0  0  0  0  0  0  0  0  0  0  0  0  # atno 17342 bound_to 10162
  140.7158  143.7269  150.7653 LP  0  0  0  0  0  0  0  0  0  0  0  0  # atno 17343 bound_to 10162
  156.2969  130.7155  151.2018 LP  0  0  0  0  0  0  0  0  0  0  0  0  # atno 17370 bound_to 10713
  157.7405  131.0516  150.5163 LP  0  0  0  0  0  0  0  0  0  0  0  0  # atno 17371 bound_to 10713
  141.2166  133.6788  156.7032 LP  0  0  0  0  0  0  0  0  0  0  0  0  # atno 17394 bound_to 11000
  140.2867  134.8273  157.3981 LP  0  0  0  0  0  0  0  0  0  0  0  0  # atno 17395 bound_to 11000

$$$$
