AV-unprocessed.smi:69|AV-procd|sdf|649|dock10
  -GOLD-   2262016543D 1   1.00000     0.00000
 Structure written by MMmdl.
 32 34  0  0  0  0  0  0  0  0  1 V2000
  154.3335  137.9555  159.0881 N   0  0  0  0  0  0  0  0  0  0  0  0
  153.0040  138.0070  158.9277 C   0  0  0  0  0  0  0  0  0  0  0  0
  152.2378  137.1532  159.6445 N   0  0  0  0  0  0  0  0  0  0  0  0
  150.9097  137.1897  159.5050 C   0  0  0  0  0  0  0  0  0  0  0  0
  150.1754  137.9824  158.7214 N   0  0  0  0  0  0  0  0  0  0  0  0
  150.9445  138.8465  157.9946 C   0  0  0  0  0  0  0  0  0  0  0  0
  152.3660  138.9159  158.0460 C   0  0  0  0  0  0  0  0  0  0  0  0
  152.8255  139.9029  157.1880 N   0  0  0  0  0  0  0  0  0  0  0  0
  151.7346  140.3942  156.6673 C   0  0  0  0  0  0  0  0  0  0  0  0
  150.5538  139.8136  157.0807 N   0  0  0  0  0  0  0  0  0  0  0  0
  149.1716  140.2302  156.6495 C   0  0  2  0  0  0  0  0  0  0  0  0
  148.5593  139.1437  156.0322 O   0  0  0  0  0  0  0  0  0  0  0  0
  148.7329  139.2295  154.6254 C   0  0  1  0  0  0  0  0  0  0  0  0
  147.6374  138.4182  153.9177 C   0  0  0  0  0  0  0  0  0  0  0  0
  147.7840  138.5215  152.5176 O   0  0  0  0  0  0  0  0  0  0  0  0
  148.6402  140.7400  154.3588 C   0  0  2  0  0  0  0  0  0  0  0  0
  149.4479  141.0945  153.2544 O   0  0  0  0  0  0  0  0  0  0  0  0
  149.1574  141.3956  155.6433 C   0  0  1  0  0  0  0  0  0  0  0  0
  148.2731  142.4195  156.0541 O   0  0  0  0  0  0  0  0  0  0  0  0
  148.6632  140.4608  157.5871 H   0  0  0  0  0  0  0  0  0  0  0  0
  149.7189  138.8498  154.3573 H   0  0  0  0  0  0  0  0  0  0  0  0
  147.6043  141.0253  154.1668 H   0  0  0  0  0  0  0  0  0  0  0  0
  150.1506  141.8312  155.5405 H   0  0  0  0  0  0  0  0  0  0  0  0
  154.9268  138.5845  158.5664 H   0  0  0  0  0  0  0  0  0  0  0  0
  154.7377  137.2949  159.7358 H   0  0  0  0  0  0  0  0  0  0  0  0
  150.3557  136.4847  160.1070 H   0  0  0  0  0  0  0  0  0  0  0  0
  151.7628  141.2084  155.9577 H   0  0  0  0  0  0  0  0  0  0  0  0
  147.6536  137.3729  154.2270 H   0  0  0  0  0  0  0  0  0  0  0  0
  146.6550  138.8167  154.1723 H   0  0  0  0  0  0  0  0  0  0  0  0
  148.4003  137.8654  152.2304 H   0  0  0  0  0  0  0  0  0  0  0  0
  149.3503  140.4316  152.5879 H   0  0  0  0  0  0  0  0  0  0  0  0
  148.4177  143.1773  155.5083 H   0  0  0  0  0  0  0  0  0  0  0  0
  1  2  1  0  0  0  0
  1 24  1  0  0  0  0
  1 25  1  0  0  0  0
  2  7  1  0  0  0  0
  2  3  2  0  0  0  0
  3  4  1  0  0  0  0
  4  5  2  0  0  0  0
  4 26  1  0  0  0  0
  5  6  1  0  0  0  0
  6 10  1  0  0  0  0
  6  7  2  0  0  0  0
  7  8  1  0  0  0  0
  8  9  2  0  0  0  0
  9 10  1  0  0  0  0
  9 27  1  0  0  0  0
 10 11  1  0  0  0  0
 11 20  1  0  0  0  0
 11 18  1  0  0  0  0
 11 12  1  0  0  0  0
 12 13  1  0  0  0  0
 13 21  1  0  0  0  0
 13 14  1  0  0  0  0
 13 16  1  0  0  0  0
 14 15  1  0  0  0  0
 14 28  1  0  0  0  0
 14 29  1  0  0  0  0
 15 30  1  0  0  0  0
 16 22  1  0  0  0  0
 16 17  1  0  0  0  0
 16 18  1  0  0  0  0
 17 31  1  0  0  0  0
 18 23  1  0  0  0  0
 18 19  1  0  0  0  0
 19 32  1  0  0  0  0
M  END
> <s_m_source_file>
AV-unprocessed.smi

> <i_m_source_file_index>
69

> <i_lp_mmshare_version>
43012

> <i_f3d_flags>
0

> <s_epik_input>
bjFbY0hdbmMoW05IMl0pYyhjMTIpbltjSF1uMltDQEBIXTNPW0NASF0oW0NIMl1bT0hdKVtDQEBIXShbT0hdKVtDQEhdM1tPSF0=

> <s_epik_cmdline>
J2VwaWtfcHl0aG9uJywgJy1waCcsICc3LjAnLCAnLXRuJywgJzgnLCAnLW1hJywgJzIwMCcsICctbWV0YWxfYmluZGluZycsICctaW1hZScsICc8aW5maWxlLm1hZT4nLCAnLW9tYWUnLCAnPG91dGZpbGUubWFlPic=

> <r_lp_tautomer_probability>
1

> <r_epik_Ionization_Penalty>
0.000428445

> <r_epik_Ionization_Penalty_Charging>
0

> <r_epik_Ionization_Penalty_Neutral>
0.000428445

> <r_epik_State_Penalty>
-0

> <r_epik_Charging_Adjusted_Penalty>
0

> <i_epik_Tot_Q>
0

> <i_epik_Tot_abs_Q>
0

> <r_epik_Metal_State_Penalty>
-0

> <b_epik_Metal_Only>
0

> <s_epik_Chemistry_Notes>
This compound contains an acetal/aminal-like group ( X-CH(R)-Y where X, Y are N, S, or O) that may be acid/base labile, releasing an aldehyde.

> <s_lp_Force_Field>
OPLS_2005

> <r_lp_Energy>
31.8637

> <b_lp_Chiralities_Consistent>
1

> <s_lp_Variant>
AV-unprocessed.smi:69-7

> <Gold.Version>
5.8.1

> <Gold.Id.Protein>
6NUR|6NUR_protein|mol2

> <Gold.PLP.Fitness>
38.7518

> <Gold.PLP.PLP>
-22.6175

> <Gold.PLP.part.hbond>
-6.8474

> <Gold.PLP.part.metal>
0.0000

> <Gold.PLP.part.buried>
-2.6732

> <Gold.PLP.part.nonpolar>
-13.5197

> <Gold.PLP.part.repulsive>
0.0740

> <Gold.PLP.ligand.clash>
0.0000

> <Gold.PLP.ligand.torsion>
0.0136

> <Gold.PLP.Chemscore.Hbond>
5.3803

> <Gold.PLP.Chemscore.CHOScore>
0.0000

> <Gold.PLP.Chemscore.Metal>
0.0000

> <Gold.Chemscore.Hbonds>
donor molecule, donor type, donor heavy atom, donor atom, acceptor molecule, acceptor atom, score
      L1  H    15    30       P1  7948  1.00
      L1  H    17    31       P1  7957  0.84
      L1  H    19    32       P1  8028  0.80
      P1  H  6896  6909       L1     3  0.20
      P1  H  7989  7998       L1    17  0.08
      P1  H  7997  8008       L1     8  1.00
      P1  H  8011  8017       L1    17  1.00

> <Gold.PLP.Chemscore.Internal.Correction>
0.0206

> <Gold.Rescore>
     Score         DG    S(hbond)    S(metal)    S(lipo)     H(rot)  DE(clash)    DE(int)     intcor
     11.11     -11.21       3.86        0.00      26.96       4.03       0.06       0.03       ----

> <Gold.Chemscore.Fitness>
11.1069

> <Gold.Chemscore.DG>
-11.2063

> <Gold.Chemscore.ZeroCoef>
-5.4800

> <Gold.Chemscore.Hbond>
3.8573

> <Gold.Chemscore.Metal>
0.0000

> <Gold.Chemscore.Lipo>
26.9553

> <Gold.Chemscore.Internal_Hbond>
0.0000

> <Gold.Chemscore.DEClash>
0.0648

> <Gold.Chemscore.DEInternal>
0.0345

> <Gold.Chemscore.Rot>
4.0277

> <Gold.Chemscore.Internal.Correction>
   9.000000E+99

> <Gold.Chemscore.Hbonds>
donor molecule, donor type, donor heavy atom, donor atom, acceptor molecule, acceptor atom, score
      L1  H    15    30       P1  7948  0.99
      L1  H    17    31       P1  7957  0.79
      L1  H    19    32       P1  8028  0.78
      P1  H  7989  7998       L1    17  0.01
      P1  H  7997  8008       L1     8  0.99
      P1  H  8011  8017       L1    17  0.25

> <Gold.Chemscore.Hbond.Weighted>
-12.8835

> <Gold.Chemscore.Metal.Weighted>
-0.0000

> <Gold.Chemscore.Lipo.Weighted>
-3.1538

> <Gold.Chemscore.Internal_Hbond.Weighted>
0.0000

> <Gold.Chemscore.DEClash.Weighted>
0.0648

> <Gold.Chemscore.DEInternal.Weighted>
0.0345

> <Gold.Chemscore.Rot.Weighted>
10.3110

> <Gold.Chemscore.Internal.Correction.Weighted>
   9.000000E+99

> <Gold.Protein.RotatedTorsions>
[ 6907 6896 6895 6894 ] final  142.45 input  -60.11 | X-H torsion
[ 7974 7965 7964 7962 ] final  -71.53 input  175.53 | X-H torsion
[ 8008 7997 7996 7995 ] final  -58.74 input   59.86 | X-H torsion
[ 10167 10162 10161 10158 ] final  -25.59 input  -65.29 | X-H torsion
[ 10718 10713 10712 10709 ] final   73.28 input   66.30 | X-H torsion
[ 10763 10752 10751 10750 ] final  -88.06 input  -60.55 | X-H torsion
[ 11005 11000 10999 10996 ] final  114.91 input  -57.11 | X-H torsion

> <Gold.Protein.ActiveResidues>
 VAL166  LYS551  ARG553  GLY616  TRP617  ASP618  TYR619  PRO620  LYS621  CYS622 
 ASP623  PHE694  ASN695  SER759  ASP760  ASP761  ALA762  ILE779  LEU786  VAL792 
 PHE793  MET794  SER795  GLU796  ALA797  LYS798  CYS799  TRP800  GLU811  SER814 

> <Gold.Protein.RotatedAtoms>
  152.2185  133.4965  159.5149 H   0  0  0  0  0  0  0  0  0  0  0  0  # atno 6907 bound_to 6896
  150.7007  134.1373  159.4101 H   0  0  0  0  0  0  0  0  0  0  0  0  # atno 6908 bound_to 6896
  151.9294  135.0263  160.0579 H   0  0  0  0  0  0  0  0  0  0  0  0  # atno 6909 bound_to 6896
  145.6768  140.9202  143.0853 H   0  0  0  0  0  0  0  0  0  0  0  0  # atno 7974 bound_to 7965
  154.4322  140.1077  156.6005 H   0  0  0  0  0  0  0  0  0  0  0  0  # atno 8008 bound_to 7997
  155.5916  140.3492  155.4549 H   0  0  0  0  0  0  0  0  0  0  0  0  # atno 8009 bound_to 7997
  156.0242  140.1246  157.0315 H   0  0  0  0  0  0  0  0  0  0  0  0  # atno 8010 bound_to 7997
  140.7286  143.4251  151.0889 H   0  0  0  0  0  0  0  0  0  0  0  0  # atno 10167 bound_to 10162
  157.6540  130.9620  150.1046 H   0  0  0  0  0  0  0  0  0  0  0  0  # atno 10718 bound_to 10713
  154.6404  135.5391  153.7783 H   0  0  0  0  0  0  0  0  0  0  0  0  # atno 10763 bound_to 10752
  153.0331  135.6458  154.1168 H   0  0  0  0  0  0  0  0  0  0  0  0  # atno 10764 bound_to 10752
  154.1092  135.2928  155.3214 H   0  0  0  0  0  0  0  0  0  0  0  0  # atno 10765 bound_to 10752
  139.8994  134.9575  156.6964 H   0  0  0  0  0  0  0  0  0  0  0  0  # atno 11005 bound_to 11000
  144.7039  139.8645  143.7436 LP  0  0  0  0  0  0  0  0  0  0  0  0  # atno 17320 bound_to 7965
  146.0998  139.3993  143.0354 LP  0  0  0  0  0  0  0  0  0  0  0  0  # atno 17321 bound_to 7965
  139.7902  143.8230  152.3150 LP  0  0  0  0  0  0  0  0  0  0  0  0  # atno 17342 bound_to 10162
  139.8211  144.7295  150.9571 LP  0  0  0  0  0  0  0  0  0  0  0  0  # atno 17343 bound_to 10162
  156.1959  130.3657  149.8849 LP  0  0  0  0  0  0  0  0  0  0  0  0  # atno 17370 bound_to 10713
  156.6765  130.8841  151.3570 LP  0  0  0  0  0  0  0  0  0  0  0  0  # atno 17371 bound_to 10713
  140.7184  133.9162  155.8130 LP  0  0  0  0  0  0  0  0  0  0  0  0  # atno 17394 bound_to 11000
  141.0246  134.0841  157.4083 LP  0  0  0  0  0  0  0  0  0  0  0  0  # atno 17395 bound_to 11000

$$$$
