AV-unprocessed.smi:2026|AV-procd|sdf|8205|dock8
  -GOLD-   2272010463D 1   1.00000     0.00000
 Structure written by MMmdl.
 45 47  0  0  0  0  0  0  0  0  2 V2000
  152.5381  142.8540  160.6566 C   0  0  0  0  0  0  0  0  0  0  0  0
  152.0086  142.3356  159.3313 C   0  0  0  0  0  0  0  0  0  0  0  0
  152.5931  141.1812  158.7615 C   0  0  0  0  0  0  0  0  0  0  0  0
  152.1291  140.6673  157.5302 C   0  0  0  0  0  0  0  0  0  0  0  0
  152.5435  139.5669  156.7978 N   0  0  0  0  0  0  0  0  0  0  0  0
  151.7244  139.6178  155.7502 C   0  0  0  0  0  0  0  0  0  0  0  0
  150.8290  140.6228  155.7185 N   0  0  0  0  0  0  0  0  0  0  0  0
  149.8391  140.8994  154.6958 C   0  0  0  0  0  0  0  0  0  0  0  0
  148.9547  139.6698  154.4043 C   0  0  2  0  0  0  0  0  0  0  0  0
  149.7165  138.6984  153.7159 O   0  0  0  0  0  0  0  0  0  0  0  0
  147.6953  139.9885  153.5723 C   0  0  0  0  0  0  0  0  0  0  0  0
  146.8788  138.7944  153.3169 N   0  0  0  0  0  0  0  0  0  0  0  0
  146.4958  138.3546  152.1025 C   0  0  0  0  0  0  0  0  0  0  0  0
  146.8198  138.9269  151.0623 O   0  0  0  0  0  0  0  0  0  0  0  0
  145.7275  137.2449  152.2076 N   0  5  0  0  0  0  0  0  0  0  0  0
  145.5721  136.9132  153.6096 C   0  0  0  0  0  0  0  0  0  0  0  0
  144.0872  136.9948  154.0124 C   0  0  0  0  0  0  0  0  0  0  0  0
  146.1627  135.5197  153.8946 C   0  0  0  0  0  0  0  0  0  0  0  0
  146.3859  138.0061  154.2784 C   0  0  0  0  0  0  0  0  0  0  0  0
  146.5352  138.1210  155.4958 O   0  0  0  0  0  0  0  0  0  0  0  0
  151.0585  141.3474  156.8810 C   0  0  0  0  0  0  0  0  0  0  0  0
  150.4688  142.4957  157.4371 C   0  0  0  0  0  0  0  0  0  0  0  0
  150.9427  142.9950  158.6675 C   0  0  0  0  0  0  0  0  0  0  0  0
  150.2959  144.2351  159.2586 C   0  0  0  0  0  0  0  0  0  0  0  0
  153.3178  142.2045  161.0555 H   0  0  0  0  0  0  0  0  0  0  0  0
  151.7381  142.9060  161.3951 H   0  0  0  0  0  0  0  0  0  0  0  0
  152.9622  143.8508  160.5332 H   0  0  0  0  0  0  0  0  0  0  0  0
  153.4045  140.6786  159.2670 H   0  0  0  0  0  0  0  0  0  0  0  0
  151.7766  138.8821  154.9610 H   0  0  0  0  0  0  0  0  0  0  0  0
  149.2356  141.7345  155.0512 H   0  0  0  0  0  0  0  0  0  0  0  0
  150.3415  141.2421  153.7901 H   0  0  0  0  0  0  0  0  0  0  0  0
  148.6457  139.2189  155.3481 H   0  0  0  0  0  0  0  0  0  0  0  0
  149.6620  138.8785  152.7900 H   0  0  0  0  0  0  0  0  0  0  0  0
  147.1083  140.7638  154.0673 H   0  0  0  0  0  0  0  0  0  0  0  0
  147.9891  140.4151  152.6115 H   0  0  0  0  0  0  0  0  0  0  0  0
  143.9498  136.7555  155.0675 H   0  0  0  0  0  0  0  0  0  0  0  0
  143.4836  136.2918  153.4375 H   0  0  0  0  0  0  0  0  0  0  0  0
  143.6757  137.9916  153.8458 H   0  0  0  0  0  0  0  0  0  0  0  0
  146.0476  135.2491  154.9450 H   0  0  0  0  0  0  0  0  0  0  0  0
  147.2274  135.4746  153.6589 H   0  0  0  0  0  0  0  0  0  0  0  0
  145.6632  134.7519  153.3025 H   0  0  0  0  0  0  0  0  0  0  0  0
  149.6559  142.9845  156.9200 H   0  0  0  0  0  0  0  0  0  0  0  0
  149.5181  144.6279  158.6027 H   0  0  0  0  0  0  0  0  0  0  0  0
  151.0370  145.0207  159.4060 H   0  0  0  0  0  0  0  0  0  0  0  0
  149.8377  144.0045  160.2205 H   0  0  0  0  0  0  0  0  0  0  0  0
  1  2  1  0  0  0  0
  1 25  1  0  0  0  0
  1 26  1  0  0  0  0
  1 27  1  0  0  0  0
  2 23  1  0  0  0  0
  2  3  2  0  0  0  0
  3  4  1  0  0  0  0
  3 28  1  0  0  0  0
  4 21  2  0  0  0  0
  4  5  1  0  0  0  0
  5  6  2  0  0  0  0
  6  7  1  0  0  0  0
  6 29  1  0  0  0  0
  7  8  1  0  0  0  0
  7 21  1  0  0  0  0
  8  9  1  0  0  0  0
  8 30  1  0  0  0  0
  8 31  1  0  0  0  0
  9 10  1  0  0  0  0
  9 11  1  0  0  0  0
  9 32  1  0  0  0  0
 10 33  1  0  0  0  0
 11 12  1  0  0  0  0
 11 34  1  0  0  0  0
 11 35  1  0  0  0  0
 12 19  1  0  0  0  0
 12 13  1  0  0  0  0
 13 14  2  0  0  0  0
 13 15  1  0  0  0  0
 15 16  1  0  0  0  0
 16 17  1  0  0  0  0
 16 18  1  0  0  0  0
 16 19  1  0  0  0  0
 17 36  1  0  0  0  0
 17 37  1  0  0  0  0
 17 38  1  0  0  0  0
 18 39  1  0  0  0  0
 18 40  1  0  0  0  0
 18 41  1  0  0  0  0
 19 20  2  0  0  0  0
 21 22  1  0  0  0  0
 22 23  2  0  0  0  0
 22 42  1  0  0  0  0
 23 24  1  0  0  0  0
 24 43  1  0  0  0  0
 24 44  1  0  0  0  0
 24 45  1  0  0  0  0
M  CHG  1  15  -1
M  END
> <s_m_source_file>
AV-unprocessed.smi

> <i_m_source_file_index>
2026

> <i_lp_mmshare_version>
43012

> <i_f3d_flags>
0

> <s_epik_input>
W0NIM11jKFtjSF0xKWMoW0NIM10pW2NIXWMoYzEyKW4oW2NIXW4yKVtDSDJdW0NASF0oW09IXSlbQ0gyXU4oQzM9TylDKD1PKVtOSF1DMyhbQ0gzXSlbQ0gzXQ==

> <s_epik_cmdline>
J2VwaWtfcHl0aG9uJywgJy1waCcsICc3LjAnLCAnLXRuJywgJzgnLCAnLW1hJywgJzIwMCcsICctbWV0YWxfYmluZGluZycsICctaW1hZScsICc8aW5maWxlLm1hZT4nLCAnLW9tYWUnLCAnPG91dGZpbGUubWFlPic=

> <r_lp_tautomer_probability>
1

> <r_epik_Ionization_Penalty>
5.78785

> <r_epik_Ionization_Penalty_Charging>
5.68049

> <r_epik_Ionization_Penalty_Neutral>
0.107354

> <r_epik_State_Penalty>
5.7743

> <r_epik_Charging_Adjusted_Penalty>
11.4548

> <i_epik_Tot_Q>
-1

> <i_epik_Tot_abs_Q>
1

> <r_epik_Metal_State_Penalty>
1.83778

> <b_epik_Metal_Only>
1

> <s_lp_Force_Field>
OPLS_2005

> <r_lp_Energy>
16.8856

> <b_lp_Chiralities_Consistent>
1

> <s_lp_Variant>
AV-unprocessed.smi:2026-5

> <Gold.Version>
5.8.1

> <Gold.Id.Protein>
6NUR|6NUR_protein|mol2

> <Gold.PLP.Fitness>
48.1227

> <Gold.PLP.PLP>
-40.1580

> <Gold.PLP.part.hbond>
-3.5574

> <Gold.PLP.part.metal>
0.0000

> <Gold.PLP.part.buried>
-1.4181

> <Gold.PLP.part.nonpolar>
-34.8168

> <Gold.PLP.part.repulsive>
1.7722

> <Gold.PLP.ligand.clash>
0.0000

> <Gold.PLP.ligand.torsion>
0.1382

> <Gold.PLP.Chemscore.Hbond>
2.7441

> <Gold.PLP.Chemscore.CHOScore>
0.0000

> <Gold.PLP.Chemscore.Metal>
0.0000

> <Gold.Chemscore.Hbonds>
donor molecule, donor type, donor heavy atom, donor atom, acceptor molecule, acceptor atom, score
      L1  H    10    33       P1  7957  1.00
      P1  H  7954  7966       L1    14  0.80
      P1  H  7997  8008       L1     5  1.00

> <Gold.PLP.Chemscore.Internal.Correction>
0.0088

> <Gold.Rescore>
     Score         DG    S(hbond)    S(metal)    S(lipo)     H(rot)  DE(clash)    DE(int)     intcor
     15.95     -18.20       2.48        0.00      90.01       2.38       2.11       0.14       ----

> <Gold.Chemscore.Fitness>
15.9493

> <Gold.Chemscore.DG>
-18.1976

> <Gold.Chemscore.ZeroCoef>
-5.4800

> <Gold.Chemscore.Hbond>
2.4776

> <Gold.Chemscore.Metal>
0.0000

> <Gold.Chemscore.Lipo>
90.0066

> <Gold.Chemscore.Internal_Hbond>
0.0000

> <Gold.Chemscore.DEClash>
2.1073

> <Gold.Chemscore.DEInternal>
0.1411

> <Gold.Chemscore.Rot>
2.3783

> <Gold.Chemscore.Internal.Correction>
   9.000000E+99

> <Gold.Chemscore.Hbonds>
donor molecule, donor type, donor heavy atom, donor atom, acceptor molecule, acceptor atom, score
      L1  H    10    33       P1  7957  0.85
      P1  H  7954  7966       L1    14  0.68
      P1  H  7997  8008       L1     5  0.20

> <Gold.Chemscore.Hbond.Weighted>
-8.2752

> <Gold.Chemscore.Metal.Weighted>
-0.0000

> <Gold.Chemscore.Lipo.Weighted>
-10.5308

> <Gold.Chemscore.Internal_Hbond.Weighted>
0.0000

> <Gold.Chemscore.DEClash.Weighted>
2.1073

> <Gold.Chemscore.DEInternal.Weighted>
0.1411

> <Gold.Chemscore.Rot.Weighted>
6.0884

> <Gold.Chemscore.Internal.Correction.Weighted>
   9.000000E+99

> <Gold.Protein.RotatedTorsions>
[ 6907 6896 6895 6894 ] final  137.77 input  -60.11 | X-H torsion
[ 7974 7965 7964 7962 ] final  -37.57 input  175.53 | X-H torsion
[ 8008 7997 7996 7995 ] final  -34.85 input   59.86 | X-H torsion
[ 10167 10162 10161 10158 ] final  115.69 input  -65.29 | X-H torsion
[ 10718 10713 10712 10709 ] final   46.04 input   66.30 | X-H torsion
[ 10763 10752 10751 10750 ] final   85.54 input  -60.55 | X-H torsion
[ 11005 11000 10999 10996 ] final -129.44 input  -57.11 | X-H torsion

> <Gold.Protein.ActiveResidues>
 VAL166  LYS551  ARG553  GLY616  TRP617  ASP618  TYR619  PRO620  LYS621  CYS622 
 ASP623  PHE694  ASN695  SER759  ASP760  ASP761  ALA762  ILE779  LEU786  VAL792 
 PHE793  MET794  SER795  GLU796  ALA797  LYS798  CYS799  TRP800  GLU811  SER814 

> <Gold.Protein.RotatedAtoms>
  152.2742  133.5411  159.5457 H   0  0  0  0  0  0  0  0  0  0  0  0  # atno 6907 bound_to 6896
  150.7171  134.0654  159.3855 H   0  0  0  0  0  0  0  0  0  0  0  0  # atno 6908 bound_to 6896
  151.8568  135.0538  160.0516 H   0  0  0  0  0  0  0  0  0  0  0  0  # atno 6909 bound_to 6896
  146.0563  140.6411  142.9018 H   0  0  0  0  0  0  0  0  0  0  0  0  # atno 7974 bound_to 7965
  154.4110  140.1673  156.2116 H   0  0  0  0  0  0  0  0  0  0  0  0  # atno 8008 bound_to 7997
  155.9439  140.3406  155.6327 H   0  0  0  0  0  0  0  0  0  0  0  0  # atno 8009 bound_to 7997
  155.6954  140.0739  157.2422 H   0  0  0  0  0  0  0  0  0  0  0  0  # atno 8010 bound_to 7997
  139.6299  144.7113  151.2454 H   0  0  0  0  0  0  0  0  0  0  0  0  # atno 10167 bound_to 10162
  157.4439  130.8098  149.7721 H   0  0  0  0  0  0  0  0  0  0  0  0  # atno 10718 bound_to 10713
  153.1485  135.4613  154.9601 H   0  0  0  0  0  0  0  0  0  0  0  0  # atno 10763 bound_to 10752
  154.7805  135.3187  154.8001 H   0  0  0  0  0  0  0  0  0  0  0  0  # atno 10764 bound_to 10752
  153.8511  135.6921  153.4846 H   0  0  0  0  0  0  0  0  0  0  0  0  # atno 10765 bound_to 10752
  140.9431  134.1166  157.4132 H   0  0  0  0  0  0  0  0  0  0  0  0  # atno 11005 bound_to 11000
  144.7150  140.4176  143.7051 LP  0  0  0  0  0  0  0  0  0  0  0  0  # atno 17320 bound_to 7965
  145.6638  139.1586  143.2793 LP  0  0  0  0  0  0  0  0  0  0  0  0  # atno 17321 bound_to 7965
  140.7433  143.6499  150.8258 LP  0  0  0  0  0  0  0  0  0  0  0  0  # atno 17342 bound_to 10162
  140.0122  143.5630  152.2834 LP  0  0  0  0  0  0  0  0  0  0  0  0  # atno 17343 bound_to 10162
  155.9960  130.3908  150.2798 LP  0  0  0  0  0  0  0  0  0  0  0  0  # atno 17370 bound_to 10713
  157.0965  131.0184  151.3102 LP  0  0  0  0  0  0  0  0  0  0  0  0  # atno 17371 bound_to 10713
  139.8826  135.0043  156.6239 LP  0  0  0  0  0  0  0  0  0  0  0  0  # atno 17394 bound_to 11000
  140.7707  133.8741  155.8489 LP  0  0  0  0  0  0  0  0  0  0  0  0  # atno 17395 bound_to 11000

$$$$
