#       Name:                AV-unprocessed.smi:618
#       Creating user name   scv26
#       Creation time:       Thu Mar 26 23:59:59 2020


#       File generated by GOLD software.
#

@<TRIPOS>MOLECULE
AV-unprocessed.smi:618
    46    48     1
SMALL
NO_CHARGES


@<TRIPOS>ATOM
      1 ****        -1.1966   2.5337   0.4117 O.2            1 S1                 0.0000
      2 ****        -1.7055   1.4482   0.6894 C.2            1 S1                 0.0000
      3 ****        -0.9895   0.3410   0.9309 N.am           1 S1                 0.0000
      4 ****         0.4680   0.2725   0.9101 C.3            1 S1                 0.0000
      5 ****         1.0218   0.2074  -0.5314 C.3            1 S1                 0.0000
      6 ****         2.5689   0.2347  -0.5858 C.3            1 S1                 0.0000
      7 ****         3.0912  -1.0853  -0.1868 N.4            1 S1                 1.0000
      8 ****         4.5520  -1.2765  -0.1675 C.3            1 S1                 0.0000
      9 ****         4.7557  -2.7950  -0.3398 C.3            1 S1                 0.0000
     10 ****         3.3562  -3.3756  -0.6096 C.3            1 S1                 0.0000
     11 ****         2.5500  -2.1514  -1.0318 C.3            1 S1                 0.0000
     12 ****         1.0272  -2.1987  -0.8637 C.3            1 S1                 0.0000
     13 ****         0.5018  -0.9245  -1.2472 O.3            1 S1                 0.0000
     14 ****        -3.0249   1.2052   0.7687 N.am           1 S1                 0.0000
     15 ****        -4.0999   2.1199   0.6032 C.ar           1 S1                 0.0000
     16 ****        -5.3704   1.5988   0.2828 C.ar           1 S1                 0.0000
     17 ****        -6.4561   2.4820   0.1311 C.ar           1 S1                 0.0000
     18 ****        -6.2297   3.8596   0.3167 C.ar           1 S1                 0.0000
     19 ****        -5.0247   4.3743   0.6394 N.ar           1 S1                 0.0000
     20 ****        -3.9871   3.5214   0.7814 C.ar           1 S1                 0.0000
     21 ****        -1.4859  -0.5114   1.1463 H              1 S1                 0.0000
     22 ****         0.8774   1.1410   1.4289 H              1 S1                 0.0000
     23 ****         0.7798  -0.5942   1.4920 H              1 S1                 0.0000
     24 ****         0.6686   1.0933  -1.0600 H              1 S1                 0.0000
     25 ****         2.9028   0.4653  -1.5986 H              1 S1                 0.0000
     26 ****         2.9692   1.0106   0.0675 H              1 S1                 0.0000
     27 ****         5.0108  -0.7398  -0.9993 H              1 S1                 0.0000
     28 ****         4.9826  -0.8982   0.7601 H              1 S1                 0.0000
     29 ****         5.4247  -2.9908  -1.1786 H              1 S1                 0.0000
     30 ****         5.2011  -3.2462   0.5476 H              1 S1                 0.0000
     31 ****         3.3613  -4.1593  -1.3679 H              1 S1                 0.0000
     32 ****         2.9475  -3.7983   0.3095 H              1 S1                 0.0000
     33 ****         2.7872  -1.9262  -2.0740 H              1 S1                 0.0000
     34 ****         0.5978  -2.9672  -1.5065 H              1 S1                 0.0000
     35 ****         0.7443  -2.4458   0.1597 H              1 S1                 0.0000
     36 ****        -3.2938   0.2434   0.9157 H              1 S1                 0.0000
     37 ****        -5.5134   0.5363   0.1493 H              1 S1                 0.0000
     38 ****        -7.4391   2.1126  -0.1209 H              1 S1                 0.0000
     39 ****        -7.0389   4.5666   0.2085 H              1 S1                 0.0000
     40 ****        -3.0571   3.9884   1.0658 H              1 S1                 0.0000
     41 ****         2.7660  -1.2698   0.7514 H              1 S1                 0.0000
     42 ****        -0.2019   2.6202   0.3573 LP             1 S1                 0.0000
     43 ****        -1.7779   3.3292   0.2405 LP             1 S1                 0.0000
     44 ****         0.6996  -0.7908  -2.2182 LP             1 S1                 0.0000
     45 ****        -0.4884  -0.9467  -1.1087 LP             1 S1                 0.0000
     46 ****        -4.9036   5.3583   0.7696 LP             1 S1                 0.0000
@<TRIPOS>BOND
    1    1    2 2     
    2    2    3 am    
    3    2   14 am    
    4    3    4 1     
    5    3   21 1     
    6    4    5 1     
    7    4   22 1     
    8    4   23 1     
    9    5   13 1     
   10    5    6 1     
   11    5   24 1     
   12    6    7 1     
   13    6   25 1     
   14    6   26 1     
   15    7   11 1     
   16    7    8 1     
   17    7   41 1     
   18    8    9 1     
   19    8   27 1     
   20    8   28 1     
   21    9   10 1     
   22    9   29 1     
   23    9   30 1     
   24   10   11 1     
   25   10   31 1     
   26   10   32 1     
   27   11   12 1     
   28   11   33 1     
   29   12   13 1     
   30   12   34 1     
   31   12   35 1     
   32   14   15 1     
   33   14   36 1     
   34   15   20 ar    
   35   15   16 ar    
   36   16   17 ar    
   37   16   37 1     
   38   17   18 ar    
   39   17   38 1     
   40   18   19 ar    
   41   18   39 1     
   42   19   20 ar    
   43   20   40 1     
   44    1   42 1     
   45    1   43 1     
   46   13   44 1     
   47   13   45 1     
   48   19   46 1     
@<TRIPOS>SUBSTRUCTURE
      1 S1             1
@<TRIPOS>SET
LONE_PAIRS      STATIC     ATOMS    <user>   **** ""
5 42 43 44 45 46
DONOR_HYDROGENS      STATIC     ATOMS    <user>   **** ""
3 21 41 36
ATOM$BLUE        STATIC     ATOMS    COLORGROUP SYSTEM
5 42 43 44 45 46
ATOM$RED        STATIC     ATOMS    COLORGROUP SYSTEM
3 21 41 36
