#       Name:                AV-unprocessed.smi:3056
#       Creating user name   scv26
#       Creation time:       Fri Mar 27 17:04:59 2020


#       File generated by GOLD software.
#

@<TRIPOS>MOLECULE
AV-unprocessed.smi:3056
    53    54     1
SMALL
NO_CHARGES


@<TRIPOS>ATOM
      1 ****        -3.9511  -2.4880  -3.2085 C.3            1 S1                 0.0000
      2 ****        -3.6462  -2.5821  -1.7411 C.2            1 S1                 0.0000
      3 ****        -3.9717  -3.6402  -0.8467 C.2            1 S1                 0.0000
      4 ****        -3.5555  -3.4138   0.3882 N.2            1 S1                 0.0000
      5 ****        -2.9606  -2.2025   0.3347 N.pl3          1 S1                 0.0000
      6 ****        -2.3615  -1.6405   1.5417 C.3            1 S1                 0.0000
      7 ****        -2.8180  -0.1879   1.7663 C.3            1 S1                 0.0000
      8 ****        -0.8210  -1.8294   1.5947 C.3            1 S1                 0.0000
      9 ****        -0.4082  -3.3096   1.5453 C.3            1 S1                 0.0000
     10 ****        -0.1382  -1.0996   0.5023 N.4            1 S1                 1.0000
     11 ****         0.5264   0.1596   0.9031 C.3            1 S1                 0.0000
     12 ****         1.0866   0.9343  -0.2986 C.2            1 S1                 0.0000
     13 ****         0.9129   0.4798  -1.4307 O.2            1 S1                 0.0000
     14 ****         1.7502   2.0943  -0.0785 N.am           1 S1                 0.0000
     15 ****         2.0464   2.6855   1.2302 C.3            1 S1                 0.0000
     16 ****         3.5733   2.6935   1.4200 C.3            1 S1                 0.0000
     17 ****         4.1852   3.4159   0.3541 O.3            1 S1                 0.0000
     18 ****         3.8934   2.8830  -0.9371 C.3            1 S1                 0.0000
     19 ****         4.6243   3.7319  -1.9826 C.3            1 S1                 0.0000
     20 ****         2.3659   2.8838  -1.1485 C.3            1 S1                 0.0000
     21 ****        -2.9969  -1.6822  -0.9449 C.2            1 S1                 0.0000
     22 ****        -4.2052  -3.4594  -3.6330 H              1 S1                 0.0000
     23 ****        -3.1013  -2.1042  -3.7731 H              1 S1                 0.0000
     24 ****        -4.7932  -1.8231  -3.4014 H              1 S1                 0.0000
     25 ****        -4.4926  -4.5625  -1.0582 H              1 S1                 0.0000
     26 ****        -2.7671  -2.2037   2.3845 H              1 S1                 0.0000
     27 ****        -2.4129   0.2108   2.6967 H              1 S1                 0.0000
     28 ****        -3.9049  -0.1290   1.8320 H              1 S1                 0.0000
     29 ****        -2.5036   0.4705   0.9566 H              1 S1                 0.0000
     30 ****        -0.4657  -1.4399   2.5504 H              1 S1                 0.0000
     31 ****        -0.8940  -3.8787   2.3384 H              1 S1                 0.0000
     32 ****         0.6686  -3.4196   1.6774 H              1 S1                 0.0000
     33 ****        -0.6711  -3.7735   0.5943 H              1 S1                 0.0000
     34 ****         0.5705  -1.7044   0.1121 H              1 S1                 0.0000
     35 ****        -0.1834   0.7950   1.4324 H              1 S1                 0.0000
     36 ****         1.3384  -0.0822   1.5903 H              1 S1                 0.0000
     37 ****         1.6619   3.7061   1.2574 H              1 S1                 0.0000
     38 ****         1.5764   2.1708   2.0663 H              1 S1                 0.0000
     39 ****         3.8342   3.1714   2.3643 H              1 S1                 0.0000
     40 ****         3.9670   1.6765   1.4563 H              1 S1                 0.0000
     41 ****         4.2713   1.8604  -0.9926 H              1 S1                 0.0000
     42 ****         4.4456   3.3540  -2.9896 H              1 S1                 0.0000
     43 ****         5.7009   3.7210  -1.8104 H              1 S1                 0.0000
     44 ****         4.2923   4.7699  -1.9503 H              1 S1                 0.0000
     45 ****         2.1285   2.5057  -2.1438 H              1 S1                 0.0000
     46 ****         1.9777   3.9029  -1.1131 H              1 S1                 0.0000
     47 ****        -2.5631  -0.7227  -1.1853 H              1 S1                 0.0000
     48 ****        -0.8132  -0.8995  -0.2219 H              1 S1                 0.0000
     49 ****        -3.6585  -4.0084   1.1856 LP             1 S1                 0.0000
     50 ****         0.4149  -0.3785  -1.5539 LP             1 S1                 0.0000
     51 ****         1.2700   0.9694  -2.2262 LP             1 S1                 0.0000
     52 ****         5.1762   3.3976   0.4874 LP             1 S1                 0.0000
     53 ****         3.8621   4.3617   0.3864 LP             1 S1                 0.0000
@<TRIPOS>BOND
    1    1    2 1     
    2    1   22 1     
    3    1   23 1     
    4    1   24 1     
    5    2   21 2     
    6    2    3 1     
    7    3    4 2     
    8    3   25 1     
    9    4    5 1     
   10    5    6 1     
   11    5   21 1     
   12    6    7 1     
   13    6    8 1     
   14    6   26 1     
   15    7   27 1     
   16    7   28 1     
   17    7   29 1     
   18    8    9 1     
   19    8   10 1     
   20    8   30 1     
   21    9   31 1     
   22    9   32 1     
   23    9   33 1     
   24   10   11 1     
   25   10   34 1     
   26   10   48 1     
   27   11   12 1     
   28   11   35 1     
   29   11   36 1     
   30   12   13 2     
   31   12   14 am    
   32   14   20 1     
   33   14   15 1     
   34   15   16 1     
   35   15   37 1     
   36   15   38 1     
   37   16   17 1     
   38   16   39 1     
   39   16   40 1     
   40   17   18 1     
   41   18   19 1     
   42   18   20 1     
   43   18   41 1     
   44   19   42 1     
   45   19   43 1     
   46   19   44 1     
   47   20   45 1     
   48   20   46 1     
   49   21   47 1     
   50    4   49 1     
   51   13   50 1     
   52   13   51 1     
   53   17   52 1     
   54   17   53 1     
@<TRIPOS>SUBSTRUCTURE
      1 S1             1
@<TRIPOS>SET
LONE_PAIRS      STATIC     ATOMS    <user>   **** ""
5 49 50 51 52 53
DONOR_HYDROGENS      STATIC     ATOMS    <user>   **** ""
2 34 48
ATOM$BLUE        STATIC     ATOMS    COLORGROUP SYSTEM
5 49 50 51 52 53
ATOM$RED        STATIC     ATOMS    COLORGROUP SYSTEM
2 34 48
