#       Name:                AV-unprocessed.smi:1384
#       Creating user name   scv26
#       Creation time:       Fri Mar 27 05:24:14 2020


#       File generated by GOLD software.
#

@<TRIPOS>MOLECULE
AV-unprocessed.smi:1384
    45    46     1
SMALL
NO_CHARGES


@<TRIPOS>ATOM
      1 ****        -4.8827  -3.5953  -0.3913 C.3            1 S1                 0.0000
      2 ****        -3.4073  -3.1716  -0.3652 C.3            1 S1                 0.0000
      3 ****        -3.1030  -2.2579   0.8370 C.3            1 S1                 0.0000
      4 ****        -1.6261  -1.8324   0.8654 C.3            1 S1                 0.0000
      5 ****        -1.2095  -1.1475  -0.4524 C.3            1 S1                 0.0000
      6 ****         0.2141  -0.8249  -0.4399 N.am           1 S1                 0.0000
      7 ****         0.7662   0.2405   0.1599 C.2            1 S1                 0.0000
      8 ****         0.1131   1.0752   0.7877 O.2            1 S1                 0.0000
      9 ****         2.2925   0.3573   0.0354 C.3            1 S1                 0.0000
     10 ****         2.8286   1.6476   0.5026 N.am           1 S1                 0.0000
     11 ****         3.3205   1.6910   1.8193 C.2            1 S1                 0.0000
     12 ****         3.8333   2.8118   2.3443 C.2            1 S1                 0.0000
     13 ****         3.8765   3.9937   1.5187 C.2            1 S1                 0.0000
     14 ****         3.4038   3.9851   0.2508 C.2            1 S1                 0.0000
     15 ****         3.4535   5.2246  -0.6397 C.3            1 S1                 0.0000
     16 ****         4.1172   4.9694  -1.7680 F              1 S1                 0.0000
     17 ****         2.2205   5.6169  -0.9611 F              1 S1                 0.0000
     18 ****         4.0620   6.2453  -0.0337 F              1 S1                 0.0000
     19 ****         2.8325   2.7458  -0.3152 C.2            1 S1                 0.0000
     20 ****         2.3804   2.6907  -1.4601 O.2            1 S1                 0.0000
     21 ****        -1.5186  -2.0560  -1.6564 C.3            1 S1                 0.0000
     22 ****        -2.9955  -2.4817  -1.6796 C.3            1 S1                 0.0000
     23 ****        -5.5421  -2.7327  -0.4923 H              1 S1                 0.0000
     24 ****        -5.1567  -4.1189   0.5251 H              1 S1                 0.0000
     25 ****        -5.0829  -4.2672  -1.2263 H              1 S1                 0.0000
     26 ****        -2.8081  -4.0772  -0.2589 H              1 S1                 0.0000
     27 ****        -3.7350  -1.3699   0.7952 H              1 S1                 0.0000
     28 ****        -3.3522  -2.7694   1.7674 H              1 S1                 0.0000
     29 ****        -1.4582  -1.1624   1.7094 H              1 S1                 0.0000
     30 ****        -1.0012  -2.7096   1.0394 H              1 S1                 0.0000
     31 ****        -1.7807  -0.2241  -0.5679 H              1 S1                 0.0000
     32 ****         0.8269  -1.4604  -0.9301 H              1 S1                 0.0000
     33 ****         2.7422  -0.4649   0.5942 H              1 S1                 0.0000
     34 ****         2.5795   0.1832  -1.0034 H              1 S1                 0.0000
     35 ****         3.2467   0.7649   2.3710 H              1 S1                 0.0000
     36 ****         4.2031   2.8302   3.3590 H              1 S1                 0.0000
     37 ****         4.2996   4.8949   1.9361 H              1 S1                 0.0000
     38 ****        -1.2715  -1.5417  -2.5860 H              1 S1                 0.0000
     39 ****        -0.8888  -2.9461  -1.6192 H              1 S1                 0.0000
     40 ****        -3.1676  -3.1523  -2.5222 H              1 S1                 0.0000
     41 ****        -3.6230  -1.6057  -1.8498 H              1 S1                 0.0000
     42 ****        -0.8787   0.9762   0.8687 LP             1 S1                 0.0000
     43 ****         0.5746   1.8519   1.2164 LP             1 S1                 0.0000
     44 ****         2.0016   1.8329  -1.8073 LP             1 S1                 0.0000
     45 ****         2.3922   3.5039  -2.0420 LP             1 S1                 0.0000
@<TRIPOS>BOND
    1    1    2 1     
    2    1   23 1     
    3    1   24 1     
    4    1   25 1     
    5    2   22 1     
    6    2    3 1     
    7    2   26 1     
    8    3    4 1     
    9    3   27 1     
   10    3   28 1     
   11    4    5 1     
   12    4   29 1     
   13    4   30 1     
   14    5    6 1     
   15    5   21 1     
   16    5   31 1     
   17    6    7 am    
   18    6   32 1     
   19    7    8 2     
   20    7    9 1     
   21    9   10 1     
   22    9   33 1     
   23    9   34 1     
   24   10   19 am    
   25   10   11 1     
   26   11   12 2     
   27   11   35 1     
   28   12   13 1     
   29   12   36 1     
   30   13   14 2     
   31   13   37 1     
   32   14   15 1     
   33   14   19 1     
   34   15   16 1     
   35   15   17 1     
   36   15   18 1     
   37   19   20 2     
   38   21   22 1     
   39   21   38 1     
   40   21   39 1     
   41   22   40 1     
   42   22   41 1     
   43    8   42 1     
   44    8   43 1     
   45   20   44 1     
   46   20   45 1     
@<TRIPOS>SUBSTRUCTURE
      1 S1             1
@<TRIPOS>SET
LONE_PAIRS      STATIC     ATOMS    <user>   **** ""
4 42 43 44 45
DONOR_HYDROGENS      STATIC     ATOMS    <user>   **** ""
1 32
ATOM$BLUE        STATIC     ATOMS    COLORGROUP SYSTEM
4 42 43 44 45
ATOM$RED        STATIC     ATOMS    COLORGROUP SYSTEM
1 32
