#       Name:                AV-unprocessed.smi:3021
#       Creating user name   scv26
#       Creation time:       Fri Mar 27 16:43:23 2020


#       File generated by GOLD software.
#

@<TRIPOS>MOLECULE
AV-unprocessed.smi:3021
    43    45     1
SMALL
NO_CHARGES


@<TRIPOS>ATOM
      1 ****        -0.3679  -0.1827   0.9722 O.3            1 S1                 0.0000
      2 ****         0.0711   0.3233  -0.2735 C.3            1 S1                 0.0000
      3 ****         1.6071   0.3520  -0.2681 C.3            1 S1                 0.0000
      4 ****         2.0857  -0.9562  -0.5315 O.3            1 S1                 0.0000
      5 ****         3.5023  -1.0336  -0.5537 C.3            1 S1                 0.0000
      6 ****         3.8823  -2.4542  -0.8300 C.2            1 S1                 0.0000
      7 ****         5.0856  -3.0687  -1.0424 C.2            1 S1                 0.0000
      8 ****         4.8047  -4.4481  -1.2464 C.2            1 S1                 0.0000
      9 ****         3.4492  -4.5756  -1.1422 C.2            1 S1                 0.0000
     10 ****         2.8716  -3.3705  -0.8874 O.3            1 S1                 0.0000
     11 ****        -0.5343   1.7245  -0.4868 C.3            1 S1                 0.0000
     12 ****        -1.9856   1.6980  -0.5436 N.pl3          1 S1                 0.0000
     13 ****        -2.6014   1.3604  -1.7119 N.2            1 S1                 0.0000
     14 ****        -3.8876   1.3946  -1.5296 N.2            1 S1                 0.0000
     15 ****        -4.1243   1.7591  -0.2146 C.ar           1 S1                 0.0000
     16 ****        -5.3225   1.9419   0.5111 C.ar           1 S1                 0.0000
     17 ****        -5.2829   2.3211   1.8708 C.ar           1 S1                 0.0000
     18 ****        -6.7698   2.5341   2.7248 Cl             1 S1                 0.0000
     19 ****        -4.0411   2.5221   2.5207 C.ar           1 S1                 0.0000
     20 ****        -3.9747   2.9858   4.1836 Cl             1 S1                 0.0000
     21 ****        -2.8381   2.3429   1.8090 C.ar           1 S1                 0.0000
     22 ****        -2.8998   1.9663   0.4567 C.ar           1 S1                 0.0000
     23 ****        -0.0087  -1.0500   1.0837 H              1 S1                 0.0000
     24 ****        -0.2773  -0.3386  -1.0677 H              1 S1                 0.0000
     25 ****         1.9665   1.0137  -1.0579 H              1 S1                 0.0000
     26 ****         1.9930   0.7367   0.6778 H              1 S1                 0.0000
     27 ****         3.9081  -0.3809  -1.3275 H              1 S1                 0.0000
     28 ****         3.9162  -0.7172   0.4046 H              1 S1                 0.0000
     29 ****         6.0508  -2.5842  -1.0498 H              1 S1                 0.0000
     30 ****         5.5053  -5.2458  -1.4437 H              1 S1                 0.0000
     31 ****         2.7653  -5.4081  -1.2174 H              1 S1                 0.0000
     32 ****        -0.2286   2.3999   0.3135 H              1 S1                 0.0000
     33 ****        -0.1631   2.1586  -1.4164 H              1 S1                 0.0000
     34 ****        -6.2729   1.7886   0.0215 H              1 S1                 0.0000
     35 ****        -1.8841   2.4897   2.2936 H              1 S1                 0.0000
     36 ****        -1.3669  -0.2260   0.9864 LP             1 S1                 0.0000
     37 ****        -0.0496   0.4125   1.7100 LP             1 S1                 0.0000
     38 ****         1.7364  -1.2503  -1.4212 LP             1 S1                 0.0000
     39 ****         1.7440  -1.5699   0.1802 LP             1 S1                 0.0000
     40 ****         2.2326  -3.1331  -1.6191 LP             1 S1                 0.0000
     41 ****         2.3834  -3.4000  -0.0152 LP             1 S1                 0.0000
     42 ****        -2.1399   1.1254  -2.5674 LP             1 S1                 0.0000
     43 ****        -4.5843   1.1931  -2.2181 LP             1 S1                 0.0000
@<TRIPOS>BOND
    1    1    2 1     
    2    1   23 1     
    3    2    3 1     
    4    2   11 1     
    5    2   24 1     
    6    3    4 1     
    7    3   25 1     
    8    3   26 1     
    9    4    5 1     
   10    5    6 1     
   11    5   27 1     
   12    5   28 1     
   13    6   10 1     
   14    6    7 2     
   15    7    8 1     
   16    7   29 1     
   17    8    9 2     
   18    8   30 1     
   19    9   10 1     
   20    9   31 1     
   21   11   12 1     
   22   11   32 1     
   23   11   33 1     
   24   12   22 1     
   25   12   13 1     
   26   13   14 2     
   27   14   15 1     
   28   15   22 ar    
   29   15   16 ar    
   30   16   17 ar    
   31   16   34 1     
   32   17   18 1     
   33   17   19 ar    
   34   19   20 1     
   35   19   21 ar    
   36   21   22 ar    
   37   21   35 1     
   38    1   36 1     
   39    1   37 1     
   40    4   38 1     
   41    4   39 1     
   42   10   40 1     
   43   10   41 1     
   44   13   42 1     
   45   14   43 1     
@<TRIPOS>SUBSTRUCTURE
      1 S1             1
@<TRIPOS>SET
LONE_PAIRS      STATIC     ATOMS    <user>   **** ""
8 36 37 38 39 40 41 42 43
DONOR_HYDROGENS      STATIC     ATOMS    <user>   **** ""
1 23
ATOM$BLUE        STATIC     ATOMS    COLORGROUP SYSTEM
8 36 37 38 39 40 41 42 43
ATOM$RED        STATIC     ATOMS    COLORGROUP SYSTEM
1 23
