AV-unprocessed.smi:2186|AV-procd|sdf|8877|dock9
  -GOLD-   2272012 73D 1   1.00000     0.00000
 Structure written by MMmdl.
 44 45  0  0  0  0  0  0  0  0  2 V2000
  154.1808  140.4342  160.8982 C   0  0  0  0  0  0  0  0  0  0  0  0
  153.6427  141.6543  160.1374 C   0  0  0  0  0  0  0  0  0  0  0  0
  153.0309  142.7190  161.0605 C   0  0  0  0  0  0  0  0  0  0  0  0
  152.7045  141.2655  159.0390 C   0  0  0  0  0  0  0  0  0  0  0  0
  152.2219  142.1281  158.1406 N   0  0  0  0  0  0  0  0  0  0  0  0
  151.4018  141.5179  157.1842 C   0  0  0  0  0  0  0  0  0  0  0  0
  150.8071  142.3295  156.0649 C   0  0  0  0  0  0  0  0  0  0  0  0
  149.7325  141.5279  155.3228 C   0  0  0  0  0  0  0  0  0  0  0  0
  150.0423  140.5161  154.6941 O   0  0  0  0  0  0  0  0  0  0  0  0
  148.4693  141.9721  155.4259 N   0  0  0  0  0  0  0  0  0  0  0  0
  147.2940  141.2606  154.9419 C   0  0  0  0  0  0  0  0  0  0  0  0
  147.4753  140.8550  153.4660 C   0  0  0  0  0  0  0  0  0  0  0  0
  146.5426  139.7802  153.0459 N   0  3  0  0  0  0  0  0  0  0  0  0
  146.9582  139.1468  151.7712 C   0  0  0  0  0  0  0  0  0  0  0  0
  145.9427  138.0738  151.3445 C   0  0  0  0  0  0  0  0  0  0  0  0
  145.8146  137.1050  152.3772 O   0  0  0  0  0  0  0  0  0  0  0  0
  145.3299  137.6782  153.5847 C   0  0  0  0  0  0  0  0  0  0  0  0
  146.3169  138.7465  154.0870 C   0  0  0  0  0  0  0  0  0  0  0  0
  151.2442  140.1702  157.3947 C   0  0  0  0  0  0  0  0  0  0  0  0
  152.1396  139.6185  158.7842 S   0  0  0  0  0  0  0  0  0  0  0  0
  154.6758  139.7371  160.2211 H   0  0  0  0  0  0  0  0  0  0  0  0
  153.3784  139.8952  161.4028 H   0  0  0  0  0  0  0  0  0  0  0  0
  154.9073  140.7320  161.6546 H   0  0  0  0  0  0  0  0  0  0  0  0
  154.5031  142.1211  159.6562 H   0  0  0  0  0  0  0  0  0  0  0  0
  152.7356  143.6044  160.4965 H   0  0  0  0  0  0  0  0  0  0  0  0
  153.7435  143.0344  161.8229 H   0  0  0  0  0  0  0  0  0  0  0  0
  152.1450  142.3395  161.5713 H   0  0  0  0  0  0  0  0  0  0  0  0
  150.3579  143.2473  156.4460 H   0  0  0  0  0  0  0  0  0  0  0  0
  151.5847  142.6335  155.3631 H   0  0  0  0  0  0  0  0  0  0  0  0
  148.3078  142.8187  155.9525 H   0  0  0  0  0  0  0  0  0  0  0  0
  147.1639  140.3833  155.5744 H   0  0  0  0  0  0  0  0  0  0  0  0
  146.4001  141.8738  155.0680 H   0  0  0  0  0  0  0  0  0  0  0  0
  147.2966  141.7328  152.8429 H   0  0  0  0  0  0  0  0  0  0  0  0
  148.5049  140.5482  153.2736 H   0  0  0  0  0  0  0  0  0  0  0  0
  147.0405  139.9031  150.9896 H   0  0  0  0  0  0  0  0  0  0  0  0
  147.9461  138.6989  151.8899 H   0  0  0  0  0  0  0  0  0  0  0  0
  144.9717  138.5203  151.1231 H   0  0  0  0  0  0  0  0  0  0  0  0
  146.2799  137.5777  150.4343 H   0  0  0  0  0  0  0  0  0  0  0  0
  144.3384  138.1057  153.4266 H   0  0  0  0  0  0  0  0  0  0  0  0
  145.2209  136.8894  154.3293 H   0  0  0  0  0  0  0  0  0  0  0  0
  147.2669  138.2789  154.3503 H   0  0  0  0  0  0  0  0  0  0  0  0
  145.9196  139.1982  154.9950 H   0  0  0  0  0  0  0  0  0  0  0  0
  150.6648  139.4682  156.8134 H   0  0  0  0  0  0  0  0  0  0  0  0
  145.6525  140.2224  152.8659 H   0  0  0  0  0  0  0  0  0  0  0  0
  1  2  1  0  0  0  0
  1 21  1  0  0  0  0
  1 22  1  0  0  0  0
  1 23  1  0  0  0  0
  2  3  1  0  0  0  0
  2  4  1  0  0  0  0
  2 24  1  0  0  0  0
  3 25  1  0  0  0  0
  3 26  1  0  0  0  0
  3 27  1  0  0  0  0
  4 20  1  0  0  0  0
  4  5  2  0  0  0  0
  5  6  1  0  0  0  0
  6  7  1  0  0  0  0
  6 19  2  0  0  0  0
  7  8  1  0  0  0  0
  7 28  1  0  0  0  0
  7 29  1  0  0  0  0
  8  9  2  0  0  0  0
  8 10  1  0  0  0  0
 10 11  1  0  0  0  0
 10 30  1  0  0  0  0
 11 12  1  0  0  0  0
 11 31  1  0  0  0  0
 11 32  1  0  0  0  0
 12 13  1  0  0  0  0
 12 33  1  0  0  0  0
 12 34  1  0  0  0  0
 13 18  1  0  0  0  0
 13 14  1  0  0  0  0
 13 44  1  0  0  0  0
 14 15  1  0  0  0  0
 14 35  1  0  0  0  0
 14 36  1  0  0  0  0
 15 16  1  0  0  0  0
 15 37  1  0  0  0  0
 15 38  1  0  0  0  0
 16 17  1  0  0  0  0
 17 18  1  0  0  0  0
 17 39  1  0  0  0  0
 17 40  1  0  0  0  0
 18 41  1  0  0  0  0
 18 42  1  0  0  0  0
 19 20  1  0  0  0  0
 19 43  1  0  0  0  0
M  CHG  1  13   1
M  END
> <s_m_source_file>
AV-unprocessed.smi

> <i_m_source_file_index>
2186

> <i_lp_mmshare_version>
43012

> <i_f3d_flags>
0

> <s_epik_input>
W0NIM11bQ0hdKFtDSDNdKWMxbmMoW2NIXXMxKVtDSDJdQyg9TylbTkhdW0NIMl1bQ0gyXU4yW0NIMl1bQ0gyXU9bQ0gyXVtDSDJdMg==

> <s_epik_cmdline>
J2VwaWtfcHl0aG9uJywgJy1waCcsICc3LjAnLCAnLXRuJywgJzgnLCAnLW1hJywgJzIwMCcsICctbWV0YWxfYmluZGluZycsICctaW1hZScsICc8aW5maWxlLm1hZT4nLCAnLW9tYWUnLCAnPG91dGZpbGUubWFlPic=

> <r_epik_Ionization_Penalty>
0.678862

> <r_epik_Ionization_Penalty_Charging>
0.678842

> <r_epik_Ionization_Penalty_Neutral>
2.00527e-05

> <r_epik_State_Penalty>
0.699693

> <r_epik_Charging_Adjusted_Penalty>
1.37854

> <i_epik_Tot_Q>
1

> <i_epik_Tot_abs_Q>
1

> <r_epik_Metal_State_Penalty>
0.699708

> <b_epik_Metal_Only>
0

> <s_lp_Force_Field>
OPLS_2005

> <r_lp_Energy>
6.68048

> <b_lp_Chiralities_Consistent>
1

> <s_lp_Variant>
AV-unprocessed.smi:2186-2

> <Gold.Version>
5.8.1

> <Gold.Id.Protein>
6NUR|6NUR_protein|mol2

> <Gold.PLP.Fitness>
45.1502

> <Gold.PLP.PLP>
-35.6094

> <Gold.PLP.part.hbond>
-3.0000

> <Gold.PLP.part.metal>
0.0000

> <Gold.PLP.part.buried>
2.4485

> <Gold.PLP.part.nonpolar>
-35.4064

> <Gold.PLP.part.repulsive>
0.4552

> <Gold.PLP.ligand.clash>
0.0000

> <Gold.PLP.ligand.torsion>
0.4960

> <Gold.PLP.Chemscore.Hbond>
3.4699

> <Gold.PLP.Chemscore.CHOScore>
0.0000

> <Gold.PLP.Chemscore.Metal>
0.0000

> <Gold.Chemscore.Hbonds>
donor molecule, donor type, donor heavy atom, donor atom, acceptor molecule, acceptor atom, score
      L1  H    10    30       P1  8028  0.66
      L1  H    13    44       P1 10175  2.00
      P1  H  7989  7998       L1     9  0.90

> <Gold.PLP.Chemscore.Internal.Correction>
0.1231

> <Gold.Rescore>
     Score         DG    S(hbond)    S(metal)    S(lipo)     H(rot)  DE(clash)    DE(int)     intcor
     15.03     -19.70       2.05        0.00     102.80       1.82       2.89       1.78       ----

> <Gold.Chemscore.Fitness>
15.0252

> <Gold.Chemscore.DG>
-19.6992

> <Gold.Chemscore.ZeroCoef>
-5.4800

> <Gold.Chemscore.Hbond>
2.0524

> <Gold.Chemscore.Metal>
0.0000

> <Gold.Chemscore.Lipo>
102.8020

> <Gold.Chemscore.Internal_Hbond>
0.0000

> <Gold.Chemscore.DEClash>
2.8909

> <Gold.Chemscore.DEInternal>
1.7831

> <Gold.Chemscore.Rot>
1.8217

> <Gold.Chemscore.Internal.Correction>
   9.000000E+99

> <Gold.Chemscore.Hbonds>
donor molecule, donor type, donor heavy atom, donor atom, acceptor molecule, acceptor atom, score
      L1  H    10    30       P1  8028  0.60
      L1  H    13    44       P1 10175  0.89
      P1  H  7989  7998       L1     9  0.62

> <Gold.Chemscore.Hbond.Weighted>
-6.8549

> <Gold.Chemscore.Metal.Weighted>
-0.0000

> <Gold.Chemscore.Lipo.Weighted>
-12.0278

> <Gold.Chemscore.Internal_Hbond.Weighted>
0.0000

> <Gold.Chemscore.DEClash.Weighted>
2.8909

> <Gold.Chemscore.DEInternal.Weighted>
1.7831

> <Gold.Chemscore.Rot.Weighted>
4.6635

> <Gold.Chemscore.Internal.Correction.Weighted>
   9.000000E+99

> <Gold.Protein.RotatedTorsions>
[ 6907 6896 6895 6894 ] final -130.11 input  -60.11 | X-H torsion
[ 7974 7965 7964 7962 ] final   49.92 input  175.53 | X-H torsion
[ 8008 7997 7996 7995 ] final  164.29 input   59.86 | X-H torsion
[ 10167 10162 10161 10158 ] final   99.24 input  -65.29 | X-H torsion
[ 10718 10713 10712 10709 ] final -178.51 input   66.30 | X-H torsion
[ 10763 10752 10751 10750 ] final -167.27 input  -60.55 | X-H torsion
[ 11005 11000 10999 10996 ] final   49.63 input  -57.11 | X-H torsion

> <Gold.Protein.ActiveResidues>
 VAL166  LYS551  ARG553  GLY616  TRP617  ASP618  TYR619  PRO620  LYS621  CYS622 
 ASP623  PHE694  ASN695  SER759  ASP760  ASP761  ALA762  ILE779  LEU786  VAL792 
 PHE793  MET794  SER795  GLU796  ALA797  LYS798  CYS799  TRP800  GLU811  SER814 

> <Gold.Protein.RotatedAtoms>
  150.9361  133.6710  159.2800 H   0  0  0  0  0  0  0  0  0  0  0  0  # atno 6907 bound_to 6896
  151.4115  135.0984  159.9596 H   0  0  0  0  0  0  0  0  0  0  0  0  # atno 6908 bound_to 6896
  152.5048  133.8833  159.7412 H   0  0  0  0  0  0  0  0  0  0  0  0  # atno 6909 bound_to 6896
  146.0062  139.4492  142.9984 H   0  0  0  0  0  0  0  0  0  0  0  0  # atno 7974 bound_to 7965
  156.1891  140.1700  156.8127 H   0  0  0  0  0  0  0  0  0  0  0  0  # atno 8008 bound_to 7997
  154.5450  140.0729  156.8605 H   0  0  0  0  0  0  0  0  0  0  0  0  # atno 8009 bound_to 7997
  155.3140  140.3369  155.4245 H   0  0  0  0  0  0  0  0  0  0  0  0  # atno 8010 bound_to 7997
  139.7635  144.6946  151.0258 H   0  0  0  0  0  0  0  0  0  0  0  0  # atno 10167 bound_to 10162
  156.8454  130.9700  151.3097 H   0  0  0  0  0  0  0  0  0  0  0  0  # atno 10718 bound_to 10713
  154.6748  135.2945  154.9693 H   0  0  0  0  0  0  0  0  0  0  0  0  # atno 10763 bound_to 10752
  154.0707  135.6618  153.4828 H   0  0  0  0  0  0  0  0  0  0  0  0  # atno 10764 bound_to 10752
  153.0509  135.5174  154.7762 H   0  0  0  0  0  0  0  0  0  0  0  0  # atno 10765 bound_to 10752
  140.1087  134.4984  155.8697 H   0  0  0  0  0  0  0  0  0  0  0  0  # atno 11005 bound_to 11000
  145.7412  141.0007  143.1300 LP  0  0  0  0  0  0  0  0  0  0  0  0  # atno 17320 bound_to 7965
  144.6936  139.9102  143.7463 LP  0  0  0  0  0  0  0  0  0  0  0  0  # atno 17321 bound_to 7965
  140.7809  143.4669  151.0199 LP  0  0  0  0  0  0  0  0  0  0  0  0  # atno 17342 bound_to 10162
  139.8355  143.7634  152.3180 LP  0  0  0  0  0  0  0  0  0  0  0  0  # atno 17343 bound_to 10162
  157.6333  130.8746  149.9313 LP  0  0  0  0  0  0  0  0  0  0  0  0  # atno 17370 bound_to 10713
  156.0857  130.3668  150.0491 LP  0  0  0  0  0  0  0  0  0  0  0  0  # atno 17371 bound_to 10713
  141.2125  133.6720  156.6662 LP  0  0  0  0  0  0  0  0  0  0  0  0  # atno 17394 bound_to 11000
  140.3121  134.8078  157.4184 LP  0  0  0  0  0  0  0  0  0  0  0  0  # atno 17395 bound_to 11000

$$$$
