AV-unprocessed.smi:625|AV-procd|sdf|3101|dock8
  -GOLD-   22720 0 23D 1   1.00000     0.00000
 Structure written by MMmdl.
 49 51  0  0  0  0  0  0  0  0  1 V2000
  145.8965  137.7403  152.4363 C   0  0  0  0  0  0  0  0  0  0  0  0
  147.0808  137.3186  153.1695 N   0  0  0  0  0  0  0  0  0  0  0  0
  147.4839  137.8509  154.3350 C   0  0  0  0  0  0  0  0  0  0  0  0
  146.8591  138.7622  154.8806 O   0  0  0  0  0  0  0  0  0  0  0  0
  148.7059  137.2461  154.8705 C   0  0  0  0  0  0  0  0  0  0  0  0
  148.8759  135.8111  155.0429 C   0  0  0  0  0  0  0  0  0  0  0  0
  150.0095  135.3144  155.5764 C   0  0  0  0  0  0  0  0  0  0  0  0
  151.1094  136.1848  156.0018 C   0  0  0  0  0  0  0  0  0  0  0  0
  152.1335  135.7376  156.5180 O   0  0  0  0  0  0  0  0  0  0  0  0
  150.9193  137.5234  155.7981 N   0  0  0  0  0  0  0  0  0  0  0  0
  151.9370  138.5080  156.2094 C   0  0  0  0  0  0  0  0  0  0  0  0
  151.3932  139.9308  156.4282 C   0  0  0  0  0  0  0  0  0  0  0  0
  151.1564  140.6402  155.4513 O   0  0  0  0  0  0  0  0  0  0  0  0
  151.1820  140.3349  157.6922 N   0  0  0  0  0  0  0  0  0  0  0  0
  150.5878  141.5998  158.1103 C   0  0  2  0  0  0  0  0  0  0  0  0
  149.3420  141.8989  157.2595 C   0  0  0  0  0  0  0  0  0  0  0  0
  151.6609  142.7083  157.9965 C   0  0  2  0  0  0  0  0  0  0  0  0
  152.7234  142.7034  159.1210 C   0  0  0  0  0  0  0  0  0  0  0  0
  152.7548  144.1750  159.5728 C   0  0  2  0  0  0  0  0  0  0  0  0
  151.4852  144.4755  160.3905 C   0  0  0  0  0  0  0  0  0  0  0  0
  150.3874  144.5030  159.3113 C   0  0  0  0  0  0  0  0  0  0  0  0
  151.1663  144.1757  158.0202 C   0  0  1  0  0  0  0  0  0  0  0  0
  152.4747  144.9196  158.2720 C   0  0  0  0  0  0  0  0  0  0  0  0
  149.7296  138.0375  155.2453 C   0  0  0  0  0  0  0  0  0  0  0  0
  145.7873  137.1427  151.5316 H   0  0  0  0  0  0  0  0  0  0  0  0
  145.9729  138.7889  152.1457 H   0  0  0  0  0  0  0  0  0  0  0  0
  144.9980  137.6105  153.0411 H   0  0  0  0  0  0  0  0  0  0  0  0
  147.6312  136.5737  152.7676 H   0  0  0  0  0  0  0  0  0  0  0  0
  148.1047  135.1143  154.7492 H   0  0  0  0  0  0  0  0  0  0  0  0
  150.1125  134.2457  155.6945 H   0  0  0  0  0  0  0  0  0  0  0  0
  152.4498  138.1897  157.1185 H   0  0  0  0  0  0  0  0  0  0  0  0
  152.7195  138.5586  155.4509 H   0  0  0  0  0  0  0  0  0  0  0  0
  151.4124  139.6859  158.4306 H   0  0  0  0  0  0  0  0  0  0  0  0
  150.2853  141.4996  159.1530 H   0  0  0  0  0  0  0  0  0  0  0  0
  148.8540  142.8183  157.5828 H   0  0  0  0  0  0  0  0  0  0  0  0
  148.6063  141.0981  157.3402 H   0  0  0  0  0  0  0  0  0  0  0  0
  149.5986  142.0099  156.2053 H   0  0  0  0  0  0  0  0  0  0  0  0
  152.1828  142.5602  157.0488 H   0  0  0  0  0  0  0  0  0  0  0  0
  152.4714  142.0359  159.9463 H   0  0  0  0  0  0  0  0  0  0  0  0
  153.6924  142.3900  158.7299 H   0  0  0  0  0  0  0  0  0  0  0  0
  153.6781  144.4576  160.0792 H   0  0  0  0  0  0  0  0  0  0  0  0
  151.2976  143.7224  161.1566 H   0  0  0  0  0  0  0  0  0  0  0  0
  151.5605  145.4446  160.8851 H   0  0  0  0  0  0  0  0  0  0  0  0
  149.5727  143.8104  159.5173 H   0  0  0  0  0  0  0  0  0  0  0  0
  149.9508  145.5005  159.2465 H   0  0  0  0  0  0  0  0  0  0  0  0
  150.6474  144.4769  157.1097 H   0  0  0  0  0  0  0  0  0  0  0  0
  152.3440  145.9946  158.4082 H   0  0  0  0  0  0  0  0  0  0  0  0
  153.2303  144.7468  157.5032 H   0  0  0  0  0  0  0  0  0  0  0  0
  149.7064  139.1163  155.1723 H   0  0  0  0  0  0  0  0  0  0  0  0
  1  2  1  0  0  0  0
  1 25  1  0  0  0  0
  1 26  1  0  0  0  0
  1 27  1  0  0  0  0
  2  3  1  0  0  0  0
  2 28  1  0  0  0  0
  3  4  2  0  0  0  0
  3  5  1  0  0  0  0
  5 24  2  0  0  0  0
  5  6  1  0  0  0  0
  6  7  2  0  0  0  0
  6 29  1  0  0  0  0
  7  8  1  0  0  0  0
  7 30  1  0  0  0  0
  8  9  2  0  0  0  0
  8 10  1  0  0  0  0
 10 11  1  0  0  0  0
 10 24  1  0  0  0  0
 11 12  1  0  0  0  0
 11 31  1  0  0  0  0
 11 32  1  0  0  0  0
 12 13  2  0  0  0  0
 12 14  1  0  0  0  0
 14 15  1  0  0  0  0
 14 33  1  0  0  0  0
 15 16  1  0  0  0  0
 15 17  1  0  0  0  0
 15 34  1  0  0  0  0
 16 35  1  0  0  0  0
 16 36  1  0  0  0  0
 16 37  1  0  0  0  0
 17 22  1  0  0  0  0
 17 18  1  0  0  0  0
 17 38  1  0  0  0  0
 18 19  1  0  0  0  0
 18 39  1  0  0  0  0
 18 40  1  0  0  0  0
 19 23  1  0  0  0  0
 19 20  1  0  0  0  0
 19 41  1  0  0  0  0
 20 21  1  0  0  0  0
 20 42  1  0  0  0  0
 20 43  1  0  0  0  0
 21 22  1  0  0  0  0
 21 44  1  0  0  0  0
 21 45  1  0  0  0  0
 22 23  1  0  0  0  0
 22 46  1  0  0  0  0
 23 47  1  0  0  0  0
 23 48  1  0  0  0  0
 24 49  1  0  0  0  0
M  END
> <s_m_source_file>
AV-unprocessed.smi

> <i_m_source_file_index>
625

> <i_lp_mmshare_version>
43012

> <i_f3d_flags>
0

> <s_epik_input>
W0NIM11bTkhdQyg9TyljMVtjSF1bY0hdYyg9TyluKFtjSF0xKVtDSDJdQyg9TylbTkhdW0NASF0oW0NIM10pW0NASF0oW0NIMl1bQ0BIXTIzKVtDQEhdKFtDSDJdMylbQ0gyXVtDSDJdMg==

> <s_epik_cmdline>
J2VwaWtfcHl0aG9uJywgJy1waCcsICc3LjAnLCAnLXRuJywgJzgnLCAnLW1hJywgJzIwMCcsICctbWV0YWxfYmluZGluZycsICctaW1hZScsICc8aW5maWxlLm1hZT4nLCAnLW9tYWUnLCAnPG91dGZpbGUubWFlPic=

> <r_lp_tautomer_probability>
1

> <r_epik_Ionization_Penalty>
3.7129e-07

> <r_epik_Ionization_Penalty_Charging>
5.04114e-08

> <r_epik_Ionization_Penalty_Neutral>
3.20879e-07

> <r_epik_State_Penalty>
-0

> <r_epik_Charging_Adjusted_Penalty>
5.04114e-08

> <i_epik_Tot_Q>
0

> <i_epik_Tot_abs_Q>
0

> <r_epik_Metal_State_Penalty>
-0

> <b_epik_Metal_Only>
0

> <s_lp_Force_Field>
OPLS_2005

> <r_lp_Energy>
63.5822

> <b_lp_Chiralities_Consistent>
1

> <s_lp_Variant>
AV-unprocessed.smi:625-1

> <Gold.Version>
5.8.1

> <Gold.Id.Protein>
6NUR|6NUR_protein|mol2

> <Gold.PLP.Fitness>
44.4549

> <Gold.PLP.PLP>
-39.9507

> <Gold.PLP.part.hbond>
-3.0000

> <Gold.PLP.part.metal>
0.0000

> <Gold.PLP.part.buried>
-4.9312

> <Gold.PLP.part.nonpolar>
-33.0165

> <Gold.PLP.part.repulsive>
0.1906

> <Gold.PLP.ligand.clash>
0.0000

> <Gold.PLP.ligand.torsion>
1.9583

> <Gold.PLP.Chemscore.Hbond>
2.7760

> <Gold.PLP.Chemscore.CHOScore>
0.0000

> <Gold.PLP.Chemscore.Metal>
0.0000

> <Gold.Chemscore.Hbonds>
donor molecule, donor type, donor heavy atom, donor atom, acceptor molecule, acceptor atom, score
      L1  H     2    28       P1  7948  0.90
      P1  H  7989  7998       L1    13  0.85
      P1  H 10752 10763       L1     9  1.00

> <Gold.PLP.Chemscore.Internal.Correction>
0.0928

> <Gold.Rescore>
     Score         DG    S(hbond)    S(metal)    S(lipo)     H(rot)  DE(clash)    DE(int)     intcor
     20.18     -24.56       2.80        0.00     119.65       1.67       0.06       4.32       ----

> <Gold.Chemscore.Fitness>
20.1796

> <Gold.Chemscore.DG>
-24.5637

> <Gold.Chemscore.ZeroCoef>
-5.4800

> <Gold.Chemscore.Hbond>
2.8031

> <Gold.Chemscore.Metal>
0.0000

> <Gold.Chemscore.Lipo>
119.6483

> <Gold.Chemscore.Internal_Hbond>
0.0000

> <Gold.Chemscore.DEClash>
0.0607

> <Gold.Chemscore.DEInternal>
4.3234

> <Gold.Chemscore.Rot>
1.6709

> <Gold.Chemscore.Internal.Correction>
   9.000000E+99

> <Gold.Chemscore.Hbonds>
donor molecule, donor type, donor heavy atom, donor atom, acceptor molecule, acceptor atom, score
      L1  H     2    28       P1  7948  0.88
      P1  H  7989  7998       L1    13  0.79
      P1  H 10752 10763       L1     9  0.82

> <Gold.Chemscore.Hbond.Weighted>
-9.3622

> <Gold.Chemscore.Metal.Weighted>
-0.0000

> <Gold.Chemscore.Lipo.Weighted>
-13.9988

> <Gold.Chemscore.Internal_Hbond.Weighted>
0.0000

> <Gold.Chemscore.DEClash.Weighted>
0.0607

> <Gold.Chemscore.DEInternal.Weighted>
4.3234

> <Gold.Chemscore.Rot.Weighted>
4.2774

> <Gold.Chemscore.Internal.Correction.Weighted>
   9.000000E+99

> <Gold.Protein.RotatedTorsions>
[ 6907 6896 6895 6894 ] final -142.37 input  -60.11 | X-H torsion
[ 7974 7965 7964 7962 ] final  -39.44 input  175.53 | X-H torsion
[ 8008 7997 7996 7995 ] final  154.32 input   59.86 | X-H torsion
[ 10167 10162 10161 10158 ] final   30.39 input  -65.29 | X-H torsion
[ 10718 10713 10712 10709 ] final   26.76 input   66.30 | X-H torsion
[ 10763 10752 10751 10750 ] final  111.01 input  -60.55 | X-H torsion
[ 11005 11000 10999 10996 ] final   39.74 input  -57.11 | X-H torsion

> <Gold.Protein.ActiveResidues>
 VAL166  LYS551  ARG553  GLY616  TRP617  ASP618  TYR619  PRO620  LYS621  CYS622 
 ASP623  PHE694  ASN695  SER759  ASP760  ASP761  ALA762  ILE779  LEU786  VAL792 
 PHE793  MET794  SER795  GLU796  ALA797  LYS798  CYS799  TRP800  GLU811  SER814 

> <Gold.Protein.RotatedAtoms>
  151.0862  133.5351  159.2617 H   0  0  0  0  0  0  0  0  0  0  0  0  # atno 6907 bound_to 6896
  151.2236  135.0527  159.8969 H   0  0  0  0  0  0  0  0  0  0  0  0  # atno 6908 bound_to 6896
  152.5429  134.0661  159.8227 H   0  0  0  0  0  0  0  0  0  0  0  0  # atno 6909 bound_to 6896
  146.0396  140.6626  142.9093 H   0  0  0  0  0  0  0  0  0  0  0  0  # atno 7974 bound_to 7965
  156.2537  140.1969  156.6628 H   0  0  0  0  0  0  0  0  0  0  0  0  # atno 8008 bound_to 7997
  154.6451  140.0579  156.9916 H   0  0  0  0  0  0  0  0  0  0  0  0  # atno 8009 bound_to 7997
  155.1503  140.3250  155.4435 H   0  0  0  0  0  0  0  0  0  0  0  0  # atno 8010 bound_to 7997
  140.4682  144.0804  150.6230 H   0  0  0  0  0  0  0  0  0  0  0  0  # atno 10167 bound_to 10162
  157.2112  130.6935  149.6229 H   0  0  0  0  0  0  0  0  0  0  0  0  # atno 10718 bound_to 10713
  153.4571  135.3730  155.2317 H   0  0  0  0  0  0  0  0  0  0  0  0  # atno 10763 bound_to 10752
  154.8757  135.3899  154.3969 H   0  0  0  0  0  0  0  0  0  0  0  0  # atno 10764 bound_to 10752
  153.4537  135.7086  153.6157 H   0  0  0  0  0  0  0  0  0  0  0  0  # atno 10765 bound_to 10752
  140.1998  134.3884  155.8102 H   0  0  0  0  0  0  0  0  0  0  0  0  # atno 11005 bound_to 11000
  144.7068  140.3883  143.7112 LP  0  0  0  0  0  0  0  0  0  0  0  0  # atno 17320 bound_to 7965
  145.6907  139.1638  143.2648 LP  0  0  0  0  0  0  0  0  0  0  0  0  # atno 17321 bound_to 7965
  140.4010  143.2704  151.9947 LP  0  0  0  0  0  0  0  0  0  0  0  0  # atno 17342 bound_to 10162
  139.4815  144.5997  151.7627 LP  0  0  0  0  0  0  0  0  0  0  0  0  # atno 17343 bound_to 10162
  155.9690  130.4550  150.5873 LP  0  0  0  0  0  0  0  0  0  0  0  0  # atno 17370 bound_to 10713
  157.3671  131.0759  151.1589 LP  0  0  0  0  0  0  0  0  0  0  0  0  # atno 17371 bound_to 10713
  141.2227  133.7088  156.8238 LP  0  0  0  0  0  0  0  0  0  0  0  0  # atno 17394 bound_to 11000
  140.2067  134.8858  157.3229 LP  0  0  0  0  0  0  0  0  0  0  0  0  # atno 17395 bound_to 11000

$$$$
