AV-unprocessed.smi:3127|AV-procd|sdf|11915|dock1
  -GOLD-   2272017293D 1   1.00000     0.00000
 Structure written by MMmdl.
 34 35  0  0  0  0  0  0  0  0  2 V2000
  152.1672  144.5499  157.6921 C   0  0  0  0  0  0  0  0  0  0  0  0
  151.5968  143.4193  158.5709 C   0  0  0  0  0  0  0  0  0  0  0  0
  152.5090  143.1934  159.7927 C   0  0  0  0  0  0  0  0  0  0  0  0
  150.2128  143.8684  159.0871 C   0  0  0  0  0  0  0  0  0  0  0  0
  151.4912  142.1411  157.7626 C   0  0  0  0  0  0  0  0  0  0  0  0
  152.1216  140.9385  157.9878 C   0  0  0  0  0  0  0  0  0  0  0  0
  151.6963  139.7353  156.8022 S   0  0  0  0  0  0  0  0  0  0  0  0
  150.6718  140.9224  156.0095 C   0  0  0  0  0  0  0  0  0  0  0  0
  149.8485  140.6101  154.8014 C   0  0  1  0  0  0  0  0  0  0  0  0
  149.9134  139.1200  154.4163 C   0  0  0  0  0  0  0  0  0  0  0  0
  149.0139  138.8538  153.2769 N   0  3  0  0  0  0  0  0  0  0  0  0
  147.6357  139.3025  153.5596 C   0  0  0  0  0  0  0  0  0  0  0  0
  147.6355  140.7832  153.9794 C   0  0  0  0  0  0  0  0  0  0  0  0
  148.4994  140.9667  155.0961 O   0  0  0  0  0  0  0  0  0  0  0  0
  150.6612  142.1030  156.6342 N   0  0  0  0  0  0  0  0  0  0  0  0
  152.2351  145.4873  158.2452 H   0  0  0  0  0  0  0  0  0  0  0  0
  151.5380  144.7277  156.8190 H   0  0  0  0  0  0  0  0  0  0  0  0
  153.1694  144.3138  157.3325 H   0  0  0  0  0  0  0  0  0  0  0  0
  153.5212  142.9174  159.4943 H   0  0  0  0  0  0  0  0  0  0  0  0
  152.1260  142.3959  160.4306 H   0  0  0  0  0  0  0  0  0  0  0  0
  152.5865  144.0939  160.4031 H   0  0  0  0  0  0  0  0  0  0  0  0
  150.2860  144.7866  159.6712 H   0  0  0  0  0  0  0  0  0  0  0  0
  149.7609  143.1121  159.7304 H   0  0  0  0  0  0  0  0  0  0  0  0
  149.5213  144.0630  158.2660 H   0  0  0  0  0  0  0  0  0  0  0  0
  152.8089  140.6811  158.7802 H   0  0  0  0  0  0  0  0  0  0  0  0
  150.2112  141.2269  153.9770 H   0  0  0  0  0  0  0  0  0  0  0  0
  150.9310  138.8340  154.1482 H   0  0  0  0  0  0  0  0  0  0  0  0
  149.6139  138.4948  155.2590 H   0  0  0  0  0  0  0  0  0  0  0  0
  149.3580  139.3534  152.4692 H   0  0  0  0  0  0  0  0  0  0  0  0
  147.0179  139.1537  152.6738 H   0  0  0  0  0  0  0  0  0  0  0  0
  147.2136  138.6862  154.3544 H   0  0  0  0  0  0  0  0  0  0  0  0
  147.9513  141.4226  153.1535 H   0  0  0  0  0  0  0  0  0  0  0  0
  146.6286  141.0958  154.2568 H   0  0  0  0  0  0  0  0  0  0  0  0
  149.0103  137.8639  153.0754 H   0  0  0  0  0  0  0  0  0  0  0  0
  1  2  1  0  0  0  0
  1 16  1  0  0  0  0
  1 17  1  0  0  0  0
  1 18  1  0  0  0  0
  2  3  1  0  0  0  0
  2  4  1  0  0  0  0
  2  5  1  0  0  0  0
  3 19  1  0  0  0  0
  3 20  1  0  0  0  0
  3 21  1  0  0  0  0
  4 22  1  0  0  0  0
  4 23  1  0  0  0  0
  4 24  1  0  0  0  0
  5 15  1  0  0  0  0
  5  6  2  0  0  0  0
  6  7  1  0  0  0  0
  6 25  1  0  0  0  0
  7  8  1  0  0  0  0
  8  9  1  0  0  0  0
  8 15  2  0  0  0  0
  9 14  1  0  0  0  0
  9 10  1  0  0  0  0
  9 26  1  0  0  0  0
 10 11  1  0  0  0  0
 10 27  1  0  0  0  0
 10 28  1  0  0  0  0
 11 12  1  0  0  0  0
 11 29  1  0  0  0  0
 11 34  1  0  0  0  0
 12 13  1  0  0  0  0
 12 30  1  0  0  0  0
 12 31  1  0  0  0  0
 13 14  1  0  0  0  0
 13 32  1  0  0  0  0
 13 33  1  0  0  0  0
M  CHG  1  11   1
M  END
> <s_m_source_file>
AV-unprocessed.smi

> <i_m_source_file_index>
3127

> <i_lp_mmshare_version>
43012

> <i_f3d_flags>
0

> <s_epik_input>
W0NIM11DKFtDSDNdKShbQ0gzXSljMVtjSF1zYyhuMSlbQ0BASF0yW0NIMl1bTkhdW0NIMl1bQ0gyXU8y

> <s_epik_cmdline>
J2VwaWtfcHl0aG9uJywgJy1waCcsICc3LjAnLCAnLXRuJywgJzgnLCAnLW1hJywgJzIwMCcsICctbWV0YWxfYmluZGluZycsICctaW1hZScsICc8aW5maWxlLm1hZT4nLCAnLW9tYWUnLCAnPG91dGZpbGUubWFlPic=

> <r_epik_Ionization_Penalty>
0.125708

> <r_epik_Ionization_Penalty_Charging>
0.125708

> <r_epik_Ionization_Penalty_Neutral>
5.37588e-07

> <r_epik_State_Penalty>
0.0155352

> <r_epik_Charging_Adjusted_Penalty>
0.141243

> <i_epik_Tot_Q>
1

> <i_epik_Tot_abs_Q>
1

> <r_epik_Metal_State_Penalty>
0.0155796

> <b_epik_Metal_Only>
0

> <s_lp_Force_Field>
OPLS_2005

> <r_lp_Energy>
5.69117

> <b_lp_Chiralities_Consistent>
1

> <s_lp_Variant>
AV-unprocessed.smi:3127-2

> <Gold.Version>
5.8.1

> <Gold.Id.Protein>
6NUR|6NUR_protein|mol2

> <Gold.PLP.Fitness>
41.4698

> <Gold.PLP.PLP>
-32.6902

> <Gold.PLP.part.hbond>
-1.9722

> <Gold.PLP.part.metal>
0.0000

> <Gold.PLP.part.buried>
-3.9849

> <Gold.PLP.part.nonpolar>
-27.4312

> <Gold.PLP.part.repulsive>
0.2956

> <Gold.PLP.ligand.clash>
0.0000

> <Gold.PLP.ligand.torsion>
0.1034

> <Gold.PLP.Chemscore.Hbond>
2.9913

> <Gold.PLP.Chemscore.CHOScore>
0.0000

> <Gold.PLP.Chemscore.Metal>
0.0000

> <Gold.Chemscore.Hbonds>
donor molecule, donor type, donor heavy atom, donor atom, acceptor molecule, acceptor atom, score
      L1  H    11    29       P1  7957  0.91
      L1  H    11    34       P1  7948  2.00

> <Gold.PLP.Chemscore.Internal.Correction>
0.0126

> <Gold.Rescore>
     Score         DG    S(hbond)    S(metal)    S(lipo)     H(rot)  DE(clash)    DE(int)     intcor
     20.33     -20.55       1.88        0.00     100.01       1.14       0.15       0.08       ----

> <Gold.Chemscore.Fitness>
20.3288

> <Gold.Chemscore.DG>
-20.5543

> <Gold.Chemscore.ZeroCoef>
-5.4800

> <Gold.Chemscore.Hbond>
1.8830

> <Gold.Chemscore.Metal>
0.0000

> <Gold.Chemscore.Lipo>
100.0146

> <Gold.Chemscore.Internal_Hbond>
0.0000

> <Gold.Chemscore.DEClash>
0.1483

> <Gold.Chemscore.DEInternal>
0.0773

> <Gold.Chemscore.Rot>
1.1393

> <Gold.Chemscore.Internal.Correction>
   9.000000E+99

> <Gold.Chemscore.Hbonds>
donor molecule, donor type, donor heavy atom, donor atom, acceptor molecule, acceptor atom, score
      L1  H    11    29       P1  7957  0.87
      L1  H    11    34       P1  7948  0.93

> <Gold.Chemscore.Hbond.Weighted>
-6.2893

> <Gold.Chemscore.Metal.Weighted>
-0.0000

> <Gold.Chemscore.Lipo.Weighted>
-11.7017

> <Gold.Chemscore.Internal_Hbond.Weighted>
0.0000

> <Gold.Chemscore.DEClash.Weighted>
0.1483

> <Gold.Chemscore.DEInternal.Weighted>
0.0773

> <Gold.Chemscore.Rot.Weighted>
2.9167

> <Gold.Chemscore.Internal.Correction.Weighted>
   9.000000E+99

> <Gold.Protein.RotatedTorsions>
[ 6907 6896 6895 6894 ] final  103.22 input  -60.11 | X-H torsion
[ 7974 7965 7964 7962 ] final  -78.40 input  175.53 | X-H torsion
[ 8008 7997 7996 7995 ] final  -48.36 input   59.86 | X-H torsion
[ 10167 10162 10161 10158 ] final   94.71 input  -65.29 | X-H torsion
[ 10718 10713 10712 10709 ] final -125.54 input   66.30 | X-H torsion
[ 10763 10752 10751 10750 ] final  -86.85 input  -60.55 | X-H torsion
[ 11005 11000 10999 10996 ] final -135.50 input  -57.11 | X-H torsion

> <Gold.Protein.ActiveResidues>
 VAL166  LYS551  ARG553  GLY616  TRP617  ASP618  TYR619  PRO620  LYS621  CYS622 
 ASP623  PHE694  ASN695  SER759  ASP760  ASP761  ALA762  ILE779  LEU786  VAL792 
 PHE793  MET794  SER795  GLU796  ALA797  LYS798  CYS799  TRP800  GLU811  SER814 

> <Gold.Protein.RotatedAtoms>
  152.5301  133.9858  159.7827 H   0  0  0  0  0  0  0  0  0  0  0  0  # atno 6907 bound_to 6896
  151.0103  133.5964  159.2690 H   0  0  0  0  0  0  0  0  0  0  0  0  # atno 6908 bound_to 6896
  151.3040  135.0783  159.9302 H   0  0  0  0  0  0  0  0  0  0  0  0  # atno 6909 bound_to 6896
  145.5870  140.9437  143.1313 H   0  0  0  0  0  0  0  0  0  0  0  0  # atno 7974 bound_to 7965
  154.4028  140.1323  156.4326 H   0  0  0  0  0  0  0  0  0  0  0  0  # atno 8008 bound_to 7997
  155.7536  140.3487  155.5143 H   0  0  0  0  0  0  0  0  0  0  0  0  # atno 8009 bound_to 7997
  155.8926  140.1005  157.1398 H   0  0  0  0  0  0  0  0  0  0  0  0  # atno 8010 bound_to 7997
  139.8058  144.6795  150.9705 H   0  0  0  0  0  0  0  0  0  0  0  0  # atno 10167 bound_to 10162
  156.1684  130.6651  151.0147 H   0  0  0  0  0  0  0  0  0  0  0  0  # atno 10718 bound_to 10713
  154.6270  135.5434  153.7638 H   0  0  0  0  0  0  0  0  0  0  0  0  # atno 10763 bound_to 10752
  153.0266  135.6426  154.1356 H   0  0  0  0  0  0  0  0  0  0  0  0  # atno 10764 bound_to 10752
  154.1288  135.2915  155.3170 H   0  0  0  0  0  0  0  0  0  0  0  0  # atno 10765 bound_to 10752
  140.8892  134.1833  157.4539 H   0  0  0  0  0  0  0  0  0  0  0  0  # atno 11005 bound_to 11000
  144.7368  139.7562  143.7326 LP  0  0  0  0  0  0  0  0  0  0  0  0  # atno 17320 bound_to 7965
  146.1675  139.4812  142.9949 LP  0  0  0  0  0  0  0  0  0  0  0  0  # atno 17321 bound_to 7965
  140.7819  143.4235  151.0804 LP  0  0  0  0  0  0  0  0  0  0  0  0  # atno 17342 bound_to 10162
  139.7905  143.8226  152.3151 LP  0  0  0  0  0  0  0  0  0  0  0  0  # atno 17343 bound_to 10162
  157.6785  131.0844  150.7432 LP  0  0  0  0  0  0  0  0  0  0  0  0  # atno 17370 bound_to 10713
  156.7492  130.4763  149.5460 LP  0  0  0  0  0  0  0  0  0  0  0  0  # atno 17371 bound_to 10713
  139.8728  134.9851  156.5268 LP  0  0  0  0  0  0  0  0  0  0  0  0  # atno 17394 bound_to 11000
  140.8367  133.8237  155.9035 LP  0  0  0  0  0  0  0  0  0  0  0  0  # atno 17395 bound_to 11000

$$$$
