AV-unprocessed.smi:2302|AV-procd|sdf|9237|dock9
  -GOLD-   2272012453D 1   1.00000     0.00000
 Structure written by MMmdl.
 40 41  0  0  0  0  0  0  0  0  2 V2000
  152.7803  142.8771  162.2034 C   0  0  0  0  0  0  0  0  0  0  0  0
  152.2782  143.3271  160.8475 C   0  0  0  0  0  0  0  0  0  0  0  0
  151.9498  144.6757  160.6088 C   0  0  0  0  0  0  0  0  0  0  0  0
  151.4859  145.0285  159.3289 C   0  0  0  0  0  0  0  0  0  0  0  0
  151.3679  144.0247  158.3482 C   0  0  0  0  0  0  0  0  0  0  0  0
  151.7163  142.6938  158.6702 C   0  0  0  0  0  0  0  0  0  0  0  0
  151.5604  141.7569  157.6138 N   0  0  0  0  0  0  0  0  0  0  0  0
  152.1990  140.5862  157.4422 C   0  0  0  0  0  0  0  0  0  0  0  0
  153.0541  140.1217  158.1972 O   0  0  0  0  0  0  0  0  0  0  0  0
  151.7903  139.9654  156.3262 N   0  0  0  0  0  0  0  0  0  0  0  0
  152.2790  138.6691  155.8677 C   0  0  0  0  0  0  0  0  0  0  0  0
  151.1766  137.5951  155.8907 C   0  0  1  0  0  0  0  0  0  0  0  0
  150.4148  137.5300  154.5496 C   0  0  0  0  0  0  0  0  0  0  0  0
  149.4238  136.4271  154.5386 N   0  3  2  0  0  0  0  0  0  0  0  0
  148.1785  136.7351  155.2798 C   0  0  0  0  0  0  0  0  0  0  0  0
  150.0495  135.1423  154.9314 C   0  0  0  0  0  0  0  0  0  0  0  0
  150.8337  135.2806  156.2496 C   0  0  0  0  0  0  0  0  0  0  0  0
  151.7866  136.3300  156.1308 O   0  0  0  0  0  0  0  0  0  0  0  0
  152.1649  142.3643  159.9072 N   0  0  0  0  0  0  0  0  0  0  0  0
  153.1234  143.7253  162.7966 H   0  0  0  0  0  0  0  0  0  0  0  0
  153.6137  142.1822  162.0947 H   0  0  0  0  0  0  0  0  0  0  0  0
  151.9830  142.3751  162.7520 H   0  0  0  0  0  0  0  0  0  0  0  0
  152.0490  145.4215  161.3840 H   0  0  0  0  0  0  0  0  0  0  0  0
  151.2236  146.0514  159.1028 H   0  0  0  0  0  0  0  0  0  0  0  0
  151.0113  144.2788  157.3605 H   0  0  0  0  0  0  0  0  0  0  0  0
  150.8790  142.0051  156.9119 H   0  0  0  0  0  0  0  0  0  0  0  0
  151.0865  140.4146  155.7585 H   0  0  0  0  0  0  0  0  0  0  0  0
  152.6852  138.7729  154.8601 H   0  0  0  0  0  0  0  0  0  0  0  0
  153.1104  138.3680  156.5057 H   0  0  0  0  0  0  0  0  0  0  0  0
  150.4767  137.8190  156.6972 H   0  0  0  0  0  0  0  0  0  0  0  0
  149.9212  138.4791  154.3364 H   0  0  0  0  0  0  0  0  0  0  0  0
  151.1221  137.3597  153.7367 H   0  0  0  0  0  0  0  0  0  0  0  0
  148.3600  136.8660  156.3465 H   0  0  0  0  0  0  0  0  0  0  0  0
  147.4531  135.9306  155.1566 H   0  0  0  0  0  0  0  0  0  0  0  0
  147.7229  137.6495  154.8986 H   0  0  0  0  0  0  0  0  0  0  0  0
  149.2953  134.3582  155.0076 H   0  0  0  0  0  0  0  0  0  0  0  0
  150.7327  134.8388  154.1370 H   0  0  0  0  0  0  0  0  0  0  0  0
  150.1671  135.4697  157.0920 H   0  0  0  0  0  0  0  0  0  0  0  0
  151.3610  134.3519  156.4689 H   0  0  0  0  0  0  0  0  0  0  0  0
  149.1349  136.3179  153.5766 H   0  0  0  0  0  0  0  0  0  0  0  0
  1  2  1  0  0  0  0
  1 20  1  0  0  0  0
  1 21  1  0  0  0  0
  1 22  1  0  0  0  0
  2 19  1  0  0  0  0
  2  3  2  0  0  0  0
  3  4  1  0  0  0  0
  3 23  1  0  0  0  0
  4  5  2  0  0  0  0
  4 24  1  0  0  0  0
  5  6  1  0  0  0  0
  5 25  1  0  0  0  0
  6  7  1  0  0  0  0
  6 19  2  0  0  0  0
  7  8  1  0  0  0  0
  7 26  1  0  0  0  0
  8  9  2  0  0  0  0
  8 10  1  0  0  0  0
 10 11  1  0  0  0  0
 10 27  1  0  0  0  0
 11 12  1  0  0  0  0
 11 28  1  0  0  0  0
 11 29  1  0  0  0  0
 12 18  1  0  0  0  0
 12 13  1  0  0  0  0
 12 30  1  0  0  0  0
 13 14  1  0  0  0  0
 13 31  1  0  0  0  0
 13 32  1  0  0  0  0
 14 15  1  0  0  0  0
 14 16  1  0  0  0  0
 14 40  1  0  0  0  0
 15 33  1  0  0  0  0
 15 34  1  0  0  0  0
 15 35  1  0  0  0  0
 16 17  1  0  0  0  0
 16 36  1  0  0  0  0
 16 37  1  0  0  0  0
 17 18  1  0  0  0  0
 17 38  1  0  0  0  0
 17 39  1  0  0  0  0
M  CHG  1  14   1
M  END
> <s_m_source_file>
AV-unprocessed.smi

> <i_m_source_file_index>
2302

> <i_lp_mmshare_version>
43012

> <i_f3d_flags>
0

> <s_epik_input>
W0NIM11jMVtjSF1bY0hdW2NIXWMobjEpW05IXUMoPU8pW05IXVtDSDJdW0NAQEhdMltDSDJdTihbQ0gzXSlbQ0gyXVtDSDJdTzI=

> <s_epik_cmdline>
J2VwaWtfcHl0aG9uJywgJy1waCcsICc3LjAnLCAnLXRuJywgJzgnLCAnLW1hJywgJzIwMCcsICctbWV0YWxfYmluZGluZycsICctaW1hZScsICc8aW5maWxlLm1hZT4nLCAnLW9tYWUnLCAnPG91dGZpbGUubWFlPic=

> <r_epik_Ionization_Penalty>
0.204647

> <r_epik_Ionization_Penalty_Charging>
0.204578

> <r_epik_Ionization_Penalty_Neutral>
6.91954e-05

> <r_epik_State_Penalty>
0.194513

> <r_epik_Charging_Adjusted_Penalty>
0.399091

> <i_epik_Tot_Q>
1

> <i_epik_Tot_abs_Q>
1

> <r_epik_Metal_State_Penalty>
0.194515

> <b_epik_Metal_Only>
0

> <s_lp_Force_Field>
OPLS_2005

> <r_lp_Energy>
17.5871

> <b_lp_Chiralities_Consistent>
1

> <s_lp_Variant>
AV-unprocessed.smi:2302-2

> <Gold.Version>
5.8.1

> <Gold.Id.Protein>
6NUR|6NUR_protein|mol2

> <Gold.PLP.Fitness>
47.8615

> <Gold.PLP.PLP>
-36.9149

> <Gold.PLP.part.hbond>
-3.0000

> <Gold.PLP.part.metal>
0.0000

> <Gold.PLP.part.buried>
-5.0941

> <Gold.PLP.part.nonpolar>
-28.4921

> <Gold.PLP.part.repulsive>
0.2433

> <Gold.PLP.ligand.clash>
0.0000

> <Gold.PLP.ligand.torsion>
0.5281

> <Gold.PLP.Chemscore.Hbond>
4.0000

> <Gold.PLP.Chemscore.CHOScore>
0.0000

> <Gold.PLP.Chemscore.Metal>
0.0000

> <Gold.Chemscore.Hbonds>
donor molecule, donor type, donor heavy atom, donor atom, acceptor molecule, acceptor atom, score
      L1  H    14    40       P1  7948  2.00
      P1  H  7997  8008       L1     9  1.00
      P1  H 10752 10763       L1    18  1.00

> <Gold.PLP.Chemscore.Internal.Correction>
0.0029

> <Gold.Rescore>
     Score         DG    S(hbond)    S(metal)    S(lipo)     H(rot)  DE(clash)    DE(int)     intcor
     19.64     -21.50       2.63        0.00      89.83       1.27       0.21       1.65       ----

> <Gold.Chemscore.Fitness>
19.6375

> <Gold.Chemscore.DG>
-21.5024

> <Gold.Chemscore.ZeroCoef>
-5.4800

> <Gold.Chemscore.Hbond>
2.6264

> <Gold.Chemscore.Metal>
0.0000

> <Gold.Chemscore.Lipo>
89.8333

> <Gold.Chemscore.Internal_Hbond>
0.0000

> <Gold.Chemscore.DEClash>
0.2137

> <Gold.Chemscore.DEInternal>
1.6513

> <Gold.Chemscore.Rot>
1.2736

> <Gold.Chemscore.Internal.Correction>
   9.000000E+99

> <Gold.Chemscore.Hbonds>
donor molecule, donor type, donor heavy atom, donor atom, acceptor molecule, acceptor atom, score
      L1  H    14    40       P1  7948  0.96
      P1  H  7997  8008       L1     9  0.28
      P1  H 10752 10763       L1    18  0.30

> <Gold.Chemscore.Hbond.Weighted>
-8.7722

> <Gold.Chemscore.Metal.Weighted>
-0.0000

> <Gold.Chemscore.Lipo.Weighted>
-10.5105

> <Gold.Chemscore.Internal_Hbond.Weighted>
0.0000

> <Gold.Chemscore.DEClash.Weighted>
0.2137

> <Gold.Chemscore.DEInternal.Weighted>
1.6513

> <Gold.Chemscore.Rot.Weighted>
3.2603

> <Gold.Chemscore.Internal.Correction.Weighted>
   9.000000E+99

> <Gold.Protein.RotatedTorsions>
[ 6907 6896 6895 6894 ] final   69.59 input  -60.11 | X-H torsion
[ 7974 7965 7964 7962 ] final   66.13 input  175.53 | X-H torsion
[ 8008 7997 7996 7995 ] final  -86.02 input   59.86 | X-H torsion
[ 10167 10162 10161 10158 ] final  -90.93 input  -65.29 | X-H torsion
[ 10718 10713 10712 10709 ] final   12.83 input   66.30 | X-H torsion
[ 10763 10752 10751 10750 ] final   93.24 input  -60.55 | X-H torsion
[ 11005 11000 10999 10996 ] final  -87.46 input  -57.11 | X-H torsion

> <Gold.Protein.ActiveResidues>
 VAL166  LYS551  ARG553  GLY616  TRP617  ASP618  TYR619  PRO620  LYS621  CYS622 
 ASP623  PHE694  ASN695  SER759  ASP760  ASP761  ALA762  ILE779  LEU786  VAL792 
 PHE793  MET794  SER795  GLU796  ALA797  LYS798  CYS799  TRP800  GLU811  SER814 

> <Gold.Protein.RotatedAtoms>
  152.4696  134.4993  159.9719 H   0  0  0  0  0  0  0  0  0  0  0  0  # atno 6907 bound_to 6896
  151.5022  133.3496  159.2879 H   0  0  0  0  0  0  0  0  0  0  0  0  # atno 6908 bound_to 6896
  150.8698  134.8098  159.7208 H   0  0  0  0  0  0  0  0  0  0  0  0  # atno 6909 bound_to 6896
  145.8303  139.3135  143.0991 H   0  0  0  0  0  0  0  0  0  0  0  0  # atno 7974 bound_to 7965
  154.6472  140.0584  156.9913 H   0  0  0  0  0  0  0  0  0  0  0  0  # atno 8008 bound_to 7997
  155.1427  140.3267  155.4430 H   0  0  0  0  0  0  0  0  0  0  0  0  # atno 8009 bound_to 7997
  156.2559  140.1961  156.6542 H   0  0  0  0  0  0  0  0  0  0  0  0  # atno 8010 bound_to 7997
  140.3500  143.2896  151.9737 H   0  0  0  0  0  0  0  0  0  0  0  0  # atno 10167 bound_to 10162
  157.0158  130.6135  149.5714 H   0  0  0  0  0  0  0  0  0  0  0  0  # atno 10718 bound_to 10713
  153.2280  135.4332  155.0564 H   0  0  0  0  0  0  0  0  0  0  0  0  # atno 10763 bound_to 10752
  154.8283  135.3372  154.6828 H   0  0  0  0  0  0  0  0  0  0  0  0  # atno 10764 bound_to 10752
  153.7257  135.7014  153.5058 H   0  0  0  0  0  0  0  0  0  0  0  0  # atno 10765 bound_to 10752
  141.1616  133.7513  156.9310 H   0  0  0  0  0  0  0  0  0  0  0  0  # atno 11005 bound_to 11000
  145.9578  140.8859  143.0226 LP  0  0  0  0  0  0  0  0  0  0  0  0  # atno 17320 bound_to 7965
  144.6740  140.1770  143.7409 LP  0  0  0  0  0  0  0  0  0  0  0  0  # atno 17321 bound_to 7965
  139.4828  144.6084  151.7479 LP  0  0  0  0  0  0  0  0  0  0  0  0  # atno 17342 bound_to 10162
  140.5228  144.0853  150.6028 LP  0  0  0  0  0  0  0  0  0  0  0  0  # atno 17343 bound_to 10162
  156.0120  130.5212  150.8017 LP  0  0  0  0  0  0  0  0  0  0  0  0  # atno 17370 bound_to 10713
  157.5287  131.0935  150.9984 LP  0  0  0  0  0  0  0  0  0  0  0  0  # atno 17371 bound_to 10713
  140.1386  134.9308  157.2436 LP  0  0  0  0  0  0  0  0  0  0  0  0  # atno 17394 bound_to 11000
  140.2864  134.3290  155.7328 LP  0  0  0  0  0  0  0  0  0  0  0  0  # atno 17395 bound_to 11000

$$$$
