AV-unprocessed.smi:3179|AV-procd|sdf|12133|dock10
  -GOLD-   2272017573D 1   1.00000     0.00000
 Structure written by MMmdl.
 34 34  0  0  0  0  0  0  0  0  2 V2000
  146.1707  133.7277  150.8322 C   0  0  0  0  0  0  0  0  0  0  0  0
  146.0835  134.3708  152.2187 C   0  0  0  0  0  0  0  0  0  0  0  0
  146.1506  135.8355  152.1305 N   0  3  0  0  0  0  0  0  0  0  0  0
  145.1317  136.6844  152.3688 C   0  0  0  0  0  0  0  0  0  0  0  0
  145.3205  138.0134  152.2526 N   0  0  0  0  0  0  0  0  0  0  0  0
  146.5787  138.6701  151.8749 C   0  0  0  0  0  0  0  0  0  0  0  0
  147.1733  139.4469  153.0527 C   0  0  0  0  0  0  0  0  0  0  0  0
  143.9239  136.2042  152.7235 N   0  0  0  0  0  0  0  0  0  0  0  0
  142.7317  137.0126  153.0121 C   0  0  0  0  0  0  0  0  0  0  0  0
  141.9813  136.4784  154.2377 C   0  0  0  0  0  0  0  0  0  0  0  0
  140.5552  136.9154  154.2645 C   0  0  0  0  0  0  0  0  0  0  0  0
  139.6720  136.4919  155.1729 N   0  0  0  0  0  0  0  0  0  0  0  0
  138.4109  137.0683  155.0012 C   0  0  0  0  0  0  0  0  0  0  0  0
  138.3517  137.9530  153.9546 C   0  0  0  0  0  0  0  0  0  0  0  0
  139.8864  138.0953  153.1421 S   0  0  0  0  0  0  0  0  0  0  0  0
  146.1758  132.6402  150.9097 H   0  0  0  0  0  0  0  0  0  0  0  0
  147.0821  134.0275  150.3143 H   0  0  0  0  0  0  0  0  0  0  0  0
  145.3208  134.0125  150.2114 H   0  0  0  0  0  0  0  0  0  0  0  0
  145.1547  134.0826  152.7109 H   0  0  0  0  0  0  0  0  0  0  0  0
  146.9047  134.0174  152.8426 H   0  0  0  0  0  0  0  0  0  0  0  0
  144.5359  138.6222  152.4371 H   0  0  0  0  0  0  0  0  0  0  0  0
  147.2849  137.9125  151.5345 H   0  0  0  0  0  0  0  0  0  0  0  0
  146.3942  139.3419  151.0365 H   0  0  0  0  0  0  0  0  0  0  0  0
  148.1226  139.9048  152.7740 H   0  0  0  0  0  0  0  0  0  0  0  0
  147.3582  138.7916  153.9045 H   0  0  0  0  0  0  0  0  0  0  0  0
  146.5035  140.2431  153.3790 H   0  0  0  0  0  0  0  0  0  0  0  0
  143.8154  135.2030  152.7998 H   0  0  0  0  0  0  0  0  0  0  0  0
  143.0373  138.0459  153.1804 H   0  0  0  0  0  0  0  0  0  0  0  0
  142.0795  137.0049  152.1384 H   0  0  0  0  0  0  0  0  0  0  0  0
  142.0099  135.3882  154.2504 H   0  0  0  0  0  0  0  0  0  0  0  0
  142.4685  136.8149  155.1538 H   0  0  0  0  0  0  0  0  0  0  0  0
  137.6112  136.7932  155.6728 H   0  0  0  0  0  0  0  0  0  0  0  0
  137.5029  138.5284  153.6156 H   0  0  0  0  0  0  0  0  0  0  0  0
  147.0406  136.2271  151.8572 H   0  0  0  0  0  0  0  0  0  0  0  0
  1  2  1  0  0  0  0
  1 16  1  0  0  0  0
  1 17  1  0  0  0  0
  1 18  1  0  0  0  0
  2  3  1  0  0  0  0
  2 19  1  0  0  0  0
  2 20  1  0  0  0  0
  3  4  2  0  0  0  0
  3 34  1  0  0  0  0
  4  5  1  0  0  0  0
  4  8  1  0  0  0  0
  5  6  1  0  0  0  0
  5 21  1  0  0  0  0
  6  7  1  0  0  0  0
  6 22  1  0  0  0  0
  6 23  1  0  0  0  0
  7 24  1  0  0  0  0
  7 25  1  0  0  0  0
  7 26  1  0  0  0  0
  8  9  1  0  0  0  0
  8 27  1  0  0  0  0
  9 10  1  0  0  0  0
  9 28  1  0  0  0  0
  9 29  1  0  0  0  0
 10 11  1  0  0  0  0
 10 30  1  0  0  0  0
 10 31  1  0  0  0  0
 11 15  1  0  0  0  0
 11 12  2  0  0  0  0
 12 13  1  0  0  0  0
 13 14  2  0  0  0  0
 13 32  1  0  0  0  0
 14 15  1  0  0  0  0
 14 33  1  0  0  0  0
M  CHG  1   3   1
M  END
> <s_m_source_file>
AV-unprocessed.smi

> <i_m_source_file_index>
3179

> <i_lp_mmshare_version>
43012

> <i_f3d_flags>
0

> <s_epik_input>
W0NIM11bQ0gyXS9OPUMoXFtOSF1bQ0gyXVtDSDNdKVtOSF1bQ0gyXVtDSDJdYzFuW2NIXVtjSF1zMQ==

> <s_epik_cmdline>
J2VwaWtfcHl0aG9uJywgJy1waCcsICc3LjAnLCAnLXRuJywgJzgnLCAnLW1hJywgJzIwMCcsICctbWV0YWxfYmluZGluZycsICctaW1hZScsICc8aW5maWxlLm1hZT4nLCAnLW9tYWUnLCAnPG91dGZpbGUubWFlPic=

> <r_lp_tautomer_probability>
1

> <r_epik_Ionization_Penalty>
3.28801e-05

> <r_epik_Ionization_Penalty_Charging>
8.99277e-08

> <r_epik_Ionization_Penalty_Neutral>
3.27902e-05

> <r_epik_State_Penalty>
-0

> <r_epik_Charging_Adjusted_Penalty>
8.99277e-08

> <i_epik_Tot_Q>
1

> <i_epik_Tot_abs_Q>
1

> <r_epik_Metal_State_Penalty>
-0

> <b_epik_Metal_Only>
0

> <s_epik_Chemistry_Notes>
This compound has an imine and may undergo hydrolysis.

> <s_lp_Force_Field>
OPLS_2005

> <r_lp_Energy>
0.365327

> <b_lp_Chiralities_Consistent>
1

> <s_lp_Variant>
AV-unprocessed.smi:3179-2

> <Gold.Version>
5.8.1

> <Gold.Id.Protein>
6NUR|6NUR_protein|mol2

> <Gold.PLP.Fitness>
45.9417

> <Gold.PLP.PLP>
-31.6490

> <Gold.PLP.part.hbond>
-4.0000

> <Gold.PLP.part.metal>
0.0000

> <Gold.PLP.part.buried>
-5.1232

> <Gold.PLP.part.nonpolar>
-23.3393

> <Gold.PLP.part.repulsive>
0.1145

> <Gold.PLP.ligand.clash>
0.0000

> <Gold.PLP.ligand.torsion>
0.3593

> <Gold.PLP.Chemscore.Hbond>
5.0000

> <Gold.PLP.Chemscore.CHOScore>
0.0000

> <Gold.PLP.Chemscore.Metal>
0.0000

> <Gold.Chemscore.Hbonds>
donor molecule, donor type, donor heavy atom, donor atom, acceptor molecule, acceptor atom, score
      L1  H     3    34       P1  7948  2.00
      L1  H     5    21       P1 10175  2.00
      P1  H 11000 11005       L1    12  1.00

> <Gold.PLP.Chemscore.Internal.Correction>
0.0112

> <Gold.Rescore>
     Score         DG    S(hbond)    S(metal)    S(lipo)     H(rot)  DE(clash)    DE(int)     intcor
     18.14     -18.55       2.86        0.00      67.61       1.72       0.06       0.35       ----

> <Gold.Chemscore.Fitness>
18.1396

> <Gold.Chemscore.DG>
-18.5524

> <Gold.Chemscore.ZeroCoef>
-5.4800

> <Gold.Chemscore.Hbond>
2.8629

> <Gold.Chemscore.Metal>
0.0000

> <Gold.Chemscore.Lipo>
67.6061

> <Gold.Chemscore.Internal_Hbond>
0.0000

> <Gold.Chemscore.DEClash>
0.0581

> <Gold.Chemscore.DEInternal>
0.3547

> <Gold.Chemscore.Rot>
1.7187

> <Gold.Chemscore.Internal.Correction>
   9.000000E+99

> <Gold.Chemscore.Hbonds>
donor molecule, donor type, donor heavy atom, donor atom, acceptor molecule, acceptor atom, score
      L1  H     3    34       P1  7948  0.96
      L1  H     5    21       P1 10175  0.91
      P1  H 11000 11005       L1    12  0.94

> <Gold.Chemscore.Hbond.Weighted>
-9.5622

> <Gold.Chemscore.Metal.Weighted>
-0.0000

> <Gold.Chemscore.Lipo.Weighted>
-7.9099

> <Gold.Chemscore.Internal_Hbond.Weighted>
0.0000

> <Gold.Chemscore.DEClash.Weighted>
0.0581

> <Gold.Chemscore.DEInternal.Weighted>
0.3547

> <Gold.Chemscore.Rot.Weighted>
4.3998

> <Gold.Chemscore.Internal.Correction.Weighted>
   9.000000E+99

> <Gold.Protein.RotatedTorsions>
[ 6907 6896 6895 6894 ] final  128.19 input  -60.11 | X-H torsion
[ 7974 7965 7964 7962 ] final   51.41 input  175.53 | X-H torsion
[ 8008 7997 7996 7995 ] final   82.89 input   59.86 | X-H torsion
[ 10167 10162 10161 10158 ] final  142.52 input  -65.29 | X-H torsion
[ 10718 10713 10712 10709 ] final   73.13 input   66.30 | X-H torsion
[ 10763 10752 10751 10750 ] final -104.51 input  -60.55 | X-H torsion
[ 11005 11000 10999 10996 ] final   71.10 input  -57.11 | X-H torsion

> <Gold.Protein.ActiveResidues>
 VAL166  LYS551  ARG553  GLY616  TRP617  ASP618  TYR619  PRO620  LYS621  CYS622 
 ASP623  PHE694  ASN695  SER759  ASP760  ASP761  ALA762  ILE779  LEU786  VAL792 
 PHE793  MET794  SER795  GLU796  ALA797  LYS798  CYS799  TRP800  GLU811  SER814 

> <Gold.Protein.RotatedAtoms>
  152.3743  133.6460  159.6110 H   0  0  0  0  0  0  0  0  0  0  0  0  # atno 6907 bound_to 6896
  150.7692  133.9219  159.3409 H   0  0  0  0  0  0  0  0  0  0  0  0  # atno 6908 bound_to 6896
  151.7037  135.0927  160.0306 H   0  0  0  0  0  0  0  0  0  0  0  0  # atno 6909 bound_to 6896
  145.9916  139.4345  143.0070 H   0  0  0  0  0  0  0  0  0  0  0  0  # atno 7974 bound_to 7965
  155.9166  140.3424  155.6140 H   0  0  0  0  0  0  0  0  0  0  0  0  # atno 8008 bound_to 7997
  155.7324  140.0797  157.2301 H   0  0  0  0  0  0  0  0  0  0  0  0  # atno 8009 bound_to 7997
  154.4063  140.1585  156.2511 H   0  0  0  0  0  0  0  0  0  0  0  0  # atno 8010 bound_to 7997
  139.4992  144.6101  151.6290 H   0  0  0  0  0  0  0  0  0  0  0  0  # atno 10167 bound_to 10162
  157.6533  130.9613  150.1026 H   0  0  0  0  0  0  0  0  0  0  0  0  # atno 10718 bound_to 10713
  154.7883  135.4784  153.9995 H   0  0  0  0  0  0  0  0  0  0  0  0  # atno 10763 bound_to 10752
  153.1592  135.6805  153.8774 H   0  0  0  0  0  0  0  0  0  0  0  0  # atno 10764 bound_to 10752
  153.8393  135.3181  155.3403 H   0  0  0  0  0  0  0  0  0  0  0  0  # atno 10765 bound_to 10752
  139.9561  134.7141  156.0749 H   0  0  0  0  0  0  0  0  0  0  0  0  # atno 11005 bound_to 11000
  145.7621  140.9931  143.1194 LP  0  0  0  0  0  0  0  0  0  0  0  0  # atno 17320 bound_to 7965
  144.6891  139.9343  143.7473 LP  0  0  0  0  0  0  0  0  0  0  0  0  # atno 17321 bound_to 7965
  140.5774  144.0005  150.6249 LP  0  0  0  0  0  0  0  0  0  0  0  0  # atno 17342 bound_to 10162
  140.3143  143.3178  152.0848 LP  0  0  0  0  0  0  0  0  0  0  0  0  # atno 17343 bound_to 10162
  156.1944  130.3656  149.8868 LP  0  0  0  0  0  0  0  0  0  0  0  0  # atno 17370 bound_to 10713
  156.6788  130.8850  151.3573 LP  0  0  0  0  0  0  0  0  0  0  0  0  # atno 17371 bound_to 10713
  141.1233  133.6606  156.3271 LP  0  0  0  0  0  0  0  0  0  0  0  0  # atno 17394 bound_to 11000
  140.5605  134.5939  157.5432 LP  0  0  0  0  0  0  0  0  0  0  0  0  # atno 17395 bound_to 11000

$$$$
