#       Name:                AV-unprocessed.smi:2605
#       Creating user name   scv26
#       Creation time:       Fri Mar 27 14:20:47 2020


#       File generated by GOLD software.
#

@<TRIPOS>MOLECULE
AV-unprocessed.smi:2605
    28    29     1
SMALL
NO_CHARGES


@<TRIPOS>ATOM
      1 ****        -3.2892   1.7339  -0.0919 C.ar           1 S1                 0.0000
      2 ****        -1.8798   1.7330  -0.0893 C.ar           1 S1                 0.0000
      3 ****        -1.2046   0.5055   0.0790 C.ar           1 S1                 0.0000
      4 ****         0.3153   0.4564   0.0750 C.3            1 S1                 0.0000
      5 ****         0.8986  -0.3023   1.2898 C.3            1 S1                 0.0000
      6 ****         2.3577  -0.2853   1.2357 N.3            1 S1                 0.0000
      7 ****         2.7936  -0.9740   0.0248 C.3            1 S1                 0.0000
      8 ****         2.2694  -0.2285  -1.2169 C.3            1 S1                 0.0000
      9 ****         0.7947  -0.1570  -1.1815 N.4            1 S1                 1.0000
     10 ****        -1.9766  -0.6677   0.2287 C.ar           1 S1                 0.0000
     11 ****        -3.3816  -0.5572   0.2117 C.ar           1 S1                 0.0000
     12 ****        -4.0310   0.6156   0.0545 N.ar           1 S1                 0.0000
     13 ****        -3.8344   2.6577  -0.2167 H              1 S1                 0.0000
     14 ****        -1.3359   2.6582  -0.2124 H              1 S1                 0.0000
     15 ****         0.6841   1.4837   0.1019 H              1 S1                 0.0000
     16 ****         0.5787   0.1743   2.2169 H              1 S1                 0.0000
     17 ****         0.5491  -1.3348   1.3234 H              1 S1                 0.0000
     18 ****         2.7315  -0.7586   2.0470 H              1 S1                 0.0000
     19 ****         3.8833  -1.0055   0.0093 H              1 S1                 0.0000
     20 ****         2.4437  -2.0073   0.0358 H              1 S1                 0.0000
     21 ****         2.6827   0.7802  -1.2622 H              1 S1                 0.0000
     22 ****         2.5789  -0.7420  -2.1272 H              1 S1                 0.0000
     23 ****         0.4214  -1.0933  -1.2437 H              1 S1                 0.0000
     24 ****        -1.5120  -1.6348   0.3512 H              1 S1                 0.0000
     25 ****        -3.9998  -1.4356   0.3238 H              1 S1                 0.0000
     26 ****         0.4633   0.3847  -1.9667 H              1 S1                 0.0000
     27 ****         2.6860   0.6592   1.2258 LP             1 S1                 0.0000
     28 ****        -5.0302   0.6549   0.0467 LP             1 S1                 0.0000
@<TRIPOS>BOND
    1    1   12 ar    
    2    1    2 ar    
    3    1   13 1     
    4    2    3 ar    
    5    2   14 1     
    6    3    4 1     
    7    3   10 ar    
    8    4    9 1     
    9    4    5 1     
   10    4   15 1     
   11    5    6 1     
   12    5   16 1     
   13    5   17 1     
   14    6    7 1     
   15    6   18 1     
   16    7    8 1     
   17    7   19 1     
   18    7   20 1     
   19    8    9 1     
   20    8   21 1     
   21    8   22 1     
   22    9   23 1     
   23    9   26 1     
   24   10   11 ar    
   25   10   24 1     
   26   11   12 ar    
   27   11   25 1     
   28    6   27 1     
   29   12   28 1     
@<TRIPOS>SUBSTRUCTURE
      1 S1             1
@<TRIPOS>SET
LONE_PAIRS      STATIC     ATOMS    <user>   **** ""
2 27 28
DONOR_HYDROGENS      STATIC     ATOMS    <user>   **** ""
3 18 23 26
ATOM$BLUE        STATIC     ATOMS    COLORGROUP SYSTEM
2 27 28
ATOM$RED        STATIC     ATOMS    COLORGROUP SYSTEM
3 18 23 26
