AV-unprocessed.smi:2061|AV-procd|sdf|8394|dock4
  -GOLD-   2272011 73D 1   1.00000     0.00000
 Structure written by MMmdl.
 45 46  0  0  0  0  0  0  0  0  3 V2000
  144.7947  123.8382  157.1433 C   0  0  0  0  0  0  0  0  0  0  0  0
  145.2930  124.9970  156.3499 C   0  0  0  0  0  0  0  0  0  0  0  0
  145.0228  126.3359  156.3882 C   0  0  0  0  0  0  0  0  0  0  0  0
  145.8432  126.8595  155.3534 C   0  0  0  0  0  0  0  0  0  0  0  0
  145.8483  128.2506  155.0661 N   0  0  0  0  0  0  0  0  0  0  0  0
  146.8502  129.0064  154.5799 C   0  0  0  0  0  0  0  0  0  0  0  0
  147.9500  128.4982  154.3312 O   0  0  0  0  0  0  0  0  0  0  0  0
  146.4846  130.3082  154.4199 N   0  5  0  0  0  0  0  0  0  0  0  0
  146.9474  131.1661  153.3290 C   0  0  0  0  0  0  0  0  0  0  0  0
  146.0990  130.9340  152.0443 C   0  0  2  0  0  0  0  0  0  0  0  0
  146.1150  129.4315  151.6379 C   0  0  0  0  0  0  0  0  0  0  0  0
  146.5582  131.8746  150.9609 N   0  3  1  0  0  0  0  0  0  0  0  0
  145.8675  131.8204  149.6424 C   0  0  0  0  0  0  0  0  0  0  0  0
  144.5232  132.5789  149.6719 C   0  0  2  0  0  0  0  0  0  0  0  0
  143.8409  132.5930  148.2999 C   0  0  0  0  0  0  0  0  0  0  0  0
  144.7659  133.9263  150.0565 O   0  0  0  0  0  0  0  0  0  0  0  0
  145.3267  134.0291  151.3599 C   0  0  2  0  0  0  0  0  0  0  0  0
  145.4658  135.5174  151.6982 C   0  0  0  0  0  0  0  0  0  0  0  0
  146.6871  133.3005  151.3832 C   0  0  0  0  0  0  0  0  0  0  0  0
  146.5529  125.9226  154.7420 N   0  0  0  0  0  0  0  0  0  0  0  0
  146.2042  124.7250  155.3772 O   0  0  0  0  0  0  0  0  0  0  0  0
  143.8993  124.1065  157.7040 H   0  0  0  0  0  0  0  0  0  0  0  0
  145.5511  123.5032  157.8529 H   0  0  0  0  0  0  0  0  0  0  0  0
  144.5461  123.0004  156.4915 H   0  0  0  0  0  0  0  0  0  0  0  0
  144.3451  126.8556  157.0491 H   0  0  0  0  0  0  0  0  0  0  0  0
  144.9804  128.7348  155.2410 H   0  0  0  0  0  0  0  0  0  0  0  0
  146.8798  132.2162  153.6153 H   0  0  0  0  0  0  0  0  0  0  0  0
  147.9990  130.9986  153.0921 H   0  0  0  0  0  0  0  0  0  0  0  0
  145.0607  131.1808  152.2698 H   0  0  0  0  0  0  0  0  0  0  0  0
  145.7487  128.7820  152.4357 H   0  0  0  0  0  0  0  0  0  0  0  0
  147.1144  129.0808  151.3724 H   0  0  0  0  0  0  0  0  0  0  0  0
  145.4615  129.2302  150.7911 H   0  0  0  0  0  0  0  0  0  0  0  0
  146.5219  132.3022  148.9144 H   0  0  0  0  0  0  0  0  0  0  0  0
  145.7504  130.8015  149.2760 H   0  0  0  0  0  0  0  0  0  0  0  0
  143.8389  132.1264  150.3898 H   0  0  0  0  0  0  0  0  0  0  0  0
  143.6176  131.5806  147.9623 H   0  0  0  0  0  0  0  0  0  0  0  0
  144.4743  133.0649  147.5481 H   0  0  0  0  0  0  0  0  0  0  0  0
  142.9015  133.1448  148.3377 H   0  0  0  0  0  0  0  0  0  0  0  0
  144.6439  133.5778  152.0812 H   0  0  0  0  0  0  0  0  0  0  0  0
  145.8801  135.6552  152.6973 H   0  0  0  0  0  0  0  0  0  0  0  0
  144.4967  136.0159  151.6692 H   0  0  0  0  0  0  0  0  0  0  0  0
  146.1220  136.0245  150.9902 H   0  0  0  0  0  0  0  0  0  0  0  0
  147.1438  133.3878  152.3692 H   0  0  0  0  0  0  0  0  0  0  0  0
  147.3726  133.7943  150.6929 H   0  0  0  0  0  0  0  0  0  0  0  0
  147.4985  131.5591  150.7688 H   0  0  0  0  0  0  0  0  0  0  0  0
  1  2  1  0  0  0  0
  1 22  1  0  0  0  0
  1 23  1  0  0  0  0
  1 24  1  0  0  0  0
  2 21  1  0  0  0  0
  2  3  2  0  0  0  0
  3  4  1  0  0  0  0
  3 25  1  0  0  0  0
  4  5  1  0  0  0  0
  4 20  2  0  0  0  0
  5  6  1  0  0  0  0
  5 26  1  0  0  0  0
  6  7  2  0  0  0  0
  6  8  1  0  0  0  0
  8  9  1  0  0  0  0
  9 10  1  0  0  0  0
  9 27  1  0  0  0  0
  9 28  1  0  0  0  0
 10 11  1  0  0  0  0
 10 12  1  0  0  0  0
 10 29  1  0  0  0  0
 11 30  1  0  0  0  0
 11 31  1  0  0  0  0
 11 32  1  0  0  0  0
 12 19  1  0  0  0  0
 12 13  1  0  0  0  0
 12 45  1  0  0  0  0
 13 14  1  0  0  0  0
 13 33  1  0  0  0  0
 13 34  1  0  0  0  0
 14 15  1  0  0  0  0
 14 16  1  0  0  0  0
 14 35  1  0  0  0  0
 15 36  1  0  0  0  0
 15 37  1  0  0  0  0
 15 38  1  0  0  0  0
 16 17  1  0  0  0  0
 17 18  1  0  0  0  0
 17 19  1  0  0  0  0
 17 39  1  0  0  0  0
 18 40  1  0  0  0  0
 18 41  1  0  0  0  0
 18 42  1  0  0  0  0
 19 43  1  0  0  0  0
 19 44  1  0  0  0  0
 20 21  1  0  0  0  0
M  CHG  1   8  -1
M  CHG  1  12   1
M  END
> <s_m_source_file>
AV-unprocessed.smi

> <i_m_source_file_index>
2061

> <i_lp_mmshare_version>
43012

> <i_f3d_flags>
0

> <s_epik_input>
W0NIM11jMVtjSF1jKG5vMSlbTkhdQyg9TylbTkhdW0NIMl1bQ0BIXShbQ0gzXSlOMltDSDJdW0NAQEhdKFtDSDNdKU9bQ0BASF0oW0NIM10pW0NIMl0y

> <s_epik_cmdline>
J2VwaWtfcHl0aG9uJywgJy1waCcsICc3LjAnLCAnLXRuJywgJzgnLCAnLW1hJywgJzIwMCcsICctbWV0YWxfYmluZGluZycsICctaW1hZScsICc8aW5maWxlLm1hZT4nLCAnLW9tYWUnLCAnPG91dGZpbGUubWFlPic=

> <r_epik_Ionization_Penalty>
6.8073

> <r_epik_Ionization_Penalty_Charging>
6.80729

> <r_epik_Ionization_Penalty_Neutral>
5.65391e-06

> <r_epik_State_Penalty>
7.47323

> <r_epik_Charging_Adjusted_Penalty>
14.2805

> <i_epik_Tot_Q>
0

> <i_epik_Tot_abs_Q>
2

> <r_epik_Metal_State_Penalty>
3.40035

> <b_epik_Metal_Only>
1

> <s_lp_Force_Field>
OPLS_2005

> <r_lp_Energy>
21.662

> <b_lp_Chiralities_Consistent>
1

> <s_lp_Variant>
AV-unprocessed.smi:2061-35

> <Gold.Version>
5.8.1

> <Gold.Id.Protein>
6NUR|6NUR_protein|mol2

> <Gold.PLP.Fitness>
41.3115

> <Gold.PLP.PLP>
-36.5013

> <Gold.PLP.part.hbond>
-4.0000

> <Gold.PLP.part.metal>
0.0000

> <Gold.PLP.part.buried>
-7.2133

> <Gold.PLP.part.nonpolar>
-26.3741

> <Gold.PLP.part.repulsive>
1.5947

> <Gold.PLP.ligand.clash>
0.0000

> <Gold.PLP.ligand.torsion>
0.6575

> <Gold.PLP.Chemscore.Hbond>
2.0000

> <Gold.PLP.Chemscore.CHOScore>
0.0000

> <Gold.PLP.Chemscore.Metal>
0.0000

> <Gold.Chemscore.Hbonds>
donor molecule, donor type, donor heavy atom, donor atom, acceptor molecule, acceptor atom, score
      L1  H     5    26       P1 10956  1.00
      L1  H    12    45       P1 10747  1.00

> <Gold.PLP.Chemscore.Internal.Correction>
0.1252

> <Gold.Rescore>
     Score         DG    S(hbond)    S(metal)    S(lipo)     H(rot)  DE(clash)    DE(int)     intcor
     16.96     -18.23       1.98        0.00      86.34       1.56       0.36       0.91       ----

> <Gold.Chemscore.Fitness>
16.9578

> <Gold.Chemscore.DG>
-18.2280

> <Gold.Chemscore.ZeroCoef>
-5.4800

> <Gold.Chemscore.Hbond>
1.9841

> <Gold.Chemscore.Metal>
0.0000

> <Gold.Chemscore.Lipo>
86.3403

> <Gold.Chemscore.Internal_Hbond>
0.0000

> <Gold.Chemscore.DEClash>
0.3591

> <Gold.Chemscore.DEInternal>
0.9111

> <Gold.Chemscore.Rot>
1.5550

> <Gold.Chemscore.Internal.Correction>
   9.000000E+99

> <Gold.Chemscore.Hbonds>
donor molecule, donor type, donor heavy atom, donor atom, acceptor molecule, acceptor atom, score
      L1  H     5    26       P1 10956  0.98
      L1  H    12    45       P1 10747  1.00

> <Gold.Chemscore.Hbond.Weighted>
-6.6271

> <Gold.Chemscore.Metal.Weighted>
-0.0000

> <Gold.Chemscore.Lipo.Weighted>
-10.1018

> <Gold.Chemscore.Internal_Hbond.Weighted>
0.0000

> <Gold.Chemscore.DEClash.Weighted>
0.3591

> <Gold.Chemscore.DEInternal.Weighted>
0.9111

> <Gold.Chemscore.Rot.Weighted>
3.9809

> <Gold.Chemscore.Internal.Correction.Weighted>
   9.000000E+99

> <Gold.Protein.RotatedTorsions>
[ 6907 6896 6895 6894 ] final   39.58 input  -60.11 | X-H torsion
[ 7974 7965 7964 7962 ] final   56.48 input  175.53 | X-H torsion
[ 8008 7997 7996 7995 ] final   64.78 input   59.86 | X-H torsion
[ 10167 10162 10161 10158 ] final    4.90 input  -65.29 | X-H torsion
[ 10718 10713 10712 10709 ] final -142.53 input   66.30 | X-H torsion
[ 10763 10752 10751 10750 ] final  150.25 input  -60.55 | X-H torsion
[ 11005 11000 10999 10996 ] final  -70.38 input  -57.11 | X-H torsion

> <Gold.Protein.ActiveResidues>
 VAL166  LYS551  ARG553  GLY616  TRP617  ASP618  TYR619  PRO620  LYS621  CYS622 
 ASP623  PHE694  ASN695  SER759  ASP760  ASP761  ALA762  ILE779  LEU786  VAL792 
 PHE793  MET794  SER795  GLU796  ALA797  LYS798  CYS799  TRP800  GLU811  SER814 

> <Gold.Protein.RotatedAtoms>
  152.1714  134.8831  160.0533 H   0  0  0  0  0  0  0  0  0  0  0  0  # atno 6907 bound_to 6896
  151.9789  133.3746  159.4108 H   0  0  0  0  0  0  0  0  0  0  0  0  # atno 6908 bound_to 6896
  150.6902  134.3983  159.5151 H   0  0  0  0  0  0  0  0  0  0  0  0  # atno 6909 bound_to 6896
  145.9394  139.3875  143.0373 H   0  0  0  0  0  0  0  0  0  0  0  0  # atno 7974 bound_to 7965
  155.6514  140.3497  155.4750 H   0  0  0  0  0  0  0  0  0  0  0  0  # atno 8008 bound_to 7997
  155.9844  140.1181  157.0720 H   0  0  0  0  0  0  0  0  0  0  0  0  # atno 8009 bound_to 7997
  154.4201  140.1132  156.5466 H   0  0  0  0  0  0  0  0  0  0  0  0  # atno 8010 bound_to 7997
  140.6510  143.7544  150.7576 H   0  0  0  0  0  0  0  0  0  0  0  0  # atno 10167 bound_to 10162
  156.3470  130.7668  151.1814 H   0  0  0  0  0  0  0  0  0  0  0  0  # atno 10718 bound_to 10713
  154.0844  135.2857  155.3284 H   0  0  0  0  0  0  0  0  0  0  0  0  # atno 10763 bound_to 10752
  154.6662  135.5316  153.8083 H   0  0  0  0  0  0  0  0  0  0  0  0  # atno 10764 bound_to 10752
  153.0437  135.6546  154.1017 H   0  0  0  0  0  0  0  0  0  0  0  0  # atno 10765 bound_to 10752
  141.1573  133.6788  156.6744 H   0  0  0  0  0  0  0  0  0  0  0  0  # atno 11005 bound_to 11000
  145.8320  140.9625  143.0844 LP  0  0  0  0  0  0  0  0  0  0  0  0  # atno 17320 bound_to 7965
  144.6776  140.0175  143.7484 LP  0  0  0  0  0  0  0  0  0  0  0  0  # atno 17321 bound_to 7965
  140.1194  143.4625  152.2322 LP  0  0  0  0  0  0  0  0  0  0  0  0  # atno 17342 bound_to 10162
  139.5726  144.7470  151.3851 LP  0  0  0  0  0  0  0  0  0  0  0  0  # atno 17343 bound_to 10162
  157.7455  131.0438  150.4763 LP  0  0  0  0  0  0  0  0  0  0  0  0  # atno 17370 bound_to 10713
  156.4952  130.4104  149.6384 LP  0  0  0  0  0  0  0  0  0  0  0  0  # atno 17371 bound_to 10713
  140.3150  134.8054  157.4207 LP  0  0  0  0  0  0  0  0  0  0  0  0  # atno 17394 bound_to 11000
  140.1145  134.5301  155.8236 LP  0  0  0  0  0  0  0  0  0  0  0  0  # atno 17395 bound_to 11000

$$$$
