AV-unprocessed.smi:597|AV-procd|sdf|3020|dock4
  -GOLD-   2262023533D 1   1.00000     0.00000
 Structure written by MMmdl.
 37 38  0  0  0  0  0  0  0  0  3 V2000
  151.6169  140.5593  157.5228 O   0  0  0  0  0  0  0  0  0  0  0  0
  150.9018  141.3056  156.8527 C   0  0  0  0  0  0  0  0  0  0  0  0
  149.9745  140.7439  155.7653 C   0  0  0  0  0  0  0  0  0  0  0  0
  148.6546  141.3963  155.7282 N   0  0  0  0  0  0  0  0  0  0  0  0
  148.0288  141.6449  156.9659 C   0  0  0  0  0  0  0  0  0  0  0  0
  146.8178  142.2296  157.0514 C   0  0  0  0  0  0  0  0  0  0  0  0
  146.1879  142.4724  158.3307 N   0  3  0  0  0  0  0  0  0  0  0  0
  145.1114  143.0604  158.3544 O   0  0  0  0  0  0  0  0  0  0  0  0
  146.7472  142.0859  159.3528 O   0  5  0  0  0  0  0  0  0  0  0  0
  146.1624  142.6062  155.8138 C   0  0  0  0  0  0  0  0  0  0  0  0
  146.7538  142.3672  154.6268 C   0  0  0  0  0  0  0  0  0  0  0  0
  148.0695  141.7259  154.5360 C   0  0  0  0  0  0  0  0  0  0  0  0
  148.6122  141.4992  153.4544 O   0  0  0  0  0  0  0  0  0  0  0  0
  150.8617  142.6354  157.0261 N   0  0  0  0  0  0  0  0  0  0  0  0
  151.6505  143.3843  157.9999 C   0  0  0  0  0  0  0  0  0  0  0  0
  151.6941  142.6444  159.3537 C   0  0  0  0  0  0  0  0  0  0  0  0
  152.4553  143.4561  160.4145 C   0  0  0  0  0  0  0  0  0  0  0  0
  151.8605  144.8640  160.5742 C   0  0  0  0  0  0  0  0  0  0  0  0
  151.8216  145.6050  159.2284 C   0  0  0  0  0  0  0  0  0  0  0  0
  151.0565  144.7956  158.1689 C   0  0  0  0  0  0  0  0  0  0  0  0
  150.4777  140.8473  154.8028 H   0  0  0  0  0  0  0  0  0  0  0  0
  149.8598  139.6680  155.9112 H   0  0  0  0  0  0  0  0  0  0  0  0
  148.5957  141.3215  157.8271 H   0  0  0  0  0  0  0  0  0  0  0  0
  145.1927  143.0820  155.8294 H   0  0  0  0  0  0  0  0  0  0  0  0
  146.2474  142.6549  153.7173 H   0  0  0  0  0  0  0  0  0  0  0  0
  150.2420  143.1711  156.4358 H   0  0  0  0  0  0  0  0  0  0  0  0
  152.6696  143.4897  157.6222 H   0  0  0  0  0  0  0  0  0  0  0  0
  150.6782  142.4558  159.7043 H   0  0  0  0  0  0  0  0  0  0  0  0
  152.1661  141.6682  159.2365 H   0  0  0  0  0  0  0  0  0  0  0  0
  152.4320  142.9321  161.3704 H   0  0  0  0  0  0  0  0  0  0  0  0
  153.5056  143.5331  160.1296 H   0  0  0  0  0  0  0  0  0  0  0  0
  150.8509  144.7903  160.9805 H   0  0  0  0  0  0  0  0  0  0  0  0
  152.4439  145.4351  161.2968 H   0  0  0  0  0  0  0  0  0  0  0  0
  151.3570  146.5829  159.3557 H   0  0  0  0  0  0  0  0  0  0  0  0
  152.8396  145.7888  158.8825 H   0  0  0  0  0  0  0  0  0  0  0  0
  151.0772  145.3275  157.2169 H   0  0  0  0  0  0  0  0  0  0  0  0
  150.0074  144.7235  158.4599 H   0  0  0  0  0  0  0  0  0  0  0  0
  1  2  2  0  0  0  0
  2  3  1  0  0  0  0
  2 14  1  0  0  0  0
  3  4  1  0  0  0  0
  3 21  1  0  0  0  0
  3 22  1  0  0  0  0
  4 12  1  0  0  0  0
  4  5  1  0  0  0  0
  5  6  2  0  0  0  0
  5 23  1  0  0  0  0
  6  7  1  0  0  0  0
  6 10  1  0  0  0  0
  7  8  2  0  0  0  0
  7  9  1  0  0  0  0
 10 11  2  0  0  0  0
 10 24  1  0  0  0  0
 11 12  1  0  0  0  0
 11 25  1  0  0  0  0
 12 13  2  0  0  0  0
 14 15  1  0  0  0  0
 14 26  1  0  0  0  0
 15 20  1  0  0  0  0
 15 16  1  0  0  0  0
 15 27  1  0  0  0  0
 16 17  1  0  0  0  0
 16 28  1  0  0  0  0
 16 29  1  0  0  0  0
 17 18  1  0  0  0  0
 17 30  1  0  0  0  0
 17 31  1  0  0  0  0
 18 19  1  0  0  0  0
 18 32  1  0  0  0  0
 18 33  1  0  0  0  0
 19 20  1  0  0  0  0
 19 34  1  0  0  0  0
 19 35  1  0  0  0  0
 20 36  1  0  0  0  0
 20 37  1  0  0  0  0
M  CHG  1   7   1
M  CHG  1   9  -1
M  END
> <s_m_source_file>
AV-unprocessed.smi

> <i_m_source_file_index>
597

> <i_lp_mmshare_version>
43012

> <i_f3d_flags>
0

> <s_epik_input>
W0NIMl0xW0NIMl1bQ0gyXVtDSDJdW0NIMl1bQ0hdMVtOSF1DKD1PKVtDSDJdbjJbY0hdYyhbTitdKD1PKVtPLV0pW2NIXVtjSF1jMj1P

> <s_epik_cmdline>
J2VwaWtfcHl0aG9uJywgJy1waCcsICc3LjAnLCAnLXRuJywgJzgnLCAnLW1hJywgJzIwMCcsICctbWV0YWxfYmluZGluZycsICctaW1hZScsICc8aW5maWxlLm1hZT4nLCAnLW9tYWUnLCAnPG91dGZpbGUubWFlPic=

> <r_lp_tautomer_probability>
1

> <r_epik_Ionization_Penalty>
1.91289e-08

> <r_epik_Ionization_Penalty_Charging>
8.20451e-11

> <r_epik_Ionization_Penalty_Neutral>
1.90469e-08

> <r_epik_State_Penalty>
-0

> <r_epik_Charging_Adjusted_Penalty>
8.20451e-11

> <i_epik_Tot_Q>
0

> <i_epik_Tot_abs_Q>
2

> <r_epik_Metal_State_Penalty>
-0

> <b_epik_Metal_Only>
0

> <s_lp_Force_Field>
OPLS_2005

> <r_lp_Energy>
19.9817

> <b_lp_Chiralities_Consistent>
1

> <s_lp_Variant>
AV-unprocessed.smi:597-1

> <Gold.Version>
5.8.1

> <Gold.Id.Protein>
6NUR|6NUR_protein|mol2

> <Gold.PLP.Fitness>
43.4134

> <Gold.PLP.PLP>
-38.1816

> <Gold.PLP.part.hbond>
-2.4653

> <Gold.PLP.part.metal>
0.0000

> <Gold.PLP.part.buried>
-4.6299

> <Gold.PLP.part.nonpolar>
-32.9803

> <Gold.PLP.part.repulsive>
1.5762

> <Gold.PLP.ligand.clash>
0.0000

> <Gold.PLP.ligand.torsion>
0.7393

> <Gold.PLP.Chemscore.Hbond>
2.2325

> <Gold.PLP.Chemscore.CHOScore>
0.0000

> <Gold.PLP.Chemscore.Metal>
0.0000

> <Gold.Chemscore.Hbonds>
donor molecule, donor type, donor heavy atom, donor atom, acceptor molecule, acceptor atom, score
      L1  H    14    26       P1  8028  0.59
      P1  H  6934  6946       L1     9  0.88
      P1  H  8011  8017       L1    13  0.77

> <Gold.PLP.Chemscore.Internal.Correction>
0.0129

> <Gold.Rescore>
     Score         DG    S(hbond)    S(metal)    S(lipo)     H(rot)  DE(clash)    DE(int)     intcor
     16.46     -19.81       2.35        0.00      89.45       1.56       0.40       2.94       ----

> <Gold.Chemscore.Fitness>
16.4606

> <Gold.Chemscore.DG>
-19.8059

> <Gold.Chemscore.ZeroCoef>
-5.4800

> <Gold.Chemscore.Hbond>
2.3549

> <Gold.Chemscore.Metal>
0.0000

> <Gold.Chemscore.Lipo>
89.4511

> <Gold.Chemscore.Internal_Hbond>
0.0000

> <Gold.Chemscore.DEClash>
0.4007

> <Gold.Chemscore.DEInternal>
2.9445

> <Gold.Chemscore.Rot>
1.5646

> <Gold.Chemscore.Internal.Correction>
   9.000000E+99

> <Gold.Chemscore.Hbonds>
donor molecule, donor type, donor heavy atom, donor atom, acceptor molecule, acceptor atom, score
      L1  H    14    26       P1  8028  0.58
      P1  H  6934  6946       L1     9  0.87
      P1  H  8011  8017       L1    13  0.76

> <Gold.Chemscore.Hbond.Weighted>
-7.8654

> <Gold.Chemscore.Metal.Weighted>
-0.0000

> <Gold.Chemscore.Lipo.Weighted>
-10.4658

> <Gold.Chemscore.Internal_Hbond.Weighted>
0.0000

> <Gold.Chemscore.DEClash.Weighted>
0.4007

> <Gold.Chemscore.DEInternal.Weighted>
2.9445

> <Gold.Chemscore.Rot.Weighted>
4.0053

> <Gold.Chemscore.Internal.Correction.Weighted>
   9.000000E+99

> <Gold.Protein.RotatedTorsions>
[ 6907 6896 6895 6894 ] final  -22.39 input  -60.11 | X-H torsion
[ 7974 7965 7964 7962 ] final    4.34 input  175.53 | X-H torsion
[ 8008 7997 7996 7995 ] final -107.47 input   59.86 | X-H torsion
[ 10167 10162 10161 10158 ] final  169.47 input  -65.29 | X-H torsion
[ 10718 10713 10712 10709 ] final   65.23 input   66.30 | X-H torsion
[ 10763 10752 10751 10750 ] final -110.00 input  -60.55 | X-H torsion
[ 11005 11000 10999 10996 ] final -143.86 input  -57.11 | X-H torsion

> <Gold.Protein.ActiveResidues>
 VAL166  LYS551  ARG553  GLY616  TRP617  ASP618  TYR619  PRO620  LYS621  CYS622 
 ASP623  PHE694  ASN695  SER759  ASP760  ASP761  ALA762  ILE779  LEU786  VAL792 
 PHE793  MET794  SER795  GLU796  ALA797  LYS798  CYS799  TRP800  GLU811  SER814 

> <Gold.Protein.RotatedAtoms>
  151.2193  135.0512  159.8942 H   0  0  0  0  0  0  0  0  0  0  0  0  # atno 6907 bound_to 6896
  152.5417  134.0658  159.8182 H   0  0  0  0  0  0  0  0  0  0  0  0  # atno 6908 bound_to 6896
  151.0822  133.5333  159.2651 H   0  0  0  0  0  0  0  0  0  0  0  0  # atno 6909 bound_to 6896
  146.2444  140.0549  142.8372 H   0  0  0  0  0  0  0  0  0  0  0  0  # atno 7974 bound_to 7965
  154.9298  140.0405  157.2042 H   0  0  0  0  0  0  0  0  0  0  0  0  # atno 8008 bound_to 7997
  154.8172  140.2877  155.5790 H   0  0  0  0  0  0  0  0  0  0  0  0  # atno 8009 bound_to 7997
  156.2977  140.2526  156.3072 H   0  0  0  0  0  0  0  0  0  0  0  0  # atno 8010 bound_to 7997
  139.4993  144.3703  151.9732 H   0  0  0  0  0  0  0  0  0  0  0  0  # atno 10167 bound_to 10162
  157.6092  130.9203  149.9949 H   0  0  0  0  0  0  0  0  0  0  0  0  # atno 10718 bound_to 10713
  154.8224  135.4580  154.0818 H   0  0  0  0  0  0  0  0  0  0  0  0  # atno 10763 bound_to 10752
  153.2160  135.6888  153.8063 H   0  0  0  0  0  0  0  0  0  0  0  0  # atno 10764 bound_to 10752
  153.7497  135.3300  155.3295 H   0  0  0  0  0  0  0  0  0  0  0  0  # atno 10765 bound_to 10752
  140.8083  134.2775  157.4951 H   0  0  0  0  0  0  0  0  0  0  0  0  # atno 11005 bound_to 11000
  145.0951  140.9310  143.4746 LP  0  0  0  0  0  0  0  0  0  0  0  0  # atno 17320 bound_to 7965
  145.0730  139.3017  143.5822 LP  0  0  0  0  0  0  0  0  0  0  0  0  # atno 17321 bound_to 7965
  140.3139  144.3506  150.6027 LP  0  0  0  0  0  0  0  0  0  0  0  0  # atno 17342 bound_to 10162
  140.5777  143.2175  151.7485 LP  0  0  0  0  0  0  0  0  0  0  0  0  # atno 17343 bound_to 10162
  156.1188  130.3646  149.9922 LP  0  0  0  0  0  0  0  0  0  0  0  0  # atno 17370 bound_to 10713
  156.8006  130.9289  151.3646 LP  0  0  0  0  0  0  0  0  0  0  0  0  # atno 17371 bound_to 10713
  139.8716  134.9468  156.3950 LP  0  0  0  0  0  0  0  0  0  0  0  0  # atno 17394 bound_to 11000
  140.9224  133.7636  155.9923 LP  0  0  0  0  0  0  0  0  0  0  0  0  # atno 17395 bound_to 11000

$$$$
