AV-unprocessed.smi:2355|AV-procd|sdf|9386|dock4
  -GOLD-   2272013 13D 1   1.00000     0.00000
 Structure written by MMmdl.
 48 49  0  0  0  0  0  0  0  0  1 V2000
  143.9946  132.8590  149.7024 C   0  0  0  0  0  0  0  0  0  0  0  0
  145.0139  132.3929  150.7204 C   0  0  0  0  0  0  0  0  0  0  0  0
  145.1176  131.0320  151.0657 C   0  0  0  0  0  0  0  0  0  0  0  0
  146.0833  130.6606  152.0213 C   0  0  0  0  0  0  0  0  0  0  0  0
  146.2511  129.2148  152.4395 C   0  0  0  0  0  0  0  0  0  0  0  0
  146.9068  131.5476  152.6192 N   0  0  0  0  0  0  0  0  0  0  0  0
  146.8153  132.8614  152.2957 C   0  0  0  0  0  0  0  0  0  0  0  0
  147.6364  133.8710  152.8650 N   0  0  0  0  0  0  0  0  0  0  0  0
  148.2554  133.8608  154.0587 C   0  0  0  0  0  0  0  0  0  0  0  0
  148.1952  132.9491  154.8847 O   0  0  0  0  0  0  0  0  0  0  0  0
  148.9557  134.9886  154.2538 N   0  0  0  0  0  0  0  0  0  0  0  0
  149.7266  135.3051  155.4558 C   0  0  1  0  0  0  0  0  0  0  0  0
  150.9239  134.3433  155.5526 C   0  0  0  0  0  0  0  0  0  0  0  0
  150.1352  136.8141  155.4998 C   0  0  2  0  0  0  0  0  0  0  0  0
  151.0803  137.1395  154.3137 C   0  0  0  0  0  0  0  0  0  0  0  0
  150.6738  137.2598  156.8068 N   0  0  0  0  0  0  0  0  0  0  0  0
  149.8875  136.7528  157.9373 C   0  0  0  0  0  0  0  0  0  0  0  0
  150.4509  137.1883  159.3006 C   0  0  0  0  0  0  0  0  0  0  0  0
  151.8003  136.7599  159.4180 O   0  0  0  0  0  0  0  0  0  0  0  0
  152.6193  137.2898  158.3851 C   0  0  0  0  0  0  0  0  0  0  0  0
  152.0711  136.8608  157.0131 C   0  0  0  0  0  0  0  0  0  0  0  0
  145.8750  133.3179  151.3449 C   0  0  0  0  0  0  0  0  0  0  0  0
  143.6211  132.0237  149.1094 H   0  0  0  0  0  0  0  0  0  0  0  0
  144.4379  133.5864  149.0218 H   0  0  0  0  0  0  0  0  0  0  0  0
  143.1490  133.3286  150.2051 H   0  0  0  0  0  0  0  0  0  0  0  0
  144.4740  130.2930  150.6107 H   0  0  0  0  0  0  0  0  0  0  0  0
  145.6515  128.5507  151.8163 H   0  0  0  0  0  0  0  0  0  0  0  0
  145.9409  129.0833  153.4764 H   0  0  0  0  0  0  0  0  0  0  0  0
  147.2947  128.9113  152.3515 H   0  0  0  0  0  0  0  0  0  0  0  0
  147.7662  134.6959  152.2983 H   0  0  0  0  0  0  0  0  0  0  0  0
  148.9496  135.6852  153.5232 H   0  0  0  0  0  0  0  0  0  0  0  0
  149.0643  135.0739  156.2889 H   0  0  0  0  0  0  0  0  0  0  0  0
  151.5040  134.5242  156.4577 H   0  0  0  0  0  0  0  0  0  0  0  0
  151.5960  134.4438  154.7003 H   0  0  0  0  0  0  0  0  0  0  0  0
  150.5886  133.3064  155.5845 H   0  0  0  0  0  0  0  0  0  0  0  0
  149.2217  137.3836  155.3213 H   0  0  0  0  0  0  0  0  0  0  0  0
  150.7330  136.7154  153.3724 H   0  0  0  0  0  0  0  0  0  0  0  0
  152.0877  136.7620  154.4910 H   0  0  0  0  0  0  0  0  0  0  0  0
  151.1538  138.2121  154.1369 H   0  0  0  0  0  0  0  0  0  0  0  0
  148.8618  137.1141  157.8840 H   0  0  0  0  0  0  0  0  0  0  0  0
  149.8420  135.6634  157.8969 H   0  0  0  0  0  0  0  0  0  0  0  0
  150.3921  138.2718  159.4156 H   0  0  0  0  0  0  0  0  0  0  0  0
  149.8669  136.7486  160.1093 H   0  0  0  0  0  0  0  0  0  0  0  0
  152.6582  138.3776  158.4618 H   0  0  0  0  0  0  0  0  0  0  0  0
  153.6375  136.9235  158.5164 H   0  0  0  0  0  0  0  0  0  0  0  0
  152.1674  135.7792  156.9060 H   0  0  0  0  0  0  0  0  0  0  0  0
  152.7167  137.3135  156.2634 H   0  0  0  0  0  0  0  0  0  0  0  0
  145.8113  134.3676  151.0964 H   0  0  0  0  0  0  0  0  0  0  0  0
  1  2  1  0  0  0  0
  1 23  1  0  0  0  0
  1 24  1  0  0  0  0
  1 25  1  0  0  0  0
  2 22  1  0  0  0  0
  2  3  2  0  0  0  0
  3  4  1  0  0  0  0
  3 26  1  0  0  0  0
  4  5  1  0  0  0  0
  4  6  2  0  0  0  0
  5 27  1  0  0  0  0
  5 28  1  0  0  0  0
  5 29  1  0  0  0  0
  6  7  1  0  0  0  0
  7  8  1  0  0  0  0
  7 22  2  0  0  0  0
  8  9  1  0  0  0  0
  8 30  1  0  0  0  0
  9 10  2  0  0  0  0
  9 11  1  0  0  0  0
 11 12  1  0  0  0  0
 11 31  1  0  0  0  0
 12 13  1  0  0  0  0
 12 14  1  0  0  0  0
 12 32  1  0  0  0  0
 13 33  1  0  0  0  0
 13 34  1  0  0  0  0
 13 35  1  0  0  0  0
 14 15  1  0  0  0  0
 14 16  1  0  0  0  0
 14 36  1  0  0  0  0
 15 37  1  0  0  0  0
 15 38  1  0  0  0  0
 15 39  1  0  0  0  0
 16 21  1  0  0  0  0
 16 17  1  0  0  0  0
 17 18  1  0  0  0  0
 17 40  1  0  0  0  0
 17 41  1  0  0  0  0
 18 19  1  0  0  0  0
 18 42  1  0  0  0  0
 18 43  1  0  0  0  0
 19 20  1  0  0  0  0
 20 21  1  0  0  0  0
 20 44  1  0  0  0  0
 20 45  1  0  0  0  0
 21 46  1  0  0  0  0
 21 47  1  0  0  0  0
 22 48  1  0  0  0  0
M  END
> <s_m_source_file>
AV-unprocessed.smi

> <i_m_source_file_index>
2355

> <i_lp_mmshare_version>
43012

> <i_f3d_flags>
0

> <s_epik_input>
W0NIM11jMVtjSF1jKFtDSDNdKW5jKFtjSF0xKVtOSF1DKD1PKVtOSF1bQ0BIXShbQ0gzXSlbQ0BIXShbQ0gzXSlOMltDSDJdW0NIMl1PW0NIMl1bQ0gyXTI=

> <s_epik_cmdline>
J2VwaWtfcHl0aG9uJywgJy1waCcsICc3LjAnLCAnLXRuJywgJzgnLCAnLW1hJywgJzIwMCcsICctbWV0YWxfYmluZGluZycsICctaW1hZScsICc8aW5maWxlLm1hZT4nLCAnLW9tYWUnLCAnPG91dGZpbGUubWFlPic=

> <r_epik_Ionization_Penalty>
0.266238

> <r_epik_Ionization_Penalty_Charging>
0

> <r_epik_Ionization_Penalty_Neutral>
0.266238

> <r_epik_State_Penalty>
0.257924

> <r_epik_Charging_Adjusted_Penalty>
0.257924

> <i_epik_Tot_Q>
0

> <i_epik_Tot_abs_Q>
0

> <r_epik_Metal_State_Penalty>
0.257904

> <b_epik_Metal_Only>
0

> <s_lp_Force_Field>
OPLS_2005

> <r_lp_Energy>
33.1774

> <b_lp_Chiralities_Consistent>
1

> <s_lp_Variant>
AV-unprocessed.smi:2355-2

> <Gold.Version>
5.8.1

> <Gold.Id.Protein>
6NUR|6NUR_protein|mol2

> <Gold.PLP.Fitness>
42.2676

> <Gold.PLP.PLP>
-34.2844

> <Gold.PLP.part.hbond>
-3.0000

> <Gold.PLP.part.metal>
0.0000

> <Gold.PLP.part.buried>
-5.1560

> <Gold.PLP.part.nonpolar>
-26.4460

> <Gold.PLP.part.repulsive>
0.1440

> <Gold.PLP.ligand.clash>
0.0000

> <Gold.PLP.ligand.torsion>
0.4989

> <Gold.PLP.Chemscore.Hbond>
2.9600

> <Gold.PLP.Chemscore.CHOScore>
0.0000

> <Gold.PLP.Chemscore.Metal>
0.0000

> <Gold.Chemscore.Hbonds>
donor molecule, donor type, donor heavy atom, donor atom, acceptor molecule, acceptor atom, score
      L1  H     8    30       P1  7948  0.93
      L1  H    11    31       P1  7948  1.00
      P1  H  6896  6909       L1    19  0.35

> <Gold.PLP.Chemscore.Internal.Correction>
0.1010

> <Gold.Rescore>
     Score         DG    S(hbond)    S(metal)    S(lipo)     H(rot)  DE(clash)    DE(int)     intcor
     18.73     -20.48       2.41        0.00      90.04       1.40       0.02       1.73       ----

> <Gold.Chemscore.Fitness>
18.7303

> <Gold.Chemscore.DG>
-20.4799

> <Gold.Chemscore.ZeroCoef>
-5.4800

> <Gold.Chemscore.Hbond>
2.4111

> <Gold.Chemscore.Metal>
0.0000

> <Gold.Chemscore.Lipo>
90.0384

> <Gold.Chemscore.Internal_Hbond>
0.0000

> <Gold.Chemscore.DEClash>
0.0154

> <Gold.Chemscore.DEInternal>
1.7341

> <Gold.Chemscore.Rot>
1.4015

> <Gold.Chemscore.Internal.Correction>
   9.000000E+99

> <Gold.Chemscore.Hbonds>
donor molecule, donor type, donor heavy atom, donor atom, acceptor molecule, acceptor atom, score
      L1  H     8    30       P1  7948  0.62
      L1  H    11    31       P1  7948  0.86
      P1  H  6896  6909       L1    19  0.01

> <Gold.Chemscore.Hbond.Weighted>
-8.0531

> <Gold.Chemscore.Metal.Weighted>
-0.0000

> <Gold.Chemscore.Lipo.Weighted>
-10.5345

> <Gold.Chemscore.Internal_Hbond.Weighted>
0.0000

> <Gold.Chemscore.DEClash.Weighted>
0.0154

> <Gold.Chemscore.DEInternal.Weighted>
1.7341

> <Gold.Chemscore.Rot.Weighted>
3.5878

> <Gold.Chemscore.Internal.Correction.Weighted>
   9.000000E+99

> <Gold.Protein.RotatedTorsions>
[ 6907 6896 6895 6894 ] final   95.34 input  -60.11 | X-H torsion
[ 7974 7965 7964 7962 ] final  115.78 input  175.53 | X-H torsion
[ 8008 7997 7996 7995 ] final   92.89 input   59.86 | X-H torsion
[ 10167 10162 10161 10158 ] final    9.44 input  -65.29 | X-H torsion
[ 10718 10713 10712 10709 ] final   31.55 input   66.30 | X-H torsion
[ 10763 10752 10751 10750 ] final -171.35 input  -60.55 | X-H torsion
[ 11005 11000 10999 10996 ] final  -50.04 input  -57.11 | X-H torsion

> <Gold.Protein.ActiveResidues>
 VAL166  LYS551  ARG553  GLY616  TRP617  ASP618  TYR619  PRO620  LYS621  CYS622 
 ASP623  PHE694  ASN695  SER759  ASP760  ASP761  ALA762  ILE779  LEU786  VAL792 
 PHE793  MET794  SER795  GLU796  ALA797  LYS798  CYS799  TRP800  GLU811  SER814 

> <Gold.Protein.RotatedAtoms>
  152.5444  134.1055  159.8335 H   0  0  0  0  0  0  0  0  0  0  0  0  # atno 6907 bound_to 6896
  151.1127  133.5153  159.2612 H   0  0  0  0  0  0  0  0  0  0  0  0  # atno 6908 bound_to 6896
  151.1866  135.0393  159.8869 H   0  0  0  0  0  0  0  0  0  0  0  0  # atno 6909 bound_to 6896
  145.1877  139.3016  143.4384 H   0  0  0  0  0  0  0  0  0  0  0  0  # atno 7974 bound_to 7965
  156.0405  140.3320  155.7238 H   0  0  0  0  0  0  0  0  0  0  0  0  # atno 8008 bound_to 7997
  155.5751  140.0631  157.2814 H   0  0  0  0  0  0  0  0  0  0  0  0  # atno 8009 bound_to 7997
  154.4391  140.1854  156.0908 H   0  0  0  0  0  0  0  0  0  0  0  0  # atno 8010 bound_to 7997
  140.6254  143.8111  150.7227 H   0  0  0  0  0  0  0  0  0  0  0  0  # atno 10167 bound_to 10162
  157.2739  130.7221  149.6519 H   0  0  0  0  0  0  0  0  0  0  0  0  # atno 10718 bound_to 10713
  154.6315  135.2887  155.0211 H   0  0  0  0  0  0  0  0  0  0  0  0  # atno 10763 bound_to 10752
  154.1370  135.6524  153.4938 H   0  0  0  0  0  0  0  0  0  0  0  0  # atno 10764 bound_to 10752
  153.0282  135.5324  154.7144 H   0  0  0  0  0  0  0  0  0  0  0  0  # atno 10765 bound_to 10752
  141.0794  133.6657  156.3674 H   0  0  0  0  0  0  0  0  0  0  0  0  # atno 11005 bound_to 11000
  146.3442  140.2079  142.8590 LP  0  0  0  0  0  0  0  0  0  0  0  0  # atno 17320 bound_to 7965
  145.0072  140.8683  143.5246 LP  0  0  0  0  0  0  0  0  0  0  0  0  # atno 17321 bound_to 7965
  140.1711  143.4194  152.2000 LP  0  0  0  0  0  0  0  0  0  0  0  0  # atno 17342 bound_to 10162
  139.5476  144.7311  151.4536 LP  0  0  0  0  0  0  0  0  0  0  0  0  # atno 17343 bound_to 10162
  155.9663  130.4359  150.5111 LP  0  0  0  0  0  0  0  0  0  0  0  0  # atno 17370 bound_to 10713
  157.3041  131.0651  151.2047 LP  0  0  0  0  0  0  0  0  0  0  0  0  # atno 17371 bound_to 10713
  140.5502  134.6035  157.5405 LP  0  0  0  0  0  0  0  0  0  0  0  0  # atno 17394 bound_to 11000
  139.9607  134.7458  156.0244 LP  0  0  0  0  0  0  0  0  0  0  0  0  # atno 17395 bound_to 11000

$$$$
