#       Name:                AV-unprocessed.smi:1816
#       Creating user name   scv26
#       Creation time:       Fri Mar 27 09:02:57 2020


#       File generated by GOLD software.
#

@<TRIPOS>MOLECULE
AV-unprocessed.smi:1816
    39    40     1
SMALL
NO_CHARGES


@<TRIPOS>ATOM
      1 ****        -1.7618   1.0561   0.2265 C.3            1 S1                 0.0000
      2 ****        -1.2095  -0.3871   0.2595 C.3            1 S1                 0.0000
      3 ****         0.3379  -0.3851   0.2303 C.3            1 S1                 0.0000
      4 ****         0.8621   0.3062  -0.9435 N.am           1 S1                 0.0000
      5 ****         2.0417   0.9406  -0.9943 C.2            1 S1                 0.0000
      6 ****         2.8249   0.9909  -0.0457 O.2            1 S1                 0.0000
      7 ****         2.2430   1.5004  -2.2001 N.am           1 S1                 0.0000
      8 ****         3.3457   2.2847  -2.6298 C.2            1 S1                 0.0000
      9 ****         4.3857   2.6131  -1.8545 N.2            1 S1                 0.0000
     10 ****         5.3198   3.3980  -2.5353 C.2            1 S1                 0.0000
     11 ****         4.9721   3.6595  -3.8372 C.2            1 S1                 0.0000
     12 ****         3.4487   2.9264  -4.2626 S.3            1 S1                 0.0000
     13 ****        -1.7217  -1.1268   1.4506 N.4            1 S1                 1.0000
     14 ****        -3.1946  -1.1779   1.5778 C.3            1 S1                 0.0000
     15 ****        -3.4992  -2.3302   2.5374 C.3            1 S1                 0.0000
     16 ****        -2.2528  -3.2185   2.5191 C.3            1 S1                 0.0000
     17 ****        -1.2726  -2.5319   1.5644 C.3            1 S1                 0.0000
     18 ****        -1.3967   1.6107  -0.6379 H              1 S1                 0.0000
     19 ****        -1.4700   1.6103   1.1193 H              1 S1                 0.0000
     20 ****        -2.8493   1.0777   0.1603 H              1 S1                 0.0000
     21 ****        -1.5663  -0.9041  -0.6331 H              1 S1                 0.0000
     22 ****         0.7154   0.0749   1.1455 H              1 S1                 0.0000
     23 ****         0.7331  -1.4004   0.2008 H              1 S1                 0.0000
     24 ****         0.2830   0.3095  -1.7705 H              1 S1                 0.0000
     25 ****         1.5178   1.3617  -2.8883 H              1 S1                 0.0000
     26 ****         6.2061   3.7293  -2.0147 H              1 S1                 0.0000
     27 ****         5.5172   4.2376  -4.5685 H              1 S1                 0.0000
     28 ****        -3.6061  -0.2351   1.9397 H              1 S1                 0.0000
     29 ****        -3.6371  -1.3890   0.6028 H              1 S1                 0.0000
     30 ****        -3.6669  -1.9488   3.5455 H              1 S1                 0.0000
     31 ****        -4.3965  -2.8732   2.2385 H              1 S1                 0.0000
     32 ****        -1.8269  -3.2801   3.5215 H              1 S1                 0.0000
     33 ****        -2.4783  -4.2352   2.1954 H              1 S1                 0.0000
     34 ****        -1.3225  -3.0110   0.5851 H              1 S1                 0.0000
     35 ****        -0.2459  -2.6041   1.9242 H              1 S1                 0.0000
     36 ****        -1.3804  -0.6505   2.2735 H              1 S1                 0.0000
     37 ****         2.5932   0.5439   0.8182 LP             1 S1                 0.0000
     38 ****         3.6928   1.4789  -0.1392 LP             1 S1                 0.0000
     39 ****         4.4829   2.3301  -0.9004 LP             1 S1                 0.0000
@<TRIPOS>BOND
    1    1    2 1     
    2    1   18 1     
    3    1   19 1     
    4    1   20 1     
    5    2    3 1     
    6    2   13 1     
    7    2   21 1     
    8    3    4 1     
    9    3   22 1     
   10    3   23 1     
   11    4    5 am    
   12    4   24 1     
   13    5    6 2     
   14    5    7 am    
   15    7    8 1     
   16    7   25 1     
   17    8   12 1     
   18    8    9 2     
   19    9   10 1     
   20   10   11 2     
   21   10   26 1     
   22   11   12 1     
   23   11   27 1     
   24   13   17 1     
   25   13   14 1     
   26   13   36 1     
   27   14   15 1     
   28   14   28 1     
   29   14   29 1     
   30   15   16 1     
   31   15   30 1     
   32   15   31 1     
   33   16   17 1     
   34   16   32 1     
   35   16   33 1     
   36   17   34 1     
   37   17   35 1     
   38    6   37 1     
   39    6   38 1     
   40    9   39 1     
@<TRIPOS>SUBSTRUCTURE
      1 S1             1
@<TRIPOS>SET
LONE_PAIRS      STATIC     ATOMS    <user>   **** ""
3 37 38 39
DONOR_HYDROGENS      STATIC     ATOMS    <user>   **** ""
3 24 25 36
ATOM$BLUE        STATIC     ATOMS    COLORGROUP SYSTEM
3 37 38 39
ATOM$RED        STATIC     ATOMS    COLORGROUP SYSTEM
3 24 25 36
