#       Name:                AV-unprocessed.smi:3045
#       Creating user name   scv26
#       Creation time:       Fri Mar 27 16:59:07 2020


#       File generated by GOLD software.
#

@<TRIPOS>MOLECULE
AV-unprocessed.smi:3045
    40    41     1
SMALL
NO_CHARGES


@<TRIPOS>ATOM
      1 ****        -4.1488   1.9988   0.8967 C.3            1 S1                 0.0000
      2 ****        -3.1427   0.9599   0.7243 N.am           1 S1                 0.0000
      3 ****        -2.2892   0.5504   1.8268 C.3            1 S1                 0.0000
      4 ****        -1.2646  -0.4300   1.2136 C.3            1 S1                 0.0000
      5 ****         0.1533   0.1575   1.1486 C.2            1 S1                 0.0000
      6 ****         0.3390   1.2744   0.6642 O.2            1 S1                 0.0000
      7 ****         1.1435  -0.6167   1.6208 N.am           1 S1                 0.0000
      8 ****         2.5671  -0.2910   1.5818 C.3            1 S1                 0.0000
      9 ****         3.2805  -0.9401   0.3794 C.3            1 S1                 0.0000
     10 ****         2.6839  -0.5567  -0.9640 C.ar           1 S1                 0.0000
     11 ****         1.8985  -1.4695  -1.6986 C.ar           1 S1                 0.0000
     12 ****         1.3437  -1.0542  -2.9241 C.ar           1 S1                 0.0000
     13 ****         1.6010   0.2588  -3.3658 C.ar           1 S1                 0.0000
     14 ****         2.3559   1.1394  -2.6744 N.ar           1 S1                 0.0000
     15 ****         2.8829   0.7336  -1.4993 C.ar           1 S1                 0.0000
     16 ****        -1.7998  -0.7397  -0.1994 C.3            1 S1                 0.0000
     17 ****        -2.9315   0.2554  -0.3910 C.2            1 S1                 0.0000
     18 ****        -3.5449   0.3730  -1.4506 O.2            1 S1                 0.0000
     19 ****        -5.1487   1.5634   0.8881 H              1 S1                 0.0000
     20 ****        -4.0866   2.7336   0.0931 H              1 S1                 0.0000
     21 ****        -4.0148   2.5231   1.8434 H              1 S1                 0.0000
     22 ****        -1.8244   1.4192   2.2965 H              1 S1                 0.0000
     23 ****        -2.8948   0.0527   2.5854 H              1 S1                 0.0000
     24 ****        -1.2416  -1.3455   1.8074 H              1 S1                 0.0000
     25 ****         0.8954  -1.5177   2.0031 H              1 S1                 0.0000
     26 ****         2.7143   0.7903   1.5666 H              1 S1                 0.0000
     27 ****         3.0214  -0.6433   2.5080 H              1 S1                 0.0000
     28 ****         4.3341  -0.6590   0.3842 H              1 S1                 0.0000
     29 ****         3.2571  -2.0257   0.4826 H              1 S1                 0.0000
     30 ****         1.7140  -2.4666  -1.3266 H              1 S1                 0.0000
     31 ****         0.7322  -1.7242  -3.5102 H              1 S1                 0.0000
     32 ****         1.1899   0.6109  -4.3003 H              1 S1                 0.0000
     33 ****         3.4724   1.4639  -0.9647 H              1 S1                 0.0000
     34 ****        -1.0541  -0.6221  -0.9875 H              1 S1                 0.0000
     35 ****        -2.1931  -1.7551  -0.2573 H              1 S1                 0.0000
     36 ****        -0.4343   1.8014   0.3118 LP             1 S1                 0.0000
     37 ****         1.2631   1.6542   0.6232 LP             1 S1                 0.0000
     38 ****         2.5195   2.0628  -3.0217 LP             1 S1                 0.0000
     39 ****        -4.2794   1.0468  -1.5311 LP             1 S1                 0.0000
     40 ****        -3.3092  -0.2053  -2.2317 LP             1 S1                 0.0000
@<TRIPOS>BOND
    1    1    2 1     
    2    1   19 1     
    3    1   20 1     
    4    1   21 1     
    5    2   17 am    
    6    2    3 1     
    7    3    4 1     
    8    3   22 1     
    9    3   23 1     
   10    4    5 1     
   11    4   16 1     
   12    4   24 1     
   13    5    6 2     
   14    5    7 am    
   15    7    8 1     
   16    7   25 1     
   17    8    9 1     
   18    8   26 1     
   19    8   27 1     
   20    9   10 1     
   21    9   28 1     
   22    9   29 1     
   23   10   15 ar    
   24   10   11 ar    
   25   11   12 ar    
   26   11   30 1     
   27   12   13 ar    
   28   12   31 1     
   29   13   14 ar    
   30   13   32 1     
   31   14   15 ar    
   32   15   33 1     
   33   16   17 1     
   34   16   34 1     
   35   16   35 1     
   36   17   18 2     
   37    6   36 1     
   38    6   37 1     
   39   14   38 1     
   40   18   39 1     
   41   18   40 1     
@<TRIPOS>SUBSTRUCTURE
      1 S1             1
@<TRIPOS>SET
LONE_PAIRS      STATIC     ATOMS    <user>   **** ""
5 36 37 38 39 40
DONOR_HYDROGENS      STATIC     ATOMS    <user>   **** ""
1 25
ATOM$BLUE        STATIC     ATOMS    COLORGROUP SYSTEM
5 36 37 38 39 40
ATOM$RED        STATIC     ATOMS    COLORGROUP SYSTEM
1 25
