AV-unprocessed.smi:44|AV-procd|sdf|398|dock4
  -GOLD-   2262016253D 1   1.00000     0.00000
 Structure written by MMmdl.
 29 31  0  0  0  0  0  0  0  0  1 V2000
  152.6066  137.6753  154.9496 O   0  0  0  0  0  0  0  0  0  0  0  0
  152.0814  138.7858  154.9943 C   0  0  0  0  0  0  0  0  0  0  0  0
  151.4589  139.3668  153.9395 N   0  0  0  0  0  0  0  0  0  0  0  0
  150.8520  140.6477  153.9845 C   0  0  0  0  0  0  0  0  0  0  0  0
  150.8148  141.4244  155.0366 N   0  0  0  0  0  0  0  0  0  0  0  0
  151.4428  140.8548  156.1259 C   0  0  0  0  0  0  0  0  0  0  0  0
  152.0607  139.6362  156.2073 C   0  0  0  0  0  0  0  0  0  0  0  0
  152.5794  139.4161  157.4768 N   0  0  0  0  0  0  0  0  0  0  0  0
  152.2438  140.5348  158.1163 C   0  0  0  0  0  0  0  0  0  0  0  0
  151.5691  141.4424  157.3805 N   0  0  0  0  0  0  0  0  0  0  0  0
  151.0574  142.7865  157.7997 C   0  0  2  0  0  0  0  0  0  0  0  0
  152.1686  143.8266  157.6511 C   0  0  0  0  0  0  0  0  0  0  0  0
  152.8346  143.7452  159.0063 C   0  0  0  0  0  0  0  0  0  0  0  0
  151.6274  143.5468  159.9224 C   0  0  2  0  0  0  0  0  0  0  0  0
  151.9773  142.8780  161.2603 C   0  0  0  0  0  0  0  0  0  0  0  0
  150.8212  142.7632  162.0612 O   0  0  0  0  0  0  0  0  0  0  0  0
  150.7369  142.7287  159.1606 O   0  0  0  0  0  0  0  0  0  0  0  0
  151.4309  138.8501  153.0727 H   0  0  0  0  0  0  0  0  0  0  0  0
  150.1825  142.9625  157.1730 H   0  0  0  0  0  0  0  0  0  0  0  0
  151.1549  144.5171  160.0867 H   0  0  0  0  0  0  0  0  0  0  0  0
  150.4042  140.9389  153.0333 H   0  0  0  0  0  0  0  0  0  0  0  0
  152.5005  140.6947  159.1522 H   0  0  0  0  0  0  0  0  0  0  0  0
  152.8315  143.6102  156.8125 H   0  0  0  0  0  0  0  0  0  0  0  0
  151.7145  144.8070  157.5019 H   0  0  0  0  0  0  0  0  0  0  0  0
  153.5023  142.8833  159.0486 H   0  0  0  0  0  0  0  0  0  0  0  0
  153.4121  144.6370  159.2517 H   0  0  0  0  0  0  0  0  0  0  0  0
  152.4357  141.9004  161.1137 H   0  0  0  0  0  0  0  0  0  0  0  0
  152.6934  143.4912  161.8085 H   0  0  0  0  0  0  0  0  0  0  0  0
  150.6681  143.5915  162.4895 H   0  0  0  0  0  0  0  0  0  0  0  0
  1  2  2  0  0  0  0
  2  7  1  0  0  0  0
  2  3  1  0  0  0  0
  3 18  1  0  0  0  0
  3  4  1  0  0  0  0
  4  5  2  0  0  0  0
  4 21  1  0  0  0  0
  5  6  1  0  0  0  0
  6 10  1  0  0  0  0
  6  7  2  0  0  0  0
  7  8  1  0  0  0  0
  8  9  2  0  0  0  0
  9 10  1  0  0  0  0
  9 22  1  0  0  0  0
 10 11  1  0  0  0  0
 11 19  1  0  0  0  0
 11 17  1  0  0  0  0
 11 12  1  0  0  0  0
 12 13  1  0  0  0  0
 12 23  1  0  0  0  0
 12 24  1  0  0  0  0
 13 14  1  0  0  0  0
 13 25  1  0  0  0  0
 13 26  1  0  0  0  0
 14 20  1  0  0  0  0
 14 15  1  0  0  0  0
 14 17  1  0  0  0  0
 15 16  1  0  0  0  0
 15 27  1  0  0  0  0
 15 28  1  0  0  0  0
 16 29  1  0  0  0  0
M  END
> <s_m_source_file>
AV-unprocessed.smi

> <i_m_source_file_index>
44

> <i_lp_mmshare_version>
43012

> <i_f3d_flags>
0

> <s_epik_input>
bjFbY0hdW25IXWMoPU8pYyhjMTIpbltjSF1uMltDQEhdM1tDSDJdW0NIMl1bQ0BIXShPMylbQ0gyXVtPSF0=

> <s_epik_cmdline>
J2VwaWtfcHl0aG9uJywgJy1waCcsICc3LjAnLCAnLXRuJywgJzgnLCAnLW1hJywgJzIwMCcsICctbWV0YWxfYmluZGluZycsICctaW1hZScsICc8aW5maWxlLm1hZT4nLCAnLW9tYWUnLCAnPG91dGZpbGUubWFlPic=

> <r_lp_tautomer_probability>
0.85571

> <r_epik_Ionization_Penalty>
0.00801444

> <r_epik_Ionization_Penalty_Charging>
0.00794574

> <r_epik_Ionization_Penalty_Neutral>
6.87072e-05

> <r_epik_State_Penalty>
0.0826172

> <r_epik_Charging_Adjusted_Penalty>
0.090563

> <i_epik_Tot_Q>
0

> <i_epik_Tot_abs_Q>
0

> <r_epik_Metal_State_Penalty>
0.440697

> <b_epik_Metal_Only>
0

> <s_epik_Chemistry_Notes>
This compound contains an acetal/aminal-like group ( X-CH(R)-Y where X, Y are N, S, or O) that may be acid/base labile, releasing an aldehyde.

> <s_lp_Force_Field>
OPLS_2005

> <r_lp_Energy>
40.4283

> <b_lp_Chiralities_Consistent>
1

> <s_lp_Variant>
AV-unprocessed.smi:44-4

> <Gold.Version>
5.8.1

> <Gold.Id.Protein>
6NUR|6NUR_protein|mol2

> <Gold.PLP.Fitness>
45.8557

> <Gold.PLP.PLP>
-37.2200

> <Gold.PLP.part.hbond>
-5.0161

> <Gold.PLP.part.metal>
0.0000

> <Gold.PLP.part.buried>
-3.4295

> <Gold.PLP.part.nonpolar>
-29.0026

> <Gold.PLP.part.repulsive>
0.2433

> <Gold.PLP.ligand.clash>
0.0000

> <Gold.PLP.ligand.torsion>
0.7319

> <Gold.PLP.Chemscore.Hbond>
2.3605

> <Gold.PLP.Chemscore.CHOScore>
1.0000

> <Gold.PLP.Chemscore.Metal>
0.0000

> <Gold.Chemscore.Hbonds>
donor molecule, donor type, donor heavy atom, donor atom, acceptor molecule, acceptor atom, score
      P1  H  6933  6945       L1    16  0.20
      P1  H  7997  8010       L1     8  0.40
      P1  H 10752 10764       L1     1  0.39
      L1  C     4    21       P1  7957  1.00

> <Gold.PLP.Chemscore.Internal.Correction>
0.0179

> <Gold.Rescore>
     Score         DG    S(hbond)    S(metal)    S(lipo)     H(rot)  DE(clash)    DE(int)     intcor
      7.70      -9.68       1.05        0.00      55.79       2.27       1.28       0.70       ----

> <Gold.Chemscore.Fitness>
7.7045

> <Gold.Chemscore.DG>
-9.6833

> <Gold.Chemscore.ZeroCoef>
-5.4800

> <Gold.Chemscore.Hbond>
1.0458

> <Gold.Chemscore.Metal>
0.0000

> <Gold.Chemscore.Lipo>
55.7850

> <Gold.Chemscore.Internal_Hbond>
0.0000

> <Gold.Chemscore.DEClash>
1.2754

> <Gold.Chemscore.DEInternal>
0.7033

> <Gold.Chemscore.Rot>
2.2720

> <Gold.Chemscore.Internal.Correction>
   9.000000E+99

> <Gold.Chemscore.Hbonds>
donor molecule, donor type, donor heavy atom, donor atom, acceptor molecule, acceptor atom, score
      P1  H  6933  6945       L1    16  0.19
      P1  H 10752 10764       L1     1  0.38

> <Gold.Chemscore.Hbond.Weighted>
-3.4928

> <Gold.Chemscore.Metal.Weighted>
-0.0000

> <Gold.Chemscore.Lipo.Weighted>
-6.5268

> <Gold.Chemscore.Internal_Hbond.Weighted>
0.0000

> <Gold.Chemscore.DEClash.Weighted>
1.2754

> <Gold.Chemscore.DEInternal.Weighted>
0.7033

> <Gold.Chemscore.Rot.Weighted>
5.8164

> <Gold.Chemscore.Internal.Correction.Weighted>
   9.000000E+99

> <Gold.Protein.RotatedTorsions>
[ 6907 6896 6895 6894 ] final -118.77 input  -60.11 | X-H torsion
[ 7974 7965 7964 7962 ] final   37.94 input  175.53 | X-H torsion
[ 8008 7997 7996 7995 ] final   45.89 input   59.86 | X-H torsion
[ 10167 10162 10161 10158 ] final   38.29 input  -65.29 | X-H torsion
[ 10718 10713 10712 10709 ] final  106.69 input   66.30 | X-H torsion
[ 10763 10752 10751 10750 ] final  -55.88 input  -60.55 | X-H torsion
[ 11005 11000 10999 10996 ] final   11.78 input  -57.11 | X-H torsion

> <Gold.Protein.ActiveResidues>
 VAL166  LYS551  ARG553  GLY616  TRP617  ASP618  TYR619  PRO620  LYS621  CYS622 
 ASP623  PHE694  ASN695  SER759  ASP760  ASP761  ALA762  ILE779  LEU786  VAL792 
 PHE793  MET794  SER795  GLU796  ALA797  LYS798  CYS799  TRP800  GLU811  SER814 

> <Gold.Protein.RotatedAtoms>
  150.8248  133.8190  159.3123 H   0  0  0  0  0  0  0  0  0  0  0  0  # atno 6907 bound_to 6896
  151.5938  135.1050  160.0054 H   0  0  0  0  0  0  0  0  0  0  0  0  # atno 6908 bound_to 6896
  152.4334  133.7277  159.6626 H   0  0  0  0  0  0  0  0  0  0  0  0  # atno 6909 bound_to 6896
  146.1100  139.5833  142.9358 H   0  0  0  0  0  0  0  0  0  0  0  0  # atno 7974 bound_to 7965
  155.3434  140.3409  155.4239 H   0  0  0  0  0  0  0  0  0  0  0  0  # atno 8008 bound_to 7997
  156.1801  140.1661  156.8325 H   0  0  0  0  0  0  0  0  0  0  0  0  # atno 8009 bound_to 7997
  154.5325  140.0742  156.8352 H   0  0  0  0  0  0  0  0  0  0  0  0  # atno 8010 bound_to 7997
  140.3951  144.1800  150.6132 H   0  0  0  0  0  0  0  0  0  0  0  0  # atno 10167 bound_to 10162
  157.6658  131.0856  150.6045 H   0  0  0  0  0  0  0  0  0  0  0  0  # atno 10718 bound_to 10713
  154.1979  135.6416  153.5078 H   0  0  0  0  0  0  0  0  0  0  0  0  # atno 10763 bound_to 10752
  153.0019  135.5444  154.6346 H   0  0  0  0  0  0  0  0  0  0  0  0  # atno 10764 bound_to 10752
  154.5752  135.2920  155.0761 H   0  0  0  0  0  0  0  0  0  0  0  0  # atno 10765 bound_to 10752
  140.4994  134.0761  155.7790 H   0  0  0  0  0  0  0  0  0  0  0  0  # atno 11005 bound_to 11000
  145.5683  141.0397  143.2188 LP  0  0  0  0  0  0  0  0  0  0  0  0  # atno 17320 bound_to 7965
  144.7503  139.7211  143.7276 LP  0  0  0  0  0  0  0  0  0  0  0  0  # atno 17321 bound_to 7965
  140.4799  143.2383  151.8970 LP  0  0  0  0  0  0  0  0  0  0  0  0  # atno 17342 bound_to 10162
  139.4787  144.5280  151.8707 LP  0  0  0  0  0  0  0  0  0  0  0  0  # atno 17343 bound_to 10162
  156.6346  130.4441  149.5774 LP  0  0  0  0  0  0  0  0  0  0  0  0  # atno 17370 bound_to 10713
  156.2256  130.6763  151.1412 LP  0  0  0  0  0  0  0  0  0  0  0  0  # atno 17371 bound_to 10713
  141.1443  133.9082  157.2252 LP  0  0  0  0  0  0  0  0  0  0  0  0  # atno 17394 bound_to 11000
  139.9722  135.0125  156.9541 LP  0  0  0  0  0  0  0  0  0  0  0  0  # atno 17395 bound_to 11000

$$$$
