#       Name:                AV-unprocessed.smi:157
#       Creating user name   scv26
#       Creation time:       Thu Mar 26 19:00:43 2020


#       File generated by GOLD software.
#

@<TRIPOS>MOLECULE
AV-unprocessed.smi:157
    45    47     1
SMALL
NO_CHARGES


@<TRIPOS>ATOM
      1 ****        -4.9063   2.0075  -1.0580 O.3            1 S1                 0.0000
      2 ****        -3.7334   1.2246  -0.9821 C.3            1 S1                 0.0000
      3 ****        -2.4753   2.1120  -1.0693 C.3            1 S1                 0.0000
      4 ****        -1.3816   1.2499  -1.3941 O.3            1 S1                 0.0000
      5 ****        -0.4096   1.3019  -0.3958 C.3            1 S1                 0.0000
      6 ****         0.1155  -0.0778  -0.1717 N.pl3          1 S1                 0.0000
      7 ****        -0.6106  -1.2153  -0.1782 C.2            1 S1                 0.0000
      8 ****         0.0917  -2.3117   0.0516 N.pl3          1 S1                 1.0000
      9 ****         1.3974  -1.9079   0.2344 C.2            1 S1                 0.0000
     10 ****         1.3938  -0.5186   0.0833 C.2            1 S1                 0.0000
     11 ****         2.4543   0.3967   0.1669 N.2            1 S1                 0.0000
     12 ****         3.6967   0.0409   0.1123 C.2            1 S1                 0.0000
     13 ****         4.2390  -1.2325   0.0615 N.pl3          1 S1                 0.0000
     14 ****         3.8099  -2.3108   0.9344 C.3            1 S1                 0.0000
     15 ****         2.4567  -2.9193   0.5430 C.3            1 S1                 0.0000
     16 ****         2.6618  -3.8299  -0.5174 O.3            1 S1                 0.0000
     17 ****        -1.0999   1.8244   0.8560 C.3            1 S1                 0.0000
     18 ****        -2.0546   2.8194   0.2357 C.3            1 S1                 0.0000
     19 ****        -3.1144   3.1308   1.1171 O.3            1 S1                 0.0000
     20 ****        -2.5945   2.8382  -1.8745 H              1 S1                 0.0000
     21 ****         0.4366   1.9095  -0.7183 H              1 S1                 0.0000
     22 ****         2.1076  -3.5156   1.3869 H              1 S1                 0.0000
     23 ****        -1.5139   3.7356  -0.0067 H              1 S1                 0.0000
     24 ****        -5.6555   1.4327  -1.0165 H              1 S1                 0.0000
     25 ****        -3.7379   0.6255  -0.0712 H              1 S1                 0.0000
     26 ****        -3.7535   0.5285  -1.8212 H              1 S1                 0.0000
     27 ****        -1.6715  -1.2221  -0.3539 H              1 S1                 0.0000
     28 ****         4.4669   0.8135   0.1103 H              1 S1                 0.0000
     29 ****         5.2088  -1.3351  -0.2025 H              1 S1                 0.0000
     30 ****         4.5826  -3.0792   0.9762 H              1 S1                 0.0000
     31 ****         3.7350  -1.9025   1.9435 H              1 S1                 0.0000
     32 ****         1.8728  -4.3342  -0.6431 H              1 S1                 0.0000
     33 ****        -1.6400   1.0147   1.3500 H              1 S1                 0.0000
     34 ****        -0.3854   2.2644   1.5523 H              1 S1                 0.0000
     35 ****        -3.7222   3.6984   0.6671 H              1 S1                 0.0000
     36 ****        -0.2663  -3.2575   0.0929 H              1 S1                 0.0000
     37 ****        -4.9179   2.5144  -1.9199 LP             1 S1                 0.0000
     38 ****        -4.9323   2.6507  -0.2927 LP             1 S1                 0.0000
     39 ****        -0.9788   1.5411  -2.2619 LP             1 S1                 0.0000
     40 ****        -1.7159   0.3114  -1.4801 LP             1 S1                 0.0000
     41 ****         2.2398   1.3676   0.2734 LP             1 S1                 0.0000
     42 ****         3.4197  -4.4422  -0.2926 LP             1 S1                 0.0000
     43 ****         2.8764  -3.3274  -1.3550 LP             1 S1                 0.0000
     44 ****        -2.7547   3.5956   1.9261 LP             1 S1                 0.0000
     45 ****        -3.5800   2.2906   1.3948 LP             1 S1                 0.0000
@<TRIPOS>BOND
    1    1    2 1     
    2    1   24 1     
    3    2    3 1     
    4    2   25 1     
    5    2   26 1     
    6    3   20 1     
    7    3   18 1     
    8    3    4 1     
    9    4    5 1     
   10    5   21 1     
   11    5    6 1     
   12    5   17 1     
   13    6   10 1     
   14    6    7 1     
   15    7    8 2     
   16    7   27 1     
   17    8    9 1     
   18    8   36 1     
   19    9   15 1     
   20    9   10 2     
   21   10   11 1     
   22   11   12 2     
   23   12   13 1     
   24   12   28 1     
   25   13   14 1     
   26   13   29 1     
   27   14   15 1     
   28   14   30 1     
   29   14   31 1     
   30   15   22 1     
   31   15   16 1     
   32   16   32 1     
   33   17   18 1     
   34   17   33 1     
   35   17   34 1     
   36   18   23 1     
   37   18   19 1     
   38   19   35 1     
   39    1   37 1     
   40    1   38 1     
   41    4   39 1     
   42    4   40 1     
   43   11   41 1     
   44   16   42 1     
   45   16   43 1     
   46   19   44 1     
   47   19   45 1     
@<TRIPOS>SUBSTRUCTURE
      1 S1             1
@<TRIPOS>SET
LONE_PAIRS      STATIC     ATOMS    <user>   **** ""
9 37 38 39 40 41 42 43 44 45
DONOR_HYDROGENS      STATIC     ATOMS    <user>   **** ""
5 24 36 29 32 35
ATOM$BLUE        STATIC     ATOMS    COLORGROUP SYSTEM
9 37 38 39 40 41 42 43 44 45
ATOM$RED        STATIC     ATOMS    COLORGROUP SYSTEM
5 24 36 29 32 35
