AV-unprocessed.smi:1005|AV-procd|sdf|4377|dock2
  -GOLD-   22720 2293D 1   1.00000     0.00000
 Structure written by MMmdl.
 57 59  0  0  0  0  0  0  0  0  3 V2000
  152.2599  144.1422  161.0088 C   0  0  0  0  0  0  0  0  0  0  0  0
  152.0622  143.2204  159.8176 C   0  0  0  0  0  0  0  0  0  0  0  0
  151.2195  143.6477  158.7668 C   0  0  0  0  0  0  0  0  0  0  0  0
  151.0572  142.7820  157.6918 C   0  0  0  0  0  0  0  0  0  0  0  0
  150.3026  142.9085  156.5237 N   0  3  0  0  0  0  0  0  0  0  0  0
  150.4554  141.7911  155.7610 C   0  0  0  0  0  0  0  0  0  0  0  0
  151.2961  140.9518  156.4247 N   0  0  0  0  0  0  0  0  0  0  0  0
  151.7844  139.6214  156.0348 C   0  0  0  0  0  0  0  0  0  0  0  0
  150.7382  138.8070  155.2490 C   0  0  1  0  0  0  0  0  0  0  0  0
  150.7634  139.2618  153.9118 O   0  0  0  0  0  0  0  0  0  0  0  0
  151.0054  137.2850  155.2607 C   0  0  0  0  0  0  0  0  0  0  0  0
  149.8206  136.4331  155.1484 N   0  0  0  0  0  0  0  0  0  0  0  0
  149.0149  136.4236  156.3679 C   0  0  0  0  0  0  0  0  0  0  0  0
  147.7967  135.4933  156.2429 C   0  0  0  0  0  0  0  0  0  0  0  0
  148.2302  134.1820  155.8976 O   0  0  0  0  0  0  0  0  0  0  0  0
  148.9651  134.1423  154.6771 C   0  0  2  0  0  0  0  0  0  0  0  0
  149.3712  132.6823  154.4070 C   0  0  0  0  0  0  0  0  0  0  0  0
  148.2090  131.8086  154.1031 N   0  3  0  0  0  0  0  0  0  0  0  0
  147.3461  132.3279  153.0167 C   0  0  0  0  0  0  0  0  0  0  0  0
  148.6180  130.4098  153.8476 C   0  0  0  0  0  0  0  0  0  0  0  0
  150.1946  135.0619  154.8191 C   0  0  0  0  0  0  0  0  0  0  0  0
  151.7000  141.5297  157.6351 C   0  0  0  0  0  0  0  0  0  0  0  0
  152.5345  141.0943  158.6625 C   0  0  0  0  0  0  0  0  0  0  0  0
  152.7108  141.9594  159.7660 C   0  0  0  0  0  0  0  0  0  0  0  0
  153.6122  141.5083  160.9030 C   0  0  0  0  0  0  0  0  0  0  0  0
  151.6873  145.0637  160.8997 H   0  0  0  0  0  0  0  0  0  0  0  0
  153.3108  144.4137  161.1125 H   0  0  0  0  0  0  0  0  0  0  0  0
  151.9347  143.6555  161.9285 H   0  0  0  0  0  0  0  0  0  0  0  0
  150.7218  144.6060  158.7993 H   0  0  0  0  0  0  0  0  0  0  0  0
  149.9926  141.6041  154.8025 H   0  0  0  0  0  0  0  0  0  0  0  0
  152.6697  139.7799  155.4170 H   0  0  0  0  0  0  0  0  0  0  0  0
  152.1255  139.0836  156.9193 H   0  0  0  0  0  0  0  0  0  0  0  0
  149.7561  139.0315  155.6631 H   0  0  0  0  0  0  0  0  0  0  0  0
  150.7045  138.5144  153.3366 H   0  0  0  0  0  0  0  0  0  0  0  0
  151.6899  137.0595  154.4415 H   0  0  0  0  0  0  0  0  0  0  0  0
  151.5387  137.0146  156.1721 H   0  0  0  0  0  0  0  0  0  0  0  0
  149.6262  136.1051  157.2136 H   0  0  0  0  0  0  0  0  0  0  0  0
  148.6590  137.4264  156.5994 H   0  0  0  0  0  0  0  0  0  0  0  0
  147.2528  135.4525  157.1867 H   0  0  0  0  0  0  0  0  0  0  0  0
  147.1018  135.8652  155.4884 H   0  0  0  0  0  0  0  0  0  0  0  0
  148.3414  134.5183  153.8657 H   0  0  0  0  0  0  0  0  0  0  0  0
  150.0892  132.6293  153.5872 H   0  0  0  0  0  0  0  0  0  0  0  0
  149.8863  132.3038  155.2912 H   0  0  0  0  0  0  0  0  0  0  0  0
  147.9032  132.4176  152.0832 H   0  0  0  0  0  0  0  0  0  0  0  0
  146.9311  133.3042  153.2638 H   0  0  0  0  0  0  0  0  0  0  0  0
  146.5038  131.6569  152.8446 H   0  0  0  0  0  0  0  0  0  0  0  0
  149.2466  130.3433  152.9585 H   0  0  0  0  0  0  0  0  0  0  0  0
  147.7454  129.7729  153.6980 H   0  0  0  0  0  0  0  0  0  0  0  0
  149.1763  130.0071  154.6935 H   0  0  0  0  0  0  0  0  0  0  0  0
  150.7593  135.0505  153.8858 H   0  0  0  0  0  0  0  0  0  0  0  0
  150.8587  134.6661  155.5895 H   0  0  0  0  0  0  0  0  0  0  0  0
  153.0276  140.1343  158.6285 H   0  0  0  0  0  0  0  0  0  0  0  0
  154.0377  140.5233  160.7091 H   0  0  0  0  0  0  0  0  0  0  0  0
  153.0516  141.4506  161.8362 H   0  0  0  0  0  0  0  0  0  0  0  0
  154.4386  142.2067  161.0372 H   0  0  0  0  0  0  0  0  0  0  0  0
  147.6444  131.7848  154.9410 H   0  0  0  0  0  0  0  0  0  0  0  0
  149.7255  143.6981  156.2632 H   0  0  0  0  0  0  0  0  0  0  0  0
  1  2  1  0  0  0  0
  1 26  1  0  0  0  0
  1 27  1  0  0  0  0
  1 28  1  0  0  0  0
  2 24  1  0  0  0  0
  2  3  2  0  0  0  0
  3  4  1  0  0  0  0
  3 29  1  0  0  0  0
  4 22  2  0  0  0  0
  4  5  1  0  0  0  0
  5  6  2  0  0  0  0
  5 57  1  0  0  0  0
  6  7  1  0  0  0  0
  6 30  1  0  0  0  0
  7  8  1  0  0  0  0
  7 22  1  0  0  0  0
  8  9  1  0  0  0  0
  8 31  1  0  0  0  0
  8 32  1  0  0  0  0
  9 10  1  0  0  0  0
  9 11  1  0  0  0  0
  9 33  1  0  0  0  0
 10 34  1  0  0  0  0
 11 12  1  0  0  0  0
 11 35  1  0  0  0  0
 11 36  1  0  0  0  0
 12 21  1  0  0  0  0
 12 13  1  0  0  0  0
 13 14  1  0  0  0  0
 13 37  1  0  0  0  0
 13 38  1  0  0  0  0
 14 15  1  0  0  0  0
 14 39  1  0  0  0  0
 14 40  1  0  0  0  0
 15 16  1  0  0  0  0
 16 17  1  0  0  0  0
 16 21  1  0  0  0  0
 16 41  1  0  0  0  0
 17 18  1  0  0  0  0
 17 42  1  0  0  0  0
 17 43  1  0  0  0  0
 18 19  1  0  0  0  0
 18 20  1  0  0  0  0
 18 56  1  0  0  0  0
 19 44  1  0  0  0  0
 19 45  1  0  0  0  0
 19 46  1  0  0  0  0
 20 47  1  0  0  0  0
 20 48  1  0  0  0  0
 20 49  1  0  0  0  0
 21 50  1  0  0  0  0
 21 51  1  0  0  0  0
 22 23  1  0  0  0  0
 23 24  2  0  0  0  0
 23 52  1  0  0  0  0
 24 25  1  0  0  0  0
 25 53  1  0  0  0  0
 25 54  1  0  0  0  0
 25 55  1  0  0  0  0
M  CHG  1   5   1
M  CHG  1  18   1
M  END
> <s_m_source_file>
AV-unprocessed.smi

> <i_m_source_file_index>
1005

> <i_lp_mmshare_version>
43012

> <i_f3d_flags>
0

> <s_epik_input>
W0NIM11jKFtjSF0xKWMoW0NIM10pW2NIXWMoYzEyKW4oW2NIXW4yKVtDSDJdW0NASF0oW09IXSlbQ0gyXU4zW0NIMl1bQ0gyXU9bQ0BIXShbQ0gyXTMpW0NIMl1OKFtDSDNdKVtDSDNd

> <s_epik_cmdline>
J2VwaWtfcHl0aG9uJywgJy1waCcsICc3LjAnLCAnLXRuJywgJzgnLCAnLW1hJywgJzIwMCcsICctbWV0YWxfYmluZGluZycsICctaW1hZScsICc8aW5maWxlLm1hZT4nLCAnLW9tYWUnLCAnPG91dGZpbGUubWFlPic=

> <r_epik_Ionization_Penalty>
1.3281

> <r_epik_Ionization_Penalty_Charging>
1.21988

> <r_epik_Ionization_Penalty_Neutral>
0.10822

> <r_epik_State_Penalty>
1.32886

> <r_epik_Charging_Adjusted_Penalty>
2.54875

> <i_epik_Tot_Q>
2

> <i_epik_Tot_abs_Q>
2

> <r_epik_Metal_State_Penalty>
5.33912

> <b_epik_Metal_Only>
0

> <s_lp_Force_Field>
OPLS_2005

> <r_lp_Energy>
45.9182

> <b_lp_Chiralities_Consistent>
1

> <s_lp_Variant>
AV-unprocessed.smi:1005-16

> <Gold.Version>
5.8.1

> <Gold.Id.Protein>
6NUR|6NUR_protein|mol2

> <Gold.PLP.Fitness>
55.5437

> <Gold.PLP.PLP>
-48.4750

> <Gold.PLP.part.hbond>
-2.9109

> <Gold.PLP.part.metal>
0.0000

> <Gold.PLP.part.buried>
-5.6256

> <Gold.PLP.part.nonpolar>
-41.2155

> <Gold.PLP.part.repulsive>
0.2191

> <Gold.PLP.ligand.clash>
0.0000

> <Gold.PLP.ligand.torsion>
1.0408

> <Gold.PLP.Chemscore.Hbond>
3.0000

> <Gold.PLP.Chemscore.CHOScore>
0.0000

> <Gold.PLP.Chemscore.Metal>
0.0000

> <Gold.Chemscore.Hbonds>
donor molecule, donor type, donor heavy atom, donor atom, acceptor molecule, acceptor atom, score
      L1  H     5    57       P1  8028  1.59
      P1  H  7989  7998       L1    10  1.00

> <Gold.PLP.Chemscore.Internal.Correction>
0.1503

> <Gold.Rescore>
     Score         DG    S(hbond)    S(metal)    S(lipo)     H(rot)  DE(clash)    DE(int)     intcor
     19.48     -20.54       1.97        0.00     126.93       2.49       0.11       0.96       ----

> <Gold.Chemscore.Fitness>
19.4757

> <Gold.Chemscore.DG>
-20.5389

> <Gold.Chemscore.ZeroCoef>
-5.4800

> <Gold.Chemscore.Hbond>
1.9704

> <Gold.Chemscore.Metal>
0.0000

> <Gold.Chemscore.Lipo>
126.9348

> <Gold.Chemscore.Internal_Hbond>
0.0000

> <Gold.Chemscore.DEClash>
0.1072

> <Gold.Chemscore.DEInternal>
0.9560

> <Gold.Chemscore.Rot>
2.4897

> <Gold.Chemscore.Internal.Correction>
   9.000000E+99

> <Gold.Chemscore.Hbonds>
donor molecule, donor type, donor heavy atom, donor atom, acceptor molecule, acceptor atom, score
      L1  H     5    57       P1  8028  0.79
      P1  H  7989  7998       L1    10  0.96

> <Gold.Chemscore.Hbond.Weighted>
-6.5812

> <Gold.Chemscore.Metal.Weighted>
-0.0000

> <Gold.Chemscore.Lipo.Weighted>
-14.8514

> <Gold.Chemscore.Internal_Hbond.Weighted>
0.0000

> <Gold.Chemscore.DEClash.Weighted>
0.1072

> <Gold.Chemscore.DEInternal.Weighted>
0.9560

> <Gold.Chemscore.Rot.Weighted>
6.3737

> <Gold.Chemscore.Internal.Correction.Weighted>
   9.000000E+99

> <Gold.Protein.RotatedTorsions>
[ 6907 6896 6895 6894 ] final  -89.99 input  -60.11 | X-H torsion
[ 7974 7965 7964 7962 ] final   85.21 input  175.53 | X-H torsion
[ 8008 7997 7996 7995 ] final    0.86 input   59.86 | X-H torsion
[ 10167 10162 10161 10158 ] final   45.96 input  -65.29 | X-H torsion
[ 10718 10713 10712 10709 ] final  174.73 input   66.30 | X-H torsion
[ 10763 10752 10751 10750 ] final  176.51 input  -60.55 | X-H torsion
[ 11005 11000 10999 10996 ] final   74.53 input  -57.11 | X-H torsion

> <Gold.Protein.ActiveResidues>
 VAL166  LYS551  ARG553  GLY616  TRP617  ASP618  TYR619  PRO620  LYS621  CYS622 
 ASP623  PHE694  ASN695  SER759  ASP760  ASP761  ALA762  ILE779  LEU786  VAL792 
 PHE793  MET794  SER795  GLU796  ALA797  LYS798  CYS799  TRP800  GLU811  SER814 

> <Gold.Protein.RotatedAtoms>
  150.6878  134.2502  159.4507 H   0  0  0  0  0  0  0  0  0  0  0  0  # atno 6907 bound_to 6896
  152.0440  134.9692  160.0583 H   0  0  0  0  0  0  0  0  0  0  0  0  # atno 6908 bound_to 6896
  152.1182  133.4304  159.4700 H   0  0  0  0  0  0  0  0  0  0  0  0  # atno 6909 bound_to 6896
  145.5886  139.2335  143.2312 H   0  0  0  0  0  0  0  0  0  0  0  0  # atno 7974 bound_to 7965
  154.6729  140.2616  155.6988 H   0  0  0  0  0  0  0  0  0  0  0  0  # atno 8008 bound_to 7997
  156.2666  140.2825  156.1168 H   0  0  0  0  0  0  0  0  0  0  0  0  # atno 8009 bound_to 7997
  155.1142  140.0376  157.2722 H   0  0  0  0  0  0  0  0  0  0  0  0  # atno 8010 bound_to 7997
  140.3188  144.2731  150.6186 H   0  0  0  0  0  0  0  0  0  0  0  0  # atno 10167 bound_to 10162
  156.9452  131.0014  151.2960 H   0  0  0  0  0  0  0  0  0  0  0  0  # atno 10718 bound_to 10713
  154.4820  135.2775  155.1563 H   0  0  0  0  0  0  0  0  0  0  0  0  # atno 10763 bound_to 10752
  154.3269  135.6198  153.5537 H   0  0  0  0  0  0  0  0  0  0  0  0  # atno 10764 bound_to 10752
  152.9876  135.5756  154.5223 H   0  0  0  0  0  0  0  0  0  0  0  0  # atno 10765 bound_to 10752
  139.9387  134.7440  156.1159 H   0  0  0  0  0  0  0  0  0  0  0  0  # atno 11005 bound_to 11000
  146.1664  140.6712  142.9253 LP  0  0  0  0  0  0  0  0  0  0  0  0  # atno 17320 bound_to 7965
  144.7362  140.4813  143.6902 LP  0  0  0  0  0  0  0  0  0  0  0  0  # atno 17321 bound_to 7965
  140.5502  143.2208  151.7939 LP  0  0  0  0  0  0  0  0  0  0  0  0  # atno 17342 bound_to 10162
  139.4878  144.4486  151.9680 LP  0  0  0  0  0  0  0  0  0  0  0  0  # atno 17343 bound_to 10162
  157.5758  130.8342  149.8454 LP  0  0  0  0  0  0  0  0  0  0  0  0  # atno 17370 bound_to 10713
  156.0387  130.3744  150.1493 LP  0  0  0  0  0  0  0  0  0  0  0  0  # atno 17371 bound_to 10713
  141.1012  133.6676  156.2758 LP  0  0  0  0  0  0  0  0  0  0  0  0  # atno 17394 bound_to 11000
  140.6009  134.5556  157.5517 LP  0  0  0  0  0  0  0  0  0  0  0  0  # atno 17395 bound_to 11000

$$$$
