AV-unprocessed.smi:560|AV-procd|sdf|2935|dock1
  -GOLD-   2262023433D 1   1.00000     0.00000
 Structure written by MMmdl.
 41 42  0  0  0  0  0  0  0  0  3 V2000
  149.7110  140.7409  158.2978 C   0  0  0  0  0  0  0  0  0  0  0  0
  151.1619  140.8292  157.7816 C   0  0  1  0  0  0  0  0  0  0  0  0
  151.3157  140.3335  156.3341 C   0  0  0  0  0  0  0  0  0  0  0  0
  152.4083  140.3662  155.7667 O   0  0  0  0  0  0  0  0  0  0  0  0
  150.1985  139.8803  155.7430 N   0  0  0  0  0  0  0  0  0  0  0  0
  150.1118  139.3488  154.3840 C   0  0  2  0  0  0  0  0  0  0  0  0
  148.6607  139.0047  153.9953 C   0  0  0  0  0  0  0  0  0  0  0  0
  148.1326  137.7818  154.7659 C   0  0  0  0  0  0  0  0  0  0  0  0
  149.0172  136.6040  154.5780 N   0  3  2  0  0  0  0  0  0  0  0  0
  148.4575  135.3778  155.1997 C   0  0  0  0  0  0  0  0  0  0  0  0
  149.0025  134.1294  154.4981 C   0  0  0  0  0  0  0  0  0  0  0  0
  148.4215  133.9169  153.3022 N   0  5  0  0  0  0  0  0  0  0  0  0
  149.8634  133.4486  155.0518 O   0  0  0  0  0  0  0  0  0  0  0  0
  150.4136  136.8919  155.0044 C   0  0  0  0  0  0  0  0  0  0  0  0
  150.9941  138.0973  154.2420 C   0  0  0  0  0  0  0  0  0  0  0  0
  151.7115  142.1730  157.9238 N   0  0  0  0  0  0  0  0  0  0  0  0
  151.3271  143.3226  157.2632 C   0  0  0  0  0  0  0  0  0  0  0  0
  152.0971  144.3457  157.7369 C   0  0  0  0  0  0  0  0  0  0  0  0
  152.9299  143.7213  158.7066 C   0  0  0  0  0  0  0  0  0  0  0  0
  152.6915  142.4255  158.8225 N   0  0  0  0  0  0  0  0  0  0  0  0
  149.3316  139.7204  158.2372 H   0  0  0  0  0  0  0  0  0  0  0  0
  149.0343  141.3786  157.7277 H   0  0  0  0  0  0  0  0  0  0  0  0
  149.6516  141.0485  159.3422 H   0  0  0  0  0  0  0  0  0  0  0  0
  151.7648  140.1684  158.4069 H   0  0  0  0  0  0  0  0  0  0  0  0
  149.3468  139.8838  156.2853 H   0  0  0  0  0  0  0  0  0  0  0  0
  150.4908  140.1098  153.6994 H   0  0  0  0  0  0  0  0  0  0  0  0
  148.0047  139.8605  154.1580 H   0  0  0  0  0  0  0  0  0  0  0  0
  148.6188  138.7944  152.9259 H   0  0  0  0  0  0  0  0  0  0  0  0
  148.0471  138.0095  155.8296 H   0  0  0  0  0  0  0  0  0  0  0  0
  147.1279  137.5467  154.4122 H   0  0  0  0  0  0  0  0  0  0  0  0
  148.6457  135.3753  156.2758 H   0  0  0  0  0  0  0  0  0  0  0  0
  147.3739  135.3591  155.0762 H   0  0  0  0  0  0  0  0  0  0  0  0
  148.3687  134.6958  152.6344 H   0  0  0  0  0  0  0  0  0  0  0  0
  150.4349  137.0768  156.0795 H   0  0  0  0  0  0  0  0  0  0  0  0
  151.0496  136.0244  154.8256 H   0  0  0  0  0  0  0  0  0  0  0  0
  151.0823  137.8397  153.1857 H   0  0  0  0  0  0  0  0  0  0  0  0
  152.0073  138.3070  154.5873 H   0  0  0  0  0  0  0  0  0  0  0  0
  150.5458  143.3172  156.5173 H   0  0  0  0  0  0  0  0  0  0  0  0
  152.0685  145.3829  157.4380 H   0  0  0  0  0  0  0  0  0  0  0  0
  153.6928  144.1677  159.3275 H   0  0  0  0  0  0  0  0  0  0  0  0
  149.0434  136.4210  153.5847 H   0  0  0  0  0  0  0  0  0  0  0  0
  1  2  1  0  0  0  0
  1 21  1  0  0  0  0
  1 22  1  0  0  0  0
  1 23  1  0  0  0  0
  2  3  1  0  0  0  0
  2 16  1  0  0  0  0
  2 24  1  0  0  0  0
  3  4  2  0  0  0  0
  3  5  1  0  0  0  0
  5  6  1  0  0  0  0
  5 25  1  0  0  0  0
  6 15  1  0  0  0  0
  6  7  1  0  0  0  0
  6 26  1  0  0  0  0
  7  8  1  0  0  0  0
  7 27  1  0  0  0  0
  7 28  1  0  0  0  0
  8  9  1  0  0  0  0
  8 29  1  0  0  0  0
  8 30  1  0  0  0  0
  9 10  1  0  0  0  0
  9 14  1  0  0  0  0
  9 41  1  0  0  0  0
 10 11  1  0  0  0  0
 10 31  1  0  0  0  0
 10 32  1  0  0  0  0
 11 12  1  0  0  0  0
 11 13  2  0  0  0  0
 12 33  1  0  0  0  0
 14 15  1  0  0  0  0
 14 34  1  0  0  0  0
 14 35  1  0  0  0  0
 15 36  1  0  0  0  0
 15 37  1  0  0  0  0
 16 20  1  0  0  0  0
 16 17  1  0  0  0  0
 17 18  2  0  0  0  0
 17 38  1  0  0  0  0
 18 19  1  0  0  0  0
 18 39  1  0  0  0  0
 19 20  2  0  0  0  0
 19 40  1  0  0  0  0
M  CHG  1   9   1
M  CHG  1  12  -1
M  END
> <s_m_source_file>
AV-unprocessed.smi

> <i_m_source_file_index>
560

> <i_lp_mmshare_version>
43012

> <i_f3d_flags>
0

> <s_epik_input>
bjFbY0hdW2NIXVtjSF1uMVtDQEhdKFtDSDNdKUMoPU8pW05IXVtDSF0yW0NIMl1bQ0gyXU4oW0NIMl1bQ0gyXTIpW0NIMl1DKD1PKVtOSDJd

> <s_epik_cmdline>
J2VwaWtfcHl0aG9uJywgJy1waCcsICc3LjAnLCAnLXRuJywgJzgnLCAnLW1hJywgJzIwMCcsICctbWV0YWxfYmluZGluZycsICctaW1hZScsICc8aW5maWxlLm1hZT4nLCAnLW9tYWUnLCAnPG91dGZpbGUubWFlPic=

> <r_lp_tautomer_probability>
1

> <r_epik_Ionization_Penalty>
5.71084

> <r_epik_Ionization_Penalty_Charging>
5.71081

> <r_epik_Ionization_Penalty_Neutral>
3.04611e-05

> <r_epik_State_Penalty>
6.71277

> <r_epik_Charging_Adjusted_Penalty>
12.4236

> <i_epik_Tot_Q>
0

> <i_epik_Tot_abs_Q>
2

> <r_epik_Metal_State_Penalty>
2.67562

> <b_epik_Metal_Only>
1

> <s_lp_Force_Field>
OPLS_2005

> <r_lp_Energy>
9.86513

> <b_lp_Chiralities_Consistent>
1

> <s_lp_Variant>
AV-unprocessed.smi:560-10

> <Gold.Version>
5.8.1

> <Gold.Id.Protein>
6NUR|6NUR_protein|mol2

> <Gold.PLP.Fitness>
46.8659

> <Gold.PLP.PLP>
-33.0332

> <Gold.PLP.part.hbond>
-3.7520

> <Gold.PLP.part.metal>
0.0000

> <Gold.PLP.part.buried>
-0.6710

> <Gold.PLP.part.nonpolar>
-28.6441

> <Gold.PLP.part.repulsive>
0.1223

> <Gold.PLP.ligand.clash>
0.3792

> <Gold.PLP.ligand.torsion>
0.5559

> <Gold.PLP.Chemscore.Hbond>
4.0619

> <Gold.PLP.Chemscore.CHOScore>
1.0000

> <Gold.PLP.Chemscore.Metal>
0.0000

> <Gold.Chemscore.Hbonds>
donor molecule, donor type, donor heavy atom, donor atom, acceptor molecule, acceptor atom, score
      L1  H     9    41       P1  7948  2.00
      L1  H    12    33       P1  7948  1.00
      P1  H  7989  7998       L1     4  0.01
      P1  H  7997  8009       L1     4  1.00
      L1  C    17    38       P1  8028  1.00

> <Gold.PLP.Chemscore.Internal.Correction>
0.1381

> <Gold.Rescore>
     Score         DG    S(hbond)    S(metal)    S(lipo)     H(rot)  DE(clash)    DE(int)     intcor
     16.41     -17.70       2.89        0.00      76.15       2.47       0.77       0.52       ----

> <Gold.Chemscore.Fitness>
16.4145

> <Gold.Chemscore.DG>
-17.6980

> <Gold.Chemscore.ZeroCoef>
-5.4800

> <Gold.Chemscore.Hbond>
2.8864

> <Gold.Chemscore.Metal>
0.0000

> <Gold.Chemscore.Lipo>
76.1481

> <Gold.Chemscore.Internal_Hbond>
0.0000

> <Gold.Chemscore.DEClash>
0.7675

> <Gold.Chemscore.DEInternal>
0.5160

> <Gold.Chemscore.Rot>
2.4734

> <Gold.Chemscore.Internal.Correction>
   9.000000E+99

> <Gold.Chemscore.Hbonds>
donor molecule, donor type, donor heavy atom, donor atom, acceptor molecule, acceptor atom, score
      L1  H     9    41       P1  7948  0.99
      L1  H    12    33       P1  7948  0.29
      P1  H  7989  7998       L1     4  0.01
      P1  H  7997  8009       L1     4  0.95

> <Gold.Chemscore.Hbond.Weighted>
-9.6405

> <Gold.Chemscore.Metal.Weighted>
-0.0000

> <Gold.Chemscore.Lipo.Weighted>
-8.9093

> <Gold.Chemscore.Internal_Hbond.Weighted>
0.0000

> <Gold.Chemscore.DEClash.Weighted>
0.7675

> <Gold.Chemscore.DEInternal.Weighted>
0.5160

> <Gold.Chemscore.Rot.Weighted>
6.3318

> <Gold.Chemscore.Internal.Correction.Weighted>
   9.000000E+99

> <Gold.Protein.RotatedTorsions>
[ 6907 6896 6895 6894 ] final  -11.27 input  -60.11 | X-H torsion
[ 7974 7965 7964 7962 ] final  -43.78 input  175.53 | X-H torsion
[ 8008 7997 7996 7995 ] final -150.60 input   59.86 | X-H torsion
[ 10167 10162 10161 10158 ] final -141.78 input  -65.29 | X-H torsion
[ 10718 10713 10712 10709 ] final   87.40 input   66.30 | X-H torsion
[ 10763 10752 10751 10750 ] final  -56.58 input  -60.55 | X-H torsion
[ 11005 11000 10999 10996 ] final -125.40 input  -57.11 | X-H torsion

> <Gold.Protein.ActiveResidues>
 VAL166  LYS551  ARG553  GLY616  TRP617  ASP618  TYR619  PRO620  LYS621  CYS622 
 ASP623  PHE694  ASN695  SER759  ASP760  ASP761  ALA762  ILE779  LEU786  VAL792 
 PHE793  MET794  SER795  GLU796  ALA797  LYS798  CYS799  TRP800  GLU811  SER814 

> <Gold.Protein.RotatedAtoms>
  151.3889  135.0952  159.9519 H   0  0  0  0  0  0  0  0  0  0  0  0  # atno 6907 bound_to 6896
  152.5086  133.8999  159.7446 H   0  0  0  0  0  0  0  0  0  0  0  0  # atno 6908 bound_to 6896
  150.9448  133.6559  159.2812 H   0  0  0  0  0  0  0  0  0  0  0  0  # atno 6909 bound_to 6896
  145.9985  140.7101  142.9282 H   0  0  0  0  0  0  0  0  0  0  0  0  # atno 7974 bound_to 7965
  155.6262  140.0686  157.2663 H   0  0  0  0  0  0  0  0  0  0  0  0  # atno 8008 bound_to 7997
  154.4217  140.1775  156.1472 H   0  0  0  0  0  0  0  0  0  0  0  0  # atno 8009 bound_to 7997
  155.9970  140.3340  155.6811 H   0  0  0  0  0  0  0  0  0  0  0  0  # atno 8010 bound_to 7997
  139.8151  143.7649  152.2665 H   0  0  0  0  0  0  0  0  0  0  0  0  # atno 10167 bound_to 10162
  157.6939  131.0254  150.3118 H   0  0  0  0  0  0  0  0  0  0  0  0  # atno 10718 bound_to 10713
  154.2089  135.6398  153.5109 H   0  0  0  0  0  0  0  0  0  0  0  0  # atno 10763 bound_to 10752
  152.9994  135.5469  154.6236 H   0  0  0  0  0  0  0  0  0  0  0  0  # atno 10764 bound_to 10752
  154.5668  135.2913  155.0840 H   0  0  0  0  0  0  0  0  0  0  0  0  # atno 10765 bound_to 10752
  140.9765  134.0733  157.3813 H   0  0  0  0  0  0  0  0  0  0  0  0  # atno 11005 bound_to 11000
  144.6911  140.3192  143.7235 LP  0  0  0  0  0  0  0  0  0  0  0  0  # atno 17320 bound_to 7965
  145.7523  139.1798  143.2314 LP  0  0  0  0  0  0  0  0  0  0  0  0  # atno 17321 bound_to 7965
  139.7810  144.7444  151.0088 LP  0  0  0  0  0  0  0  0  0  0  0  0  # atno 17342 bound_to 10162
  140.7816  143.4542  151.0369 LP  0  0  0  0  0  0  0  0  0  0  0  0  # atno 17343 bound_to 10162
  156.3618  130.3848  149.7245 LP  0  0  0  0  0  0  0  0  0  0  0  0  # atno 17370 bound_to 10713
  156.4688  130.7987  151.3005 LP  0  0  0  0  0  0  0  0  0  0  0  0  # atno 17371 bound_to 10713
  139.8932  135.0129  156.6889 LP  0  0  0  0  0  0  0  0  0  0  0  0  # atno 17394 bound_to 11000
  140.7251  133.9107  155.8173 LP  0  0  0  0  0  0  0  0  0  0  0  0  # atno 17395 bound_to 11000

$$$$
