AV-unprocessed.smi:155|AV-procd|sdf|1273|dock7
  -GOLD-   2262018533D 1   1.00000     0.00000
 Structure written by MMmdl.
 63 66  0  0  0  0  0  0  0  0  2 V2000
  146.6499  137.3876  162.5165 C   0  0  0  0  0  0  0  0  0  0  0  0
  146.7758  136.3058  161.5457 N   0  0  0  0  0  0  0  0  0  0  0  0
  147.4229  135.1788  162.2031 C   0  0  0  0  0  0  0  0  0  0  0  0
  147.5716  136.7175  160.3886 C   0  0  0  0  0  0  0  0  0  0  0  0
  147.7179  135.5782  159.3579 C   0  0  0  0  0  0  0  0  0  0  0  0
  148.3565  136.0467  158.1001 N   0  3  2  0  0  0  0  0  0  0  0  0
  147.4811  136.9458  157.2921 C   0  0  0  0  0  0  0  0  0  0  0  0
  148.0402  137.2943  155.8963 C   0  0  0  0  0  0  0  0  0  0  0  0
  149.4879  137.8211  155.9095 C   0  0  0  0  0  0  0  0  0  0  0  0
  150.4287  136.8853  156.5348 N   0  0  0  0  0  0  0  0  0  0  0  0
  151.3935  137.3736  157.3631 C   0  0  0  0  0  0  0  0  0  0  0  0
  152.2494  136.4859  157.9356 N   0  0  0  0  0  0  0  0  0  0  0  0
  153.2236  136.9021  158.7483 C   0  0  0  0  0  0  0  0  0  0  0  0
  153.5234  138.1467  159.1186 N   0  0  0  0  0  0  0  0  0  0  0  0
  152.6728  139.0481  158.5515 C   0  0  0  0  0  0  0  0  0  0  0  0
  151.5887  138.7541  157.6741 C   0  0  0  0  0  0  0  0  0  0  0  0
  150.9638  139.9400  157.3016 N   0  0  0  0  0  0  0  0  0  0  0  0
  151.6230  140.8711  157.9334 C   0  0  0  0  0  0  0  0  0  0  0  0
  152.6660  140.4230  158.7085 N   0  0  0  0  0  0  0  0  0  0  0  0
  153.5611  141.2319  159.5192 C   0  0  0  0  0  0  0  0  0  0  0  0
  152.8353  142.1722  160.5080 C   0  0  1  0  0  0  0  0  0  0  0  0
  153.3349  142.0008  161.8207 O   0  0  0  0  0  0  0  0  0  0  0  0
  152.8408  143.6690  160.1190 C   0  0  1  0  0  0  0  0  0  0  0  0
  152.4798  143.9877  158.6617 C   0  0  0  0  0  0  0  0  0  0  0  0
  151.7572  145.3270  158.7437 C   0  0  0  0  0  0  0  0  0  0  0  0
  151.8144  145.6984  160.2248 C   0  0  0  0  0  0  0  0  0  0  0  0
  151.9304  144.4481  160.8816 O   0  0  0  0  0  0  0  0  0  0  0  0
  150.1777  135.4449  156.4373 C   0  0  0  0  0  0  0  0  0  0  0  0
  148.9987  134.9528  157.3186 C   0  0  0  0  0  0  0  0  0  0  0  0
  146.1236  138.2438  162.0965 H   0  0  0  0  0  0  0  0  0  0  0  0
  147.6262  137.7255  162.8667 H   0  0  0  0  0  0  0  0  0  0  0  0
  146.0778  137.0537  163.3829 H   0  0  0  0  0  0  0  0  0  0  0  0
  147.5101  134.3334  161.5196 H   0  0  0  0  0  0  0  0  0  0  0  0
  146.8366  134.8471  163.0610 H   0  0  0  0  0  0  0  0  0  0  0  0
  148.4226  135.4414  162.5525 H   0  0  0  0  0  0  0  0  0  0  0  0
  147.1140  137.5914  159.9221 H   0  0  0  0  0  0  0  0  0  0  0  0
  148.5603  137.0402  160.7145 H   0  0  0  0  0  0  0  0  0  0  0  0
  148.2866  134.7610  159.7999 H   0  0  0  0  0  0  0  0  0  0  0  0
  146.7386  135.1578  159.1266 H   0  0  0  0  0  0  0  0  0  0  0  0
  146.5006  136.4841  157.1688 H   0  0  0  0  0  0  0  0  0  0  0  0
  147.3228  137.8728  157.8426 H   0  0  0  0  0  0  0  0  0  0  0  0
  147.9617  136.4309  155.2351 H   0  0  0  0  0  0  0  0  0  0  0  0
  147.3988  138.0507  155.4430 H   0  0  0  0  0  0  0  0  0  0  0  0
  149.8202  138.0218  154.8907 H   0  0  0  0  0  0  0  0  0  0  0  0
  149.4906  138.7775  156.4342 H   0  0  0  0  0  0  0  0  0  0  0  0
  153.8542  136.1273  159.1590 H   0  0  0  0  0  0  0  0  0  0  0  0
  151.3652  141.9168  157.8509 H   0  0  0  0  0  0  0  0  0  0  0  0
  154.2244  140.5644  160.0703 H   0  0  0  0  0  0  0  0  0  0  0  0
  154.2007  141.8085  158.8497 H   0  0  0  0  0  0  0  0  0  0  0  0
  151.7932  141.8527  160.5446 H   0  0  0  0  0  0  0  0  0  0  0  0
  152.6864  141.5405  162.3307 H   0  0  0  0  0  0  0  0  0  0  0  0
  153.8381  144.0675  160.3162 H   0  0  0  0  0  0  0  0  0  0  0  0
  153.3708  144.0363  158.0348 H   0  0  0  0  0  0  0  0  0  0  0  0
  151.8148  143.2391  158.2303 H   0  0  0  0  0  0  0  0  0  0  0  0
  152.2127  146.0911  158.1133 H   0  0  0  0  0  0  0  0  0  0  0  0
  150.7205  145.2064  158.4275 H   0  0  0  0  0  0  0  0  0  0  0  0
  152.6968  146.3029  160.4406 H   0  0  0  0  0  0  0  0  0  0  0  0
  150.9331  146.2469  160.5573 H   0  0  0  0  0  0  0  0  0  0  0  0
  149.9626  135.2144  155.3934 H   0  0  0  0  0  0  0  0  0  0  0  0
  151.0847  134.8825  156.6598 H   0  0  0  0  0  0  0  0  0  0  0  0
  149.3983  134.1974  157.9956 H   0  0  0  0  0  0  0  0  0  0  0  0
  148.2492  134.4388  156.7155 H   0  0  0  0  0  0  0  0  0  0  0  0
  149.1336  136.6160  158.4055 H   0  0  0  0  0  0  0  0  0  0  0  0
  1  2  1  0  0  0  0
  1 30  1  0  0  0  0
  1 31  1  0  0  0  0
  1 32  1  0  0  0  0
  2  3  1  0  0  0  0
  2  4  1  0  0  0  0
  3 33  1  0  0  0  0
  3 34  1  0  0  0  0
  3 35  1  0  0  0  0
  4  5  1  0  0  0  0
  4 36  1  0  0  0  0
  4 37  1  0  0  0  0
  5  6  1  0  0  0  0
  5 38  1  0  0  0  0
  5 39  1  0  0  0  0
  6 29  1  0  0  0  0
  6  7  1  0  0  0  0
  6 63  1  0  0  0  0
  7  8  1  0  0  0  0
  7 40  1  0  0  0  0
  7 41  1  0  0  0  0
  8  9  1  0  0  0  0
  8 42  1  0  0  0  0
  8 43  1  0  0  0  0
  9 10  1  0  0  0  0
  9 44  1  0  0  0  0
  9 45  1  0  0  0  0
 10 11  1  0  0  0  0
 10 28  1  0  0  0  0
 11 16  1  0  0  0  0
 11 12  2  0  0  0  0
 12 13  1  0  0  0  0
 13 14  2  0  0  0  0
 13 46  1  0  0  0  0
 14 15  1  0  0  0  0
 15 19  1  0  0  0  0
 15 16  2  0  0  0  0
 16 17  1  0  0  0  0
 17 18  2  0  0  0  0
 18 19  1  0  0  0  0
 18 47  1  0  0  0  0
 19 20  1  0  0  0  0
 20 21  1  0  0  0  0
 20 48  1  0  0  0  0
 20 49  1  0  0  0  0
 21 22  1  0  0  0  0
 21 23  1  0  0  0  0
 21 50  1  0  0  0  0
 22 51  1  0  0  0  0
 23 27  1  0  0  0  0
 23 24  1  0  0  0  0
 23 52  1  0  0  0  0
 24 25  1  0  0  0  0
 24 53  1  0  0  0  0
 24 54  1  0  0  0  0
 25 26  1  0  0  0  0
 25 55  1  0  0  0  0
 25 56  1  0  0  0  0
 26 27  1  0  0  0  0
 26 57  1  0  0  0  0
 26 58  1  0  0  0  0
 28 29  1  0  0  0  0
 28 59  1  0  0  0  0
 28 60  1  0  0  0  0
 29 61  1  0  0  0  0
 29 62  1  0  0  0  0
M  CHG  1   6   1
M  END
> <s_m_source_file>
AV-unprocessed.smi

> <i_m_source_file_index>
155

> <i_lp_mmshare_version>
43012

> <i_f3d_flags>
0

> <s_epik_input>
W0NIM11OKFtDSDNdKVtDSDJdW0NIMl1OMVtDSDJdW0NIMl1bQ0gyXU4oW0NIMl1bQ0gyXTEpYyhuW2NIXW4yKWMoYzIzKW5bY0hdbjNbQ0gyXVtDQEhdKFtPSF0pW0NAQEhdNFtDSDJdW0NIMl1bQ0gyXU80

> <s_epik_cmdline>
J2VwaWtfcHl0aG9uJywgJy1waCcsICc3LjAnLCAnLXRuJywgJzgnLCAnLW1hJywgJzIwMCcsICctbWV0YWxfYmluZGluZycsICctaW1hZScsICc8aW5maWxlLm1hZT4nLCAnLW9tYWUnLCAnPG91dGZpbGUubWFlPic=

> <r_epik_Ionization_Penalty>
0.0619615

> <r_epik_Ionization_Penalty_Charging>
0.0161638

> <r_epik_Ionization_Penalty_Neutral>
0.0457976

> <r_epik_State_Penalty>
0.403408

> <r_epik_Charging_Adjusted_Penalty>
0.419572

> <i_epik_Tot_Q>
1

> <i_epik_Tot_abs_Q>
1

> <r_epik_Metal_State_Penalty>
0.404222

> <b_epik_Metal_Only>
0

> <s_lp_Force_Field>
OPLS_2005

> <r_lp_Energy>
55.0815

> <b_lp_Chiralities_Consistent>
1

> <s_lp_Variant>
AV-unprocessed.smi:155-7

> <Gold.Version>
5.8.1

> <Gold.Id.Protein>
6NUR|6NUR_protein|mol2

> <Gold.PLP.Fitness>
45.7105

> <Gold.PLP.PLP>
-47.5783

> <Gold.PLP.part.hbond>
-0.8545

> <Gold.PLP.part.metal>
0.0000

> <Gold.PLP.part.buried>
-8.2258

> <Gold.PLP.part.nonpolar>
-37.7722

> <Gold.PLP.part.repulsive>
0.1950

> <Gold.PLP.ligand.clash>
0.0000

> <Gold.PLP.ligand.torsion>
1.0242

> <Gold.PLP.Chemscore.Hbond>
0.0000

> <Gold.PLP.Chemscore.CHOScore>
0.0000

> <Gold.PLP.Chemscore.Metal>
0.0000

> <Gold.PLP.Chemscore.Internal.Correction>
0.1807

> <Gold.Rescore>
     Score         DG    S(hbond)    S(metal)    S(lipo)     H(rot)  DE(clash)    DE(int)     intcor
     10.04     -12.27       0.00        0.00     115.60       2.63       0.06       2.16       ----

> <Gold.Chemscore.Fitness>
10.0433

> <Gold.Chemscore.DG>
-12.2660

> <Gold.Chemscore.ZeroCoef>
-5.4800

> <Gold.Chemscore.Hbond>
0.0000

> <Gold.Chemscore.Metal>
0.0000

> <Gold.Chemscore.Lipo>
115.5975

> <Gold.Chemscore.Internal_Hbond>
0.0000

> <Gold.Chemscore.DEClash>
0.0623

> <Gold.Chemscore.DEInternal>
2.1604

> <Gold.Chemscore.Rot>
2.6324

> <Gold.Chemscore.Internal.Correction>
   9.000000E+99

> <Gold.Chemscore.Hbond.Weighted>
-0.0000

> <Gold.Chemscore.Metal.Weighted>
-0.0000

> <Gold.Chemscore.Lipo.Weighted>
-13.5249

> <Gold.Chemscore.Internal_Hbond.Weighted>
0.0000

> <Gold.Chemscore.DEClash.Weighted>
0.0623

> <Gold.Chemscore.DEInternal.Weighted>
2.1604

> <Gold.Chemscore.Rot.Weighted>
6.7389

> <Gold.Chemscore.Internal.Correction.Weighted>
   9.000000E+99

> <Gold.Protein.RotatedTorsions>
[ 6907 6896 6895 6894 ] final   42.94 input  -60.11 | X-H torsion
[ 7974 7965 7964 7962 ] final   29.40 input  175.53 | X-H torsion
[ 8008 7997 7996 7995 ] final  125.50 input   59.86 | X-H torsion
[ 10167 10162 10161 10158 ] final  159.61 input  -65.29 | X-H torsion
[ 10718 10713 10712 10709 ] final   25.11 input   66.30 | X-H torsion
[ 10763 10752 10751 10750 ] final -146.98 input  -60.55 | X-H torsion
[ 11005 11000 10999 10996 ] final  142.34 input  -57.11 | X-H torsion

> <Gold.Protein.ActiveResidues>
 VAL166  LYS551  ARG553  GLY616  TRP617  ASP618  TYR619  PRO620  LYS621  CYS622 
 ASP623  PHE694  ASN695  SER759  ASP760  ASP761  ALA762  ILE779  LEU786  VAL792 
 PHE793  MET794  SER795  GLU796  ALA797  LYS798  CYS799  TRP800  GLU811  SER814 

> <Gold.Protein.RotatedAtoms>
  152.2141  134.8474  160.0493 H   0  0  0  0  0  0  0  0  0  0  0  0  # atno 6907 bound_to 6896
  151.9281  133.3598  159.3929 H   0  0  0  0  0  0  0  0  0  0  0  0  # atno 6908 bound_to 6896
  150.6983  134.4490  159.5371 H   0  0  0  0  0  0  0  0  0  0  0  0  # atno 6909 bound_to 6896
  146.1673  139.6926  142.8992 H   0  0  0  0  0  0  0  0  0  0  0  0  # atno 7974 bound_to 7965
  156.2836  140.2715  156.1960 H   0  0  0  0  0  0  0  0  0  0  0  0  # atno 8008 bound_to 7997
  155.0410  140.0386  157.2527 H   0  0  0  0  0  0  0  0  0  0  0  0  # atno 8009 bound_to 7997
  154.7274  140.2700  155.6491 H   0  0  0  0  0  0  0  0  0  0  0  0  # atno 8010 bound_to 7997
  139.4833  144.4713  151.8572 H   0  0  0  0  0  0  0  0  0  0  0  0  # atno 10167 bound_to 10162
  157.1889  130.6837  149.6142 H   0  0  0  0  0  0  0  0  0  0  0  0  # atno 10718 bound_to 10713
  154.8309  135.3372  154.6747 H   0  0  0  0  0  0  0  0  0  0  0  0  # atno 10763 bound_to 10752
  153.7367  135.6948  153.4981 H   0  0  0  0  0  0  0  0  0  0  0  0  # atno 10764 bound_to 10752
  153.2273  135.4428  155.0508 H   0  0  0  0  0  0  0  0  0  0  0  0  # atno 10765 bound_to 10752
  140.0469  134.9276  157.0947 H   0  0  0  0  0  0  0  0  0  0  0  0  # atno 11005 bound_to 11000
  145.4433  141.0424  143.2845 LP  0  0  0  0  0  0  0  0  0  0  0  0  # atno 17320 bound_to 7965
  144.8111  139.5960  143.7029 LP  0  0  0  0  0  0  0  0  0  0  0  0  # atno 17321 bound_to 7965
  140.4182  144.2278  150.5887 LP  0  0  0  0  0  0  0  0  0  0  0  0  # atno 17342 bound_to 10162
  140.4900  143.2350  151.8833 LP  0  0  0  0  0  0  0  0  0  0  0  0  # atno 17343 bound_to 10162
  155.9714  130.4621  150.6134 LP  0  0  0  0  0  0  0  0  0  0  0  0  # atno 17370 bound_to 10713
  157.3880  131.0791  151.1419 LP  0  0  0  0  0  0  0  0  0  0  0  0  # atno 17371 bound_to 10713
  140.3979  134.2114  155.7164 LP  0  0  0  0  0  0  0  0  0  0  0  0  # atno 17394 bound_to 11000
  141.1911  133.8201  157.0891 LP  0  0  0  0  0  0  0  0  0  0  0  0  # atno 17395 bound_to 11000

$$$$
