AV-unprocessed.smi:36|AV-procd|sdf|301|dock1
  -GOLD-   2262016103D 1   1.00000     0.00000
 Structure written by MMmdl.
 63 66  0  0  0  0  0  0  0  0  2 V2000
  144.8436  134.4708  162.8911 C   0  0  0  0  0  0  0  0  0  0  0  0
  145.8843  135.2739  162.0937 C   0  0  0  0  0  0  0  0  0  0  0  0
  145.3346  136.6753  161.7798 C   0  0  0  0  0  0  0  0  0  0  0  0
  147.1852  135.3976  162.9048 C   0  0  0  0  0  0  0  0  0  0  0  0
  146.2626  134.3704  160.4538 Si  0  0  0  0  0  0  0  0  0  0  0  0
  147.1282  132.7078  160.7753 C   0  0  0  0  0  0  0  0  0  0  0  0
  144.6822  134.0811  159.4401 C   0  0  0  0  0  0  0  0  0  0  0  0
  147.2980  135.3547  159.5472 O   0  0  0  0  0  0  0  0  0  0  0  0
  147.4649  135.2184  158.1519 C   0  0  0  0  0  0  0  0  0  0  0  0
  148.2576  133.9348  157.8273 C   0  0  2  0  0  0  0  0  0  0  0  0
  149.6414  134.1752  158.0585 O   0  0  0  0  0  0  0  0  0  0  0  0
  150.2561  134.6812  156.9053 C   0  0  2  0  0  0  0  0  0  0  0  0
  150.5060  136.1530  157.0810 N   0  0  0  0  0  0  0  0  0  0  0  0
  150.3294  136.8896  158.1984 C   0  0  0  0  0  0  0  0  0  0  0  0
  150.5859  138.1931  158.1274 N   0  0  0  0  0  0  0  0  0  0  0  0
  150.9419  138.3347  156.7954 C   0  0  0  0  0  0  0  0  0  0  0  0
  151.3375  139.4651  156.0286 C   0  0  0  0  0  0  0  0  0  0  0  0
  151.4364  140.6975  156.5496 N   0  5  0  0  0  0  0  0  0  0  0  0
  151.9929  140.8713  157.7752 C   0  0  0  0  0  0  0  0  0  0  0  0
  152.7456  140.1050  158.3806 O   0  0  0  0  0  0  0  0  0  0  0  0
  151.6674  142.2058  158.3913 C   0  0  0  0  0  0  0  0  0  0  0  0
  152.5590  142.7829  159.3243 C   0  0  0  0  0  0  0  0  0  0  0  0
  152.2617  144.0197  159.9294 C   0  0  0  0  0  0  0  0  0  0  0  0
  151.0639  144.6885  159.6152 C   0  0  0  0  0  0  0  0  0  0  0  0
  150.1616  144.1172  158.6985 C   0  0  0  0  0  0  0  0  0  0  0  0
  150.4585  142.8806  158.0929 C   0  0  0  0  0  0  0  0  0  0  0  0
  151.5972  139.2560  154.7132 N   0  0  0  0  0  0  0  0  0  0  0  0
  151.4887  138.0299  154.1902 C   0  0  0  0  0  0  0  0  0  0  0  0
  151.1412  136.8885  154.7916 N   0  0  0  0  0  0  0  0  0  0  0  0
  150.8763  137.0818  156.1175 C   0  0  0  0  0  0  0  0  0  0  0  0
  149.2833  134.4278  155.7376 C   0  0  0  0  0  0  0  0  0  0  0  0
  148.2725  133.4863  156.3618 C   0  0  2  0  0  0  0  0  0  0  0  0
  147.0167  133.5407  155.7166 O   0  0  0  0  0  0  0  0  0  0  0  0
  144.6063  134.9602  163.8363 H   0  0  0  0  0  0  0  0  0  0  0  0
  145.2065  133.4690  163.1224 H   0  0  0  0  0  0  0  0  0  0  0  0
  143.9127  134.3632  162.3335 H   0  0  0  0  0  0  0  0  0  0  0  0
  144.4063  136.6208  161.2109 H   0  0  0  0  0  0  0  0  0  0  0  0
  146.0461  137.2576  161.1934 H   0  0  0  0  0  0  0  0  0  0  0  0
  145.1260  137.2333  162.6932 H   0  0  0  0  0  0  0  0  0  0  0  0
  147.0184  135.9235  163.8452 H   0  0  0  0  0  0  0  0  0  0  0  0
  147.9462  135.9474  162.3499 H   0  0  0  0  0  0  0  0  0  0  0  0
  147.5988  134.4180  163.1456 H   0  0  0  0  0  0  0  0  0  0  0  0
  146.5046  132.0410  161.3703 H   0  0  0  0  0  0  0  0  0  0  0  0
  148.0671  132.8393  161.3119 H   0  0  0  0  0  0  0  0  0  0  0  0
  147.3583  132.1881  159.8455 H   0  0  0  0  0  0  0  0  0  0  0  0
  143.9752  133.4451  159.9718 H   0  0  0  0  0  0  0  0  0  0  0  0
  144.9029  133.5951  158.4895 H   0  0  0  0  0  0  0  0  0  0  0  0
  144.1729  135.0172  159.2131 H   0  0  0  0  0  0  0  0  0  0  0  0
  146.4983  135.2332  157.6494 H   0  0  0  0  0  0  0  0  0  0  0  0
  148.0144  136.0900  157.7960 H   0  0  0  0  0  0  0  0  0  0  0  0
  147.9176  133.1294  158.4790 H   0  0  0  0  0  0  0  0  0  0  0  0
  151.2466  134.2472  156.7658 H   0  0  0  0  0  0  0  0  0  0  0  0
  149.9991  136.4422  159.1243 H   0  0  0  0  0  0  0  0  0  0  0  0
  153.4823  142.2819  159.5775 H   0  0  0  0  0  0  0  0  0  0  0  0
  152.9534  144.4539  160.6358 H   0  0  0  0  0  0  0  0  0  0  0  0
  150.8358  145.6366  160.0794 H   0  0  0  0  0  0  0  0  0  0  0  0
  149.2391  144.6257  158.4609 H   0  0  0  0  0  0  0  0  0  0  0  0
  149.7473  142.4545  157.3999 H   0  0  0  0  0  0  0  0  0  0  0  0
  151.7143  137.9516  153.1372 H   0  0  0  0  0  0  0  0  0  0  0  0
  148.7959  135.3541  155.4297 H   0  0  0  0  0  0  0  0  0  0  0  0
  149.8013  133.9990  154.8795 H   0  0  0  0  0  0  0  0  0  0  0  0
  148.6509  132.4647  156.3059 H   0  0  0  0  0  0  0  0  0  0  0  0
  146.3855  133.9030  156.3196 H   0  0  0  0  0  0  0  0  0  0  0  0
  1  2  1  0  0  0  0
  1 34  1  0  0  0  0
  1 35  1  0  0  0  0
  1 36  1  0  0  0  0
  2  3  1  0  0  0  0
  2  4  1  0  0  0  0
  2  5  1  0  0  0  0
  3 37  1  0  0  0  0
  3 38  1  0  0  0  0
  3 39  1  0  0  0  0
  4 40  1  0  0  0  0
  4 41  1  0  0  0  0
  4 42  1  0  0  0  0
  5  6  1  0  0  0  0
  5  7  1  0  0  0  0
  5  8  1  0  0  0  0
  6 43  1  0  0  0  0
  6 44  1  0  0  0  0
  6 45  1  0  0  0  0
  7 46  1  0  0  0  0
  7 47  1  0  0  0  0
  7 48  1  0  0  0  0
  8  9  1  0  0  0  0
  9 10  1  0  0  0  0
  9 49  1  0  0  0  0
  9 50  1  0  0  0  0
 10 32  1  0  0  0  0
 10 11  1  0  0  0  0
 10 51  1  0  0  0  0
 11 12  1  0  0  0  0
 12 13  1  0  0  0  0
 12 31  1  0  0  0  0
 12 52  1  0  0  0  0
 13 30  1  0  0  0  0
 13 14  1  0  0  0  0
 14 15  2  0  0  0  0
 14 53  1  0  0  0  0
 15 16  1  0  0  0  0
 16 30  2  0  0  0  0
 16 17  1  0  0  0  0
 17 18  1  0  0  0  0
 17 27  2  0  0  0  0
 18 19  1  0  0  0  0
 19 20  2  0  0  0  0
 19 21  1  0  0  0  0
 21 26  1  0  0  0  0
 21 22  2  0  0  0  0
 22 23  1  0  0  0  0
 22 54  1  0  0  0  0
 23 24  2  0  0  0  0
 23 55  1  0  0  0  0
 24 25  1  0  0  0  0
 24 56  1  0  0  0  0
 25 26  2  0  0  0  0
 25 57  1  0  0  0  0
 26 58  1  0  0  0  0
 27 28  1  0  0  0  0
 28 29  2  0  0  0  0
 28 59  1  0  0  0  0
 29 30  1  0  0  0  0
 31 32  1  0  0  0  0
 31 60  1  0  0  0  0
 31 61  1  0  0  0  0
 32 33  1  0  0  0  0
 32 62  1  0  0  0  0
 33 63  1  0  0  0  0
M  CHG  1  18  -1
M  END
> <s_m_source_file>
AV-unprocessed.smi

> <i_m_source_file_index>
36

> <i_lp_mmshare_version>
43012

> <i_f3d_flags>
0

> <s_epik_input>
W0NIM11DKFtDSDNdKShbQ0gzXSlbU2ldKFtDSDNdKShbQ0gzXSlPW0NIMl1bQ0BASF0xT1tDQEhdKFtDSDJdW0NASF0xW09IXSluKFtjSF1uMiljKGMyMyluW2NIXW5jM1tOSF1DKD1PKWM0W2NIXVtjSF1bY0hdW2NIXVtjSF00

> <s_epik_cmdline>
J2VwaWtfcHl0aG9uJywgJy1waCcsICc3LjAnLCAnLXRuJywgJzgnLCAnLW1hJywgJzIwMCcsICctbWV0YWxfYmluZGluZycsICctaW1hZScsICc8aW5maWxlLm1hZT4nLCAnLW9tYWUnLCAnPG91dGZpbGUubWFlPic=

> <r_lp_tautomer_probability>
1

> <r_epik_Ionization_Penalty>
4.75685

> <r_epik_Ionization_Penalty_Charging>
3.55822

> <r_epik_Ionization_Penalty_Neutral>
1.19863

> <r_epik_State_Penalty>
3.564

> <r_epik_Charging_Adjusted_Penalty>
7.12222

> <i_epik_Tot_Q>
-1

> <i_epik_Tot_abs_Q>
1

> <r_epik_Metal_State_Penalty>
0.523258

> <b_epik_Metal_Only>
1

> <s_epik_Chemistry_Notes>
This compound contains an acetal/aminal-like group ( X-CH(R)-Y where X, Y are N, S, or O) that may be acid/base labile, releasing an aldehyde.

> <s_lp_Force_Field>
OPLS_2005

> <r_lp_Energy>
38.2171

> <b_lp_Chiralities_Consistent>
1

> <s_lp_Variant>
AV-unprocessed.smi:36-23

> <Gold.Version>
5.8.1

> <Gold.Id.Protein>
6NUR|6NUR_protein|mol2

> <Gold.PLP.Fitness>
60.6386

> <Gold.PLP.PLP>
-48.2211

> <Gold.PLP.part.hbond>
-4.0000

> <Gold.PLP.part.metal>
0.0000

> <Gold.PLP.part.buried>
-7.1180

> <Gold.PLP.part.nonpolar>
-36.9675

> <Gold.PLP.part.repulsive>
0.2344

> <Gold.PLP.ligand.clash>
0.0000

> <Gold.PLP.ligand.torsion>
1.3424

> <Gold.PLP.Chemscore.Hbond>
3.9105

> <Gold.PLP.Chemscore.CHOScore>
0.7805

> <Gold.PLP.Chemscore.Metal>
0.0000

> <Gold.Chemscore.Hbonds>
donor molecule, donor type, donor heavy atom, donor atom, acceptor molecule, acceptor atom, score
      P1  H  6896  6907       L1    11  0.94
      P1  H  7989  7998       L1    27  1.00
      P1  H  7997  8009       L1    20  0.37
      P1  H 10752 10764       L1    29  0.52
      L1  C    28    59       P1  7949  0.78

> <Gold.PLP.Chemscore.Internal.Correction>
1.0293

> <Gold.Rescore>
     Score         DG    S(hbond)    S(metal)    S(lipo)     H(rot)  DE(clash)    DE(int)     intcor
     18.92     -20.87       2.82        0.00     109.54       2.67       0.50       1.45       ----

> <Gold.Chemscore.Fitness>
18.9240

> <Gold.Chemscore.DG>
-20.8715

> <Gold.Chemscore.ZeroCoef>
-5.4800

> <Gold.Chemscore.Hbond>
2.8177

> <Gold.Chemscore.Metal>
0.0000

> <Gold.Chemscore.Lipo>
109.5399

> <Gold.Chemscore.Internal_Hbond>
0.0000

> <Gold.Chemscore.DEClash>
0.5008

> <Gold.Chemscore.DEInternal>
1.4467

> <Gold.Chemscore.Rot>
2.6702

> <Gold.Chemscore.Internal.Correction>
   9.000000E+99

> <Gold.Chemscore.Hbonds>
donor molecule, donor type, donor heavy atom, donor atom, acceptor molecule, acceptor atom, score
      P1  H  6896  6907       L1    11  0.71
      P1  H  7989  7998       L1    27  0.87
      P1  H  7997  8009       L1    20  0.11
      P1  H 10752 10764       L1    29  0.16

> <Gold.Chemscore.Hbond.Weighted>
-9.4110

> <Gold.Chemscore.Metal.Weighted>
-0.0000

> <Gold.Chemscore.Lipo.Weighted>
-12.8162

> <Gold.Chemscore.Internal_Hbond.Weighted>
0.0000

> <Gold.Chemscore.DEClash.Weighted>
0.5008

> <Gold.Chemscore.DEInternal.Weighted>
1.4467

> <Gold.Chemscore.Rot.Weighted>
6.8358

> <Gold.Chemscore.Internal.Correction.Weighted>
   9.000000E+99

> <Gold.Protein.RotatedTorsions>
[ 6907 6896 6895 6894 ] final -122.88 input  -60.11 | X-H torsion
[ 7974 7965 7964 7962 ] final -157.57 input  175.53 | X-H torsion
[ 8008 7997 7996 7995 ] final  157.29 input   59.86 | X-H torsion
[ 10167 10162 10161 10158 ] final  106.79 input  -65.29 | X-H torsion
[ 10718 10713 10712 10709 ] final -132.85 input   66.30 | X-H torsion
[ 10763 10752 10751 10750 ] final  -58.49 input  -60.55 | X-H torsion
[ 11005 11000 10999 10996 ] final  -90.98 input  -57.11 | X-H torsion

> <Gold.Protein.ActiveResidues>
 VAL166  LYS551  ARG553  GLY616  TRP617  ASP618  TYR619  PRO620  LYS621  CYS622 
 ASP623  PHE694  ASN695  SER759  ASP760  ASP761  ALA762  ILE779  LEU786  VAL792 
 PHE793  MET794  SER795  GLU796  ALA797  LYS798  CYS799  TRP800  GLU811  SER814 

> <Gold.Protein.RotatedAtoms>
  150.8617  133.7633  159.2989 H   0  0  0  0  0  0  0  0  0  0  0  0  # atno 6907 bound_to 6896
  151.5273  135.1066  159.9903 H   0  0  0  0  0  0  0  0  0  0  0  0  # atno 6908 bound_to 6896
  152.4631  133.7821  159.6912 H   0  0  0  0  0  0  0  0  0  0  0  0  # atno 6909 bound_to 6896
  144.7542  140.3950  143.6025 H   0  0  0  0  0  0  0  0  0  0  0  0  # atno 7974 bound_to 7965
  156.2372  140.1889  156.7086 H   0  0  0  0  0  0  0  0  0  0  0  0  # atno 8008 bound_to 7997
  154.6129  140.0619  156.9544 H   0  0  0  0  0  0  0  0  0  0  0  0  # atno 8009 bound_to 7997
  155.1987  140.3290  155.4349 H   0  0  0  0  0  0  0  0  0  0  0  0  # atno 8010 bound_to 7997
  139.6980  144.7098  151.1234 H   0  0  0  0  0  0  0  0  0  0  0  0  # atno 10167 bound_to 10162
  156.2388  130.7083  151.0935 H   0  0  0  0  0  0  0  0  0  0  0  0  # atno 10718 bound_to 10713
  154.2390  135.6347  153.5200 H   0  0  0  0  0  0  0  0  0  0  0  0  # atno 10763 bound_to 10752
  152.9934  135.5537  154.5931 H   0  0  0  0  0  0  0  0  0  0  0  0  # atno 10764 bound_to 10752
  154.5432  135.2896  155.1051 H   0  0  0  0  0  0  0  0  0  0  0  0  # atno 10765 bound_to 10752
  141.1554  133.7726  156.9815 H   0  0  0  0  0  0  0  0  0  0  0  0  # atno 11005 bound_to 11000
  145.6836  139.1623  143.2687 LP  0  0  0  0  0  0  0  0  0  0  0  0  # atno 17320 bound_to 7965
  146.1532  140.6895  142.9312 LP  0  0  0  0  0  0  0  0  0  0  0  0  # atno 17321 bound_to 7965
  140.7702  143.5464  150.9254 LP  0  0  0  0  0  0  0  0  0  0  0  0  # atno 17342 bound_to 10162
  139.9145  143.6680  152.3109 LP  0  0  0  0  0  0  0  0  0  0  0  0  # atno 17343 bound_to 10162
  157.7166  131.0706  150.6302 LP  0  0  0  0  0  0  0  0  0  0  0  0  # atno 17370 bound_to 10713
  156.6374  130.4449  149.5764 LP  0  0  0  0  0  0  0  0  0  0  0  0  # atno 17371 bound_to 10713
  140.1063  134.9505  157.1998 LP  0  0  0  0  0  0  0  0  0  0  0  0  # atno 17394 bound_to 11000
  140.3252  134.2871  155.7238 LP  0  0  0  0  0  0  0  0  0  0  0  0  # atno 17395 bound_to 11000

$$$$
