AV-unprocessed.smi:697|AV-procd|sdf|3389|dock1
  -GOLD-   22720 0373D 1   1.00000     0.00000
 Structure written by MMmdl.
 44 45  0  0  0  0  0  0  0  0  1 V2000
  151.9327  140.3293  156.2748 C   0  0  0  0  0  0  0  0  0  0  0  0
  151.1289  140.2578  155.1045 O   0  0  0  0  0  0  0  0  0  0  0  0
  149.7518  139.9326  155.3012 C   0  0  1  0  0  0  0  0  0  0  0  0
  149.0548  141.0546  156.0869 C   0  0  0  0  0  0  0  0  0  0  0  0
  149.0788  139.4328  154.0095 C   0  0  0  0  0  0  0  0  0  0  0  0
  148.4339  138.3493  154.8709 C   0  0  1  0  0  0  0  0  0  0  0  0
  148.3170  137.0721  154.1757 N   0  0  0  0  0  0  0  0  0  0  0  0
  147.7871  135.9651  154.7125 C   0  0  0  0  0  0  0  0  0  0  0  0
  147.3369  135.9211  155.8571 O   0  0  0  0  0  0  0  0  0  0  0  0
  147.8071  134.9481  153.8317 N   0  0  0  0  0  0  0  0  0  0  0  0
  147.3677  133.6228  153.9905 C   0  0  0  0  0  0  0  0  0  0  0  0
  148.1691  132.5262  153.9474 C   0  0  0  0  0  0  0  0  0  0  0  0
  147.6448  131.1802  154.1098 C   0  0  0  0  0  0  0  0  0  0  0  0
  148.5598  129.9658  154.1360 C   0  0  0  0  0  0  0  0  0  0  0  0
  149.8411  130.3235  154.0412 F   0  0  0  0  0  0  0  0  0  0  0  0
  148.3981  129.3027  155.2801 F   0  0  0  0  0  0  0  0  0  0  0  0
  148.2818  129.1346  153.1316 F   0  0  0  0  0  0  0  0  0  0  0  0
  146.3197  131.0735  154.3185 C   0  0  0  0  0  0  0  0  0  0  0  0
  145.4861  132.1936  154.3435 N   0  0  0  0  0  0  0  0  0  0  0  0
  145.9171  133.4654  154.1884 C   0  0  0  0  0  0  0  0  0  0  0  0
  145.1171  134.4000  154.2180 O   0  0  0  0  0  0  0  0  0  0  0  0
  149.6486  138.4637  155.8272 C   0  0  0  0  0  0  0  0  0  0  0  0
  150.8545  137.5489  155.5309 C   0  0  0  0  0  0  0  0  0  0  0  0
  149.3436  138.2828  157.3174 C   0  0  0  0  0  0  0  0  0  0  0  0
  144.5003  132.0285  154.4873 H   0  0  0  0  0  0  0  0  0  0  0  0
  152.9310  140.6693  155.9997 H   0  0  0  0  0  0  0  0  0  0  0  0
  152.0431  139.3566  156.7531 H   0  0  0  0  0  0  0  0  0  0  0  0
  151.5333  141.0359  157.0026 H   0  0  0  0  0  0  0  0  0  0  0  0
  148.0402  140.7792  156.3742 H   0  0  0  0  0  0  0  0  0  0  0  0
  148.9682  141.9690  155.5011 H   0  0  0  0  0  0  0  0  0  0  0  0
  149.5984  141.2957  157.0006 H   0  0  0  0  0  0  0  0  0  0  0  0
  148.3731  140.1328  153.5613 H   0  0  0  0  0  0  0  0  0  0  0  0
  149.7812  139.0454  153.2690 H   0  0  0  0  0  0  0  0  0  0  0  0
  147.5003  138.6933  155.3219 H   0  0  0  0  0  0  0  0  0  0  0  0
  148.6614  137.0309  153.2277 H   0  0  0  0  0  0  0  0  0  0  0  0
  148.1522  135.1648  152.9078 H   0  0  0  0  0  0  0  0  0  0  0  0
  149.2278  132.6187  153.7693 H   0  0  0  0  0  0  0  0  0  0  0  0
  145.8034  130.1393  154.4833 H   0  0  0  0  0  0  0  0  0  0  0  0
  150.6333  136.5048  155.7548 H   0  0  0  0  0  0  0  0  0  0  0  0
  151.7229  137.8285  156.1285 H   0  0  0  0  0  0  0  0  0  0  0  0
  151.1607  137.5923  154.4858 H   0  0  0  0  0  0  0  0  0  0  0  0
  149.2055  137.2319  157.5733 H   0  0  0  0  0  0  0  0  0  0  0  0
  148.4297  138.7973  157.6132 H   0  0  0  0  0  0  0  0  0  0  0  0
  150.1515  138.6696  157.9392 H   0  0  0  0  0  0  0  0  0  0  0  0
  1  2  1  0  0  0  0
  1 26  1  0  0  0  0
  1 27  1  0  0  0  0
  1 28  1  0  0  0  0
  2  3  1  0  0  0  0
  3 22  1  0  0  0  0
  3  4  1  0  0  0  0
  3  5  1  0  0  0  0
  4 29  1  0  0  0  0
  4 30  1  0  0  0  0
  4 31  1  0  0  0  0
  5  6  1  0  0  0  0
  5 32  1  0  0  0  0
  5 33  1  0  0  0  0
  6  7  1  0  0  0  0
  6 22  1  0  0  0  0
  6 34  1  0  0  0  0
  7  8  1  0  0  0  0
  7 35  1  0  0  0  0
  8  9  2  0  0  0  0
  8 10  1  0  0  0  0
 10 11  1  0  0  0  0
 10 36  1  0  0  0  0
 11 20  1  0  0  0  0
 11 12  2  0  0  0  0
 12 13  1  0  0  0  0
 12 37  1  0  0  0  0
 13 14  1  0  0  0  0
 13 18  2  0  0  0  0
 14 15  1  0  0  0  0
 14 16  1  0  0  0  0
 14 17  1  0  0  0  0
 18 19  1  0  0  0  0
 18 38  1  0  0  0  0
 19 25  1  0  0  0  0
 19 20  1  0  0  0  0
 20 21  2  0  0  0  0
 22 23  1  0  0  0  0
 22 24  1  0  0  0  0
 23 39  1  0  0  0  0
 23 40  1  0  0  0  0
 23 41  1  0  0  0  0
 24 42  1  0  0  0  0
 24 43  1  0  0  0  0
 24 44  1  0  0  0  0
M  END
> <s_m_source_file>
AV-unprocessed.smi

> <i_m_source_file_index>
697

> <i_lp_mmshare_version>
43012

> <i_f3d_flags>
0

> <s_epik_input>
W0NIM11PW0NAQF0xKFtDSDNdKVtDSDJdW0NASF0oQzEoW0NIM10pW0NIM10pW05IXUMoPU8pW05IXWMyW2NIXWMoQyhGKShGKUYpW2NIXVtuSF1jMj1P

> <s_epik_cmdline>
J2VwaWtfcHl0aG9uJywgJy1waCcsICc3LjAnLCAnLXRuJywgJzgnLCAnLW1hJywgJzIwMCcsICctbWV0YWxfYmluZGluZycsICctaW1hZScsICc8aW5maWxlLm1hZT4nLCAnLW9tYWUnLCAnPG91dGZpbGUubWFlPic=

> <r_lp_tautomer_probability>
1

> <r_epik_Ionization_Penalty>
0.0036482

> <r_epik_Ionization_Penalty_Charging>
0.00362828

> <r_epik_Ionization_Penalty_Neutral>
1.99208e-05

> <r_epik_State_Penalty>
-0

> <r_epik_Charging_Adjusted_Penalty>
0.00362828

> <i_epik_Tot_Q>
0

> <i_epik_Tot_abs_Q>
0

> <r_epik_Metal_State_Penalty>
0.369362

> <b_epik_Metal_Only>
0

> <s_lp_Force_Field>
OPLS_2005

> <r_lp_Energy>
34.4926

> <b_lp_Chiralities_Consistent>
1

> <s_lp_Variant>
AV-unprocessed.smi:697-1

> <Gold.Version>
5.8.1

> <Gold.Id.Protein>
6NUR|6NUR_protein|mol2

> <Gold.PLP.Fitness>
36.2249

> <Gold.PLP.PLP>
-22.7582

> <Gold.PLP.part.hbond>
-3.9724

> <Gold.PLP.part.metal>
0.0000

> <Gold.PLP.part.buried>
-1.6170

> <Gold.PLP.part.nonpolar>
-18.5560

> <Gold.PLP.part.repulsive>
0.1509

> <Gold.PLP.ligand.clash>
0.0000

> <Gold.PLP.ligand.torsion>
0.9236

> <Gold.PLP.Chemscore.Hbond>
4.0000

> <Gold.PLP.Chemscore.CHOScore>
0.9508

> <Gold.PLP.Chemscore.Metal>
0.0000

> <Gold.Chemscore.Hbonds>
donor molecule, donor type, donor heavy atom, donor atom, acceptor molecule, acceptor atom, score
      L1  H     7    35       P1  7948  1.00
      L1  H    10    36       P1  7948  1.00
      L1  H    19    25       P1 10957  1.00
      P1  H  7989  7998       L1     2  1.00
      L1  C    18    38       P1 10956  0.82

> <Gold.PLP.Chemscore.Internal.Correction>
0.4615

> <Gold.Rescore>
     Score         DG    S(hbond)    S(metal)    S(lipo)     H(rot)  DE(clash)    DE(int)     intcor
     19.73     -20.72       3.77        0.00      51.32       1.31       0.14       0.86       ----

> <Gold.Chemscore.Fitness>
19.7271

> <Gold.Chemscore.DG>
-20.7211

> <Gold.Chemscore.ZeroCoef>
-5.4800

> <Gold.Chemscore.Hbond>
3.7668

> <Gold.Chemscore.Metal>
0.0000

> <Gold.Chemscore.Lipo>
51.3177

> <Gold.Chemscore.Internal_Hbond>
0.0000

> <Gold.Chemscore.DEClash>
0.1378

> <Gold.Chemscore.DEInternal>
0.8563

> <Gold.Chemscore.Rot>
1.3062

> <Gold.Chemscore.Internal.Correction>
   9.000000E+99

> <Gold.Chemscore.Hbonds>
donor molecule, donor type, donor heavy atom, donor atom, acceptor molecule, acceptor atom, score
      L1  H     7    35       P1  7948  0.95
      L1  H    10    36       P1  7948  0.92
      L1  H    19    25       P1 10957  0.26
      P1  H  7989  7998       L1     2  0.95

> <Gold.Chemscore.Hbond.Weighted>
-12.5809

> <Gold.Chemscore.Metal.Weighted>
-0.0000

> <Gold.Chemscore.Lipo.Weighted>
-6.0042

> <Gold.Chemscore.Internal_Hbond.Weighted>
0.0000

> <Gold.Chemscore.DEClash.Weighted>
0.1378

> <Gold.Chemscore.DEInternal.Weighted>
0.8563

> <Gold.Chemscore.Rot.Weighted>
3.3440

> <Gold.Chemscore.Internal.Correction.Weighted>
   9.000000E+99

> <Gold.Protein.RotatedTorsions>
[ 6907 6896 6895 6894 ] final -146.64 input  -60.11 | X-H torsion
[ 7974 7965 7964 7962 ] final  -44.26 input  175.53 | X-H torsion
[ 8008 7997 7996 7995 ] final   -7.71 input   59.86 | X-H torsion
[ 10167 10162 10161 10158 ] final  161.35 input  -65.29 | X-H torsion
[ 10718 10713 10712 10709 ] final  140.32 input   66.30 | X-H torsion
[ 10763 10752 10751 10750 ] final   11.74 input  -60.55 | X-H torsion
[ 11005 11000 10999 10996 ] final  138.02 input  -57.11 | X-H torsion

> <Gold.Protein.ActiveResidues>
 VAL166  LYS551  ARG553  GLY616  TRP617  ASP618  TYR619  PRO620  LYS621  CYS622 
 ASP623  PHE694  ASN695  SER759  ASP760  ASP761  ALA762  ILE779  LEU786  VAL792 
 PHE793  MET794  SER795  GLU796  ALA797  LYS798  CYS799  TRP800  GLU811  SER814 

> <Gold.Protein.RotatedAtoms>
  151.1445  133.4949  159.2596 H   0  0  0  0  0  0  0  0  0  0  0  0  # atno 6907 bound_to 6896
  151.1619  135.0277  159.8724 H   0  0  0  0  0  0  0  0  0  0  0  0  # atno 6908 bound_to 6896
  152.5463  134.1318  159.8495 H   0  0  0  0  0  0  0  0  0  0  0  0  # atno 6909 bound_to 6896
  145.9938  140.7151  142.9304 H   0  0  0  0  0  0  0  0  0  0  0  0  # atno 7974 bound_to 7965
  154.5812  140.2400  155.8051 H   0  0  0  0  0  0  0  0  0  0  0  0  # atno 8008 bound_to 7997
  156.2180  140.3006  155.9841 H   0  0  0  0  0  0  0  0  0  0  0  0  # atno 8009 bound_to 7997
  155.2538  140.0411  157.2980 H   0  0  0  0  0  0  0  0  0  0  0  0  # atno 8010 bound_to 7997
  139.4848  144.4545  151.8786 H   0  0  0  0  0  0  0  0  0  0  0  0  # atno 10167 bound_to 10162
  157.4046  131.1021  151.0517 H   0  0  0  0  0  0  0  0  0  0  0  0  # atno 10718 bound_to 10713
  153.1895  135.6840  153.8371 H   0  0  0  0  0  0  0  0  0  0  0  0  # atno 10763 bound_to 10752
  153.7675  135.3201  155.3348 H   0  0  0  0  0  0  0  0  0  0  0  0  # atno 10764 bound_to 10752
  154.8109  135.4718  154.0611 H   0  0  0  0  0  0  0  0  0  0  0  0  # atno 10765 bound_to 10752
  140.0154  134.9420  157.0365 H   0  0  0  0  0  0  0  0  0  0  0  0  # atno 11005 bound_to 11000
  144.6897  140.3115  143.7247 LP  0  0  0  0  0  0  0  0  0  0  0  0  # atno 17320 bound_to 7965
  145.7591  139.1818  143.2277 LP  0  0  0  0  0  0  0  0  0  0  0  0  # atno 17321 bound_to 7965
  140.4004  144.2501  150.5893 LP  0  0  0  0  0  0  0  0  0  0  0  0  # atno 17342 bound_to 10162
  140.5062  143.2303  151.8604 LP  0  0  0  0  0  0  0  0  0  0  0  0  # atno 17343 bound_to 10162
  157.1503  130.6181  149.5580 LP  0  0  0  0  0  0  0  0  0  0  0  0  # atno 17370 bound_to 10713
  155.9833  130.4851  150.6925 LP  0  0  0  0  0  0  0  0  0  0  0  0  # atno 17371 bound_to 10713
  140.4480  134.1612  155.7179 LP  0  0  0  0  0  0  0  0  0  0  0  0  # atno 17394 bound_to 11000
  141.1739  133.8553  157.1483 LP  0  0  0  0  0  0  0  0  0  0  0  0  # atno 17395 bound_to 11000

$$$$
