AV-unprocessed.smi:42|AV-procd|sdf|390|dock4
  -GOLD-   2262016243D 1   1.00000     0.00000
 Structure written by MMmdl.
 27 28  0  0  0  0  0  0  0  0  2 V2000
  153.0198  143.2155  160.5424 C   0  0  0  0  0  0  0  0  0  0  0  0
  152.5402  143.6172  159.1437 C   0  0  0  0  0  0  0  0  0  0  0  0
  151.1502  143.1540  158.8614 C   0  0  0  0  0  0  0  0  0  0  0  0
  150.0222  143.5813  159.4330 N   0  0  0  0  0  0  0  0  0  0  0  0
  149.0027  142.9104  158.7977 N   0  0  0  0  0  0  0  0  0  0  0  0
  149.5911  142.1206  157.8919 C   0  0  0  0  0  0  0  0  0  0  0  0
  148.9441  141.2246  156.8798 C   0  0  2  0  0  0  0  0  0  0  0  0
  149.9154  140.3647  156.0694 C   0  0  0  0  0  0  0  0  0  0  0  0
  149.1904  140.2318  154.7336 C   0  0  2  0  0  0  0  0  0  0  0  0
  150.0737  139.9189  153.6778 O   0  0  0  0  0  0  0  0  0  0  0  0
  148.5341  141.6054  154.5514 C   0  0  0  0  0  0  0  0  0  0  0  0
  148.2810  142.1236  155.9111 N   0  3  0  0  0  0  0  0  0  0  0  0
  150.9427  142.2537  157.8656 O   0  0  0  0  0  0  0  0  0  0  0  0
  148.1863  140.6023  157.3579 H   0  0  0  0  0  0  0  0  0  0  0  0
  148.4218  139.4609  154.8067 H   0  0  0  0  0  0  0  0  0  0  0  0
  154.0375  143.5639  160.7194 H   0  0  0  0  0  0  0  0  0  0  0  0
  153.0129  142.1318  160.6634 H   0  0  0  0  0  0  0  0  0  0  0  0
  152.3814  143.6437  161.3155 H   0  0  0  0  0  0  0  0  0  0  0  0
  152.5774  144.7015  159.0339 H   0  0  0  0  0  0  0  0  0  0  0  0
  153.2085  143.2025  158.3881 H   0  0  0  0  0  0  0  0  0  0  0  0
  150.8548  140.9015  155.9227 H   0  0  0  0  0  0  0  0  0  0  0  0
  150.1439  139.4103  156.5447 H   0  0  0  0  0  0  0  0  0  0  0  0
  149.6035  139.9785  152.8599 H   0  0  0  0  0  0  0  0  0  0  0  0
  149.2164  142.2969  154.0545 H   0  0  0  0  0  0  0  0  0  0  0  0
  147.6181  141.5555  153.9621 H   0  0  0  0  0  0  0  0  0  0  0  0
  147.2901  142.1616  156.1016 H   0  0  0  0  0  0  0  0  0  0  0  0
  148.6788  143.0493  155.9883 H   0  0  0  0  0  0  0  0  0  0  0  0
  1  2  1  0  0  0  0
  1 16  1  0  0  0  0
  1 17  1  0  0  0  0
  1 18  1  0  0  0  0
  2  3  1  0  0  0  0
  2 19  1  0  0  0  0
  2 20  1  0  0  0  0
  3 13  1  0  0  0  0
  3  4  2  0  0  0  0
  4  5  1  0  0  0  0
  5  6  2  0  0  0  0
  6  7  1  0  0  0  0
  6 13  1  0  0  0  0
  7 14  1  0  0  0  0
  7 12  1  0  0  0  0
  7  8  1  0  0  0  0
  8  9  1  0  0  0  0
  8 21  1  0  0  0  0
  8 22  1  0  0  0  0
  9 15  1  0  0  0  0
  9 10  1  0  0  0  0
  9 11  1  0  0  0  0
 10 23  1  0  0  0  0
 11 12  1  0  0  0  0
 11 24  1  0  0  0  0
 11 25  1  0  0  0  0
 12 26  1  0  0  0  0
 12 27  1  0  0  0  0
M  CHG  1  12   1
M  END
> <s_m_source_file>
AV-unprocessed.smi

> <i_m_source_file_index>
42

> <i_lp_mmshare_version>
43012

> <i_f3d_flags>
0

> <s_epik_input>
W0NIM11bQ0gyXWMxbm5jKG8xKVtDQEhdMltDSDJdW0NAQEhdKFtPSF0pW0NIMl1bTkhdMg==

> <s_epik_cmdline>
J2VwaWtfcHl0aG9uJywgJy1waCcsICc3LjAnLCAnLXRuJywgJzgnLCAnLW1hJywgJzIwMCcsICctbWV0YWxfYmluZGluZycsICctaW1hZScsICc8aW5maWxlLm1hZT4nLCAnLW9tYWUnLCAnPG91dGZpbGUubWFlPic=

> <r_lp_tautomer_probability>
1

> <r_epik_Ionization_Penalty>
0.00247063

> <r_epik_Ionization_Penalty_Charging>
0.0024706

> <r_epik_Ionization_Penalty_Neutral>
3.27814e-08

> <r_epik_State_Penalty>
0.00171198

> <r_epik_Charging_Adjusted_Penalty>
0.00418258

> <i_epik_Tot_Q>
1

> <i_epik_Tot_abs_Q>
1

> <r_epik_Metal_State_Penalty>
-0

> <b_epik_Metal_Only>
0

> <s_lp_Force_Field>
OPLS_2005

> <r_lp_Energy>
17.8578

> <b_lp_Chiralities_Consistent>
1

> <s_lp_Variant>
AV-unprocessed.smi:42-4

> <Gold.Version>
5.8.1

> <Gold.Id.Protein>
6NUR|6NUR_protein|mol2

> <Gold.PLP.Fitness>
35.3721

> <Gold.PLP.PLP>
-24.2428

> <Gold.PLP.part.hbond>
-4.3996

> <Gold.PLP.part.metal>
0.0000

> <Gold.PLP.part.buried>
-3.3341

> <Gold.PLP.part.nonpolar>
-16.6176

> <Gold.PLP.part.repulsive>
0.3688

> <Gold.PLP.ligand.clash>
0.0000

> <Gold.PLP.ligand.torsion>
0.2065

> <Gold.PLP.Chemscore.Hbond>
3.8320

> <Gold.PLP.Chemscore.CHOScore>
0.0000

> <Gold.PLP.Chemscore.Metal>
0.0000

> <Gold.Chemscore.Hbonds>
donor molecule, donor type, donor heavy atom, donor atom, acceptor molecule, acceptor atom, score
      L1  H    10    23       P1  7957  0.99
      L1  H    12    27       P1  8028  2.00
      P1  H  7989  7998       L1    10  0.80

> <Gold.PLP.Chemscore.Internal.Correction>
0.0463

> <Gold.Rescore>
     Score         DG    S(hbond)    S(metal)    S(lipo)     H(rot)  DE(clash)    DE(int)     intcor
     14.74     -14.88       2.54        0.00      48.40       1.86       0.02       0.13       ----

> <Gold.Chemscore.Fitness>
14.7368

> <Gold.Chemscore.DG>
-14.8831

> <Gold.Chemscore.ZeroCoef>
-5.4800

> <Gold.Chemscore.Hbond>
2.5430

> <Gold.Chemscore.Metal>
0.0000

> <Gold.Chemscore.Lipo>
48.3972

> <Gold.Chemscore.Internal_Hbond>
0.0000

> <Gold.Chemscore.DEClash>
0.0174

> <Gold.Chemscore.DEInternal>
0.1288

> <Gold.Chemscore.Rot>
1.8567

> <Gold.Chemscore.Internal.Correction>
   9.000000E+99

> <Gold.Chemscore.Hbonds>
donor molecule, donor type, donor heavy atom, donor atom, acceptor molecule, acceptor atom, score
      L1  H    10    23       P1  7957  0.93
      L1  H    12    27       P1  8028  0.98
      P1  H  7989  7998       L1    10  0.43

> <Gold.Chemscore.Hbond.Weighted>
-8.4937

> <Gold.Chemscore.Metal.Weighted>
-0.0000

> <Gold.Chemscore.Lipo.Weighted>
-5.6625

> <Gold.Chemscore.Internal_Hbond.Weighted>
0.0000

> <Gold.Chemscore.DEClash.Weighted>
0.0174

> <Gold.Chemscore.DEInternal.Weighted>
0.1288

> <Gold.Chemscore.Rot.Weighted>
4.7531

> <Gold.Chemscore.Internal.Correction.Weighted>
   9.000000E+99

> <Gold.Protein.RotatedTorsions>
[ 6907 6896 6895 6894 ] final -147.71 input  -60.11 | X-H torsion
[ 7974 7965 7964 7962 ] final  137.82 input  175.53 | X-H torsion
[ 8008 7997 7996 7995 ] final   59.01 input   59.86 | X-H torsion
[ 10167 10162 10161 10158 ] final  143.81 input  -65.29 | X-H torsion
[ 10718 10713 10712 10709 ] final  136.03 input   66.30 | X-H torsion
[ 10763 10752 10751 10750 ] final  -86.07 input  -60.55 | X-H torsion
[ 11005 11000 10999 10996 ] final  -48.03 input  -57.11 | X-H torsion

> <Gold.Protein.ActiveResidues>
 VAL166  LYS551  ARG553  GLY616  TRP617  ASP618  TYR619  PRO620  LYS621  CYS622 
 ASP623  PHE694  ASN695  SER759  ASP760  ASP761  ALA762  ILE779  LEU786  VAL792 
 PHE793  MET794  SER795  GLU796  ALA797  LYS798  CYS799  TRP800  GLU811  SER814 

> <Gold.Protein.RotatedAtoms>
  151.1595  133.4854  159.2594 H   0  0  0  0  0  0  0  0  0  0  0  0  # atno 6907 bound_to 6896
  151.1469  135.0207  159.8661 H   0  0  0  0  0  0  0  0  0  0  0  0  # atno 6908 bound_to 6896
  152.5463  134.1483  159.8561 H   0  0  0  0  0  0  0  0  0  0  0  0  # atno 6909 bound_to 6896
  144.9431  139.4907  143.5562 H   0  0  0  0  0  0  0  0  0  0  0  0  # atno 7974 bound_to 7965
  155.5593  140.3488  155.4487 H   0  0  0  0  0  0  0  0  0  0  0  0  # atno 8008 bound_to 7997
  156.0526  140.1321  157.0059 H   0  0  0  0  0  0  0  0  0  0  0  0  # atno 8009 bound_to 7997
  154.4441  140.1001  156.6383 H   0  0  0  0  0  0  0  0  0  0  0  0  # atno 8010 bound_to 7997
  139.4961  144.6015  151.6470 H   0  0  0  0  0  0  0  0  0  0  0  0  # atno 10167 bound_to 10162
  157.4509  131.1066  151.0035 H   0  0  0  0  0  0  0  0  0  0  0  0  # atno 10718 bound_to 10713
  154.6183  135.5462  153.7547 H   0  0  0  0  0  0  0  0  0  0  0  0  # atno 10763 bound_to 10752
  153.0226  135.6406  154.1478 H   0  0  0  0  0  0  0  0  0  0  0  0  # atno 10764 bound_to 10752
  154.1414  135.2908  155.3140 H   0  0  0  0  0  0  0  0  0  0  0  0  # atno 10765 bound_to 10752
  141.0676  133.6689  156.3382 H   0  0  0  0  0  0  0  0  0  0  0  0  # atno 11005 bound_to 11000
  146.3293  139.8464  142.8881 LP  0  0  0  0  0  0  0  0  0  0  0  0  # atno 17320 bound_to 7965
  145.2960  141.0181  143.3635 LP  0  0  0  0  0  0  0  0  0  0  0  0  # atno 17321 bound_to 7965
  140.5666  144.0179  150.6195 LP  0  0  0  0  0  0  0  0  0  0  0  0  # atno 17342 bound_to 10162
  140.3283  143.3094  152.0714 LP  0  0  0  0  0  0  0  0  0  0  0  0  # atno 17343 bound_to 10162
  157.0865  130.5924  149.5431 LP  0  0  0  0  0  0  0  0  0  0  0  0  # atno 17370 bound_to 10713
  155.9986  130.5061  150.7579 LP  0  0  0  0  0  0  0  0  0  0  0  0  # atno 17371 bound_to 10713
  140.5740  134.5812  157.5464 LP  0  0  0  0  0  0  0  0  0  0  0  0  # atno 17394 bound_to 11000
  139.9492  134.7648  156.0489 LP  0  0  0  0  0  0  0  0  0  0  0  0  # atno 17395 bound_to 11000

$$$$
