AV-unprocessed.smi:3225|AV-procd|sdf|12311|dock9
  -GOLD-   2272018153D 1   1.00000     0.00000
 Structure written by MMmdl.
 41 42  0  0  0  0  0  0  0  0  2 V2000
  146.1631  135.3442  153.2213 C   0  0  0  0  0  0  0  0  0  0  0  0
  145.5963  136.3708  152.2263 C   0  0  2  0  0  0  0  0  0  0  0  0
  145.3960  135.7737  150.8136 C   0  0  0  0  0  0  0  0  0  0  0  0
  145.2358  134.3307  150.8242 N   0  0  0  0  0  0  0  0  0  0  0  0
  144.0711  133.5942  150.7656 C   0  0  0  0  0  0  0  0  0  0  0  0
  144.4222  132.2757  150.8178 C   0  0  0  0  0  0  0  0  0  0  0  0
  145.8412  132.3065  150.9161 C   0  0  0  0  0  0  0  0  0  0  0  0
  146.3249  133.5385  150.9234 N   0  0  0  0  0  0  0  0  0  0  0  0
  146.4858  137.5528  152.1816 N   0  3  0  0  0  0  0  0  0  0  0  0
  146.5089  138.3715  153.4120 C   0  0  0  0  0  0  0  0  0  0  0  0
  147.9265  138.8758  153.7094 C   0  0  0  0  0  0  0  0  0  0  0  0
  148.6750  137.9647  154.6967 C   0  0  0  0  0  0  0  0  0  0  0  0
  149.9992  138.4890  155.0205 N   0  0  0  0  0  0  0  0  0  0  0  0
  150.1514  139.8120  155.6024 C   0  0  0  0  0  0  0  0  0  0  0  0
  151.6645  140.0723  155.6056 C   0  0  0  0  0  0  0  0  0  0  0  0
  152.3208  138.7091  155.3611 C   0  0  0  0  0  0  0  0  0  0  0  0
  151.1643  137.8437  154.8899 C   0  0  0  0  0  0  0  0  0  0  0  0
  151.3164  136.7040  154.4525 O   0  0  0  0  0  0  0  0  0  0  0  0
  145.4876  134.4989  153.3550 H   0  0  0  0  0  0  0  0  0  0  0  0
  146.3133  135.7926  154.2040 H   0  0  0  0  0  0  0  0  0  0  0  0
  147.1233  134.9522  152.8839 H   0  0  0  0  0  0  0  0  0  0  0  0
  144.6297  136.6960  152.6148 H   0  0  0  0  0  0  0  0  0  0  0  0
  144.5168  136.1988  150.3293 H   0  0  0  0  0  0  0  0  0  0  0  0
  146.2487  136.0189  150.1789 H   0  0  0  0  0  0  0  0  0  0  0  0
  143.1008  134.0629  150.6907 H   0  0  0  0  0  0  0  0  0  0  0  0
  143.7653  131.4188  150.7923 H   0  0  0  0  0  0  0  0  0  0  0  0
  146.5294  131.4769  150.9839 H   0  0  0  0  0  0  0  0  0  0  0  0
  147.4275  137.2208  152.0287 H   0  0  0  0  0  0  0  0  0  0  0  0
  145.8348  139.2213  153.3075 H   0  0  0  0  0  0  0  0  0  0  0  0
  146.1460  137.7722  154.2481 H   0  0  0  0  0  0  0  0  0  0  0  0
  148.4870  138.9469  152.7762 H   0  0  0  0  0  0  0  0  0  0  0  0
  147.8745  139.8864  154.1172 H   0  0  0  0  0  0  0  0  0  0  0  0
  148.0969  137.8577  155.6157 H   0  0  0  0  0  0  0  0  0  0  0  0
  148.7778  136.9613  154.2805 H   0  0  0  0  0  0  0  0  0  0  0  0
  149.6116  140.5655  155.0274 H   0  0  0  0  0  0  0  0  0  0  0  0
  149.7540  139.8059  156.6182 H   0  0  0  0  0  0  0  0  0  0  0  0
  151.9277  140.7590  154.8001 H   0  0  0  0  0  0  0  0  0  0  0  0
  151.9949  140.5238  156.5417 H   0  0  0  0  0  0  0  0  0  0  0  0
  153.1138  138.7598  154.6144 H   0  0  0  0  0  0  0  0  0  0  0  0
  152.7313  138.2945  156.2822 H   0  0  0  0  0  0  0  0  0  0  0  0
  146.2210  138.1324  151.3979 H   0  0  0  0  0  0  0  0  0  0  0  0
  1  2  1  0  0  0  0
  1 19  1  0  0  0  0
  1 20  1  0  0  0  0
  1 21  1  0  0  0  0
  2  3  1  0  0  0  0
  2  9  1  0  0  0  0
  2 22  1  0  0  0  0
  3  4  1  0  0  0  0
  3 23  1  0  0  0  0
  3 24  1  0  0  0  0
  4  8  1  0  0  0  0
  4  5  1  0  0  0  0
  5  6  2  0  0  0  0
  5 25  1  0  0  0  0
  6  7  1  0  0  0  0
  6 26  1  0  0  0  0
  7  8  2  0  0  0  0
  7 27  1  0  0  0  0
  9 10  1  0  0  0  0
  9 28  1  0  0  0  0
  9 41  1  0  0  0  0
 10 11  1  0  0  0  0
 10 29  1  0  0  0  0
 10 30  1  0  0  0  0
 11 12  1  0  0  0  0
 11 31  1  0  0  0  0
 11 32  1  0  0  0  0
 12 13  1  0  0  0  0
 12 33  1  0  0  0  0
 12 34  1  0  0  0  0
 13 17  1  0  0  0  0
 13 14  1  0  0  0  0
 14 15  1  0  0  0  0
 14 35  1  0  0  0  0
 14 36  1  0  0  0  0
 15 16  1  0  0  0  0
 15 37  1  0  0  0  0
 15 38  1  0  0  0  0
 16 17  1  0  0  0  0
 16 39  1  0  0  0  0
 16 40  1  0  0  0  0
 17 18  2  0  0  0  0
M  CHG  1   9   1
M  END
> <s_m_source_file>
AV-unprocessed.smi

> <i_m_source_file_index>
3225

> <i_lp_mmshare_version>
43012

> <i_f3d_flags>
0

> <s_epik_input>
bjFbY0hdW2NIXVtjSF1uMVtDSDJdW0NAQEhdKFtDSDNdKVtOSF1bQ0gyXVtDSDJdW0NIMl1OMltDSDJdW0NIMl1bQ0gyXUMyPU8=

> <s_epik_cmdline>
J2VwaWtfcHl0aG9uJywgJy1waCcsICc3LjAnLCAnLXRuJywgJzgnLCAnLW1hJywgJzIwMCcsICctbWV0YWxfYmluZGluZycsICctaW1hZScsICc8aW5maWxlLm1hZT4nLCAnLW9tYWUnLCAnPG91dGZpbGUubWFlPic=

> <r_lp_tautomer_probability>
1

> <r_epik_Ionization_Penalty>
0.00490443

> <r_epik_Ionization_Penalty_Charging>
0.00490019

> <r_epik_Ionization_Penalty_Neutral>
4.24076e-06

> <r_epik_State_Penalty>
0.00355741

> <r_epik_Charging_Adjusted_Penalty>
0.0084576

> <i_epik_Tot_Q>
1

> <i_epik_Tot_abs_Q>
1

> <r_epik_Metal_State_Penalty>
-0

> <b_epik_Metal_Only>
0

> <s_lp_Force_Field>
OPLS_2005

> <r_lp_Energy>
20.009

> <b_lp_Chiralities_Consistent>
1

> <s_lp_Variant>
AV-unprocessed.smi:3225-1

> <Gold.Version>
5.8.1

> <Gold.Id.Protein>
6NUR|6NUR_protein|mol2

> <Gold.PLP.Fitness>
46.1086

> <Gold.PLP.PLP>
-33.7322

> <Gold.PLP.part.hbond>
-2.0000

> <Gold.PLP.part.metal>
0.0000

> <Gold.PLP.part.buried>
-4.5941

> <Gold.PLP.part.nonpolar>
-28.8681

> <Gold.PLP.part.repulsive>
1.1010

> <Gold.PLP.ligand.clash>
0.0000

> <Gold.PLP.ligand.torsion>
1.3360

> <Gold.PLP.Chemscore.Hbond>
3.0000

> <Gold.PLP.Chemscore.CHOScore>
1.9983

> <Gold.PLP.Chemscore.Metal>
0.0000

> <Gold.Chemscore.Hbonds>
donor molecule, donor type, donor heavy atom, donor atom, acceptor molecule, acceptor atom, score
      L1  H     9    28       P1  7948  2.00
      P1  H 10752 10763       L1    18  1.00
      L1  C     5    25       P1 10186  1.00
      L1  C     7    27       P1 10747  0.78

> <Gold.PLP.Chemscore.Internal.Correction>
0.0538

> <Gold.Rescore>
     Score         DG    S(hbond)    S(metal)    S(lipo)     H(rot)  DE(clash)    DE(int)     intcor
     13.91     -15.34       2.00        0.00      75.16       2.19       0.13       1.31       ----

> <Gold.Chemscore.Fitness>
13.9074

> <Gold.Chemscore.DG>
-15.3405

> <Gold.Chemscore.ZeroCoef>
-5.4800

> <Gold.Chemscore.Hbond>
1.9967

> <Gold.Chemscore.Metal>
0.0000

> <Gold.Chemscore.Lipo>
75.1604

> <Gold.Chemscore.Internal_Hbond>
0.0000

> <Gold.Chemscore.DEClash>
0.1260

> <Gold.Chemscore.DEInternal>
1.3071

> <Gold.Chemscore.Rot>
2.1884

> <Gold.Chemscore.Internal.Correction>
   9.000000E+99

> <Gold.Chemscore.Hbonds>
donor molecule, donor type, donor heavy atom, donor atom, acceptor molecule, acceptor atom, score
      L1  H     9    28       P1  7948  1.00
      P1  H 10752 10763       L1    18  0.99

> <Gold.Chemscore.Hbond.Weighted>
-6.6690

> <Gold.Chemscore.Metal.Weighted>
-0.0000

> <Gold.Chemscore.Lipo.Weighted>
-8.7938

> <Gold.Chemscore.Internal_Hbond.Weighted>
0.0000

> <Gold.Chemscore.DEClash.Weighted>
0.1260

> <Gold.Chemscore.DEInternal.Weighted>
1.3071

> <Gold.Chemscore.Rot.Weighted>
5.6023

> <Gold.Chemscore.Internal.Correction.Weighted>
   9.000000E+99

> <Gold.Protein.RotatedTorsions>
[ 6907 6896 6895 6894 ] final  -18.51 input  -60.11 | X-H torsion
[ 7974 7965 7964 7962 ] final  115.94 input  175.53 | X-H torsion
[ 8008 7997 7996 7995 ] final   24.68 input   59.86 | X-H torsion
[ 10167 10162 10161 10158 ] final  -41.12 input  -65.29 | X-H torsion
[ 10718 10713 10712 10709 ] final  162.38 input   66.30 | X-H torsion
[ 10763 10752 10751 10750 ] final   47.30 input  -60.55 | X-H torsion
[ 11005 11000 10999 10996 ] final -113.75 input  -57.11 | X-H torsion

> <Gold.Protein.ActiveResidues>
 VAL166  LYS551  ARG553  GLY616  TRP617  ASP618  TYR619  PRO620  LYS621  CYS622 
 ASP623  PHE694  ASN695  SER759  ASP760  ASP761  ALA762  ILE779  LEU786  VAL792 
 PHE793  MET794  SER795  GLU796  ALA797  LYS798  CYS799  TRP800  GLU811  SER814 

> <Gold.Protein.RotatedAtoms>
  151.2772  135.0702  159.9155 H   0  0  0  0  0  0  0  0  0  0  0  0  # atno 6907 bound_to 6896
  152.5340  134.0069  159.7931 H   0  0  0  0  0  0  0  0  0  0  0  0  # atno 6908 bound_to 6896
  151.0317  133.5734  159.2691 H   0  0  0  0  0  0  0  0  0  0  0  0  # atno 6909 bound_to 6896
  145.1857  139.3026  143.4394 H   0  0  0  0  0  0  0  0  0  0  0  0  # atno 7974 bound_to 7965
  155.0000  140.3124  155.4871 H   0  0  0  0  0  0  0  0  0  0  0  0  # atno 8008 bound_to 7997
  156.2926  140.2233  156.5050 H   0  0  0  0  0  0  0  0  0  0  0  0  # atno 8009 bound_to 7997
  154.7627  140.0458  157.0974 H   0  0  0  0  0  0  0  0  0  0  0  0  # atno 8010 bound_to 7997
  140.7013  143.3113  151.3021 H   0  0  0  0  0  0  0  0  0  0  0  0  # atno 10167 bound_to 10162
  157.1234  131.0498  151.2405 H   0  0  0  0  0  0  0  0  0  0  0  0  # atno 10718 bound_to 10713
  152.9801  135.5980  154.3741 H   0  0  0  0  0  0  0  0  0  0  0  0  # atno 10763 bound_to 10752
  154.3412  135.2767  155.2423 H   0  0  0  0  0  0  0  0  0  0  0  0  # atno 10764 bound_to 10752
  154.4504  135.5991  153.6243 H   0  0  0  0  0  0  0  0  0  0  0  0  # atno 10765 bound_to 10752
  141.0595  133.9558  157.2693 H   0  0  0  0  0  0  0  0  0  0  0  0  # atno 11005 bound_to 11000
  146.3445  140.2052  142.8589 LP  0  0  0  0  0  0  0  0  0  0  0  0  # atno 17320 bound_to 7965
  145.0091  140.8699  143.5235 LP  0  0  0  0  0  0  0  0  0  0  0  0  # atno 17321 bound_to 7965
  139.6537  144.0316  152.2644 LP  0  0  0  0  0  0  0  0  0  0  0  0  # atno 17342 bound_to 10162
  139.9860  144.6395  150.7857 LP  0  0  0  0  0  0  0  0  0  0  0  0  # atno 17343 bound_to 10162
  157.4457  130.7569  149.7107 LP  0  0  0  0  0  0  0  0  0  0  0  0  # atno 17370 bound_to 10713
  155.9823  130.4010  150.3421 LP  0  0  0  0  0  0  0  0  0  0  0  0  # atno 17371 bound_to 10713
  139.9420  135.0190  156.8736 LP  0  0  0  0  0  0  0  0  0  0  0  0  # atno 17394 bound_to 11000
  140.5897  134.0273  155.7495 LP  0  0  0  0  0  0  0  0  0  0  0  0  # atno 17395 bound_to 11000

$$$$
