AV-unprocessed.smi:15|AV-procd|sdf|85|dock3
  -GOLD-   2262015223D 1   1.00000     0.00000
 Structure written by MMmdl.
 53 56  0  0  0  0  0  0  0  0  1 V2000
  153.2589  137.3385  159.7426 C   0  0  0  0  0  0  0  0  0  0  0  0
  154.0539  138.6229  159.4584 C   0  0  0  0  0  0  0  0  0  0  0  0
  153.2047  139.7858  159.1977 N   0  0  0  0  0  0  0  0  0  0  0  0
  153.7174  141.0904  159.6078 C   0  0  0  0  0  0  0  0  0  0  0  0
  152.8719  141.7251  160.7231 C   0  0  2  0  0  0  0  0  0  0  0  0
  152.4179  143.1547  160.4285 C   0  0  0  0  0  0  0  0  0  0  0  0
  152.2443  143.7685  161.8094 C   0  0  0  0  0  0  0  0  0  0  0  0
  152.9445  142.7824  162.7491 C   0  0  0  0  0  0  0  0  0  0  0  0
  153.6514  141.8932  161.8957 O   0  0  0  0  0  0  0  0  0  0  0  0
  152.6475  139.8271  157.9678 C   0  0  0  0  0  0  0  0  0  0  0  0
  153.0986  138.9348  157.0526 N   0  0  0  0  0  0  0  0  0  0  0  0
  152.5862  138.9301  155.8184 C   0  0  0  0  0  0  0  0  0  0  0  0
  151.6330  139.7122  155.3063 N   0  0  0  0  0  0  0  0  0  0  0  0
  151.1702  140.6023  156.2309 C   0  0  0  0  0  0  0  0  0  0  0  0
  151.6181  140.7278  157.5757 C   0  0  0  0  0  0  0  0  0  0  0  0
  150.9152  141.7392  158.2186 N   0  0  0  0  0  0  0  0  0  0  0  0
  150.1015  142.1905  157.3032 C   0  0  0  0  0  0  0  0  0  0  0  0
  150.1836  141.5613  156.0810 N   0  0  0  0  0  0  0  0  0  0  0  0
  149.3985  141.8601  154.8923 C   0  0  0  0  0  0  0  0  0  0  0  0
  148.7256  140.6100  154.2672 C   0  0  2  0  0  0  0  0  0  0  0  0
  149.7384  139.8424  153.6376 O   0  0  0  0  0  0  0  0  0  0  0  0
  147.6690  140.9412  153.2179 C   0  0  0  0  0  0  0  0  0  0  0  0
  146.7459  139.7338  153.2736 C   0  0  0  0  0  0  0  0  0  0  0  0
  146.6808  139.4589  154.6621 O   0  0  0  0  0  0  0  0  0  0  0  0
  147.9655  139.6698  155.2448 C   0  0  2  0  0  0  0  0  0  0  0  0
  147.7387  140.1958  156.6709 C   0  0  0  0  0  0  0  0  0  0  0  0
  153.9317  136.5192  159.9957 H   0  0  0  0  0  0  0  0  0  0  0  0
  152.6727  137.0236  158.8788 H   0  0  0  0  0  0  0  0  0  0  0  0
  152.5759  137.4779  160.5810 H   0  0  0  0  0  0  0  0  0  0  0  0
  154.6867  138.8351  160.3195 H   0  0  0  0  0  0  0  0  0  0  0  0
  154.7312  138.4629  158.6194 H   0  0  0  0  0  0  0  0  0  0  0  0
  154.7448  140.9695  159.9534 H   0  0  0  0  0  0  0  0  0  0  0  0
  153.7590  141.7734  158.7569 H   0  0  0  0  0  0  0  0  0  0  0  0
  152.0131  141.0993  160.9710 H   0  0  0  0  0  0  0  0  0  0  0  0
  153.1959  143.6930  159.8855 H   0  0  0  0  0  0  0  0  0  0  0  0
  151.5071  143.1888  159.8298 H   0  0  0  0  0  0  0  0  0  0  0  0
  152.7002  144.7581  161.8527 H   0  0  0  0  0  0  0  0  0  0  0  0
  151.1915  143.8717  162.0742 H   0  0  0  0  0  0  0  0  0  0  0  0
  153.6195  143.2765  163.4481 H   0  0  0  0  0  0  0  0  0  0  0  0
  152.2110  142.2172  163.3261 H   0  0  0  0  0  0  0  0  0  0  0  0
  152.9992  138.1943  155.1441 H   0  0  0  0  0  0  0  0  0  0  0  0
  149.4092  142.9972  157.4967 H   0  0  0  0  0  0  0  0  0  0  0  0
  148.6464  142.6033  155.1605 H   0  0  0  0  0  0  0  0  0  0  0  0
  150.0619  142.3390  154.1721 H   0  0  0  0  0  0  0  0  0  0  0  0
  149.5001  139.7192  152.7315 H   0  0  0  0  0  0  0  0  0  0  0  0
  147.1059  141.8254  153.5188 H   0  0  0  0  0  0  0  0  0  0  0  0
  148.0759  141.1281  152.2229 H   0  0  0  0  0  0  0  0  0  0  0  0
  145.7593  139.9356  152.8562 H   0  0  0  0  0  0  0  0  0  0  0  0
  147.1787  138.8815  152.7477 H   0  0  0  0  0  0  0  0  0  0  0  0
  148.4658  138.7018  155.3113 H   0  0  0  0  0  0  0  0  0  0  0  0
  148.6825  140.3709  157.1873 H   0  0  0  0  0  0  0  0  0  0  0  0
  147.1742  139.4735  157.2611 H   0  0  0  0  0  0  0  0  0  0  0  0
  147.1720  141.1271  156.6677 H   0  0  0  0  0  0  0  0  0  0  0  0
  1  2  1  0  0  0  0
  1 27  1  0  0  0  0
  1 28  1  0  0  0  0
  1 29  1  0  0  0  0
  2  3  1  0  0  0  0
  2 30  1  0  0  0  0
  2 31  1  0  0  0  0
  3  4  1  0  0  0  0
  3 10  1  0  0  0  0
  4  5  1  0  0  0  0
  4 32  1  0  0  0  0
  4 33  1  0  0  0  0
  5  9  1  0  0  0  0
  5  6  1  0  0  0  0
  5 34  1  0  0  0  0
  6  7  1  0  0  0  0
  6 35  1  0  0  0  0
  6 36  1  0  0  0  0
  7  8  1  0  0  0  0
  7 37  1  0  0  0  0
  7 38  1  0  0  0  0
  8  9  1  0  0  0  0
  8 39  1  0  0  0  0
  8 40  1  0  0  0  0
 10 15  1  0  0  0  0
 10 11  2  0  0  0  0
 11 12  1  0  0  0  0
 12 13  2  0  0  0  0
 12 41  1  0  0  0  0
 13 14  1  0  0  0  0
 14 18  1  0  0  0  0
 14 15  2  0  0  0  0
 15 16  1  0  0  0  0
 16 17  2  0  0  0  0
 17 18  1  0  0  0  0
 17 42  1  0  0  0  0
 18 19  1  0  0  0  0
 19 20  1  0  0  0  0
 19 43  1  0  0  0  0
 19 44  1  0  0  0  0
 20 25  1  0  0  0  0
 20 21  1  0  0  0  0
 20 22  1  0  0  0  0
 21 45  1  0  0  0  0
 22 23  1  0  0  0  0
 22 46  1  0  0  0  0
 22 47  1  0  0  0  0
 23 24  1  0  0  0  0
 23 48  1  0  0  0  0
 23 49  1  0  0  0  0
 24 25  1  0  0  0  0
 25 26  1  0  0  0  0
 25 50  1  0  0  0  0
 26 51  1  0  0  0  0
 26 52  1  0  0  0  0
 26 53  1  0  0  0  0
M  END
> <s_m_source_file>
AV-unprocessed.smi

> <i_m_source_file_index>
15

> <i_lp_mmshare_version>
43012

> <i_f3d_flags>
0

> <s_epik_input>
TzFbQ0gyXVtDSDJdW0NIMl1bQ0BIXTFbQ0gyXU4oW0NIMl1bQ0gzXSljKG5bY0hdbjIpYyhjMjMpbltjSF1uM1tDSDJdW0NAQF00KFtPSF0pW0NIMl1bQ0gyXU9bQ0BIXTRbQ0gzXQ==

> <s_epik_cmdline>
J2VwaWtfcHl0aG9uJywgJy1waCcsICc3LjAnLCAnLXRuJywgJzgnLCAnLW1hJywgJzIwMCcsICctbWV0YWxfYmluZGluZycsICctaW1hZScsICc8aW5maWxlLm1hZT4nLCAnLW9tYWUnLCAnPG91dGZpbGUubWFlPic=

> <r_lp_tautomer_probability>
1

> <r_epik_Ionization_Penalty>
0.00360814

> <r_epik_Ionization_Penalty_Charging>
0

> <r_epik_Ionization_Penalty_Neutral>
0.00360814

> <r_epik_State_Penalty>
0.00237482

> <r_epik_Charging_Adjusted_Penalty>
0.00237482

> <i_epik_Tot_Q>
0

> <i_epik_Tot_abs_Q>
0

> <r_epik_Metal_State_Penalty>
-0

> <b_epik_Metal_Only>
0

> <s_lp_Force_Field>
OPLS_2005

> <r_lp_Energy>
47.4065

> <b_lp_Chiralities_Consistent>
1

> <s_lp_Variant>
AV-unprocessed.smi:15-7

> <Gold.Version>
5.8.1

> <Gold.Id.Protein>
6NUR|6NUR_protein|mol2

> <Gold.PLP.Fitness>
52.3508

> <Gold.PLP.PLP>
-46.5601

> <Gold.PLP.part.hbond>
-3.9991

> <Gold.PLP.part.metal>
0.0000

> <Gold.PLP.part.buried>
0.9541

> <Gold.PLP.part.nonpolar>
-41.1684

> <Gold.PLP.part.repulsive>
0.1472

> <Gold.PLP.ligand.clash>
0.0000

> <Gold.PLP.ligand.torsion>
2.0565

> <Gold.PLP.Chemscore.Hbond>
2.2750

> <Gold.PLP.Chemscore.CHOScore>
0.8197

> <Gold.PLP.Chemscore.Metal>
0.0000

> <Gold.Chemscore.Hbonds>
donor molecule, donor type, donor heavy atom, donor atom, acceptor molecule, acceptor atom, score
      L1  H    21    45       P1  7957  1.00
      P1  H  7989  7998       L1    13  0.73
      P1  H  7997  8008       L1    11  0.23
      L1  C    17    42       P1  8028  0.75

> <Gold.PLP.Chemscore.Internal.Correction>
0.6196

> <Gold.Rescore>
     Score         DG    S(hbond)    S(metal)    S(lipo)     H(rot)  DE(clash)    DE(int)     intcor
      8.27     -15.00       1.26        0.00     104.51       2.71       2.57       4.16       ----

> <Gold.Chemscore.Fitness>
8.2681

> <Gold.Chemscore.DG>
-14.9984

> <Gold.Chemscore.ZeroCoef>
-5.4800

> <Gold.Chemscore.Hbond>
1.2639

> <Gold.Chemscore.Metal>
0.0000

> <Gold.Chemscore.Lipo>
104.5099

> <Gold.Chemscore.Internal_Hbond>
0.0000

> <Gold.Chemscore.DEClash>
2.5749

> <Gold.Chemscore.DEInternal>
4.1553

> <Gold.Chemscore.Rot>
2.7074

> <Gold.Chemscore.Internal.Correction>
   9.000000E+99

> <Gold.Chemscore.Hbonds>
donor molecule, donor type, donor heavy atom, donor atom, acceptor molecule, acceptor atom, score
      L1  H    21    45       P1  7957  0.96
      P1  H  7989  7998       L1    13  0.28

> <Gold.Chemscore.Hbond.Weighted>
-4.2215

> <Gold.Chemscore.Metal.Weighted>
-0.0000

> <Gold.Chemscore.Lipo.Weighted>
-12.2277

> <Gold.Chemscore.Internal_Hbond.Weighted>
0.0000

> <Gold.Chemscore.DEClash.Weighted>
2.5749

> <Gold.Chemscore.DEInternal.Weighted>
4.1553

> <Gold.Chemscore.Rot.Weighted>
6.9308

> <Gold.Chemscore.Internal.Correction.Weighted>
   9.000000E+99

> <Gold.Protein.RotatedTorsions>
[ 6907 6896 6895 6894 ] final  -26.58 input  -60.11 | X-H torsion
[ 7974 7965 7964 7962 ] final   22.51 input  175.53 | X-H torsion
[ 8008 7997 7996 7995 ] final  -45.81 input   59.86 | X-H torsion
[ 10167 10162 10161 10158 ] final   95.42 input  -65.29 | X-H torsion
[ 10718 10713 10712 10709 ] final  -26.20 input   66.30 | X-H torsion
[ 10763 10752 10751 10750 ] final   58.10 input  -60.55 | X-H torsion
[ 11005 11000 10999 10996 ] final  -27.87 input  -57.11 | X-H torsion

> <Gold.Protein.ActiveResidues>
 VAL166  LYS551  ARG553  GLY616  TRP617  ASP618  TYR619  PRO620  LYS621  CYS622 
 ASP623  PHE694  ASN695  SER759  ASP760  ASP761  ALA762  ILE779  LEU786  VAL792 
 PHE793  MET794  SER795  GLU796  ALA797  LYS798  CYS799  TRP800  GLU811  SER814 

> <Gold.Protein.RotatedAtoms>
  151.1590  135.0264  159.8701 H   0  0  0  0  0  0  0  0  0  0  0  0  # atno 6907 bound_to 6896
  152.5452  134.1301  159.8445 H   0  0  0  0  0  0  0  0  0  0  0  0  # atno 6908 bound_to 6896
  151.1394  133.4935  159.2630 H   0  0  0  0  0  0  0  0  0  0  0  0  # atno 6909 bound_to 6896
  146.2026  139.7875  142.8750 H   0  0  0  0  0  0  0  0  0  0  0  0  # atno 7974 bound_to 7965
  154.4003  140.1387  156.3908 H   0  0  0  0  0  0  0  0  0  0  0  0  # atno 8008 bound_to 7997
  155.7916  140.3478  155.5332 H   0  0  0  0  0  0  0  0  0  0  0  0  # atno 8009 bound_to 7997
  155.8574  140.0951  157.1626 H   0  0  0  0  0  0  0  0  0  0  0  0  # atno 8010 bound_to 7997
  139.7990  144.6821  150.9790 H   0  0  0  0  0  0  0  0  0  0  0  0  # atno 10167 bound_to 10162
  156.4543  130.4490  149.6969 H   0  0  0  0  0  0  0  0  0  0  0  0  # atno 10718 bound_to 10713
  152.9863  135.5618  154.5497 H   0  0  0  0  0  0  0  0  0  0  0  0  # atno 10763 bound_to 10752
  154.4936  135.2794  155.1479 H   0  0  0  0  0  0  0  0  0  0  0  0  # atno 10764 bound_to 10752
  154.2938  135.6321  153.5449 H   0  0  0  0  0  0  0  0  0  0  0  0  # atno 10765 bound_to 10752
  140.9158  133.7431  156.0733 H   0  0  0  0  0  0  0  0  0  0  0  0  # atno 11005 bound_to 11000
  145.3433  141.0292  143.3380 LP  0  0  0  0  0  0  0  0  0  0  0  0  # atno 17320 bound_to 7965
  144.8717  139.5029  143.6764 LP  0  0  0  0  0  0  0  0  0  0  0  0  # atno 17321 bound_to 7965
  140.7820  143.4301  151.0707 LP  0  0  0  0  0  0  0  0  0  0  0  0  # atno 17342 bound_to 10162
  139.7974  143.8132  152.3159 LP  0  0  0  0  0  0  0  0  0  0  0  0  # atno 17343 bound_to 10162
  156.3783  130.7566  151.2556 LP  0  0  0  0  0  0  0  0  0  0  0  0  # atno 17370 bound_to 10713
  157.7501  131.0303  150.4131 LP  0  0  0  0  0  0  0  0  0  0  0  0  # atno 17371 bound_to 10713
  140.8051  134.3463  157.5428 LP  0  0  0  0  0  0  0  0  0  0  0  0  # atno 17394 bound_to 11000
  139.8766  134.9221  156.3292 LP  0  0  0  0  0  0  0  0  0  0  0  0  # atno 17395 bound_to 11000

$$$$
