#       Name:                AV-unprocessed.smi:579
#       Creating user name   scv26
#       Creation time:       Thu Mar 26 23:49:24 2020


#       File generated by GOLD software.
#

@<TRIPOS>MOLECULE
AV-unprocessed.smi:579
    30    31     1
SMALL
NO_CHARGES


@<TRIPOS>ATOM
      1 ****        -4.5730   0.5363  -0.0029 N.pl3          1 S1                 0.0000
      2 ****        -3.1808   0.4649  -0.0047 C.ar           1 S1                 0.0000
      3 ****        -2.3985   1.6364  -0.0046 C.ar           1 S1                 0.0000
      4 ****        -0.9957   1.5148  -0.0059 C.ar           1 S1                 0.0000
      5 ****        -0.4264   0.2239  -0.0079 C.ar           1 S1                 0.0000
      6 ****         0.9699   0.0979  -0.0070 N.3            1 S1                 0.0000
      7 ****         1.4966  -0.4952   1.2159 C.3            1 S1                 0.0000
      8 ****         3.0348  -0.4808   1.1874 C.3            1 S1                 0.0000
      9 ****         3.4977  -1.1486   0.0168 O.3            1 S1                 0.0000
     10 ****         3.0374  -0.5196  -1.1762 C.3            1 S1                 0.0000
     11 ****         1.4995  -0.5367  -1.2077 C.3            1 S1                 0.0000
     12 ****        -1.1759  -0.9051  -0.0083 N.ar           1 S1                 0.0000
     13 ****        -2.5204  -0.7807  -0.0066 C.ar           1 S1                 0.0000
     14 ****        -5.1441  -0.2967  -0.0029 H              1 S1                 0.0000
     15 ****        -5.0564   1.4233   0.0066 H              1 S1                 0.0000
     16 ****        -2.8614   2.6125  -0.0032 H              1 S1                 0.0000
     17 ****        -0.3708   2.3960  -0.0055 H              1 S1                 0.0000
     18 ****         1.1323   0.0581   2.0823 H              1 S1                 0.0000
     19 ****         1.1385  -1.5212   1.3131 H              1 S1                 0.0000
     20 ****         3.4144   0.5421   1.2095 H              1 S1                 0.0000
     21 ****         3.4322  -0.9877   2.0667 H              1 S1                 0.0000
     22 ****         3.4163   0.5023  -1.2306 H              1 S1                 0.0000
     23 ****         3.4376  -1.0545  -2.0375 H              1 S1                 0.0000
     24 ****         1.1430  -1.5657  -1.2708 H              1 S1                 0.0000
     25 ****         1.1364  -0.0133  -2.0932 H              1 S1                 0.0000
     26 ****        -3.0824  -1.7033  -0.0065 H              1 S1                 0.0000
     27 ****         1.3090   1.0385  -0.0253 LP             1 S1                 0.0000
     28 ****         3.1673  -2.0923   0.0319 LP             1 S1                 0.0000
     29 ****         4.4977  -1.1455   0.0179 LP             1 S1                 0.0000
     30 ****        -0.7444  -1.8072  -0.0098 LP             1 S1                 0.0000
@<TRIPOS>BOND
    1    1    2 1     
    2    1   14 1     
    3    1   15 1     
    4    2   13 ar    
    5    2    3 ar    
    6    3    4 ar    
    7    3   16 1     
    8    4    5 ar    
    9    4   17 1     
   10    5    6 1     
   11    5   12 ar    
   12    6   11 1     
   13    6    7 1     
   14    7    8 1     
   15    7   18 1     
   16    7   19 1     
   17    8    9 1     
   18    8   20 1     
   19    8   21 1     
   20    9   10 1     
   21   10   11 1     
   22   10   22 1     
   23   10   23 1     
   24   11   24 1     
   25   11   25 1     
   26   12   13 ar    
   27   13   26 1     
   28    6   27 1     
   29    9   28 1     
   30    9   29 1     
   31   12   30 1     
@<TRIPOS>SUBSTRUCTURE
      1 S1             1
@<TRIPOS>SET
LONE_PAIRS      STATIC     ATOMS    <user>   **** ""
4 27 28 29 30
DONOR_HYDROGENS      STATIC     ATOMS    <user>   **** ""
2 14 15
ATOM$BLUE        STATIC     ATOMS    COLORGROUP SYSTEM
4 27 28 29 30
ATOM$RED        STATIC     ATOMS    COLORGROUP SYSTEM
2 14 15
