AV-unprocessed.smi:3288|AV-procd|sdf|12606|dock10
  -GOLD-   2272018533D 1   1.00000     0.00000
 Structure written by MMmdl.
 38 39  0  0  0  0  0  0  0  0  1 V2000
  144.6235  143.3704  155.4346 C   0  0  0  0  0  0  0  0  0  0  0  0
  145.8285  142.6864  155.7391 O   0  0  0  0  0  0  0  0  0  0  0  0
  146.0485  141.5251  154.9508 C   0  0  0  0  0  0  0  0  0  0  0  0
  147.3696  141.6001  154.1716 C   0  0  0  0  0  0  0  0  0  0  0  0
  148.4448  141.5493  155.1041 O   0  0  0  0  0  0  0  0  0  0  0  0
  149.6905  141.1436  154.6637 C   0  0  0  0  0  0  0  0  0  0  0  0
  149.8086  140.6906  153.3901 N   0  0  0  0  0  0  0  0  0  0  0  0
  151.0231  140.2931  152.9593 C   0  0  0  0  0  0  0  0  0  0  0  0
  152.1746  140.3255  153.7665 C   0  0  0  0  0  0  0  0  0  0  0  0
  152.0535  140.7965  155.0866 C   0  0  0  0  0  0  0  0  0  0  0  0
  150.7866  141.2177  155.5563 C   0  0  0  0  0  0  0  0  0  0  0  0
  150.5717  141.7084  156.8548 N   0  0  0  0  0  0  0  0  0  0  0  0
  151.6399  142.2615  157.6781 C   0  0  0  0  0  0  0  0  0  0  0  0
  152.0238  141.3191  158.8326 C   0  0  0  0  0  0  0  0  0  0  0  0
  153.0767  141.9794  159.7379 C   0  0  0  0  0  0  0  0  0  0  0  0
  152.5865  143.2221  160.2311 O   0  0  0  0  0  0  0  0  0  0  0  0
  152.3138  144.1628  159.1976 C   0  0  0  0  0  0  0  0  0  0  0  0
  151.2200  143.6163  158.2659 C   0  0  0  0  0  0  0  0  0  0  0  0
  144.5587  144.2752  156.0388 H   0  0  0  0  0  0  0  0  0  0  0  0
  143.7455  142.7634  155.6547 H   0  0  0  0  0  0  0  0  0  0  0  0
  144.5914  143.6672  154.3854 H   0  0  0  0  0  0  0  0  0  0  0  0
  145.9994  140.6209  155.5594 H   0  0  0  0  0  0  0  0  0  0  0  0
  145.2251  141.4628  154.2389 H   0  0  0  0  0  0  0  0  0  0  0  0
  147.4331  140.7574  153.4814 H   0  0  0  0  0  0  0  0  0  0  0  0
  147.4192  142.5213  153.5901 H   0  0  0  0  0  0  0  0  0  0  0  0
  151.0791  139.9389  151.9407 H   0  0  0  0  0  0  0  0  0  0  0  0
  153.1287  139.9976  153.3816 H   0  0  0  0  0  0  0  0  0  0  0  0
  152.9323  140.8255  155.7122 H   0  0  0  0  0  0  0  0  0  0  0  0
  149.6537  141.6128  157.2657 H   0  0  0  0  0  0  0  0  0  0  0  0
  152.5135  142.4366  157.0499 H   0  0  0  0  0  0  0  0  0  0  0  0
  151.1401  141.0778  159.4250 H   0  0  0  0  0  0  0  0  0  0  0  0
  152.4088  140.3733  158.4515 H   0  0  0  0  0  0  0  0  0  0  0  0
  153.3021  141.3304  160.5842 H   0  0  0  0  0  0  0  0  0  0  0  0
  154.0119  142.1341  159.1977 H   0  0  0  0  0  0  0  0  0  0  0  0
  151.9858  145.0984  159.6510 H   0  0  0  0  0  0  0  0  0  0  0  0
  153.2258  144.3820  158.6404 H   0  0  0  0  0  0  0  0  0  0  0  0
  151.0238  144.3304  157.4654 H   0  0  0  0  0  0  0  0  0  0  0  0
  150.2898  143.5097  158.8262 H   0  0  0  0  0  0  0  0  0  0  0  0
  1  2  1  0  0  0  0
  1 19  1  0  0  0  0
  1 20  1  0  0  0  0
  1 21  1  0  0  0  0
  2  3  1  0  0  0  0
  3  4  1  0  0  0  0
  3 22  1  0  0  0  0
  3 23  1  0  0  0  0
  4  5  1  0  0  0  0
  4 24  1  0  0  0  0
  4 25  1  0  0  0  0
  5  6  1  0  0  0  0
  6 11  1  0  0  0  0
  6  7  2  0  0  0  0
  7  8  1  0  0  0  0
  8  9  2  0  0  0  0
  8 26  1  0  0  0  0
  9 10  1  0  0  0  0
  9 27  1  0  0  0  0
 10 11  2  0  0  0  0
 10 28  1  0  0  0  0
 11 12  1  0  0  0  0
 12 13  1  0  0  0  0
 12 29  1  0  0  0  0
 13 18  1  0  0  0  0
 13 14  1  0  0  0  0
 13 30  1  0  0  0  0
 14 15  1  0  0  0  0
 14 31  1  0  0  0  0
 14 32  1  0  0  0  0
 15 16  1  0  0  0  0
 15 33  1  0  0  0  0
 15 34  1  0  0  0  0
 16 17  1  0  0  0  0
 17 18  1  0  0  0  0
 17 35  1  0  0  0  0
 17 36  1  0  0  0  0
 18 37  1  0  0  0  0
 18 38  1  0  0  0  0
M  END
> <s_m_source_file>
AV-unprocessed.smi

> <i_m_source_file_index>
3288

> <i_lp_mmshare_version>
43012

> <i_f3d_flags>
0

> <s_epik_input>
W0NIM11PW0NIMl1bQ0gyXU9jMW5bY0hdW2NIXVtjSF1jMVtOSF1bQ0hdMltDSDJdW0NIMl1PW0NIMl1bQ0gyXTI=

> <s_epik_cmdline>
J2VwaWtfcHl0aG9uJywgJy1waCcsICc3LjAnLCAnLXRuJywgJzgnLCAnLW1hJywgJzIwMCcsICctbWV0YWxfYmluZGluZycsICctaW1hZScsICc8aW5maWxlLm1hZT4nLCAnLW9tYWUnLCAnPG91dGZpbGUubWFlPic=

> <r_lp_tautomer_probability>
1

> <r_epik_Ionization_Penalty>
0.000236303

> <r_epik_Ionization_Penalty_Charging>
0

> <r_epik_Ionization_Penalty_Neutral>
0.000236303

> <r_epik_State_Penalty>
-0

> <r_epik_Charging_Adjusted_Penalty>
0

> <i_epik_Tot_Q>
0

> <i_epik_Tot_abs_Q>
0

> <r_epik_Metal_State_Penalty>
-0

> <b_epik_Metal_Only>
0

> <s_lp_Force_Field>
OPLS_2005

> <r_lp_Energy>
13.3054

> <b_lp_Chiralities_Consistent>
1

> <s_lp_Variant>
AV-unprocessed.smi:3288-1

> <Gold.Version>
5.8.1

> <Gold.Id.Protein>
6NUR|6NUR_protein|mol2

> <Gold.PLP.Fitness>
42.2274

> <Gold.PLP.PLP>
-41.3329

> <Gold.PLP.part.hbond>
-0.3517

> <Gold.PLP.part.metal>
0.0000

> <Gold.PLP.part.buried>
-7.9806

> <Gold.PLP.part.nonpolar>
-34.7372

> <Gold.PLP.part.repulsive>
1.7052

> <Gold.PLP.ligand.clash>
0.0000

> <Gold.PLP.ligand.torsion>
0.7600

> <Gold.PLP.Chemscore.Hbond>
0.0000

> <Gold.PLP.Chemscore.CHOScore>
0.7894

> <Gold.PLP.Chemscore.Metal>
0.0000

> <Gold.Chemscore.Hbonds>
donor molecule, donor type, donor heavy atom, donor atom, acceptor molecule, acceptor atom, score
      P1  H  8011  8017       L1     7  0.70

> <Gold.PLP.Chemscore.Internal.Correction>
0.0461

> <Gold.Rescore>
     Score         DG    S(hbond)    S(metal)    S(lipo)     H(rot)  DE(clash)    DE(int)     intcor
     12.55     -13.19       0.00        0.00     102.67       1.68       0.12       0.52       ----

> <Gold.Chemscore.Fitness>
12.5477

> <Gold.Chemscore.DG>
-13.1854

> <Gold.Chemscore.ZeroCoef>
-5.4800

> <Gold.Chemscore.Hbond>
0.0000

> <Gold.Chemscore.Metal>
0.0000

> <Gold.Chemscore.Lipo>
102.6733

> <Gold.Chemscore.Internal_Hbond>
0.0000

> <Gold.Chemscore.DEClash>
0.1201

> <Gold.Chemscore.DEInternal>
0.5177

> <Gold.Chemscore.Rot>
1.6826

> <Gold.Chemscore.Internal.Correction>
   9.000000E+99

> <Gold.Chemscore.Hbonds>
donor molecule, donor type, donor heavy atom, donor atom, acceptor molecule, acceptor atom, score
      P1  H  8011  8017       L1     7  0.02

> <Gold.Chemscore.Hbond.Weighted>
-0.0000

> <Gold.Chemscore.Metal.Weighted>
-0.0000

> <Gold.Chemscore.Lipo.Weighted>
-12.0128

> <Gold.Chemscore.Internal_Hbond.Weighted>
0.0000

> <Gold.Chemscore.DEClash.Weighted>
0.1201

> <Gold.Chemscore.DEInternal.Weighted>
0.5177

> <Gold.Chemscore.Rot.Weighted>
4.3074

> <Gold.Chemscore.Internal.Correction.Weighted>
   9.000000E+99

> <Gold.Protein.RotatedTorsions>
[ 6907 6896 6895 6894 ] final  -86.36 input  -60.11 | X-H torsion
[ 7974 7965 7964 7962 ] final -171.74 input  175.53 | X-H torsion
[ 8008 7997 7996 7995 ] final   42.15 input   59.86 | X-H torsion
[ 10167 10162 10161 10158 ] final   97.25 input  -65.29 | X-H torsion
[ 10718 10713 10712 10709 ] final   -2.34 input   66.30 | X-H torsion
[ 10763 10752 10751 10750 ] final  -30.23 input  -60.55 | X-H torsion
[ 11005 11000 10999 10996 ] final  -20.69 input  -57.11 | X-H torsion

> <Gold.Protein.ActiveResidues>
 VAL166  LYS551  ARG553  GLY616  TRP617  ASP618  TYR619  PRO620  LYS621  CYS622 
 ASP623  PHE694  ASN695  SER759  ASP760  ASP761  ALA762  ILE779  LEU786  VAL792 
 PHE793  MET794  SER795  GLU796  ALA797  LYS798  CYS799  TRP800  GLU811  SER814 

> <Gold.Protein.RotatedAtoms>
  150.6867  134.3062  159.4726 H   0  0  0  0  0  0  0  0  0  0  0  0  # atno 6907 bound_to 6896
  152.0953  134.9377  160.0580 H   0  0  0  0  0  0  0  0  0  0  0  0  # atno 6908 bound_to 6896
  152.0677  133.4057  159.4482 H   0  0  0  0  0  0  0  0  0  0  0  0  # atno 6909 bound_to 6896
  144.7153  140.1877  143.6352 H   0  0  0  0  0  0  0  0  0  0  0  0  # atno 7974 bound_to 7965
  155.2813  140.3372  155.4258 H   0  0  0  0  0  0  0  0  0  0  0  0  # atno 8008 bound_to 7997
  156.2088  140.1761  156.7781 H   0  0  0  0  0  0  0  0  0  0  0  0  # atno 8009 bound_to 7997
  154.5658  140.0679  156.8873 H   0  0  0  0  0  0  0  0  0  0  0  0  # atno 8010 bound_to 7997
  139.7819  144.6885  151.0011 H   0  0  0  0  0  0  0  0  0  0  0  0  # atno 10167 bound_to 10162
  156.7923  130.5366  149.5734 H   0  0  0  0  0  0  0  0  0  0  0  0  # atno 10718 bound_to 10713
  153.7775  135.6907  153.4894 H   0  0  0  0  0  0  0  0  0  0  0  0  # atno 10763 bound_to 10752
  153.1833  135.4498  155.0055 H   0  0  0  0  0  0  0  0  0  0  0  0  # atno 10764 bound_to 10752
  154.8094  135.3371  154.7280 H   0  0  0  0  0  0  0  0  0  0  0  0  # atno 10765 bound_to 10752
  140.8489  133.7871  155.9943 H   0  0  0  0  0  0  0  0  0  0  0  0  # atno 11005 bound_to 11000
  145.8798  139.2316  143.1612 LP  0  0  0  0  0  0  0  0  0  0  0  0  # atno 17320 bound_to 7965
  146.0006  140.8523  143.0020 LP  0  0  0  0  0  0  0  0  0  0  0  0  # atno 17321 bound_to 7965
  140.7818  143.4474  151.0462 LP  0  0  0  0  0  0  0  0  0  0  0  0  # atno 17342 bound_to 10162
  139.8154  143.7893  152.3174 LP  0  0  0  0  0  0  0  0  0  0  0  0  # atno 17343 bound_to 10162
  156.1151  130.6069  151.0108 LP  0  0  0  0  0  0  0  0  0  0  0  0  # atno 17370 bound_to 10713
  157.6594  131.0883  150.7873 LP  0  0  0  0  0  0  0  0  0  0  0  0  # atno 17371 bound_to 10713
  140.8812  134.2608  157.5143 LP  0  0  0  0  0  0  0  0  0  0  0  0  # atno 17394 bound_to 11000
  139.8704  134.9616  156.4402 LP  0  0  0  0  0  0  0  0  0  0  0  0  # atno 17395 bound_to 11000

$$$$
