#       Name:                AV-unprocessed.smi:881
#       Creating user name   scv26
#       Creation time:       Fri Mar 27 01:52:56 2020


#       File generated by GOLD software.
#

@<TRIPOS>MOLECULE
AV-unprocessed.smi:881
    36    37     1
SMALL
NO_CHARGES


@<TRIPOS>ATOM
      1 ****         2.3226   0.7675   0.6343 O.2            1 S1                 0.0000
      2 ****         1.9727  -0.2747   0.0795 C.2            1 S1                 0.0000
      3 ****         2.7771  -1.3162  -0.1971 N.am           1 S1                 0.0000
      4 ****         4.1674  -1.4481   0.0610 C.2            1 S1                 0.0000
      5 ****         4.9119  -0.4928   0.6401 N.2            1 S1                 0.0000
      6 ****         6.2401  -0.8773   0.7715 N.2            1 S1                 0.0000
      7 ****         6.4450  -2.1055   0.2871 C.2            1 S1                 0.0000
      8 ****         5.0351  -2.9128  -0.3776 S.3            1 S1                 0.0000
      9 ****         0.7163  -0.5123  -0.3264 N.am           1 S1                 0.0000
     10 ****        -0.4104   0.4083  -0.1877 C.3            1 S1                 0.0000
     11 ****        -1.0372   0.2373   1.2118 C.3            1 S1                 0.0000
     12 ****        -2.2695   1.1149   1.4915 C.3            1 S1                 0.0000
     13 ****        -3.5315   0.6175   0.7683 C.3            1 S1                 0.0000
     14 ****        -3.7131   1.1305  -0.6708 C.3            1 S1                 0.0000
     15 ****        -2.4339   1.2883  -1.5115 C.3            1 S1                 0.0000
     16 ****        -1.3924   0.1677  -1.3534 C.3            1 S1                 0.0000
     17 ****         2.3446  -2.1075  -0.6501 H              1 S1                 0.0000
     18 ****         7.4335  -2.5389   0.3209 H              1 S1                 0.0000
     19 ****         0.5218  -1.3979  -0.7700 H              1 S1                 0.0000
     20 ****        -0.0307   1.4281  -0.2762 H              1 S1                 0.0000
     21 ****        -1.2919  -0.8102   1.3795 H              1 S1                 0.0000
     22 ****        -0.2798   0.4763   1.9598 H              1 S1                 0.0000
     23 ****        -2.4624   1.0765   2.5641 H              1 S1                 0.0000
     24 ****        -2.0696   2.1626   1.2635 H              1 S1                 0.0000
     25 ****        -3.5432  -0.4731   0.7710 H              1 S1                 0.0000
     26 ****        -4.4100   0.9133   1.3429 H              1 S1                 0.0000
     27 ****        -4.4003   0.4588  -1.1866 H              1 S1                 0.0000
     28 ****        -4.2179   2.0968  -0.6426 H              1 S1                 0.0000
     29 ****        -2.7311   1.3476  -2.5591 H              1 S1                 0.0000
     30 ****        -1.9686   2.2504  -1.2941 H              1 S1                 0.0000
     31 ****        -0.8149   0.1288  -2.2785 H              1 S1                 0.0000
     32 ****        -1.8786  -0.8049  -1.2660 H              1 S1                 0.0000
     33 ****         3.2740   0.8880   0.9178 LP             1 S1                 0.0000
     34 ****         1.6553   1.4934   0.8014 LP             1 S1                 0.0000
     35 ****         4.5528   0.3907   0.9411 LP             1 S1                 0.0000
     36 ****         6.9535  -0.3064   1.1778 LP             1 S1                 0.0000
@<TRIPOS>BOND
    1    1    2 2     
    2    2    3 am    
    3    2    9 am    
    4    3    4 1     
    5    3   17 1     
    6    4    8 1     
    7    4    5 2     
    8    5    6 1     
    9    6    7 2     
   10    7    8 1     
   11    7   18 1     
   12    9   10 1     
   13    9   19 1     
   14   10   16 1     
   15   10   11 1     
   16   10   20 1     
   17   11   12 1     
   18   11   21 1     
   19   11   22 1     
   20   12   13 1     
   21   12   23 1     
   22   12   24 1     
   23   13   14 1     
   24   13   25 1     
   25   13   26 1     
   26   14   15 1     
   27   14   27 1     
   28   14   28 1     
   29   15   16 1     
   30   15   29 1     
   31   15   30 1     
   32   16   31 1     
   33   16   32 1     
   34    1   33 1     
   35    1   34 1     
   36    5   35 1     
   37    6   36 1     
@<TRIPOS>SUBSTRUCTURE
      1 S1             1
@<TRIPOS>SET
LONE_PAIRS      STATIC     ATOMS    <user>   **** ""
4 33 34 35 36
DONOR_HYDROGENS      STATIC     ATOMS    <user>   **** ""
2 17 19
ATOM$BLUE        STATIC     ATOMS    COLORGROUP SYSTEM
4 33 34 35 36
ATOM$RED        STATIC     ATOMS    COLORGROUP SYSTEM
2 17 19
