AV-unprocessed.smi:3001|AV-procd|sdf|11432|dock6
  -GOLD-   2272016363D 1   1.00000     0.00000
 Structure written by MMmdl.
 42 43  0  0  0  0  0  0  0  0  2 V2000
  146.9348  140.0061  151.5418 C   0  0  0  0  0  0  0  0  0  0  0  0
  147.6969  140.1975  152.4763 C   0  0  0  0  0  0  0  0  0  0  0  0
  148.6253  140.4308  153.5950 C   0  0  0  0  0  0  0  0  0  0  0  0
  149.3586  139.2289  153.9763 N   0  0  0  0  0  0  0  0  0  0  0  0
  150.5063  139.2043  154.6718 C   0  0  0  0  0  0  0  0  0  0  0  0
  151.0849  140.2201  155.0604 O   0  0  0  0  0  0  0  0  0  0  0  0
  151.0956  137.8154  154.9470 C   0  0  0  0  0  0  0  0  0  0  0  0
  150.2455  136.7320  154.4590 N   0  0  0  0  0  0  0  0  0  0  0  0
  150.0831  135.5487  155.0686 C   0  0  0  0  0  0  0  0  0  0  0  0
  150.6158  135.2542  156.1388 O   0  0  0  0  0  0  0  0  0  0  0  0
  149.2917  134.7333  154.3523 N   0  0  0  0  0  0  0  0  0  0  0  0
  148.9618  133.3785  154.6366 C   0  0  0  0  0  0  0  0  0  0  0  0
  149.5575  132.6989  155.7298 C   0  0  0  0  0  0  0  0  0  0  0  0
  149.1664  131.3822  156.0365 C   0  0  0  0  0  0  0  0  0  0  0  0
  148.1720  130.7695  155.2553 C   0  0  0  0  0  0  0  0  0  0  0  0
  147.6151  131.4466  154.2302 N   0  3  0  0  0  0  0  0  0  0  0  0
  147.9596  132.7100  153.8749 C   0  0  0  0  0  0  0  0  0  0  0  0
  147.2972  133.2870  152.7672 N   0  0  0  0  0  0  0  0  0  0  0  0
  146.5953  134.5577  152.9066 C   0  0  0  0  0  0  0  0  0  0  0  0
  145.7370  134.6761  151.6503 C   0  0  0  0  0  0  0  0  0  0  0  0
  145.3397  133.2268  151.3868 C   0  0  0  0  0  0  0  0  0  0  0  0
  146.5618  132.4251  151.8468 C   0  0  0  0  0  0  0  0  0  0  0  0
  146.2708  139.8393  150.7234 H   0  0  0  0  0  0  0  0  0  0  0  0
  149.3015  141.2432  153.3248 H   0  0  0  0  0  0  0  0  0  0  0  0
  148.0412  140.7719  154.4496 H   0  0  0  0  0  0  0  0  0  0  0  0
  148.9601  138.3459  153.6916 H   0  0  0  0  0  0  0  0  0  0  0  0
  152.0923  137.7350  154.5089 H   0  0  0  0  0  0  0  0  0  0  0  0
  151.2165  137.6987  156.0242 H   0  0  0  0  0  0  0  0  0  0  0  0
  149.7751  136.8873  153.5795 H   0  0  0  0  0  0  0  0  0  0  0  0
  149.0017  135.0748  153.4476 H   0  0  0  0  0  0  0  0  0  0  0  0
  150.2966  133.1781  156.3538 H   0  0  0  0  0  0  0  0  0  0  0  0
  149.6147  130.8563  156.8668 H   0  0  0  0  0  0  0  0  0  0  0  0
  147.8041  129.7669  155.4196 H   0  0  0  0  0  0  0  0  0  0  0  0
  145.9533  134.5433  153.7882 H   0  0  0  0  0  0  0  0  0  0  0  0
  147.2925  135.3906  153.0006 H   0  0  0  0  0  0  0  0  0  0  0  0
  144.8809  135.3386  151.7810 H   0  0  0  0  0  0  0  0  0  0  0  0
  146.3366  135.0549  150.8213 H   0  0  0  0  0  0  0  0  0  0  0  0
  144.4772  132.9671  152.0021 H   0  0  0  0  0  0  0  0  0  0  0  0
  145.0777  133.0390  150.3454 H   0  0  0  0  0  0  0  0  0  0  0  0
  147.2006  132.1998  150.9925 H   0  0  0  0  0  0  0  0  0  0  0  0
  146.2666  131.4826  152.3099 H   0  0  0  0  0  0  0  0  0  0  0  0
  146.8956  130.9745  153.6826 H   0  0  0  0  0  0  0  0  0  0  0  0
  1  2  3  0  0  0  0
  1 23  1  0  0  0  0
  2  3  1  0  0  0  0
  3  4  1  0  0  0  0
  3 24  1  0  0  0  0
  3 25  1  0  0  0  0
  4  5  1  0  0  0  0
  4 26  1  0  0  0  0
  5  6  2  0  0  0  0
  5  7  1  0  0  0  0
  7  8  1  0  0  0  0
  7 27  1  0  0  0  0
  7 28  1  0  0  0  0
  8  9  1  0  0  0  0
  8 29  1  0  0  0  0
  9 10  2  0  0  0  0
  9 11  1  0  0  0  0
 11 12  1  0  0  0  0
 11 30  1  0  0  0  0
 12 17  1  0  0  0  0
 12 13  2  0  0  0  0
 13 14  1  0  0  0  0
 13 31  1  0  0  0  0
 14 15  2  0  0  0  0
 14 32  1  0  0  0  0
 15 16  1  0  0  0  0
 15 33  1  0  0  0  0
 16 17  2  0  0  0  0
 16 42  1  0  0  0  0
 17 18  1  0  0  0  0
 18 22  1  0  0  0  0
 18 19  1  0  0  0  0
 19 20  1  0  0  0  0
 19 34  1  0  0  0  0
 19 35  1  0  0  0  0
 20 21  1  0  0  0  0
 20 36  1  0  0  0  0
 20 37  1  0  0  0  0
 21 22  1  0  0  0  0
 21 38  1  0  0  0  0
 21 39  1  0  0  0  0
 22 40  1  0  0  0  0
 22 41  1  0  0  0  0
M  CHG  1  16   1
M  END
> <s_m_source_file>
AV-unprocessed.smi

> <i_m_source_file_index>
3001

> <i_lp_mmshare_version>
43012

> <i_f3d_flags>
0

> <s_epik_input>
W0NIXSNDW0NIMl1bTkhdQyg9TylbQ0gyXVtOSF1DKD1PKVtOSF1jMVtjSF1bY0hdW2NIXW5jMU4yW0NIMl1bQ0gyXVtDSDJdW0NIMl0y

> <s_epik_cmdline>
J2VwaWtfcHl0aG9uJywgJy1waCcsICc3LjAnLCAnLXRuJywgJzgnLCAnLW1hJywgJzIwMCcsICctbWV0YWxfYmluZGluZycsICctaW1hZScsICc8aW5maWxlLm1hZT4nLCAnLW9tYWUnLCAnPG91dGZpbGUubWFlPic=

> <r_lp_tautomer_probability>
0.999994

> <r_epik_Ionization_Penalty>
0.644915

> <r_epik_Ionization_Penalty_Charging>
0.644896

> <r_epik_Ionization_Penalty_Neutral>
1.90142e-05

> <r_epik_State_Penalty>
0.662902

> <r_epik_Charging_Adjusted_Penalty>
1.3078

> <i_epik_Tot_Q>
1

> <i_epik_Tot_abs_Q>
1

> <r_epik_Metal_State_Penalty>
0.837036

> <b_epik_Metal_Only>
0

> <s_lp_Force_Field>
OPLS_2005

> <r_lp_Energy>
32.9475

> <b_lp_Chiralities_Consistent>
1

> <s_lp_Variant>
AV-unprocessed.smi:3001-2

> <Gold.Version>
5.8.1

> <Gold.Id.Protein>
6NUR|6NUR_protein|mol2

> <Gold.PLP.Fitness>
45.2448

> <Gold.PLP.PLP>
-34.7498

> <Gold.PLP.part.hbond>
-5.6450

> <Gold.PLP.part.metal>
0.0000

> <Gold.PLP.part.buried>
3.0722

> <Gold.PLP.part.nonpolar>
-33.1404

> <Gold.PLP.part.repulsive>
0.4409

> <Gold.PLP.ligand.clash>
0.0000

> <Gold.PLP.ligand.torsion>
0.5589

> <Gold.PLP.Chemscore.Hbond>
3.7380

> <Gold.PLP.Chemscore.CHOScore>
0.0000

> <Gold.PLP.Chemscore.Metal>
0.0000

> <Gold.Chemscore.Hbonds>
donor molecule, donor type, donor heavy atom, donor atom, acceptor molecule, acceptor atom, score
      L1  H     8    29       P1  7948  1.00
      L1  H    11    30       P1  7948  1.00
      P1  H  7989  7998       L1     6  1.00

> <Gold.PLP.Chemscore.Internal.Correction>
0.3988

> <Gold.Rescore>
     Score         DG    S(hbond)    S(metal)    S(lipo)     H(rot)  DE(clash)    DE(int)     intcor
     11.10     -15.89       2.12        0.00      69.03       1.85       1.80       2.99       ----

> <Gold.Chemscore.Fitness>
11.0972

> <Gold.Chemscore.DG>
-15.8868

> <Gold.Chemscore.ZeroCoef>
-5.4800

> <Gold.Chemscore.Hbond>
2.1193

> <Gold.Chemscore.Metal>
0.0000

> <Gold.Chemscore.Lipo>
69.0274

> <Gold.Chemscore.Internal_Hbond>
0.0000

> <Gold.Chemscore.DEClash>
1.8034

> <Gold.Chemscore.DEInternal>
2.9862

> <Gold.Chemscore.Rot>
1.8547

> <Gold.Chemscore.Internal.Correction>
   9.000000E+99

> <Gold.Chemscore.Hbonds>
donor molecule, donor type, donor heavy atom, donor atom, acceptor molecule, acceptor atom, score
      L1  H     8    29       P1  7948  0.52
      L1  H    11    30       P1  7948  0.34
      P1  H  7989  7998       L1     6  0.25

> <Gold.Chemscore.Hbond.Weighted>
-7.0785

> <Gold.Chemscore.Metal.Weighted>
-0.0000

> <Gold.Chemscore.Lipo.Weighted>
-8.0762

> <Gold.Chemscore.Internal_Hbond.Weighted>
0.0000

> <Gold.Chemscore.DEClash.Weighted>
1.8034

> <Gold.Chemscore.DEInternal.Weighted>
2.9862

> <Gold.Chemscore.Rot.Weighted>
4.7479

> <Gold.Chemscore.Internal.Correction.Weighted>
   9.000000E+99

> <Gold.Protein.RotatedTorsions>
[ 6907 6896 6895 6894 ] final -125.80 input  -60.11 | X-H torsion
[ 7974 7965 7964 7962 ] final  -13.16 input  175.53 | X-H torsion
[ 8008 7997 7996 7995 ] final  117.47 input   59.86 | X-H torsion
[ 10167 10162 10161 10158 ] final -130.41 input  -65.29 | X-H torsion
[ 10718 10713 10712 10709 ] final -111.10 input   66.30 | X-H torsion
[ 10763 10752 10751 10750 ] final -163.02 input  -60.55 | X-H torsion
[ 11005 11000 10999 10996 ] final  -49.08 input  -57.11 | X-H torsion

> <Gold.Protein.ActiveResidues>
 VAL166  LYS551  ARG553  GLY616  TRP617  ASP618  TYR619  PRO620  LYS621  CYS622 
 ASP623  PHE694  ASN695  SER759  ASP760  ASP761  ALA762  ILE779  LEU786  VAL792 
 PHE793  MET794  SER795  GLU796  ALA797  LYS798  CYS799  TRP800  GLU811  SER814 

> <Gold.Protein.RotatedAtoms>
  150.8904  133.7251  159.2906 H   0  0  0  0  0  0  0  0  0  0  0  0  # atno 6907 bound_to 6896
  151.4803  135.1050  159.9785 H   0  0  0  0  0  0  0  0  0  0  0  0  # atno 6908 bound_to 6896
  152.4816  133.8222  159.7115 H   0  0  0  0  0  0  0  0  0  0  0  0  # atno 6909 bound_to 6896
  146.2125  140.3162  142.8386 H   0  0  0  0  0  0  0  0  0  0  0  0  # atno 7974 bound_to 7965
  156.2496  140.2895  156.0683 H   0  0  0  0  0  0  0  0  0  0  0  0  # atno 8008 bound_to 7997
  155.1699  140.0401  157.2878 H   0  0  0  0  0  0  0  0  0  0  0  0  # atno 8009 bound_to 7997
  154.6333  140.2504  155.7415 H   0  0  0  0  0  0  0  0  0  0  0  0  # atno 8010 bound_to 7997
  139.9296  143.6287  152.2533 H   0  0  0  0  0  0  0  0  0  0  0  0  # atno 10167 bound_to 10162
  156.0628  130.5850  150.8327 H   0  0  0  0  0  0  0  0  0  0  0  0  # atno 10718 bound_to 10713
  154.7161  135.3016  154.9122 H   0  0  0  0  0  0  0  0  0  0  0  0  # atno 10763 bound_to 10752
  154.0008  135.6707  153.4763 H   0  0  0  0  0  0  0  0  0  0  0  0  # atno 10764 bound_to 10752
  153.0794  135.5017  154.8388 H   0  0  0  0  0  0  0  0  0  0  0  0  # atno 10765 bound_to 10752
  141.0738  133.6671  156.3533 H   0  0  0  0  0  0  0  0  0  0  0  0  # atno 11005 bound_to 11000
  144.8952  140.7574  143.5901 LP  0  0  0  0  0  0  0  0  0  0  0  0  # atno 17320 bound_to 7965
  145.3086  139.1826  143.4651 LP  0  0  0  0  0  0  0  0  0  0  0  0  # atno 17321 bound_to 7965
  139.6793  144.7656  151.1638 LP  0  0  0  0  0  0  0  0  0  0  0  0  # atno 17342 bound_to 10162
  140.7641  143.5749  150.8957 LP  0  0  0  0  0  0  0  0  0  0  0  0  # atno 17343 bound_to 10162
  157.5648  131.0946  150.9505 LP  0  0  0  0  0  0  0  0  0  0  0  0  # atno 17370 bound_to 10713
  156.9734  130.5500  149.5292 LP  0  0  0  0  0  0  0  0  0  0  0  0  # atno 17371 bound_to 10713
  140.5617  134.5928  157.5435 LP  0  0  0  0  0  0  0  0  0  0  0  0  # atno 17394 bound_to 11000
  139.9551  134.7550  156.0361 LP  0  0  0  0  0  0  0  0  0  0  0  0  # atno 17395 bound_to 11000

$$$$
